data_PCOD8002441
_publ_section_title
;
Structure prediction by ZEFSAII (Michael W. Deem and Ramdas Pophale) SiO2 
 PCOD8002441
Probable space group: P -1
;
_chemical_formula_sum "Si O2"
_cell_formula_units_Z 16
_cell_length_a 15.555151
_cell_length_b 13.731451
_cell_length_c 7.652018
_cell_angle_alpha 100.348125
_cell_angle_beta 57.672859
_cell_angle_gamma 144.417311
_cell_volume 686.842159
_symmetry_space_group_name_H-M "P -1"
_symmetry_group_IT_number 2
_symmetry_cell_setting 'triclinic'
loop_
_space_group_symop_operation_xyz
x,y,z
-x,-y,-z
loop_
_atom_site_type_symbol
_atom_site_label
_atom_site_fract_x
_atom_site_fract_y
_atom_site_fract_z
Si Si1 0.020274 0.424306 0.260541
Si Si2 0.961535 0.779162 0.774241
Si Si3 0.669594 0.561474 0.314775
Si Si4 0.646830 0.968255 0.112531
Si Si5 0.590659 0.128465 0.114028
Si Si6 0.608813 0.857490 0.500199
Si Si7 0.791999 0.409932 0.537334
Si Si8 0.931766 0.721578 0.387208
O O1 0.004189 0.296692 0.179813
O O2 0.032941 0.427943 0.458482
O O3 0.823089 0.325531 0.393599
O O4 0.215414 0.641607 0.046569
O O5 0.881972 0.709007 0.638345
O O6 0.795068 0.694541 0.045584
O O7 0.181773 0.014443 0.614628
O O8 0.500000 0.500000 0.500000
O O9 0.569049 0.368990 0.340878
O O10 0.817890 0.696099 0.365023
O O11 0.632710 0.896960 0.283024
O O12 0.429197 0.764850 0.191649
O O13 0.661706 0.100036 0.159184
O O14 0.827482 0.074765 0.836168
O O15 0.422915 0.061635 0.350542
O O16 0.500000 0.000000 0.000000
O O17 0.838872 0.534606 0.385185
#
# Coordination Sequence:
#
# PCOD8002441 Si02
#       8
#     2   2   2   2   2   2   2   2
#     4  10  20  36  61  98 150 188 233 274 332 416
#     4  11  25  46  72 105 143 187 235 293 359 423
#     4  12  28  53  77 102 136 181 242 312 367 418
#     4  12  22  39  64 102 144 188 232 278 346 421
#     4  12  22  36  64 104 148 195 236 278 339 426
#     4  12  26  45  69 105 147 186 238 294 352 425
#     4  10  20  35  61  97 141 193 224 275 333 405
#     4  11  24  45  72 104 140 185 237 293 354 425
#
# _framework density 23.295017000000001
#
# number of rings (size 3 to 8) (size 9 to 14) (size 15 to 20)
#    0.000    0.750    6.250    1.875    1.750    1.000 
#    0.000    3.125    0.000    0.000    0.000    0.000 
#    0.000    0.000    0.000    0.000    0.000    0.000 
#
# Total GULP energy -198284.293134 kJ/mol
# GULP energy per Si atom -12392.768321 kJ/mol
# Density = 2.324200 g / cm^3
# Si number density = 23.295017 Si / 1000 Ang^3
#
#
#
# Elastic Constant Matrix: (Units=GPa)
#
#
# Indices 1 2 3 4 5 6 
#
# 1 77.1009 18.0145 43.1288 7.9434 -15.4010 17.3683
# 2 18.0145 51.2599 25.1778 -4.3478 -3.5010 15.9149
# 3 43.1288 25.1778 156.9375 -0.6075 -17.6759 18.1537
# 4 7.9434 -4.3478 -0.6075 39.0092 1.4559 -2.3932
# 5 -15.4010 -3.5010 -17.6759 1.4559 41.8405 -4.3429
# 6 17.3683 15.9149 18.1537 -2.3932 -4.3429 22.0988
#
#
#
# Elastic Compliance Matrix: (Units=1/GPa)
#
#
# Indices 1 2 3 4 5 6 
#
# 1 0.019012 -0.001942 -0.003198 -0.004956 0.004562 -0.010558
# 2 -0.001942 0.026137 -0.001961 0.002358 -0.001062 -0.015639
# 3 -0.003198 -0.001961 0.008034 0.000350 0.001804 -0.002282
# 4 -0.004956 0.002358 0.000350 0.027260 -0.001963 0.004475
# 5 0.004562 -0.001062 0.001804 -0.001963 0.026391 0.000671
# 6 -0.010558 -0.015639 -0.002282 0.004475 0.000671 0.067303
#
#
# Mechanical properties :
#
#
# Convention : Reuss Voigt Hill
#
# Bulk Modulus (GPa) = 25.65257 50.88228 38.26743
# Shear Modulus (GPa) = 24.83461 33.85485 29.34473
#
# Velocity S-wave (km/s) = 3.26865 3.81636 3.55308
# Velocity P-wave (km/s) = 5.02806 6.42725 5.77022
#
# Compressibility (1/GPa) = 0.03898244
#
# Stress axis : x y z
#
# Youngs Moduli (GPa) = 52.59723 38.25968 124.47471
#
# Poissons Ratio (x) = 0.07430 0.39801
# Poissons Ratio (y) = 0.10215 0.24408
# Poissons Ratio (z) = 0.16818 0.07502
#
# Static dielectric constant tensor:
#      x y z
#    x 4.159330 0.083110 -0.014600 
#    y 0.083110 4.073280 -0.304860 
#    z -0.014600 -0.304860 4.289000 
# 
# 
# High freq. dielectric constant tensor:
#      x y z
#    x 1.905840 0.014050 0.006570 
#    y 0.014050 1.897920 -0.026400 
#    z 0.006570 -0.026400 1.931730 
# 
# From -- ./inp_files/313318.got.cif
#   From: 2010.06.25/outbox.cif.g09.slc.cpg/sg2_157_cif.got.tgz:313318.got - 2010.06.27 13:26:56.
