data_PCOD8002664
_publ_section_title
;
Structure prediction by ZEFSAII (Michael W. Deem and Ramdas Pophale) SiO2 
 PCOD8002664
Probable space group: P -1
;
_chemical_formula_sum "Si O2"
_cell_formula_units_Z 16
_cell_length_a 14.013542
_cell_length_b 11.856501
_cell_length_c 8.581999
_cell_angle_alpha 87.534749
_cell_angle_beta 34.916734
_cell_angle_gamma 98.870461
_cell_volume 769.358111
_symmetry_space_group_name_H-M "P -1"
_symmetry_group_IT_number 2
_symmetry_cell_setting 'triclinic'
loop_
_space_group_symop_operation_xyz
x,y,z
-x,-y,-z
loop_
_atom_site_type_symbol
_atom_site_label
_atom_site_fract_x
_atom_site_fract_y
_atom_site_fract_z
Si Si1 0.860152 0.563934 0.717313
Si Si2 0.568955 0.095741 0.036118
Si Si3 0.200755 0.459282 0.537489
Si Si4 0.038156 0.771778 0.996378
Si Si5 0.501094 0.568774 0.650752
Si Si6 0.142284 0.707275 0.540704
Si Si7 0.298270 0.162679 0.612104
Si Si8 0.695794 0.034525 0.175563
O O1 0.797286 0.599306 0.633105
O O2 0.000000 0.500000 0.500000
O O3 0.958712 0.676970 0.689428
O O4 0.698862 0.466991 0.023840
O O5 0.691014 0.219751 0.790832
O O6 0.400393 0.113756 0.346384
O O7 0.690120 0.048964 0.995664
O O8 0.500000 0.000000 0.000000
O O9 0.385407 0.471039 0.369663
O O10 0.176869 0.587767 0.557541
O O11 0.036997 0.369405 0.857181
O O12 0.881454 0.827953 0.218388
O O13 0.121928 0.785830 0.710698
O O14 0.187855 0.839074 0.914576
O O15 0.500000 0.500000 0.500000
O O16 0.573702 0.709345 0.508511
O O17 0.239332 0.073597 0.845372
O O18 0.500000 0.000000 0.500000
#
# Coordination Sequence:
#
# PCOD8002664 Si02
#       8
#     2   2   2   2   2   2   2   2
#     4  10  20  36  57  85 121 159 197 245 298 354
#     4  11  24  43  63  89 120 161 208 252 301 362
#     4  10  22  37  60  90 125 164 200 248 305 363
#     4  11  22  40  63  92 121 157 204 252 304 363
#     4  11  23  39  61  93 126 162 205 248 302 364
#     4  11  22  39  62  91 122 158 203 253 303 363
#     4  10  22  42  63  87 123 162 201 254 303 357
#     4  10  22  40  63  87 116 159 202 248 304 358
#
# _framework density 20.796558000000001
#
# number of rings (size 3 to 8) (size 9 to 14) (size 15 to 20)
#    0.000    1.500    0.000    6.375    0.000    8.000 
#    0.000    5.000    0.000    0.000    0.000    0.000 
#    0.000    0.000    0.000    0.000    0.000    0.000 
#
# Total GULP energy -198385.667743 kJ/mol
# GULP energy per Si atom -12399.104234 kJ/mol
# Density = 2.074922 g / cm^3
# Si number density = 20.796558 Si / 1000 Ang^3
#
#
#
# Elastic Constant Matrix: (Units=GPa)
#
#
# Indices 1 2 3 4 5 6 
#
# 1 155.3142 65.1421 47.3907 -1.2055 6.6958 17.6198
# 2 65.1421 108.2863 42.2084 -5.9283 1.8226 4.9189
# 3 47.3907 42.2084 110.2243 -7.2995 -1.2227 -3.1114
# 4 -1.2055 -5.9283 -7.2995 32.4886 6.2040 5.9627
# 5 6.6958 1.8226 -1.2227 6.2040 36.5587 -5.0761
# 6 17.6198 4.9189 -3.1114 5.9627 -5.0761 40.5980
#
#
#
# Elastic Compliance Matrix: (Units=1/GPa)
#
#
# Indices 1 2 3 4 5 6 
#
# 1 0.009722 -0.004624 -0.002543 0.000135 -0.002235 -0.004153
# 2 -0.004624 0.013281 -0.002994 0.001637 -0.000207 -0.000098
# 3 -0.002543 -0.002994 0.011476 0.001308 0.001095 0.002291
# 4 0.000135 0.001637 0.001308 0.033730 -0.006611 -0.005937
# 5 -0.002235 -0.000207 0.001095 -0.006611 0.029732 0.005767
# 6 -0.004153 -0.000098 0.002291 -0.005937 0.005767 0.028215
#
#
# Mechanical properties :
#
#
# Convention : Reuss Voigt Hill
#
# Bulk Modulus (GPa) = 70.63484 75.92303 73.27894
# Shear Modulus (GPa) = 33.06951 36.53463 34.80207
#
# Velocity S-wave (km/s) = 3.99199 4.19592 4.09522
# Velocity P-wave (km/s) = 7.43548 7.74991 7.59432
#
# Compressibility (1/GPa) = 0.01415732
#
# Stress axis : x y z
#
# Youngs Moduli (GPa) = 102.85591 75.29472 87.14111
#
# Poissons Ratio (x) = 0.34816 0.22156
# Poissons Ratio (y) = 0.47561 0.26093
# Poissons Ratio (z) = 0.26151 0.22546
#
# Static dielectric constant tensor:
#      x y z
#    x 4.847430 -0.174360 0.183700 
#    y -0.174360 3.858870 -0.227940 
#    z 0.183700 -0.227940 3.851060 
# 
# 
# High freq. dielectric constant tensor:
#      x y z
#    x 1.827960 0.006940 0.000000 
#    y 0.006940 1.804950 -0.017210 
#    z 0.000000 -0.017210 1.819280 
# 
# From -- ./inp_files/274851.got.cif
#   From: 2010.06.25/outbox.cif.g09.slc.cpg/sg2_138_cif.got.tgz:274851.got - 2010.06.27 13:26:56.
