data_PCOD8002998
_publ_section_title
;
Structure prediction by ZEFSAII (Michael W. Deem and Ramdas Pophale) SiO2 
 PCOD8002998
Probable space group: P -1
;
_chemical_formula_sum "Si O2"
_cell_formula_units_Z 12
_cell_length_a 9.040490
_cell_length_b 11.937118
_cell_length_c 12.164130
_cell_angle_alpha 122.440441
_cell_angle_beta 121.821621
_cell_angle_gamma 105.895308
_cell_volume 593.328859
_symmetry_space_group_name_H-M "P -1"
_symmetry_group_IT_number 2
_symmetry_cell_setting 'triclinic'
loop_
_space_group_symop_operation_xyz
x,y,z
-x,-y,-z
loop_
_atom_site_type_symbol
_atom_site_label
_atom_site_fract_x
_atom_site_fract_y
_atom_site_fract_z
Si Si1 0.736605 0.289633 0.436405
Si Si2 0.441445 0.466355 0.649604
Si Si3 0.738060 0.995880 0.318034
Si Si4 0.724788 0.773089 0.736081
Si Si5 0.618269 0.673116 0.227283
Si Si6 0.323110 0.679487 0.808324
O O1 0.526945 0.272030 0.394310
O O2 0.688065 0.233468 0.257547
O O3 0.050730 0.531671 0.701225
O O4 0.683476 0.118340 0.388316
O O5 0.675900 0.632343 0.736873
O O6 0.217680 0.253076 0.376504
O O7 0.549006 0.444009 0.784911
O O8 0.312871 0.523467 0.677408
O O9 0.594710 0.812062 0.253400
O O10 0.603698 0.877051 0.086309
O O11 0.065094 0.169423 0.534856
O O12 0.000000 0.000000 0.000000
O O13 0.500000 0.500000 0.000000
#
# Coordination Sequence:
#
# PCOD8002998 Si02
#       6
#     2   2   2   2   2   2
#     4  10  21  36  58  90 123 151 199 252 299 346
#     4  10  21  39  58  87 119 158 198 245 293 349
#     4  11  21  34  61  93 118 156 199 247 301 355
#     4  10  24  39  61  85 123 162 198 241 302 364
#     4  11  22  37  60  91 124 156 199 251 294 352
#     4  10  20  36  61  88 122 153 200 254 299 339
#
# _framework density 20.224872000000001
#
# number of rings (size 3 to 8) (size 9 to 14) (size 15 to 20)
#    0.000    1.667    3.333    0.500    4.667    5.333 
#    0.000    0.833    0.000    5.000    0.000    0.000 
#    0.000    0.000    0.000    0.000    0.000    0.000 
#
# Total GULP energy -148676.054818 kJ/mol
# GULP energy per Si atom -12389.671235 kJ/mol
# Density = 2.017884 g / cm^3
# Si number density = 20.224872 Si / 1000 Ang^3
#
#
#
# Elastic Constant Matrix: (Units=GPa)
#
#
# Indices 1 2 3 4 5 6 
#
# 1 60.3002 15.7297 30.5706 5.1343 -2.9097 -2.4944
# 2 15.7297 150.4407 21.4586 -5.7661 -12.3837 -8.0791
# 3 30.5706 21.4586 144.5959 -9.0081 -10.3187 3.7774
# 4 5.1343 -5.7661 -9.0081 21.2701 -0.8063 -9.3109
# 5 -2.9097 -12.3837 -10.3187 -0.8063 26.1255 -4.3553
# 6 -2.4944 -8.0791 3.7774 -9.3109 -4.3553 31.0010
#
#
#
# Elastic Compliance Matrix: (Units=1/GPa)
#
#
# Indices 1 2 3 4 5 6 
#
# 1 0.019885 -0.001834 -0.004435 -0.007510 -0.000755 -0.000699
# 2 -0.001834 0.007564 -0.000288 0.004126 0.004005 0.003661
# 3 -0.004435 -0.000288 0.008394 0.004835 0.002902 0.000405
# 4 -0.007510 0.004126 0.004835 0.060733 0.008115 0.019262
# 5 -0.000755 0.004005 0.002902 0.008115 0.043006 0.009109
# 6 -0.000699 0.003661 0.000405 0.019262 0.009109 0.040170
#
#
# Mechanical properties :
#
#
# Convention : Reuss Voigt Hill
#
# Bulk Modulus (GPa) = 43.99634 54.53940 49.26787
# Shear Modulus (GPa) = 24.94472 34.85118 29.89795
#
# Velocity S-wave (km/s) = 3.51574 4.15563 3.84901
# Velocity P-wave (km/s) = 6.18720 7.07465 6.64576
#
# Compressibility (1/GPa) = 0.02272916
#
# Stress axis : x y z
#
# Youngs Moduli (GPa) = 50.28951 132.19914 119.13339
#
# Poissons Ratio (x) = 0.24245 0.52840
# Poissons Ratio (y) = 0.09223 0.03426
# Poissons Ratio (z) = 0.22305 0.03802
#
# Static dielectric constant tensor:
#      x y z
#    x 2.544950 -0.345970 -0.066130 
#    y -0.345970 4.241420 -0.011260 
#    z -0.066130 -0.011260 3.809360 
# 
# 
# High freq. dielectric constant tensor:
#      x y z
#    x 1.749440 -0.013880 -0.011850 
#    y -0.013880 1.803570 0.007460 
#    z -0.011850 0.007460 1.796580 
# 
# From -- ./inp_files/19744.got.cif
#   From: 2010.06.25/outbox.cif.g09.slc.cpg/sg2_10_cif.got.tgz:19744.got - 2010.06.27 13:26:56.
