data_PCOD8002333
_publ_section_title
;
Structure prediction by ZEFSAII (Michael W. Deem and Ramdas Pophale) SiO2 
 PCOD8002333
Probable space group: P -1
;
_chemical_formula_sum "Si O2"
_cell_formula_units_Z 14
_cell_length_a 12.278070
_cell_length_b 6.218412
_cell_length_c 14.546147
_cell_angle_alpha 108.109799
_cell_angle_beta 139.801496
_cell_angle_gamma 77.368526
_cell_volume 680.995353
_symmetry_space_group_name_H-M "P -1"
_symmetry_group_IT_number 2
_symmetry_cell_setting 'triclinic'
loop_
_space_group_symop_operation_xyz
x,y,z
-x,-y,-z
loop_
_atom_site_type_symbol
_atom_site_label
_atom_site_fract_x
_atom_site_fract_y
_atom_site_fract_z
Si Si1 0.216809 0.578650 0.058323
Si Si2 0.181730 0.629204 0.413366
Si Si3 0.825812 0.182705 0.310254
Si Si4 0.184869 0.101246 0.570765
Si Si5 0.399866 0.479104 0.688251
Si Si6 0.928151 0.221688 0.184617
Si Si7 0.909930 0.231635 0.817163
O O1 0.402216 0.480385 0.166517
O O2 0.190364 0.744659 0.149539
O O3 0.194441 0.726058 0.971935
O O4 0.090066 0.363490 0.953833
O O5 0.351787 0.547292 0.561860
O O6 0.205753 0.662941 0.323820
O O7 0.032658 0.445751 0.312540
O O8 0.130438 0.866668 0.454533
O O9 0.699534 0.378390 0.281251
O O10 0.815056 0.139083 0.187906
O O11 0.019139 0.252828 0.474052
O O12 0.771411 0.954036 0.301767
O O13 0.345851 0.218093 0.639768
O O14 0.059138 0.031922 0.214538
#
# Coordination Sequence:
#
# PCOD8002333 Si02
#       7
#     2   2   2   2   2   2   2
#     4  10  25  40  61  84 118 152 196 238 294 339
#     4  10  20  36  64  90 112 152 198 235 286 341
#     4  10  21  33  62  87 116 156 190 230 288 347
#     4  10  20  35  59  91 119 151 190 235 285 344
#     4  11  22  38  56  94 122 147 185 245 291 339
#     4  11  21  39  63  85 113 158 199 232 281 350
#     4  10  21  44  63  82 109 159 200 239 279 347
#
# _framework density 20.558143000000001
#
# number of rings (size 3 to 8) (size 9 to 14) (size 15 to 20)
#    0.000    1.714    2.857    0.857    4.000    3.429 
#    0.000    4.286    0.000    0.000    0.000    0.000 
#    0.000    0.000    0.000    0.000    0.000    0.000 
#
# Total GULP energy -173573.589134 kJ/mol
# GULP energy per Si atom -12398.113510 kJ/mol
# Density = 2.051135 g / cm^3
# Si number density = 20.558143 Si / 1000 Ang^3
#
#
#
# Elastic Constant Matrix: (Units=GPa)
#
#
# Indices 1 2 3 4 5 6 
#
# 1 110.5475 45.3499 64.2358 -16.4336 -24.0474 -4.7529
# 2 45.3499 99.1463 34.2251 -7.5254 -8.1771 -4.4676
# 3 64.2358 34.2251 86.1438 -35.1409 -23.6887 6.7424
# 4 -16.4336 -7.5254 -35.1409 31.6747 5.2299 -7.8117
# 5 -24.0474 -8.1771 -23.6887 5.2299 38.9148 -3.4107
# 6 -4.7529 -4.4676 6.7424 -7.8117 -3.4107 26.2294
#
#
#
# Elastic Compliance Matrix: (Units=1/GPa)
#
#
# Indices 1 2 3 4 5 6 
#
# 1 0.019349 -0.003555 -0.015501 -0.007265 0.003200 0.005138
# 2 -0.003555 0.012871 -0.004090 -0.002684 -0.001481 0.001608
# 3 -0.015501 -0.004090 0.042403 0.035722 0.010361 -0.002419
# 4 -0.007265 -0.002684 0.035722 0.067958 0.008469 0.010385
# 5 0.003200 -0.001481 0.010361 0.008469 0.032924 0.004468
# 6 0.005138 0.001608 -0.002419 0.010385 0.004468 0.043626
#
#
# Mechanical properties :
#
#
# Convention : Reuss Voigt Hill
#
# Bulk Modulus (GPa) = 35.29909 64.82879 50.06394
# Shear Modulus (GPa) = 18.19065 29.49889 23.84477
#
# Velocity S-wave (km/s) = 2.97785 3.79212 3.40938
# Velocity P-wave (km/s) = 5.38805 7.12575 6.31694
#
# Compressibility (1/GPa) = 0.02832934
#
# Stress axis : x y z
#
# Youngs Moduli (GPa) = 51.68346 77.69487 23.58312
#
# Poissons Ratio (x) = 0.27622 0.36557
# Poissons Ratio (y) = 0.18374 0.09646
# Poissons Ratio (z) = 0.80115 0.31780
#
# Static dielectric constant tensor:
#      x y z
#    x 3.690480 0.210150 -0.398510 
#    y 0.210150 3.773490 -0.156060 
#    z -0.398510 -0.156060 3.613020 
# 
# 
# High freq. dielectric constant tensor:
#      x y z
#    x 1.794350 0.010590 -0.028440 
#    y 0.010590 1.810430 -0.012280 
#    z -0.028440 -0.012280 1.784370 
# 
# From -- ./inp_files/26723.got.cif
#   From: 2010.06.25/outbox.cif.g09.slc.cpg/sg2_14_cif.got.tgz:26723.got - 2010.06.27 13:26:56.
