data_PCOD8002042
_publ_section_title
;
Structure prediction by ZEFSAII (Michael W. Deem and Ramdas Pophale) SiO2 
 PCOD8002042
Probable space group: P -1
;
_chemical_formula_sum "Si O2"
_cell_formula_units_Z 16
_cell_length_a 8.408024
_cell_length_b 21.062178
_cell_length_c 9.219058
_cell_angle_alpha 40.725790
_cell_angle_beta 119.456307
_cell_angle_gamma 133.952567
_cell_volume 764.801622
_symmetry_space_group_name_H-M "P -1"
_symmetry_group_IT_number 2
_symmetry_cell_setting 'triclinic'
loop_
_space_group_symop_operation_xyz
x,y,z
-x,-y,-z
loop_
_atom_site_type_symbol
_atom_site_label
_atom_site_fract_x
_atom_site_fract_y
_atom_site_fract_z
Si Si1 0.150172 0.445580 0.223271
Si Si2 0.866015 0.724851 0.290897
Si Si3 0.546897 0.794587 0.975171
Si Si4 0.060223 0.593449 0.088132
Si Si5 0.608478 0.094562 0.095685
Si Si6 0.371433 0.841036 0.326520
Si Si7 0.500975 0.294734 0.194935
Si Si8 0.896765 0.701982 0.014595
O O1 0.249092 0.381376 0.458985
O O2 0.014306 0.465650 0.252859
O O3 0.338492 0.571795 0.022917
O O4 0.978516 0.363257 0.160820
O O5 0.125779 0.809753 0.296397
O O6 0.747845 0.793221 0.137054
O O7 0.828957 0.672028 0.204077
O O8 0.548021 0.903258 0.855174
O O9 0.567971 0.800196 0.800896
O O10 0.308962 0.677534 0.113851
O O11 0.896176 0.592801 0.133560
O O12 0.865829 0.175831 0.115710
O O13 0.541057 0.962126 0.277976
O O14 0.571208 0.142306 0.846664
O O15 0.395794 0.738214 0.572867
O O16 0.281879 0.284300 0.171946
#
# Coordination Sequence:
#
# PCOD8002042 Si02
#       8
#     2   2   2   2   2   2   2   2
#     4  10  20  35  53  76 109 141 172 215 257 302
#     4  10  20  35  55  78 107 140 174 212 258 310
#     4   9  19  35  54  78 106 136 174 216 258 309
#     4   9  18  34  52  72 105 140 174 212 255 303
#     4   9  20  38  56  77 106 136 172 219 264 306
#     4  10  20  36  57  78 104 139 174 214 263 311
#     4  10  21  36  54  78 107 139 176 213 257 311
#     4   9  20  36  53  77 106 137 176 215 256 311
#
# _framework density 20.920456999999999
#
# number of rings (size 3 to 8) (size 9 to 14) (size 15 to 20)
#    0.000    2.500    0.000    2.250    0.000    8.000 
#    0.000    5.000    0.000    0.000    0.000    0.000 
#    0.000    0.000    0.000    0.000    0.000    0.000 
#
# Total GULP energy -198263.294402 kJ/mol
# GULP energy per Si atom -12391.455900 kJ/mol
# Density = 2.087284 g / cm^3
# Si number density = 20.920457 Si / 1000 Ang^3
#
#
#
# Elastic Constant Matrix: (Units=GPa)
#
#
# Indices 1 2 3 4 5 6 
#
# 1 108.2767 27.7808 14.5957 4.3879 19.0428 5.9701
# 2 27.7808 70.6430 9.6072 -0.0477 5.7902 6.9954
# 3 14.5957 9.6072 70.2631 2.9901 6.0701 20.0741
# 4 4.3879 -0.0477 2.9901 18.7670 8.4242 6.1204
# 5 19.0428 5.7902 6.0701 8.4242 22.2465 9.5184
# 6 5.9701 6.9954 20.0741 6.1204 9.5184 27.4873
#
#
#
# Elastic Compliance Matrix: (Units=1/GPa)
#
#
# Indices 1 2 3 4 5 6 
#
# 1 0.012180 -0.003959 -0.002060 0.001196 -0.010701 0.003306
# 2 -0.003959 0.016119 -0.000519 0.002160 -0.000061 -0.003323
# 3 -0.002060 -0.000519 0.018471 0.000991 0.002466 -0.013985
# 4 0.001196 0.002160 0.000991 0.065995 -0.023366 -0.008137
# 5 -0.010701 -0.000061 0.002466 -0.023366 0.070254 -0.018587
# 6 0.003306 -0.003323 -0.013985 -0.008137 -0.018587 0.054970
#
#
# Mechanical properties :
#
#
# Convention : Reuss Voigt Hill
#
# Bulk Modulus (GPa) = 29.67798 39.23894 34.45846
# Shear Modulus (GPa) = 19.06241 26.84677 22.95459
#
# Velocity S-wave (km/s) = 3.02186 3.58617 3.31604
# Velocity P-wave (km/s) = 5.13735 5.99537 5.58287
#
# Compressibility (1/GPa) = 0.03369502
#
# Stress axis : x y z
#
# Youngs Moduli (GPa) = 82.09927 62.03936 54.13815
#
# Poissons Ratio (x) = 0.24564 0.11151
# Poissons Ratio (y) = 0.32506 0.02808
# Poissons Ratio (z) = 0.16910 0.03218
#
# Static dielectric constant tensor:
#      x y z
#    x 3.938010 -0.048480 0.130630 
#    y -0.048480 3.878370 0.262580 
#    z 0.130630 0.262580 3.510480 
# 
# 
# High freq. dielectric constant tensor:
#      x y z
#    x 1.819290 0.001610 0.013130 
#    y 0.001610 1.816320 0.018360 
#    z 0.013130 0.018360 1.787460 
# 
# From -- ./inp_files/223058.got.cif
#   From: 2010.06.25/outbox.cif.g09.slc.cpg/sg2_112_cif.got.tgz:223058.got - 2010.06.27 13:26:56.
