data_PCOD8002896
_publ_section_title
;
Structure prediction by ZEFSAII (Michael W. Deem and Ramdas Pophale) SiO2 
 PCOD8002896
Probable space group: P -1
;
_chemical_formula_sum "Si O2"
_cell_formula_units_Z 12
_cell_length_a 12.042315
_cell_length_b 6.461217
_cell_length_c 11.572768
_cell_angle_alpha 45.426711
_cell_angle_beta 63.122139
_cell_angle_gamma 60.425558
_cell_volume 549.691711
_symmetry_space_group_name_H-M "P -1"
_symmetry_group_IT_number 2
_symmetry_cell_setting 'triclinic'
loop_
_space_group_symop_operation_xyz
x,y,z
-x,-y,-z
loop_
_atom_site_type_symbol
_atom_site_label
_atom_site_fract_x
_atom_site_fract_y
_atom_site_fract_z
Si Si1 0.082517 0.275974 0.272709
Si Si2 0.063607 0.151086 0.581796
Si Si3 0.581020 0.663452 0.472790
Si Si4 0.533412 0.625728 0.763769
Si Si5 0.832212 0.797600 0.252426
Si Si6 0.294774 0.574331 0.024010
O O1 0.130419 0.116715 0.436972
O O2 0.200668 0.365871 0.120745
O O3 0.965923 0.578511 0.230616
O O4 0.040523 0.044601 0.296757
O O5 0.160968 0.046181 0.685103
O O6 0.000000 0.500000 0.500000
O O7 0.500000 0.500000 0.500000
O O8 0.583500 0.518323 0.655260
O O9 0.728901 0.601186 0.384468
O O10 0.510382 0.014755 0.357448
O O11 0.652251 0.495785 0.844285
O O12 0.412083 0.499849 0.905813
O O13 0.785658 0.073537 0.077305
#
# Coordination Sequence:
#
# PCOD8002896 Si02
#       6
#     2   2   2   2   2   2
#     4  10  20  36  60  85 115 152 191 235 290 346
#     4   9  20  37  56  83 114 152 195 234 278 339
#     4  10  21  39  63  83 108 154 203 239 279 339
#     4   9  21  40  59  83 117 152 194 243 282 335
#     4  10  21  36  56  87 119 148 189 239 290 342
#     4  10  20  38  59  85 122 155 185 237 298 344
#
# _framework density 21.830416
#
# number of rings (size 3 to 8) (size 9 to 14) (size 15 to 20)
#    0.000    2.333    0.000    1.500    0.000    8.667 
#    0.000   15.833    0.000    0.000    0.000    0.000 
#    0.000    0.000    0.000    0.000    0.000    0.000 
#
# Total GULP energy -148766.453113 kJ/mol
# GULP energy per Si atom -12397.204426 kJ/mol
# Density = 2.178073 g / cm^3
# Si number density = 21.830416 Si / 1000 Ang^3
#
#
#
# Elastic Constant Matrix: (Units=GPa)
#
#
# Indices 1 2 3 4 5 6 
#
# 1 143.1654 33.4674 74.9259 0.0493 -23.7078 15.6705
# 2 33.4674 38.4772 24.1831 -1.9875 -9.8753 14.4165
# 3 74.9259 24.1831 129.8978 9.5565 -16.8816 7.5490
# 4 0.0493 -1.9875 9.5565 18.0832 3.0896 -0.7408
# 5 -23.7078 -9.8753 -16.8816 3.0896 62.9788 -8.2872
# 6 15.6705 14.4165 7.5490 -0.7408 -8.2872 32.2685
#
#
#
# Elastic Compliance Matrix: (Units=1/GPa)
#
#
# Indices 1 2 3 4 5 6 
#
# 1 0.011598 -0.005585 -0.005483 0.001898 0.001748 -0.001362
# 2 -0.005585 0.038534 -0.003442 0.005353 0.001002 -0.013318
# 3 -0.005483 -0.003442 0.012072 -0.006881 0.001169 0.001519
# 4 0.001898 0.005353 -0.006881 0.060050 -0.003394 -0.001197
# 5 0.001748 0.001002 0.001169 -0.003394 0.017550 0.002859
# 6 -0.001362 -0.013318 0.001519 -0.001197 0.002859 0.037953
#
#
# Mechanical properties :
#
#
# Convention : Reuss Voigt Hill
#
# Bulk Modulus (GPa) = 30.13535 64.07701 47.10618
# Shear Modulus (GPa) = 22.95272 34.59703 28.77487
#
# Velocity S-wave (km/s) = 3.24606 3.98528 3.63452
# Velocity P-wave (km/s) = 5.28048 7.11284 6.26403
#
# Compressibility (1/GPa) = 0.03318362
#
# Stress axis : x y z
#
# Youngs Moduli (GPa) = 86.22081 25.95101 82.83615
#
# Poissons Ratio (x) = 0.14493 0.45423
# Poissons Ratio (y) = 0.48151 0.28514
# Poissons Ratio (z) = 0.47279 0.08933
#
# Static dielectric constant tensor:
#      x y z
#    x 4.279740 0.224030 0.158310 
#    y 0.224030 3.738440 0.158330 
#    z 0.158310 0.158330 4.333840 
# 
# 
# High freq. dielectric constant tensor:
#      x y z
#    x 1.869950 0.003690 0.000570 
#    y 0.003690 1.822260 -0.000760 
#    z 0.000570 -0.000760 1.873120 
# 
# From -- ./inp_files/20304.got.cif
#   From: 2010.06.25/outbox.cif.g09.slc.cpg/sg2_11_cif.got.tgz:20304.got - 2010.06.27 13:26:56.
