data_PCOD8002287
_publ_section_title
;
Structure prediction by ZEFSAII (Michael W. Deem and Ramdas Pophale) SiO2 
 PCOD8002287
Probable space group: P -1
;
_chemical_formula_sum "Si O2"
_cell_formula_units_Z 16
_cell_length_a 16.952871
_cell_length_b 7.646388
_cell_length_c 20.856677
_cell_angle_alpha 118.144927
_cell_angle_beta 18.754018
_cell_angle_gamma 116.355446
_cell_volume 766.412626
_symmetry_space_group_name_H-M "P -1"
_symmetry_group_IT_number 2
_symmetry_cell_setting 'triclinic'
loop_
_space_group_symop_operation_xyz
x,y,z
-x,-y,-z
loop_
_atom_site_type_symbol
_atom_site_label
_atom_site_fract_x
_atom_site_fract_y
_atom_site_fract_z
Si Si1 0.971062 0.907712 0.103498
Si Si2 0.214482 0.734820 0.766384
Si Si3 0.192816 0.889747 0.132102
Si Si4 0.612543 0.910532 0.104842
Si Si5 0.072659 0.825610 0.526483
Si Si6 0.115093 0.545841 0.337268
Si Si7 0.363419 0.532506 0.015653
Si Si8 0.228492 0.289270 0.656156
O O1 0.807717 0.777863 0.254170
O O2 0.022133 0.777843 0.978653
O O3 0.820283 0.106078 0.236005
O O4 0.228011 0.960661 0.947667
O O5 0.156856 0.520083 0.744348
O O6 0.488507 0.745072 0.585714
O O7 0.935748 0.838063 0.287384
O O8 0.342428 0.693985 0.003575
O O9 0.136373 0.023072 0.261526
O O10 0.362211 0.012407 0.974307
O O11 0.333077 0.933803 0.346913
O O12 0.700330 0.682143 0.000710
O O13 0.020163 0.746621 0.480625
O O14 0.080399 0.630781 0.533431
O O15 0.365216 0.466869 0.164386
O O16 0.160174 0.590150 0.235874
#
# Coordination Sequence:
#
# PCOD8002287 Si02
#       8
#     2   2   2   2   2   2   2   2
#     4  10  20  35  59  82 109 148 185 218 273 326
#     4  10  20  36  58  82 111 146 181 225 270 323
#     4  11  22  37  59  83 111 149 183 226 281 330
#     4  10  21  39  56  82 117 146 181 232 273 326
#     4  10  20  39  57  81 113 144 185 228 279 322
#     4   9  20  39  59  79 112 148 181 238 272 322
#     4  10  20  39  59  80 113 147 186 226 282 325
#     4  10  21  36  56  83 114 141 181 230 269 322
#
# _framework density 20.876483
#
# number of rings (size 3 to 8) (size 9 to 14) (size 15 to 20)
#    0.000    2.000    1.250    2.250    0.000    1.000 
#    6.750    0.000    5.500    0.000    0.000    0.000 
#    0.000    0.000    0.000    0.000    0.000    0.000 
#
# Total GULP energy -198433.655192 kJ/mol
# GULP energy per Si atom -12402.103449 kJ/mol
# Density = 2.082897 g / cm^3
# Si number density = 20.876483 Si / 1000 Ang^3
#
#
#
# Elastic Constant Matrix: (Units=GPa)
#
#
# Indices 1 2 3 4 5 6 
#
# 1 23.7502 3.1461 12.1344 1.2020 3.9988 -8.1743
# 2 3.1461 99.4482 31.0024 0.6133 0.6299 -16.3155
# 3 12.1344 31.0024 67.7971 -5.7244 14.2797 -3.2029
# 4 1.2020 0.6133 -5.7244 24.9419 4.7507 -7.4245
# 5 3.9988 0.6299 14.2797 4.7507 20.7715 -1.6097
# 6 -8.1743 -16.3155 -3.2029 -7.4245 -1.6097 29.4442
#
#
#
# Elastic Compliance Matrix: (Units=1/GPa)
#
#
# Indices 1 2 3 4 5 6 
#
# 1 0.052425 0.004045 -0.010034 0.000127 -0.002136 0.015619
# 2 0.004045 0.013582 -0.007668 -0.000881 0.004892 0.007860
# 3 -0.010034 -0.007668 0.024103 0.008409 -0.016577 -0.003199
# 4 0.000127 -0.000881 0.008409 0.048608 -0.015978 0.011845
# 5 -0.002136 0.004892 -0.016577 -0.015978 0.063437 -0.000246
# 6 0.015619 0.007860 -0.003199 0.011845 -0.000246 0.045280
#
#
# Mechanical properties :
#
#
# Convention : Reuss Voigt Hill
#
# Bulk Modulus (GPa) = 15.92495 31.50682 23.71589
# Shear Modulus (GPa) = 16.91014 24.67900 20.79457
#
# Velocity S-wave (km/s) = 2.84915 3.44196 3.15949
# Velocity P-wave (km/s) = 4.29748 5.56066 4.96937
#
# Compressibility (1/GPa) = 0.06279453
#
# Stress axis : x y z
#
# Youngs Moduli (GPa) = 19.07494 73.62679 41.48921
#
# Poissons Ratio (x) = -0.29782 0.41632
# Poissons Ratio (y) = -0.07716 0.31814
# Poissons Ratio (z) = 0.19140 0.56458
#
# Static dielectric constant tensor:
#      x y z
#    x 3.502520 0.034750 0.218210 
#    y 0.034750 3.800050 -0.150500 
#    z 0.218210 -0.150500 3.742170 
# 
# 
# High freq. dielectric constant tensor:
#      x y z
#    x 1.793760 0.007360 0.015880 
#    y 0.007360 1.825780 -0.009560 
#    z 0.015880 -0.009560 1.819550 
# 
# From -- ./inp_files/126362.got.cif
#   From: 2010.06.25/outbox.cif.g09.slc.cpg/sg2_64_cif.got.tgz:126362.got - 2010.06.27 13:26:56.
