data_PCOD8002617
_publ_section_title
;
Structure prediction by ZEFSAII (Michael W. Deem and Ramdas Pophale) SiO2 
 PCOD8002617
Probable space group: P -1
;
_chemical_formula_sum "Si O2"
_cell_formula_units_Z 16
_cell_length_a 8.053407
_cell_length_b 7.591052
_cell_length_c 16.993142
_cell_angle_alpha 92.821227
_cell_angle_beta 63.705150
_cell_angle_gamma 120.819809
_cell_volume 778.231809
_symmetry_space_group_name_H-M "P -1"
_symmetry_group_IT_number 2
_symmetry_cell_setting 'triclinic'
loop_
_space_group_symop_operation_xyz
x,y,z
-x,-y,-z
loop_
_atom_site_type_symbol
_atom_site_label
_atom_site_fract_x
_atom_site_fract_y
_atom_site_fract_z
Si Si1 0.187611 0.278751 0.524036
Si Si2 0.498657 0.607593 0.923725
Si Si3 0.198254 0.283464 0.842346
Si Si4 0.303161 0.837374 0.643694
Si Si5 0.362839 0.474468 0.648699
Si Si6 0.888646 0.422632 0.939856
Si Si7 0.215034 0.876524 0.493725
Si Si8 0.988162 0.828723 0.832945
O O1 0.183052 0.329323 0.617563
O O2 0.399540 0.456636 0.434696
O O3 0.979677 0.272816 0.529091
O O4 0.185709 0.068014 0.519450
O O5 0.361358 0.429436 0.881325
O O6 0.750929 0.776416 0.847931
O O7 0.500000 0.500000 0.000000
O O8 0.371581 0.718820 0.982901
O O9 0.331217 0.355223 0.734116
O O10 0.981086 0.294932 0.876889
O O11 0.102994 0.035545 0.870073
O O12 0.333597 0.666426 0.676404
O O13 0.195810 0.760836 0.577546
O O14 0.147921 0.884752 0.726822
O O15 0.547255 0.050937 0.591206
O O16 0.951317 0.626484 0.880280
O O17 0.000000 0.500000 0.000000
#
# Coordination Sequence:
#
# PCOD8002617 Si02
#       8
#     2   2   2   2   2   2   2   2
#     4   9  19  36  57  82 117 161 201 249 300 356
#     4   9  22  41  63  91 121 154 204 252 306 368
#     4  11  22  40  65  89 123 165 197 253 308 363
#     4  10  20  36  56  84 125 154 202 254 297 353
#     4  10  20  36  56  85 121 157 204 248 302 355
#     4   9  20  41  63  88 121 152 200 252 303 362
#     4   9  19  36  57  82 116 163 200 249 299 358
#     4  11  22  40  63  92 123 160 200 254 300 371
#
# _framework density 20.559426999999999
#
# number of rings (size 3 to 8) (size 9 to 14) (size 15 to 20)
#    0.000    2.250    1.250    0.750    1.750    6.500 
#    4.500    3.750    0.000    0.000    0.000    0.000 
#    0.000    0.000    0.000    0.000    0.000    0.000 
#
# Total GULP energy -198227.005138 kJ/mol
# GULP energy per Si atom -12389.187821 kJ/mol
# Density = 2.051263 g / cm^3
# Si number density = 20.559427 Si / 1000 Ang^3
#
#
#
# Elastic Constant Matrix: (Units=GPa)
#
#
# Indices 1 2 3 4 5 6 
#
# 1 97.5548 21.2708 49.0212 -3.8465 -4.0681 27.2349
# 2 21.2708 69.0551 28.6518 7.4459 -2.8174 15.0697
# 3 49.0212 28.6518 119.9626 7.4153 -13.3828 15.0658
# 4 -3.8465 7.4459 7.4153 17.5657 5.1923 4.4869
# 5 -4.0681 -2.8174 -13.3828 5.1923 30.6930 1.7094
# 6 27.2349 15.0697 15.0658 4.4869 1.7094 37.5495
#
#
#
# Elastic Compliance Matrix: (Units=1/GPa)
#
#
# Indices 1 2 3 4 5 6 
#
# 1 0.016802 -0.001593 -0.006000 0.009997 -0.001655 -0.010259
# 2 -0.001593 0.017662 -0.002468 -0.006179 0.001618 -0.004278
# 3 -0.006000 -0.002468 0.012322 -0.007369 0.005540 0.001027
# 4 0.009997 -0.006179 -0.007369 0.071470 -0.014005 -0.009717
# 5 -0.001655 0.001618 0.005540 -0.014005 0.037389 -0.001700
# 6 -0.010259 -0.004278 0.001027 -0.009717 -0.001700 0.036616
#
#
# Mechanical properties :
#
#
# Convention : Reuss Voigt Hill
#
# Bulk Modulus (GPa) = 37.50235 53.82888 45.66562
# Shear Modulus (GPa) = 22.59690 29.67024 26.13357
#
# Velocity S-wave (km/s) = 3.31887 3.80300 3.56915
# Velocity P-wave (km/s) = 5.74169 6.74705 6.26457
#
# Compressibility (1/GPa) = 0.02666500
#
# Stress axis : x y z
#
# Youngs Moduli (GPa) = 59.51645 56.62024 81.15784
#
# Poissons Ratio (x) = 0.09018 0.48692
# Poissons Ratio (y) = 0.09479 0.20028
# Poissons Ratio (z) = 0.35708 0.13972
#
# Static dielectric constant tensor:
#      x y z
#    x 4.176190 0.274670 -0.275670 
#    y 0.274670 3.506810 -0.092990 
#    z -0.275670 -0.092990 3.742780 
# 
# 
# High freq. dielectric constant tensor:
#      x y z
#    x 1.813460 0.000110 -0.009210 
#    y 0.000110 1.779680 0.001830 
#    z -0.009210 0.001830 1.808690 
# 
# From -- ./inp_files/556278.got.cif
#   From: 2010.06.25/outbox.cif.g09.slc.cpg/sg2_279_cif.got.tgz:556278.got - 2010.06.27 13:26:56.
