data_PCOD8002189
_publ_section_title
;
Structure prediction by ZEFSAII (Michael W. Deem and Ramdas Pophale) SiO2 
 PCOD8002189
Probable space group: P -1
;
_chemical_formula_sum "Si O2"
_cell_formula_units_Z 16
_cell_length_a 11.253166
_cell_length_b 17.263383
_cell_length_c 9.288224
_cell_angle_alpha 74.284446
_cell_angle_beta 116.134263
_cell_angle_gamma 149.704259
_cell_volume 792.966944
_symmetry_space_group_name_H-M "P -1"
_symmetry_group_IT_number 2
_symmetry_cell_setting 'triclinic'
loop_
_space_group_symop_operation_xyz
x,y,z
-x,-y,-z
loop_
_atom_site_type_symbol
_atom_site_label
_atom_site_fract_x
_atom_site_fract_y
_atom_site_fract_z
Si Si1 0.224413 0.552191 0.120920
Si Si2 0.149794 0.309927 0.519536
Si Si3 0.862886 0.514060 0.575797
Si Si4 0.985739 0.854791 0.024327
Si Si5 0.690247 0.025775 0.610080
Si Si6 0.268380 0.394399 0.217007
Si Si7 0.610273 0.281461 0.333292
Si Si8 0.294790 0.162388 0.957865
O O1 0.284935 0.578108 0.308155
O O2 0.151826 0.422248 0.099881
O O3 0.489197 0.721940 0.106866
O O4 0.000000 0.500000 0.000000
O O5 0.069635 0.359146 0.481699
O O6 0.156986 0.299455 0.355554
O O7 0.421834 0.432907 0.682527
O O8 0.919061 0.138837 0.556089
O O9 0.660843 0.381714 0.414648
O O10 0.127912 0.602641 0.671379
O O11 0.202364 0.915690 0.195886
O O12 0.843039 0.823461 0.100617
O O13 0.804461 0.702415 0.906023
O O14 0.106677 0.987074 0.916625
O O15 0.500000 0.000000 0.500000
O O16 0.507062 0.853257 0.571386
O O17 0.402743 0.204683 0.151920
#
# Coordination Sequence:
#
# PCOD8002189 Si02
#       8
#     2   2   2   2   2   2   2   2
#     4  11  22  37  58  86 122 153 192 247 295 350
#     4  10  21  40  61  85 121 156 193 252 294 344
#     4  10  20  35  57  83 114 154 194 235 290 351
#     4  10  23  40  62  89 118 159 203 243 295 354
#     4  11  22  37  58  86 122 153 192 247 295 350
#     4  10  23  40  62  89 118 159 203 243 295 354
#     4  10  20  35  57  83 114 154 194 235 290 351
#     4  10  21  40  61  85 121 156 193 252 294 344
#
# _framework density 20.177385999999998
#
# number of rings (size 3 to 8) (size 9 to 14) (size 15 to 20)
#    0.000    1.750    2.500    1.500    0.000    5.000 
#    0.000    1.250    0.000    9.000    0.000    0.000 
#    0.000    0.000    0.000    0.000    0.000    0.000 
#
# Total GULP energy -198301.575110 kJ/mol
# GULP energy per Si atom -12393.848444 kJ/mol
# Density = 2.013146 g / cm^3
# Si number density = 20.177386 Si / 1000 Ang^3
#
#
#
# Elastic Constant Matrix: (Units=GPa)
#
#
# Indices 1 2 3 4 5 6 
#
# 1 84.8153 34.0676 31.9199 -1.6012 -2.5650 1.8838
# 2 34.0676 102.4364 19.2788 -15.8068 -16.1315 20.3612
# 3 31.9199 19.2788 53.8472 -2.4417 9.0423 -6.1467
# 4 -1.6012 -15.8068 -2.4417 31.8257 2.7997 -5.8052
# 5 -2.5650 -16.1315 9.0423 2.7997 28.7862 -5.3700
# 6 1.8838 20.3612 -6.1467 -5.8052 -5.3700 31.4931
#
#
#
# Elastic Compliance Matrix: (Units=1/GPa)
#
#
# Indices 1 2 3 4 5 6 
#
# 1 0.016766 -0.003712 -0.009143 -0.001976 0.002415 -0.000340
# 2 -0.003712 0.015867 -0.005643 0.004928 0.008207 -0.008830
# 3 -0.009143 -0.005643 0.028971 0.001472 -0.011705 0.008125
# 4 -0.001976 0.004928 0.001472 0.034571 -0.000588 0.003492
# 5 0.002415 0.008207 -0.011705 -0.000588 0.043198 -0.000477
# 6 -0.000340 -0.008830 0.008125 0.003492 -0.000477 0.039630
#
#
# Mechanical properties :
#
#
# Convention : Reuss Voigt Hill
#
# Bulk Modulus (GPa) = 40.63883 45.73684 43.18784
# Shear Modulus (GPa) = 22.30144 28.80984 25.55564
#
# Velocity S-wave (km/s) = 3.32817 3.78276 3.56272
# Velocity P-wave (km/s) = 5.91214 6.46495 6.19472
#
# Compressibility (1/GPa) = 0.02460701
#
# Stress axis : x y z
#
# Youngs Moduli (GPa) = 59.64564 63.02540 34.51720
#
# Poissons Ratio (x) = 0.23396 0.31560
# Poissons Ratio (y) = 0.22141 0.19477
# Poissons Ratio (z) = 0.54536 0.35564
#
# Static dielectric constant tensor:
#      x y z
#    x 3.859460 -0.163530 0.240790 
#    y -0.163530 3.984940 -0.212300 
#    z 0.240790 -0.212300 3.675280 
# 
# 
# High freq. dielectric constant tensor:
#      x y z
#    x 1.790500 0.005200 0.016480 
#    y 0.005200 1.789460 -0.011720 
#    z 0.016480 -0.011720 1.785340 
# 
# From -- ./inp_files/185911.got.cif
#   From: 2010.06.25/outbox.cif.g09.slc.cpg/sg2_93_cif.got.tgz:185911.got - 2010.06.27 13:26:56.
