data_PCOD8002427
_publ_section_title
;
Structure prediction by ZEFSAII (Michael W. Deem and Ramdas Pophale) SiO2 
 PCOD8002427
Probable space group: P -1
;
_chemical_formula_sum "Si O2"
_cell_formula_units_Z 16
_cell_length_a 12.977040
_cell_length_b 7.841102
_cell_length_c 19.120780
_cell_angle_alpha 94.766368
_cell_angle_beta 146.767651
_cell_angle_gamma 108.347677
_cell_volume 755.025657
_symmetry_space_group_name_H-M "P -1"
_symmetry_group_IT_number 2
_symmetry_cell_setting 'triclinic'
loop_
_space_group_symop_operation_xyz
x,y,z
-x,-y,-z
loop_
_atom_site_type_symbol
_atom_site_label
_atom_site_fract_x
_atom_site_fract_y
_atom_site_fract_z
Si Si1 0.369536 0.210005 0.619292
Si Si2 0.287206 0.681724 0.059539
Si Si3 0.907040 0.733867 0.283357
Si Si4 0.603135 0.687360 0.728936
Si Si5 0.717007 0.273265 0.708121
Si Si6 0.165389 0.979514 0.002972
Si Si7 0.678572 0.268758 0.531205
Si Si8 0.346183 0.371111 0.007452
O O1 0.496511 0.178584 0.751631
O O2 0.445233 0.455821 0.682864
O O3 0.498352 0.250457 0.618808
O O4 0.056838 0.971201 0.425292
O O5 0.356328 0.581146 0.038030
O O6 0.275714 0.870356 0.030424
O O7 0.993106 0.446710 0.913596
O O8 0.645752 0.503383 0.167352
O O9 0.100253 0.696924 0.382952
O O10 0.832898 0.769005 0.167783
O O11 0.698237 0.902064 0.840152
O O12 0.384903 0.605737 0.546077
O O13 0.851198 0.761249 0.831386
O O14 0.781242 0.385400 0.670423
O O15 0.603029 0.008579 0.629801
O O16 0.222569 0.174071 0.990551
#
# Coordination Sequence:
#
# PCOD8002427 Si02
#       8
#     2   2   2   2   2   2   2   2
#     4  11  23  39  64  96 134 168 210 270 323 382
#     4  12  22  42  67  95 131 171 211 265 327 378
#     4  10  24  46  65  92 128 176 218 267 315 377
#     4  11  23  38  61 101 136 162 212 270 322 394
#     4  10  20  35  61  92 125 170 203 260 332 381
#     4  11  24  40  65 100 129 171 215 262 326 387
#     4  10  21  37  61  91 131 170 209 263 327 376
#     4  11  24  47  69  90 130 175 222 262 315 383
#
# _framework density 21.191334999999999
#
# number of rings (size 3 to 8) (size 9 to 14) (size 15 to 20)
#    0.000    1.250    3.750    2.625    5.250    2.000 
#    2.250    2.500    0.000    0.000    0.000    0.000 
#    0.000    0.000    0.000    0.000    0.000    0.000 
#
# Total GULP energy -198370.746784 kJ/mol
# GULP energy per Si atom -12398.171674 kJ/mol
# Density = 2.114310 g / cm^3
# Si number density = 21.191335 Si / 1000 Ang^3
#
#
#
# Elastic Constant Matrix: (Units=GPa)
#
#
# Indices 1 2 3 4 5 6 
#
# 1 41.4399 15.7626 18.7339 -3.0809 0.8463 -6.8633
# 2 15.7626 83.0569 32.0399 -9.8155 0.6009 -7.8273
# 3 18.7339 32.0399 140.4719 -3.9002 -1.1128 0.9248
# 4 -3.0809 -9.8155 -3.9002 25.4200 -4.4427 -0.1616
# 5 0.8463 0.6009 -1.1128 -4.4427 26.6558 1.5103
# 6 -6.8633 -7.8273 0.9248 -0.1616 1.5103 27.6632
#
#
#
# Elastic Compliance Matrix: (Units=1/GPa)
#
#
# Indices 1 2 3 4 5 6 
#
# 1 0.027904 -0.003397 -0.002954 0.001475 -0.001034 0.006126
# 2 -0.003397 0.014652 -0.002773 0.004892 0.000284 0.003409
# 3 -0.002954 -0.002773 0.008160 -0.000086 0.000586 -0.001823
# 4 0.001475 0.004892 -0.000086 0.042601 0.006847 0.001628
# 5 -0.001034 0.000284 0.000586 0.006847 0.038836 -0.002276
# 6 0.006126 0.003409 -0.001823 0.001628 -0.002276 0.038828
#
#
# Mechanical properties :
#
#
# Convention : Reuss Voigt Hill
#
# Bulk Modulus (GPa) = 30.80059 44.22680 37.51370
# Shear Modulus (GPa) = 24.99356 29.17665 27.08510
#
# Velocity S-wave (km/s) = 3.43800 3.71458 3.57896
# Velocity P-wave (km/s) = 5.50689 6.27001 5.90080
#
# Compressibility (1/GPa) = 0.03246691
#
# Stress axis : x y z
#
# Youngs Moduli (GPa) = 35.83677 68.25165 122.55467
#
# Poissons Ratio (x) = 0.23185 0.36205
# Poissons Ratio (y) = 0.12174 0.33987
# Poissons Ratio (z) = 0.10587 0.18928
#
# Static dielectric constant tensor:
#      x y z
#    x 3.673350 -0.094670 -0.105560 
#    y -0.094670 3.601080 0.083000 
#    z -0.105560 0.083000 4.036300 
# 
# 
# High freq. dielectric constant tensor:
#      x y z
#    x 1.813350 -0.009740 -0.012590 
#    y -0.009740 1.810000 -0.002930 
#    z -0.012590 -0.002930 1.845200 
# 
# From -- ./inp_files/521316.got.cif
#   From: 2010.06.25/outbox.cif.g09.slc.cpg/sg2_261_cif.got.tgz:521316.got - 2010.06.27 13:26:56.
