data_PCOD8002385
_publ_section_title
;
Structure prediction by ZEFSAII (Michael W. Deem and Ramdas Pophale) SiO2 
 PCOD8002385
Probable space group: P -1
;
_chemical_formula_sum "Si O2"
_cell_formula_units_Z 16
_cell_length_a 14.210637
_cell_length_b 8.337202
_cell_length_c 11.950851
_cell_angle_alpha 124.452354
_cell_angle_beta 137.217124
_cell_angle_gamma 56.343927
_cell_volume 768.211740
_symmetry_space_group_name_H-M "P -1"
_symmetry_group_IT_number 2
_symmetry_cell_setting 'triclinic'
loop_
_space_group_symop_operation_xyz
x,y,z
-x,-y,-z
loop_
_atom_site_type_symbol
_atom_site_label
_atom_site_fract_x
_atom_site_fract_y
_atom_site_fract_z
Si Si1 0.547096 0.031066 0.931277
Si Si2 0.983344 0.215574 0.518366
Si Si3 0.797360 0.733203 0.916173
Si Si4 0.836600 0.117475 0.979291
Si Si5 0.730126 0.334750 0.178554
Si Si6 0.858075 0.013261 0.722676
Si Si7 0.910433 0.346608 0.741855
Si Si8 0.732604 0.776946 0.356669
O O1 0.407211 0.065929 0.746709
O O2 0.655665 0.827700 0.901336
O O3 0.612146 0.224966 0.075039
O O4 0.500000 0.000000 0.000000
O O5 0.882705 0.236177 0.330265
O O6 0.907565 0.362667 0.610416
O O7 0.134323 0.255320 0.626796
O O8 0.000000 0.000000 0.500000
O O9 0.790738 0.537724 0.759939
O O10 0.928466 0.654746 0.084255
O O11 0.820919 0.900642 0.918052
O O12 0.740300 0.296496 0.038761
O O13 0.000137 0.121047 0.146921
O O14 0.785018 0.154674 0.819141
O O15 0.687389 0.570258 0.257688
O O16 0.769513 0.859302 0.541187
O O17 0.878348 0.142876 0.682742
#
# Coordination Sequence:
#
# PCOD8002385 Si02
#       8
#     2   2   2   2   2   2   2   2
#     4  11  24  44  66  89 132 175 208 266 329 387
#     4  12  21  38  66  97 129 159 217 272 313 366
#     4   9  20  39  59  92 122 167 211 257 323 381
#     4   9  19  37  59  86 130 164 204 259 321 365
#     4  11  24  41  63  95 126 172 218 261 319 382
#     4  10  20  35  60  92 126 163 205 265 316 371
#     4  10  20  36  64  94 123 160 217 267 313 374
#     4  12  24  39  64  99 129 166 220 261 321 385
#
# _framework density 20.827591000000002
#
# number of rings (size 3 to 8) (size 9 to 14) (size 15 to 20)
#    0.000    1.500    2.500    3.750    1.750    4.000 
#    0.000    3.125    2.750    0.000    0.000    0.000 
#    0.000    0.000    0.000    0.000    0.000    0.000 
#
# Total GULP energy -198333.015021 kJ/mol
# GULP energy per Si atom -12395.813439 kJ/mol
# Density = 2.078019 g / cm^3
# Si number density = 20.827591 Si / 1000 Ang^3
#
#
#
# Elastic Constant Matrix: (Units=GPa)
#
#
# Indices 1 2 3 4 5 6 
#
# 1 123.0091 29.4756 64.0931 4.0000 -13.8596 -18.8181
# 2 29.4756 75.2756 48.8572 7.6811 -6.4421 -19.1698
# 3 64.0931 48.8572 113.4952 18.9957 -16.3631 -10.7806
# 4 4.0000 7.6811 18.9957 32.8425 -2.7065 -1.3661
# 5 -13.8596 -6.4421 -16.3631 -2.7065 35.1818 2.8594
# 6 -18.8181 -19.1698 -10.7806 -1.3661 2.8594 21.4952
#
#
#
# Elastic Compliance Matrix: (Units=1/GPa)
#
#
# Indices 1 2 3 4 5 6 
#
# 1 0.013170 0.002106 -0.007714 0.002880 0.001433 0.009531
# 2 0.002106 0.023137 -0.009682 0.000603 -0.000835 0.017771
# 3 -0.007714 -0.009682 0.018451 -0.007453 0.003775 -0.007110
# 4 0.002880 0.000603 -0.007453 0.034353 0.000302 0.001464
# 5 0.001433 -0.000835 0.003775 0.000302 0.030750 -0.001669
# 6 0.009531 0.017771 -0.007110 0.001464 -0.001669 0.067464
#
#
# Mechanical properties :
#
#
# Convention : Reuss Voigt Hill
#
# Bulk Modulus (GPa) = 41.36125 66.29241 53.82683
# Shear Modulus (GPa) = 22.12731 29.19416 25.66074
#
# Velocity S-wave (km/s) = 3.26299 3.74800 3.51387
# Velocity P-wave (km/s) = 5.83936 7.11535 6.50870
#
# Compressibility (1/GPa) = 0.02417722
#
# Stress axis : x y z
#
# Youngs Moduli (GPa) = 75.92941 43.22124 54.19626
#
# Poissons Ratio (x) = -0.09101 0.41807
# Poissons Ratio (y) = -0.15989 0.52475
# Poissons Ratio (z) = 0.58572 0.41848
#
# Static dielectric constant tensor:
#      x y z
#    x 3.955980 -0.049810 -0.323570 
#    y -0.049810 3.690540 0.246010 
#    z -0.323570 0.246010 3.936460 
# 
# 
# High freq. dielectric constant tensor:
#      x y z
#    x 1.812920 0.002530 -0.018630 
#    y 0.002530 1.800490 0.015570 
#    z -0.018630 0.015570 1.812260 
# 
# From -- ./inp_files/345343.got.cif
#   From: 2010.06.25/outbox.cif.g09.slc.cpg/sg2_173_cif.got.tgz:345343.got - 2010.06.27 13:26:56.
