data_PCOD8002738
_publ_section_title
;
Structure prediction by ZEFSAII (Michael W. Deem and Ramdas Pophale) SiO2 
 PCOD8002738
Probable space group: P -1
;
_chemical_formula_sum "Si O2"
_cell_formula_units_Z 14
_cell_length_a 9.796708
_cell_length_b 9.614647
_cell_length_c 7.307463
_cell_angle_alpha 110.577288
_cell_angle_beta 81.861529
_cell_angle_gamma 110.932428
_cell_volume 601.760371
_symmetry_space_group_name_H-M "P -1"
_symmetry_group_IT_number 2
_symmetry_cell_setting 'triclinic'
loop_
_space_group_symop_operation_xyz
x,y,z
-x,-y,-z
loop_
_atom_site_type_symbol
_atom_site_label
_atom_site_fract_x
_atom_site_fract_y
_atom_site_fract_z
Si Si1 0.751647 0.380769 0.211139
Si Si2 0.662510 0.087565 0.319246
Si Si3 0.513540 0.524339 0.723839
Si Si4 0.449034 0.770560 0.269677
Si Si5 0.118706 0.608122 0.169973
Si Si6 0.046876 0.862021 0.509538
Si Si7 0.169690 0.391581 0.350330
O O1 0.725211 0.199012 0.183718
O O2 0.601943 0.391595 0.150468
O O3 0.791436 0.488818 0.431152
O O4 0.893235 0.444491 0.070935
O O5 0.568274 0.169293 0.494436
O O6 0.792420 0.065748 0.405690
O O7 0.558981 0.913671 0.197064
O O8 0.500000 0.500000 0.500000
O O9 0.477353 0.364242 0.775181
O O10 0.683761 0.627013 0.774383
O O11 0.291908 0.708459 0.175988
O O12 0.035725 0.729794 0.295827
O O13 0.086535 0.465950 0.254947
O O14 0.935380 0.780299 0.655427
O O15 0.000000 0.000000 0.500000
#
# Coordination Sequence:
#
# PCOD8002738 Si02
#       7
#     2   2   2   2   2   2   2
#     4  11  21  37  65  93 120 155 197 251 302 351
#     4  10  20  36  58  86 120 160 195 244 295 349
#     4   9  17  33  60  91 111 153 195 240 298 341
#     4   9  18  35  58  86 124 151 196 244 289 354
#     4  10  22  41  63  92 117 160 200 243 308 348
#     4  11  24  41  63  84 119 166 204 243 299 359
#     4  10  21  41  61  89 123 157 201 245 288 365
#
# _framework density 23.265075
#
# number of rings (size 3 to 8) (size 9 to 14) (size 15 to 20)
#    0.000    2.000    5.714    0.429    4.000    4.571 
#    0.000    2.143    0.000    0.000    0.000    0.000 
#    0.000    0.000    0.000    0.000    0.000    0.000 
#
# Total GULP energy -173597.869989 kJ/mol
# GULP energy per Si atom -12399.847856 kJ/mol
# Density = 2.321212 g / cm^3
# Si number density = 23.265075 Si / 1000 Ang^3
#
#
#
# Elastic Constant Matrix: (Units=GPa)
#
#
# Indices 1 2 3 4 5 6 
#
# 1 105.1382 65.4739 27.7703 -6.0656 -7.2770 -21.3589
# 2 65.4739 179.9024 31.4668 -29.0618 -10.7254 -11.0787
# 3 27.7703 31.4668 64.0047 -16.1312 -16.1668 -10.4526
# 4 -6.0656 -29.0618 -16.1312 28.2145 7.0968 -1.9107
# 5 -7.2770 -10.7254 -16.1668 7.0968 33.9335 -4.1404
# 6 -21.3589 -11.0787 -10.4526 -1.9107 -4.1404 48.6753
#
#
#
# Elastic Compliance Matrix: (Units=1/GPa)
#
#
# Indices 1 2 3 4 5 6 
#
# 1 0.014255 -0.004852 -0.003880 -0.004130 0.001056 0.004245
# 2 -0.004852 0.008609 -0.000161 0.007740 -0.000003 0.000099
# 3 -0.003880 -0.000161 0.022762 0.010203 0.008347 0.004259
# 4 -0.004130 0.007740 0.010203 0.049488 -0.003466 0.003788
# 5 0.001056 -0.000003 0.008347 -0.003466 0.035019 0.005098
# 6 0.004245 0.000099 0.004259 0.003788 0.005098 0.023927
#
#
# Mechanical properties :
#
#
# Convention : Reuss Voigt Hill
#
# Bulk Modulus (GPa) = 35.92066 66.49634 51.20850
# Shear Modulus (GPa) = 27.60504 37.12028 32.36266
#
# Velocity S-wave (km/s) = 3.44836 3.99875 3.73371
# Velocity P-wave (km/s) = 5.59716 7.06853 6.37543
#
# Compressibility (1/GPa) = 0.02783913
#
# Stress axis : x y z
#
# Youngs Moduli (GPa) = 70.15063 116.16015 43.93295
#
# Poissons Ratio (x) = 0.56361 0.17047
# Poissons Ratio (y) = 0.34037 0.00707
# Poissons Ratio (z) = 0.27220 0.01870
#
# Static dielectric constant tensor:
#      x y z
#    x 4.963980 0.201320 -0.221840 
#    y 0.201320 4.255260 -0.100220 
#    z -0.221840 -0.100220 4.278710 
# 
# 
# High freq. dielectric constant tensor:
#      x y z
#    x 1.947100 0.010930 -0.003270 
#    y 0.010930 1.912740 -0.021370 
#    z -0.003270 -0.021370 1.903960 
# 
# From -- ./inp_files/155358.got.cif
#   From: 2010.06.25/outbox.cif.g09.slc.cpg/sg2_78_cif.got.tgz:155358.got - 2010.06.27 13:26:56.
