data_PCOD8002715
_publ_section_title
;
Structure prediction by ZEFSAII (Michael W. Deem and Ramdas Pophale) SiO2 
 PCOD8002715
Probable space group: P -1
;
_chemical_formula_sum "Si O2"
_cell_formula_units_Z 16
_cell_length_a 12.368249
_cell_length_b 15.698427
_cell_length_c 15.408914
_cell_angle_alpha 37.863922
_cell_angle_beta 27.957617
_cell_angle_gamma 46.564639
_cell_volume 860.414071
_symmetry_space_group_name_H-M "P -1"
_symmetry_group_IT_number 2
_symmetry_cell_setting 'triclinic'
loop_
_space_group_symop_operation_xyz
x,y,z
-x,-y,-z
loop_
_atom_site_type_symbol
_atom_site_label
_atom_site_fract_x
_atom_site_fract_y
_atom_site_fract_z
Si Si1 0.026656 0.464916 0.109400
Si Si2 0.233353 0.286821 0.624581
Si Si3 0.136772 0.007342 0.702647
Si Si4 0.845878 0.216659 0.824936
Si Si5 0.410032 0.642001 0.413634
Si Si6 0.381991 0.991357 0.716605
Si Si7 0.457674 0.584306 0.226990
Si Si8 0.139266 0.258967 0.912465
O O1 0.842061 0.346648 0.371974
O O2 0.998625 0.610110 0.061463
O O3 0.273387 0.398164 0.001467
O O4 0.000000 0.500000 0.000000
O O5 0.394158 0.422951 0.390550
O O6 0.142961 0.276039 0.793930
O O7 0.015827 0.296160 0.707370
O O8 0.386433 0.155699 0.599197
O O9 0.362010 0.053083 0.452070
O O10 0.985502 0.144170 0.706710
O O11 0.205298 0.955929 0.791961
O O12 0.998111 0.883517 0.851065
O O13 0.678674 0.328651 0.815872
O O14 0.698515 0.093385 0.074412
O O15 0.500000 0.500000 0.500000
O O16 0.396796 0.640732 0.320182
O O17 0.602467 0.755863 0.218237
#
# Coordination Sequence:
#
# PCOD8002715 Si02
#       8
#     2   2   2   2   2   2   2   2
#     4  11  20  37  60  85 115 152 204 249 287 343
#     4  11  19  39  63  88 119 159 199 238 290 354
#     4  10  20  37  64  86 115 161 206 236 283 351
#     4  11  23  39  57  89 133 155 183 246 305 355
#     4  10  20  36  58  84 112 151 198 248 285 339
#     4  10  20  38  63  87 117 162 204 236 279 359
#     4  12  23  38  59  91 123 157 189 249 307 341
#     4  11  18  36  66  87 111 150 208 251 276 340
#
# _framework density 18.595699
#
# number of rings (size 3 to 8) (size 9 to 14) (size 15 to 20)
#    0.000    1.250    7.500    1.875    0.000    1.000 
#    0.000    1.250    0.000    1.500    0.000    0.000 
#    0.000    0.000    0.000    0.000    0.000    0.000 
#
# Total GULP energy -198390.237194 kJ/mol
# GULP energy per Si atom -12399.389825 kJ/mol
# Density = 1.855337 g / cm^3
# Si number density = 18.595699 Si / 1000 Ang^3
#
#
#
# Elastic Constant Matrix: (Units=GPa)
#
#
# Indices 1 2 3 4 5 6 
#
# 1 69.0304 20.5294 16.6219 10.1528 -1.4291 12.4765
# 2 20.5294 65.3267 26.3456 22.5228 -2.4255 10.2833
# 3 16.6219 26.3456 76.9111 16.1364 -5.0074 6.4299
# 4 10.1528 22.5228 16.1364 33.2663 7.9593 -2.7019
# 5 -1.4291 -2.4255 -5.0074 7.9593 18.5624 -5.5597
# 6 12.4765 10.2833 6.4299 -2.7019 -5.5597 25.2040
#
#
#
# Elastic Compliance Matrix: (Units=1/GPa)
#
#
# Indices 1 2 3 4 5 6 
#
# 1 0.017492 -0.002460 -0.001580 -0.003481 -0.000206 -0.007671
# 2 -0.002460 0.024731 -0.003296 -0.016703 0.006824 -0.008317
# 3 -0.001580 -0.003296 0.016461 -0.006925 0.006440 -0.001395
# 4 -0.003481 -0.016703 -0.006925 0.052291 -0.023530 0.010720
# 5 -0.000206 0.006824 0.006440 -0.023530 0.069088 0.008393
# 6 -0.007671 -0.008317 -0.001395 0.010720 0.008393 0.050223
#
#
# Mechanical properties :
#
#
# Convention : Reuss Voigt Hill
#
# Bulk Modulus (GPa) = 22.72039 37.58467 30.15253
# Shear Modulus (GPa) = 19.25817 25.25795 22.25806
#
# Velocity S-wave (km/s) = 3.22160 3.68947 3.46344
# Velocity P-wave (km/s) = 5.10714 6.19717 5.67837
#
# Compressibility (1/GPa) = 0.04401334
#
# Stress axis : x y z
#
# Youngs Moduli (GPa) = 57.16743 40.43471 60.74853
#
# Poissons Ratio (x) = 0.09948 0.09596
# Poissons Ratio (y) = 0.14065 0.20023
# Poissons Ratio (z) = 0.09030 0.13327
#
# Static dielectric constant tensor:
#      x y z
#    x 3.515780 -0.147200 -0.606810 
#    y -0.147200 2.430170 -0.317040 
#    z -0.606810 -0.317040 3.683660 
# 
# 
# High freq. dielectric constant tensor:
#      x y z
#    x 1.713260 0.018540 -0.013990 
#    y 0.018540 1.708080 0.015000 
#    z -0.013990 0.015000 1.730860 
# 
# From -- ./inp_files/246006.got.cif
#   From: 2010.06.25/outbox.cif.g09.slc.cpg/sg2_124_cif.got.tgz:246006.got - 2010.06.27 13:26:56.
