data_PCOD8002041
_publ_section_title
;
Structure prediction by ZEFSAII (Michael W. Deem and Ramdas Pophale) SiO2 
 PCOD8002041
Probable space group: P -1
;
_chemical_formula_sum "Si O2"
_cell_formula_units_Z 16
_cell_length_a 8.387894
_cell_length_b 23.147700
_cell_length_c 10.829499
_cell_angle_alpha 41.709761
_cell_angle_beta 138.230001
_cell_angle_gamma 137.971619
_cell_volume 845.877929
_symmetry_space_group_name_H-M "P -1"
_symmetry_group_IT_number 2
_symmetry_cell_setting 'triclinic'
loop_
_space_group_symop_operation_xyz
x,y,z
-x,-y,-z
loop_
_atom_site_type_symbol
_atom_site_label
_atom_site_fract_x
_atom_site_fract_y
_atom_site_fract_z
Si Si1 0.238863 0.271455 0.958555
Si Si2 0.380786 0.204221 0.514618
Si Si3 0.731871 0.286919 0.367976
Si Si4 0.428266 0.012638 0.801966
Si Si5 0.065365 0.865110 0.213054
Si Si6 0.909474 0.197544 0.125278
Si Si7 0.421183 0.228848 0.783191
Si Si8 0.702007 0.607589 0.427985
O O1 0.278481 0.364386 0.751041
O O2 0.083167 0.179106 0.930975
O O3 0.529047 0.281513 0.150605
O O4 0.057710 0.260276 0.991345
O O5 0.603479 0.284155 0.432646
O O6 0.343621 0.100389 0.608607
O O7 0.468358 0.222903 0.675549
O O8 0.112146 0.217329 0.323185
O O9 0.811123 0.198661 0.543865
O O10 0.011220 0.381383 0.374116
O O11 0.690372 0.034128 0.834736
O O12 0.195156 0.915479 0.779190
O O13 0.500000 0.000000 0.000000
O O14 0.838158 0.866148 0.172547
O O15 0.682842 0.226921 0.996958
O O16 0.398779 0.324666 0.660136
O O17 0.500000 0.500000 0.500000
#
# Coordination Sequence:
#
# PCOD8002041 Si02
#       8
#     2   2   2   2   2   2   2   2
#     4   9  17  34  56  76 101 142 177 211 262 319
#     4  10  20  35  54  80 109 144 181 215 257 305
#     4   8  17  34  56  75 104 139 177 211 256 323
#     4  11  18  34  56  76 110 146 189 219 243 302
#     4   9  19  32  50  78 109 144 179 214 263 298
#     4  11  20  34  56  79 107 145 183 218 256 306
#     4  10  20  35  53  76 109 138 169 223 276 313
#     4  10  22  38  58  81 104 133 173 219 274 328
#
# _framework density 18.915258999999999
#
# number of rings (size 3 to 8) (size 9 to 14) (size 15 to 20)
#    0.000    2.500    2.500    1.875    0.000    5.000 
#    0.000    3.125    0.000    3.000    0.000    0.000 
#    0.000    0.000    0.000    0.000    0.000    0.000 
#
# Total GULP energy -198223.195181 kJ/mol
# GULP energy per Si atom -12388.949699 kJ/mol
# Density = 1.887221 g / cm^3
# Si number density = 18.915259 Si / 1000 Ang^3
#
#
#
# Elastic Constant Matrix: (Units=GPa)
#
#
# Indices 1 2 3 4 5 6 
#
# 1 76.3704 27.9876 32.6412 -4.4961 16.9342 18.3376
# 2 27.9876 71.1479 27.7198 -7.2577 6.2254 24.8928
# 3 32.6412 27.7198 83.2571 18.5956 15.6352 17.0424
# 4 -4.4961 -7.2577 18.5956 25.6659 9.8517 2.5033
# 5 16.9342 6.2254 15.6352 9.8517 32.1867 3.2388
# 6 18.3376 24.8928 17.0424 2.5033 3.2388 29.9362
#
#
#
# Elastic Compliance Matrix: (Units=1/GPa)
#
#
# Indices 1 2 3 4 5 6 
#
# 1 0.022078 0.000172 -0.008063 0.015027 -0.011416 -0.009098
# 2 0.000172 0.025090 -0.007588 0.016019 -0.004398 -0.017512
# 3 -0.008063 -0.007588 0.021849 -0.019860 0.001140 0.000348
# 4 0.015027 0.016019 -0.019860 0.070146 -0.021341 -0.014776
# 5 -0.011416 -0.004398 0.001140 -0.021341 0.043188 0.007113
# 6 -0.009098 -0.017512 0.000348 -0.014776 0.007113 0.053807
#
#
# Mechanical properties :
#
#
# Convention : Reuss Voigt Hill
#
# Bulk Modulus (GPa) = 26.27574 45.27476 35.77525
# Shear Modulus (GPa) = 17.86968 27.05287 22.46128
#
# Velocity S-wave (km/s) = 3.07697 3.78592 3.44971
# Velocity P-wave (km/s) = 5.15219 6.56494 5.90100
#
# Compressibility (1/GPa) = 0.03805791
#
# Stress axis : x y z
#
# Youngs Moduli (GPa) = 45.29380 39.85653 45.76874
#
# Poissons Ratio (x) = -0.00684 0.36904
# Poissons Ratio (y) = -0.00777 0.34729
# Poissons Ratio (z) = 0.36521 0.30243
#
# Static dielectric constant tensor:
#      x y z
#    x 3.607880 0.408690 0.064480 
#    y 0.408690 2.607810 0.319980 
#    z 0.064480 0.319980 3.502480 
# 
# 
# High freq. dielectric constant tensor:
#      x y z
#    x 1.739220 0.032530 0.000970 
#    y 0.032530 1.701890 0.023290 
#    z 0.000970 0.023290 1.735620 
# 
# From -- ./inp_files/278321.got.cif
#   From: 2010.06.25/outbox.cif.g09.slc.cpg/sg2_140_cif.got.tgz:278321.got - 2010.06.27 13:26:56.
