data_PCOD8002354
_publ_section_title
;
Structure prediction by ZEFSAII (Michael W. Deem and Ramdas Pophale) SiO2 
 PCOD8002354
Probable space group: P -1
;
_chemical_formula_sum "Si O2"
_cell_formula_units_Z 12
_cell_length_a 15.511911
_cell_length_b 9.151052
_cell_length_c 9.205062
_cell_angle_alpha 63.248591
_cell_angle_beta 140.593423
_cell_angle_gamma 95.264617
_cell_volume 660.854775
_symmetry_space_group_name_H-M "P -1"
_symmetry_group_IT_number 2
_symmetry_cell_setting 'triclinic'
loop_
_space_group_symop_operation_xyz
x,y,z
-x,-y,-z
loop_
_atom_site_type_symbol
_atom_site_label
_atom_site_fract_x
_atom_site_fract_y
_atom_site_fract_z
Si Si1 0.848722 0.459920 0.707910
Si Si2 0.679263 0.389022 0.278086
Si Si3 0.809879 0.687148 0.814534
Si Si4 0.821196 0.610179 0.194340
Si Si5 0.302456 0.173529 0.806490
Si Si6 0.643558 0.062433 0.273973
O O1 0.748303 0.374739 0.536961
O O2 0.799620 0.522121 0.783129
O O3 0.828352 0.643706 0.517085
O O4 0.025873 0.316782 0.990743
O O5 0.746428 0.483970 0.211383
O O6 0.726925 0.182360 0.378232
O O7 0.500000 0.500000 0.000000
O O8 0.686299 0.885310 0.510124
O O9 0.774545 0.661104 0.945186
O O10 0.749838 0.806131 0.101926
O O11 0.000000 0.500000 0.500000
O O12 0.310647 0.997463 0.809109
O O13 0.462083 0.183234 0.994800
#
# Coordination Sequence:
#
# PCOD8002354 Si02
#       6
#     2   2   2   2   2   2
#     4   9  18  36  59  80 114 154 189 214 294 348
#     4  11  20  38  61  84 113 154 191 228 285 345
#     4  10  20  35  60  86 112 148 193 236 276 338
#     4  11  20  38  61  84 113 154 191 228 285 345
#     4   9  18  36  59  80 114 154 189 214 294 348
#     4  10  20  35  60  86 112 148 193 236 276 338
#
# _framework density 18.158303
#
# number of rings (size 3 to 8) (size 9 to 14) (size 15 to 20)
#    0.000    2.000    6.667    0.000    0.000    1.333 
#    0.000    3.333    0.000    0.000    0.000    0.000 
#    0.000    0.000    0.000    0.000    0.000    0.000 
#
# Total GULP energy -148708.387593 kJ/mol
# GULP energy per Si atom -12392.365633 kJ/mol
# Density = 1.811697 g / cm^3
# Si number density = 18.158303 Si / 1000 Ang^3
#
#
#
# Elastic Constant Matrix: (Units=GPa)
#
#
# Indices 1 2 3 4 5 6 
#
# 1 107.8324 58.8223 30.7405 11.2488 -10.8321 -27.6430
# 2 58.8223 145.4018 33.6639 31.8175 -2.2794 -26.2613
# 3 30.7405 33.6639 69.5352 16.2069 -0.8511 -7.0773
# 4 11.2488 31.8175 16.2069 33.3805 -6.1815 -5.9417
# 5 -10.8321 -2.2794 -0.8511 -6.1815 31.2210 8.7901
# 6 -27.6430 -26.2613 -7.0773 -5.9417 8.7901 36.5257
#
#
#
# Elastic Compliance Matrix: (Units=1/GPa)
#
#
# Indices 1 2 3 4 5 6 
#
# 1 0.014630 -0.004303 -0.004378 0.003132 0.003338 0.006836
# 2 -0.004303 0.011558 -0.001235 -0.008885 -0.003637 0.004244
# 3 -0.004378 -0.001235 0.018364 -0.006879 -0.002118 -0.001252
# 4 0.003132 -0.008885 -0.006879 0.042231 0.008779 -0.000594
# 5 0.003338 -0.003637 -0.002118 0.008779 0.036837 -0.007936
# 6 0.006836 0.004244 -0.001252 -0.000594 -0.007936 0.037174
#
#
# Mechanical properties :
#
#
# Convention : Reuss Voigt Hill
#
# Bulk Modulus (GPa) = 40.45196 63.24699 51.84948
# Shear Modulus (GPa) = 26.47365 33.52827 30.00096
#
# Velocity S-wave (km/s) = 3.82244 4.30169 4.06912
# Velocity P-wave (km/s) = 6.46584 7.71876 7.11991
#
# Compressibility (1/GPa) = 0.02472068
#
# Stress axis : x y z
#
# Youngs Moduli (GPa) = 68.35174 86.51912 54.45335
#
# Poissons Ratio (x) = 0.37233 0.23838
# Poissons Ratio (y) = 0.29415 0.06724
# Poissons Ratio (z) = 0.29923 0.10683
#
# Static dielectric constant tensor:
#      x y z
#    x 2.642670 -0.732440 -0.103420 
#    y -0.732440 3.558390 0.202940 
#    z -0.103420 0.202940 3.421300 
# 
# 
# High freq. dielectric constant tensor:
#      x y z
#    x 1.671040 -0.041110 0.008720 
#    y -0.041110 1.702320 0.011830 
#    z 0.008720 0.011830 1.716190 
# 
# From -- ./inp_files/146030.got.cif
#   From: 2010.06.25/outbox.cif.g09.slc.cpg/sg2_74_cif.got.tgz:146030.got - 2010.06.27 13:26:56.
