data_PCOD8002032
_publ_section_title
;
Structure prediction by ZEFSAII (Michael W. Deem and Ramdas Pophale) SiO2 
 PCOD8002032
Probable space group: P -1
;
_chemical_formula_sum "Si O2"
_cell_formula_units_Z 12
_cell_length_a 12.487707
_cell_length_b 9.630718
_cell_length_c 10.961582
_cell_angle_alpha 121.913695
_cell_angle_beta 68.687458
_cell_angle_gamma 62.979270
_cell_volume 600.453429
_symmetry_space_group_name_H-M "P -1"
_symmetry_group_IT_number 2
_symmetry_cell_setting 'triclinic'
loop_
_space_group_symop_operation_xyz
x,y,z
-x,-y,-z
loop_
_atom_site_type_symbol
_atom_site_label
_atom_site_fract_x
_atom_site_fract_y
_atom_site_fract_z
Si Si1 0.702077 0.645071 0.383974
Si Si2 0.186571 0.749287 0.220701
Si Si3 0.631766 0.069315 0.529503
Si Si4 0.033655 0.167403 0.854149
Si Si5 0.376014 0.527413 0.475372
Si Si6 0.506766 0.419844 0.112175
O O1 0.559681 0.734924 0.383271
O O2 0.664468 0.601968 0.508821
O O3 0.663922 0.883449 0.525217
O O4 0.926645 0.348594 0.106737
O O5 0.369282 0.471266 0.101621
O O6 0.128770 0.680220 0.113533
O O7 0.268686 0.814354 0.141469
O O8 0.000000 0.000000 0.500000
O O9 0.604514 0.272464 0.703679
O O10 0.824151 0.852080 0.259944
O O11 0.163913 0.853843 0.681687
O O12 0.500000 0.500000 0.500000
O O13 0.506733 0.346874 0.214605
#
# Coordination Sequence:
#
# PCOD8002032 Si02
#       6
#     2   2   2   2   2   2
#     4  11  21  34  54  82 117 141 170 220 281 322
#     4  11  19  35  59  81 101 141 191 227 252 309
#     4  10  20  35  52  82 113 143 176 216 269 329
#     4  11  20  35  58  82 106 144 187 218 262 320
#     4  11  19  35  53  82 116 137 175 227 273 314
#     4  10  21  35  57  83 106 139 182 227 263 313
#
# _framework density 19.984897
#
# number of rings (size 3 to 8) (size 9 to 14) (size 15 to 20)
#    0.000    1.333    8.333    1.000    0.000    0.000 
#    0.000    0.000    0.000    8.000    0.000    0.000 
#    0.000    0.000    0.000    0.000    0.000    0.000 
#
# Total GULP energy -148717.942481 kJ/mol
# GULP energy per Si atom -12393.161873 kJ/mol
# Density = 1.993941 g / cm^3
# Si number density = 19.984897 Si / 1000 Ang^3
#
#
#
# Elastic Constant Matrix: (Units=GPa)
#
#
# Indices 1 2 3 4 5 6 
#
# 1 34.3334 25.7222 16.4350 4.5946 -11.5556 4.8944
# 2 25.7222 143.2320 39.0221 -28.8866 -2.5359 19.1630
# 3 16.4350 39.0221 107.0907 -33.5661 -21.3613 5.7928
# 4 4.5946 -28.8866 -33.5661 36.6554 2.9200 -3.5534
# 5 -11.5556 -2.5359 -21.3613 2.9200 27.3725 -4.2530
# 6 4.8944 19.1630 5.7928 -3.5534 -4.2530 31.1639
#
#
#
# Elastic Compliance Matrix: (Units=1/GPa)
#
#
# Indices 1 2 3 4 5 6 
#
# 1 0.050009 -0.011379 -0.007570 -0.023482 0.016679 0.000149
# 2 -0.011379 0.011748 -0.000083 0.010578 -0.005684 -0.004991
# 3 -0.007570 -0.000083 0.017253 0.016091 0.008709 0.001056
# 4 -0.023482 0.010578 0.016091 0.053462 -0.002078 0.000005
# 5 0.016679 -0.005684 0.008709 -0.002078 0.050994 0.005979
# 6 0.000149 -0.004991 0.001056 0.000005 0.005979 0.035754
#
#
# Mechanical properties :
#
#
# Convention : Reuss Voigt Hill
#
# Bulk Modulus (GPa) = 24.42139 49.66830 37.04485
# Shear Modulus (GPa) = 18.45469 32.60347 25.52908
#
# Velocity S-wave (km/s) = 3.04210 4.04345 3.57798
# Velocity P-wave (km/s) = 4.95839 6.83419 5.97042
#
# Compressibility (1/GPa) = 0.04094771
#
# Stress axis : x y z
#
# Youngs Moduli (GPa) = 19.99622 85.11994 57.95951
#
# Poissons Ratio (x) = 0.96857 0.43874
# Poissons Ratio (y) = 0.22754 0.00481
# Poissons Ratio (z) = 0.15137 0.00706
#
# Static dielectric constant tensor:
#      x y z
#    x 3.632520 -0.011650 -0.329520 
#    y -0.011650 3.694820 -0.333560 
#    z -0.329520 -0.333560 3.838050 
# 
# 
# High freq. dielectric constant tensor:
#      x y z
#    x 1.763960 -0.010920 -0.029000 
#    y -0.010920 1.757730 -0.030950 
#    z -0.029000 -0.030950 1.785910 
# 
# From -- ./inp_files/172508.got.cif
#   From: 2010.06.25/outbox.cif.g09.slc.cpg/sg2_87_cif.got.tgz:172508.got - 2010.06.27 13:26:56.
