data_PCOD8002038
_publ_section_title
;
Structure prediction by ZEFSAII (Michael W. Deem and Ramdas Pophale) SiO2 
 PCOD8002038
Probable space group: P -1
;
_chemical_formula_sum "Si O2"
_cell_formula_units_Z 14
_cell_length_a 10.730729
_cell_length_b 10.190274
_cell_length_c 14.365769
_cell_angle_alpha 81.916756
_cell_angle_beta 83.784867
_cell_angle_gamma 27.244940
_cell_volume 711.512051
_symmetry_space_group_name_H-M "P -1"
_symmetry_group_IT_number 2
_symmetry_cell_setting 'triclinic'
loop_
_space_group_symop_operation_xyz
x,y,z
-x,-y,-z
loop_
_atom_site_type_symbol
_atom_site_label
_atom_site_fract_x
_atom_site_fract_y
_atom_site_fract_z
Si Si1 0.828712 0.333396 0.517406
Si Si2 0.479707 0.830487 0.225762
Si Si3 0.837725 0.789620 0.070625
Si Si4 0.251323 0.309077 0.441706
Si Si5 0.036156 0.441423 0.247617
Si Si6 0.666191 0.660927 0.031203
Si Si7 0.707228 0.171250 0.598149
O O1 0.736976 0.542676 0.567212
O O2 0.851118 0.180494 0.595571
O O3 0.599683 0.521608 0.440811
O O4 0.114032 0.086535 0.462828
O O5 0.565262 0.688063 0.133076
O O6 0.316881 0.875933 0.295369
O O7 0.757476 0.621467 0.274966
O O8 0.254259 0.157832 0.193637
O O9 0.751516 0.730076 0.041116
O O10 0.946578 0.660558 0.179575
O O11 0.065374 0.654510 0.004994
O O12 0.567079 0.132590 0.050251
O O13 0.210700 0.308984 0.338164
O O14 0.000000 0.500000 0.500000
O O15 0.500000 0.000000 0.500000
#
# Coordination Sequence:
#
# PCOD8002038 Si02
#       7
#     2   2   2   2   2   2   2
#     4  10  21  36  52  70  96 131 165 201 246 283
#     4  11  19  30  48  74  98 124 161 200 244 286
#     4   9  16  28  41  64  96 126 154 186 239 294
#     4  12  23  35  51  73 101 131 164 201 241 293
#     4  11  21  30  47  71 100 131 158 194 243 294
#     4   9  16  26  44  65  94 124 152 195 238 285
#     4  10  20  35  53  71  95 127 166 208 241 284
#
# _framework density 19.676404999999999
#
# number of rings (size 3 to 8) (size 9 to 14) (size 15 to 20)
#    0.000    1.714    0.000    9.429    0.000    0.000 
#    0.000    0.000    0.000    0.000    0.000    2.000 
#    0.000    0.000    0.000    8.857    0.000    0.000 
#
# Total GULP energy -173443.966625 kJ/mol
# GULP energy per Si atom -12388.854759 kJ/mol
# Density = 1.963162 g / cm^3
# Si number density = 19.676405 Si / 1000 Ang^3
#
#
#
# Elastic Constant Matrix: (Units=GPa)
#
#
# Indices 1 2 3 4 5 6 
#
# 1 50.6334 18.1271 29.0122 3.3559 -11.8234 1.2662
# 2 18.1271 104.9565 28.2498 -4.1431 -3.4826 -14.0763
# 3 29.0122 28.2498 115.5016 -9.9673 -21.0068 -10.5583
# 4 3.3559 -4.1431 -9.9673 35.4902 -11.4761 -3.9086
# 5 -11.8234 -3.4826 -21.0068 -11.4761 24.0237 5.5783
# 6 1.2662 -14.0763 -10.5583 -3.9086 5.5783 24.8779
#
#
#
# Elastic Compliance Matrix: (Units=1/GPa)
#
#
# Indices 1 2 3 4 5 6 
#
# 1 0.026521 -0.004133 -0.005009 -0.002452 0.008800 -0.008173
# 2 -0.004133 0.011538 -0.001557 0.001164 -0.002765 0.006881
# 3 -0.005009 -0.001557 0.013643 0.008564 0.012467 0.003714
# 4 -0.002452 0.001164 0.008564 0.039287 0.024009 0.005207
# 5 0.008800 -0.002765 0.012467 0.024009 0.069930 -0.008629
# 6 -0.008173 0.006881 0.003714 0.005207 -0.008629 0.048835
#
#
# Mechanical properties :
#
#
# Convention : Reuss Voigt Hill
#
# Bulk Modulus (GPa) = 32.99963 46.87440 39.93701
# Shear Modulus (GPa) = 20.72515 29.92519 25.32517
#
# Velocity S-wave (km/s) = 3.24898 3.90406 3.59149
# Velocity P-wave (km/s) = 5.55716 6.64805 6.12694
#
# Compressibility (1/GPa) = 0.03030337
#
# Stress axis : x y z
#
# Youngs Moduli (GPa) = 37.70550 86.67218 73.29799
#
# Poissons Ratio (x) = 0.35823 0.36715
# Poissons Ratio (y) = 0.15584 0.11414
# Poissons Ratio (z) = 0.18887 0.13496
#
# Static dielectric constant tensor:
#      x y z
#    x 3.059270 -0.361240 -0.530890 
#    y -0.361240 3.988440 -0.138100 
#    z -0.530890 -0.138100 3.332980 
# 
# 
# High freq. dielectric constant tensor:
#      x y z
#    x 1.700870 -0.028200 -0.031930 
#    y -0.028200 1.796310 -0.005150 
#    z -0.031930 -0.005150 1.755640 
# 
# From -- ./inp_files/519708.got.cif
#   From: 2010.06.25/outbox.cif.g09.slc.cpg/sg2_260_cif.got.tgz:519708.got - 2010.06.27 13:26:56.
