data_PCOD8002750
_publ_section_title
;
Structure prediction by ZEFSAII (Michael W. Deem and Ramdas Pophale) SiO2 
 PCOD8002750
Probable space group: P -1
;
_chemical_formula_sum "Si O2"
_cell_formula_units_Z 16
_cell_length_a 16.425228
_cell_length_b 12.039476
_cell_length_c 16.029213
_cell_angle_alpha 41.120543
_cell_angle_beta 155.168705
_cell_angle_gamma 144.384003
_cell_volume 773.626331
_symmetry_space_group_name_H-M "P -1"
_symmetry_group_IT_number 2
_symmetry_cell_setting 'triclinic'
loop_
_space_group_symop_operation_xyz
x,y,z
-x,-y,-z
loop_
_atom_site_type_symbol
_atom_site_label
_atom_site_fract_x
_atom_site_fract_y
_atom_site_fract_z
Si Si1 0.258533 0.385890 0.304157
Si Si2 0.723439 0.060485 0.854686
Si Si3 0.382935 0.701499 0.814492
Si Si4 0.902251 0.995215 0.705608
Si Si5 0.014894 0.473225 0.339230
Si Si6 0.243148 0.920649 0.308375
Si Si7 0.774955 0.630568 0.273690
Si Si8 0.015518 0.511980 0.129076
O O1 0.500000 0.500000 0.500000
O O2 0.255226 0.183616 0.396652
O O3 0.078762 0.374451 0.211172
O O4 0.196641 0.473480 0.114219
O O5 0.795621 0.017496 0.854756
O O6 0.768706 0.278776 0.781344
O O7 0.472517 0.911258 0.733361
O O8 0.877226 0.025366 0.080431
O O9 0.210504 0.666321 0.745925
O O10 0.273233 0.550152 0.725374
O O11 0.581691 0.685261 0.053848
O O12 0.805068 0.972977 0.720827
O O13 0.981201 0.203757 0.620877
O O14 0.092360 0.694374 0.305882
O O15 0.201704 0.422655 0.578386
O O16 0.964590 0.422334 0.224383
O O17 0.500000 0.000000 0.500000
#
# Coordination Sequence:
#
# PCOD8002750 Si02
#       8
#     2   2   2   2   2   2   2   2
#     4  10  22  41  65  82 113 156 203 250 297 339
#     4   9  20  37  59  86 122 151 189 244 290 355
#     4  10  20  36  58  88 123 167 187 225 294 360
#     4  10  21  38  58  85 116 158 194 241 294 348
#     4  11  22  37  60  87 126 154 190 245 290 355
#     4  11  22  33  54  92 121 150 193 238 296 353
#     4  10  21  36  56  87 126 159 193 229 291 363
#     4   9  22  42  60  91 115 148 201 254 293 340
#
# _framework density 20.681819000000001
#
# number of rings (size 3 to 8) (size 9 to 14) (size 15 to 20)
#    0.000    2.000    1.250    1.500    5.250    1.000 
#    4.500    0.625    0.000   15.750    0.000    0.000 
#    0.000    0.000    0.000    0.000    0.000    0.000 
#
# Total GULP energy -198234.423362 kJ/mol
# GULP energy per Si atom -12389.651460 kJ/mol
# Density = 2.063475 g / cm^3
# Si number density = 20.681819 Si / 1000 Ang^3
#
#
#
# Elastic Constant Matrix: (Units=GPa)
#
#
# Indices 1 2 3 4 5 6 
#
# 1 118.8923 51.4909 36.1182 2.3616 -19.8812 4.5667
# 2 51.4909 99.0909 25.9284 17.5015 -8.4737 7.7194
# 3 36.1182 25.9284 86.5683 13.8763 -25.5041 7.5435
# 4 2.3616 17.5015 13.8763 26.4158 5.0303 -2.3483
# 5 -19.8812 -8.4737 -25.5041 5.0303 35.0384 0.9156
# 6 4.5667 7.7194 7.5435 -2.3483 0.9156 37.0395
#
#
#
# Elastic Compliance Matrix: (Units=1/GPa)
#
#
# Indices 1 2 3 4 5 6 
#
# 1 0.012404 -0.006173 -0.003350 0.004329 0.002468 0.000653
# 2 -0.006173 0.015500 0.000652 -0.010807 0.002359 -0.003345
# 3 -0.003350 0.000652 0.019726 -0.013739 0.014718 -0.004975
# 4 0.004329 -0.010807 -0.013739 0.056116 -0.018437 0.008530
# 5 0.002468 0.002359 0.014718 -0.018437 0.044029 -0.006051
# 6 0.000653 -0.003345 -0.004975 0.008530 -0.006051 0.029319
#
#
# Mechanical properties :
#
#
# Convention : Reuss Voigt Hill
#
# Bulk Modulus (GPa) = 33.45878 59.06963 46.26420
# Shear Modulus (GPa) = 24.41432 32.43298 28.42365
#
# Velocity S-wave (km/s) = 3.43953 3.96433 3.71122
# Velocity P-wave (km/s) = 5.65569 7.04114 6.38610
#
# Compressibility (1/GPa) = 0.02988752
#
# Stress axis : x y z
#
# Youngs Moduli (GPa) = 80.61996 64.51596 50.69510
#
# Poissons Ratio (x) = 0.39828 0.16982
# Poissons Ratio (y) = 0.49769 -0.03305
# Poissons Ratio (z) = 0.27006 -0.04206
#
# Static dielectric constant tensor:
#      x y z
#    x 4.114820 0.055860 -0.293670 
#    y 0.055860 4.050070 0.068590 
#    z -0.293670 0.068590 3.923880 
# 
# 
# High freq. dielectric constant tensor:
#      x y z
#    x 1.790560 0.007150 -0.007940 
#    y 0.007150 1.799510 0.005960 
#    z -0.007940 0.005960 1.824730 
# 
# From -- ./inp_files/277318.got.cif
#   From: 2010.06.25/outbox.cif.g09.slc.cpg/sg2_139_cif.got.tgz:277318.got - 2010.06.27 13:26:56.
