data_PCOD8002708
_publ_section_title
;
Structure prediction by ZEFSAII (Michael W. Deem and Ramdas Pophale) SiO2 
 PCOD8002708
Probable space group: P -1
;
_chemical_formula_sum "Si O2"
_cell_formula_units_Z 16
_cell_length_a 13.986140
_cell_length_b 8.220946
_cell_length_c 13.556902
_cell_angle_alpha 74.752119
_cell_angle_beta 41.774168
_cell_angle_gamma 104.626932
_cell_volume 717.410936
_symmetry_space_group_name_H-M "P -1"
_symmetry_group_IT_number 2
_symmetry_cell_setting 'triclinic'
loop_
_space_group_symop_operation_xyz
x,y,z
-x,-y,-z
loop_
_atom_site_type_symbol
_atom_site_label
_atom_site_fract_x
_atom_site_fract_y
_atom_site_fract_z
Si Si1 0.574695 0.308236 0.895534
Si Si2 0.639048 0.363911 0.116954
Si Si3 0.344504 0.914553 0.987887
Si Si4 0.304392 0.232586 0.274439
Si Si5 0.058512 0.939798 0.118094
Si Si6 0.718255 0.747552 0.279315
Si Si7 0.057679 0.865872 0.679628
Si Si8 0.402927 0.078894 0.513280
O O1 0.368214 0.198009 0.127649
O O2 0.506451 0.186591 0.858700
O O3 0.689489 0.249406 0.871998
O O4 0.730828 0.593563 0.731149
O O5 0.496836 0.385602 0.174024
O O6 0.593090 0.331114 0.275138
O O7 0.579281 0.128357 0.158798
O O8 0.866060 0.588837 0.875411
O O9 0.138825 0.836874 0.124983
O O10 0.113532 0.975652 0.507974
O O11 0.976374 0.990806 0.258104
O O12 0.234352 0.179683 0.883495
O O13 0.881523 0.756626 0.203505
O O14 0.500000 0.500000 0.500000
O O15 0.719779 0.925151 0.307849
O O16 0.243028 0.911445 0.575356
O O17 0.500000 0.000000 0.500000
#
# Coordination Sequence:
#
# PCOD8002708 Si02
#       8
#     2   2   2   2   2   2   2   2
#     4   9  19  38  62  84 115 153 192 240 288 340
#     4  10  20  36  58  83 114 151 191 235 282 338
#     4  10  20  36  58  86 118 150 185 239 294 332
#     4   9  19  39  61  81 110 153 195 232 282 341
#     4  10  21  37  56  84 116 145 189 235 279 343
#     4  10  21  37  59  83 110 149 189 231 284 336
#     4  10  21  37  58  82 112 153 193 232 285 343
#     4  10  21  36  56  84 113 148 191 233 286 342
#
# _framework density 22.302420000000001
#
# number of rings (size 3 to 8) (size 9 to 14) (size 15 to 20)
#    0.000    2.250    0.000    2.250    0.000    3.500 
#    0.000   16.250    0.000    0.000    0.000    0.000 
#    0.000    0.000    0.000    0.000    0.000    0.000 
#
# Total GULP energy -198243.356796 kJ/mol
# GULP energy per Si atom -12390.209800 kJ/mol
# Density = 2.225166 g / cm^3
# Si number density = 22.302420 Si / 1000 Ang^3
#
#
#
# Elastic Constant Matrix: (Units=GPa)
#
#
# Indices 1 2 3 4 5 6 
#
# 1 104.0949 24.0454 24.0348 -0.8138 -6.9618 -28.1949
# 2 24.0454 57.3732 11.2519 -1.4836 -2.3999 -15.4653
# 3 24.0348 11.2519 133.3509 -11.0821 7.0124 -0.4550
# 4 -0.8138 -1.4836 -11.0821 28.5813 3.6977 -0.7769
# 5 -6.9618 -2.3999 7.0124 3.6977 27.5547 8.5303
# 6 -28.1949 -15.4653 -0.4550 -0.7769 8.5303 27.1804
#
#
#
# Elastic Compliance Matrix: (Units=1/GPa)
#
#
# Indices 1 2 3 4 5 6 
#
# 1 0.014306 -0.001816 -0.002386 -0.000212 -0.000186 0.013819
# 2 -0.001816 0.021302 -0.001249 0.001093 -0.001777 0.010805
# 3 -0.002386 -0.001249 0.008453 0.003433 -0.002671 -0.002108
# 4 -0.000212 0.001093 0.003433 0.037377 -0.007001 0.003725
# 5 -0.000186 -0.001777 -0.002671 -0.007001 0.042264 -0.014713
# 6 0.013819 0.010805 -0.002108 0.003725 -0.014713 0.061963
#
#
# Mechanical properties :
#
#
# Convention : Reuss Voigt Hill
#
# Bulk Modulus (GPa) = 30.15737 45.94259 38.04998
# Shear Modulus (GPa) = 24.08250 32.36239 28.22245
#
# Velocity S-wave (km/s) = 3.28962 3.81343 3.56117
# Velocity P-wave (km/s) = 5.28963 6.32726 5.83157
#
# Compressibility (1/GPa) = 0.03315939
#
# Stress axis : x y z
#
# Youngs Moduli (GPa) = 69.90130 46.94332 118.30123
#
# Poissons Ratio (x) = 0.08525 0.28226
# Poissons Ratio (y) = 0.12694 0.14775
# Poissons Ratio (z) = 0.16678 0.05863
#
# Static dielectric constant tensor:
#      x y z
#    x 4.355090 0.267620 0.299030 
#    y 0.267620 4.303500 0.654890 
#    z 0.299030 0.654890 4.503130 
# 
# 
# High freq. dielectric constant tensor:
#      x y z
#    x 1.887890 -0.000760 0.004430 
#    y -0.000760 1.862310 0.017950 
#    z 0.004430 0.017950 1.861630 
# 
# From -- ./inp_files/207243.got.cif
#   From: 2010.06.25/outbox.cif.g09.slc.cpg/sg2_104_cif.got.tgz:207243.got - 2010.06.27 13:26:56.
