data_PCOD8002973
_publ_section_title
;
Structure prediction by ZEFSAII (Michael W. Deem and Ramdas Pophale) SiO2 
 PCOD8002973
Probable space group: P -1
;
_chemical_formula_sum "Si O2"
_cell_formula_units_Z 14
_cell_length_a 11.226345
_cell_length_b 13.876853
_cell_length_c 10.605748
_cell_angle_alpha 94.055991
_cell_angle_beta 55.652231
_cell_angle_gamma 48.568954
_cell_volume 712.517209
_symmetry_space_group_name_H-M "P -1"
_symmetry_group_IT_number 2
_symmetry_cell_setting 'triclinic'
loop_
_space_group_symop_operation_xyz
x,y,z
-x,-y,-z
loop_
_atom_site_type_symbol
_atom_site_label
_atom_site_fract_x
_atom_site_fract_y
_atom_site_fract_z
Si Si1 0.751380 0.778474 0.211560
Si Si2 0.387224 0.465416 0.119995
Si Si3 0.891572 0.087938 0.710179
Si Si4 0.739337 0.260210 0.410741
Si Si5 0.406678 0.454696 0.396262
Si Si6 0.134439 0.156854 0.627902
Si Si7 0.785022 0.551071 0.275369
O O1 0.856039 0.811994 0.230019
O O2 0.764364 0.677900 0.286503
O O3 0.440436 0.978278 0.369419
O O4 0.936511 0.652441 0.967657
O O5 0.467120 0.399554 0.210712
O O6 0.056892 0.655893 0.316002
O O7 0.500000 0.500000 0.000000
O O8 0.555872 0.285190 0.927661
O O9 0.007015 0.123445 0.695336
O O10 0.000000 0.000000 0.500000
O O11 0.981098 0.955639 0.744811
O O12 0.694555 0.301367 0.290067
O O13 0.761163 0.349582 0.476771
O O14 0.477346 0.348433 0.629595
O O15 0.226325 0.471921 0.571338
#
# Coordination Sequence:
#
# PCOD8002973 Si02
#       7
#     2   2   2   2   2   2   2
#     4  10  20  36  61  84 110 157 189 223 273 335
#     4  10  22  35  56  81 114 147 183 240 287 328
#     4  11  22  34  57  88 114 146 186 238 291 331
#     4   9  18  34  57  82 118 142 180 238 275 344
#     4   9  19  36  56  84 115 145 182 236 290 326
#     4  10  21  36  55  85 115 146 194 232 270 338
#     4   9  19  35  60  83 112 145 191 229 270 336
#
# _framework density 19.648648000000001
#
# number of rings (size 3 to 8) (size 9 to 14) (size 15 to 20)
#    0.857    1.429    1.429    1.714    6.000    0.571 
#    0.000    4.286    0.000    0.000    0.000    0.000 
#    0.000    0.000    0.000    0.000    0.000    0.000 
#
# Total GULP energy -173436.985184 kJ/mol
# GULP energy per Si atom -12388.356085 kJ/mol
# Density = 1.960393 g / cm^3
# Si number density = 19.648648 Si / 1000 Ang^3
#
#
#
# Elastic Constant Matrix: (Units=GPa)
#
#
# Indices 1 2 3 4 5 6 
#
# 1 54.2582 23.2485 25.3009 4.7075 8.4995 3.6628
# 2 23.2485 116.2523 65.9475 19.9426 8.9435 -6.4061
# 3 25.3009 65.9475 122.6843 20.3477 14.9419 -11.9954
# 4 4.7075 19.9426 20.3477 50.9021 -3.1364 -4.1257
# 5 8.4995 8.9435 14.9419 -3.1364 23.8218 -0.6296
# 6 3.6628 -6.4061 -11.9954 -4.1257 -0.6296 27.9487
#
#
#
# Elastic Compliance Matrix: (Units=1/GPa)
#
#
# Indices 1 2 3 4 5 6 
#
# 1 0.022096 -0.002508 -0.002944 -0.000612 -0.005307 -0.004944
# 2 -0.002508 0.012958 -0.005931 -0.002478 -0.000566 0.000374
# 3 -0.002944 -0.005931 0.013489 -0.002784 -0.005437 0.004282
# 4 -0.000612 -0.002478 -0.002784 0.022289 0.005875 0.001740
# 5 -0.005307 -0.000566 -0.005437 0.005875 0.048273 0.000187
# 6 -0.004944 0.000374 0.004282 0.001740 0.000187 0.038613
#
#
# Mechanical properties :
#
#
# Convention : Reuss Voigt Hill
#
# Bulk Modulus (GPa) = 38.79670 58.02093 48.40882
# Shear Modulus (GPa) = 26.44435 32.44773 29.44604
#
# Velocity S-wave (km/s) = 3.67258 4.06815 3.87541
# Velocity P-wave (km/s) = 6.14588 7.18747 6.68699
#
# Compressibility (1/GPa) = 0.02577539
#
# Stress axis : x y z
#
# Youngs Moduli (GPa) = 45.25701 77.17495 74.13324
#
# Poissons Ratio (x) = 0.19354 0.21828
# Poissons Ratio (y) = 0.11349 0.43972
# Poissons Ratio (z) = 0.13326 0.45776
#
# Static dielectric constant tensor:
#      x y z
#    x 3.378430 -0.024130 -0.061410 
#    y -0.024130 3.767500 0.449320 
#    z -0.061410 0.449320 3.736640 
# 
# 
# High freq. dielectric constant tensor:
#      x y z
#    x 1.739430 0.003470 0.010250 
#    y 0.003470 1.764480 0.024830 
#    z 0.010250 0.024830 1.755590 
# 
# From -- ./inp_files/302666.got.cif
#   From: 2010.06.25/outbox.cif.g09.slc.cpg/sg2_152_cif.got.tgz:302666.got - 2010.06.27 13:26:56.
