data_PCOD8002133
_publ_section_title
;
Structure prediction by ZEFSAII (Michael W. Deem and Ramdas Pophale) SiO2 
 PCOD8002133
Probable space group: P -1
;
_chemical_formula_sum "Si O2"
_cell_formula_units_Z 16
_cell_length_a 14.166559
_cell_length_b 20.931493
_cell_length_c 11.182222
_cell_angle_alpha 38.831855
_cell_angle_beta 150.206197
_cell_angle_gamma 148.709789
_cell_volume 846.672157
_symmetry_space_group_name_H-M "P -1"
_symmetry_group_IT_number 2
_symmetry_cell_setting 'triclinic'
loop_
_space_group_symop_operation_xyz
x,y,z
-x,-y,-z
loop_
_atom_site_type_symbol
_atom_site_label
_atom_site_fract_x
_atom_site_fract_y
_atom_site_fract_z
Si Si1 0.890648 0.963636 0.277496
Si Si2 0.054852 0.226620 0.994206
Si Si3 0.086067 0.116428 0.839154
Si Si4 0.262678 0.866096 0.452971
Si Si5 0.417318 0.703007 0.804089
Si Si6 0.643502 0.941636 0.252086
Si Si7 0.018714 0.442505 0.724108
Si Si8 0.466243 0.721378 0.557987
O O1 0.845538 0.906905 0.179700
O O2 0.659275 0.889514 0.215204
O O3 0.967556 0.105863 0.153909
O O4 0.089718 0.954533 0.569169
O O5 0.333705 0.301364 0.176484
O O6 0.023722 0.322692 0.888537
O O7 0.919009 0.179372 0.789125
O O8 0.874509 0.132831 0.582631
O O9 0.316640 0.242438 0.956892
O O10 0.000000 0.000000 0.000000
O O11 0.329440 0.770177 0.689975
O O12 0.500000 0.000000 0.500000
O O13 0.256072 0.556905 0.878172
O O14 0.398417 0.734739 0.599086
O O15 0.537086 0.840930 0.386236
O O16 0.500000 0.000000 0.000000
O O17 0.000000 0.500000 0.500000
O O18 0.776857 0.394824 0.597805
#
# Coordination Sequence:
#
# PCOD8002133 Si02
#       8
#     2   2   2   2   2   2   2   2
#     4  10  22  36  54  87 112 144 191 225 280 342
#     4  11  19  34  54  76 117 149 179 228 279 329
#     4  12  21  36  55  79 119 152 173 225 284 346
#     4  12  22  30  53  81 113 153 177 214 280 338
#     4  11  22  36  53  88 118 143 188 222 281 346
#     4  10  21  35  58  80 110 146 189 237 277 325
#     4  10  21  33  54  81 115 148 189 233 268 336
#     4  10  20  35  56  80 113 146 186 230 281 327
#
# _framework density 18.897516
#
# number of rings (size 3 to 8) (size 9 to 14) (size 15 to 20)
#    0.000    1.250    6.250    1.500    0.000    4.000 
#    0.000    0.000    0.000    0.750    0.000   13.125 
#    0.000    0.000    0.000    0.000    0.000    0.000 
#
# Total GULP energy -198209.384871 kJ/mol
# GULP energy per Si atom -12388.086554 kJ/mol
# Density = 1.885450 g / cm^3
# Si number density = 18.897516 Si / 1000 Ang^3
#
#
#
# Elastic Constant Matrix: (Units=GPa)
#
#
# Indices 1 2 3 4 5 6 
#
# 1 102.8562 33.8071 31.9086 8.5534 11.4066 3.6087
# 2 33.8071 111.1270 39.3021 21.8513 18.0438 1.5608
# 3 31.9086 39.3021 90.0945 8.8281 24.9225 5.5549
# 4 8.5534 21.8513 8.8281 32.2669 5.5614 10.1192
# 5 11.4066 18.0438 24.9225 5.5614 34.6460 4.3830
# 6 3.6087 1.5608 5.5549 10.1192 4.3830 22.4719
#
#
#
# Elastic Compliance Matrix: (Units=1/GPa)
#
#
# Indices 1 2 3 4 5 6 
#
# 1 0.011475 -0.002334 -0.002867 -0.000388 -0.000345 -0.000730
# 2 -0.002334 0.012938 -0.003559 -0.008131 -0.002678 0.004540
# 3 -0.002867 -0.003559 0.016104 0.000880 -0.008678 -0.001977
# 4 -0.000388 -0.008131 0.000880 0.042283 -0.000719 -0.018490
# 5 -0.000345 -0.002678 -0.008678 -0.000719 0.037307 -0.004566
# 6 -0.000730 0.004540 -0.001977 -0.018490 -0.004566 0.054007
#
#
# Mechanical properties :
#
#
# Convention : Reuss Voigt Hill
#
# Bulk Modulus (GPa) = 43.48865 57.12370 50.30618
# Shear Modulus (GPa) = 25.08772 31.14762 28.11767
#
# Velocity S-wave (km/s) = 3.64753 4.06426 3.86152
# Velocity P-wave (km/s) = 6.38766 7.23312 6.82350
#
# Compressibility (1/GPa) = 0.02299450
#
# Stress axis : x y z
#
# Youngs Moduli (GPa) = 87.14417 77.29402 62.09694
#
# Poissons Ratio (x) = 0.18043 0.17806
# Poissons Ratio (y) = 0.20342 0.22103
# Poissons Ratio (z) = 0.24988 0.27512
#
# Static dielectric constant tensor:
#      x y z
#    x 3.879070 0.183790 0.286890 
#    y 0.183790 3.835700 0.291570 
#    z 0.286890 0.291570 3.669110 
# 
# 
# High freq. dielectric constant tensor:
#      x y z
#    x 1.722850 0.010010 0.033620 
#    y 0.010010 1.715440 0.014900 
#    z 0.033620 0.014900 1.734160 
# 
# From -- ./inp_files/457471.got.cif
#   From: 2010.06.25/outbox.cif.g09.slc.cpg/sg2_229_cif.got.tgz:457471.got - 2010.06.27 13:26:56.
