data_PCOD8002908
_publ_section_title
;
Structure prediction by ZEFSAII (Michael W. Deem and Ramdas Pophale) SiO2 
 PCOD8002908
Probable space group: P -1
;
_chemical_formula_sum "Si O2"
_cell_formula_units_Z 16
_cell_length_a 8.474842
_cell_length_b 14.694563
_cell_length_c 9.796356
_cell_angle_alpha 115.443645
_cell_angle_beta 45.244930
_cell_angle_gamma 115.089124
_cell_volume 768.128450
_symmetry_space_group_name_H-M "P -1"
_symmetry_group_IT_number 2
_symmetry_cell_setting 'triclinic'
loop_
_space_group_symop_operation_xyz
x,y,z
-x,-y,-z
loop_
_atom_site_type_symbol
_atom_site_label
_atom_site_fract_x
_atom_site_fract_y
_atom_site_fract_z
Si Si1 0.393945 0.228971 0.674140
Si Si2 0.480934 0.102313 0.273149
Si Si3 0.182677 0.584660 0.013335
Si Si4 0.496625 0.446551 0.666147
Si Si5 0.588289 0.077031 0.614815
Si Si6 0.174190 0.393595 0.569189
Si Si7 0.880717 0.206928 0.910751
Si Si8 0.050684 0.166652 0.486037
O O1 0.477802 0.178144 0.453643
O O2 0.516576 0.348874 0.683458
O O3 0.471394 0.176194 0.729671
O O4 0.125000 0.221866 0.843752
O O5 0.248213 0.100565 0.330773
O O6 0.482115 0.985079 0.242413
O O7 0.699492 0.131095 0.062395
O O8 0.407753 0.537741 0.859911
O O9 0.216012 0.687305 0.967318
O O10 0.000000 0.500000 0.000000
O O11 0.086300 0.606002 0.233869
O O12 0.336194 0.401543 0.608517
O O13 0.743772 0.506819 0.509744
O O14 0.861289 0.112084 0.459905
O O15 0.500000 0.000000 0.500000
O O16 0.168868 0.280967 0.435882
O O17 0.914474 0.167542 0.712389
#
# Coordination Sequence:
#
# PCOD8002908 Si02
#       8
#     2   2   2   2   2   2   2   2
#     4  10  20  35  52  83 118 146 176 222 274 329
#     4  10  20  36  59  82 104 142 189 235 267 318
#     4   9  15  25  45  80 108 132 168 217 263 306
#     4  10  16  28  51  83 110 139 177 216 265 319
#     4  10  23  40  58  76 109 153 181 225 283 328
#     4   9  17  27  51  82 107 136 173 227 262 310
#     4  10  19  33  58  86 109 137 183 231 274 311
#     4  10  19  39  57  82 112 137 185 234 271 315
#
# _framework density 20.82985
#
# number of rings (size 3 to 8) (size 9 to 14) (size 15 to 20)
#    0.000    2.250    5.000    1.125    3.500    1.000 
#    0.000    3.125    0.000    3.000    0.000    0.000 
#    0.000    0.000    0.000    0.000    0.000    0.000 
#
# Total GULP energy -198236.947371 kJ/mol
# GULP energy per Si atom -12389.809211 kJ/mol
# Density = 2.078244 g / cm^3
# Si number density = 20.829850 Si / 1000 Ang^3
#
#
#
# Elastic Constant Matrix: (Units=GPa)
#
#
# Indices 1 2 3 4 5 6 
#
# 1 70.0470 58.5014 23.7399 -5.5364 -20.6401 -6.0451
# 2 58.5014 175.2933 48.1173 -21.8209 -21.1959 -31.5421
# 3 23.7399 48.1173 76.5516 -17.5694 -17.9883 -12.7161
# 4 -5.5364 -21.8209 -17.5694 30.4455 3.4279 -10.2331
# 5 -20.6401 -21.1959 -17.9883 3.4279 14.2029 7.7090
# 6 -6.0451 -31.5421 -12.7161 -10.2331 7.7090 30.7734
#
#
#
# Elastic Compliance Matrix: (Units=1/GPa)
#
#
# Indices 1 2 3 4 5 6 
#
# 1 0.036080 -0.012030 0.001533 -0.014632 0.052191 -0.022549
# 2 -0.012030 0.013946 -0.001279 0.015051 -0.012531 0.019547
# 3 0.001533 -0.001279 0.022527 0.012127 0.022256 0.006756
# 4 -0.014632 0.015051 0.012127 0.065989 -0.024088 0.045541
# 5 0.052191 -0.012531 0.022256 -0.024088 0.187860 -0.048466
# 6 -0.022549 0.019547 0.006756 0.045541 -0.048466 0.078178
#
#
# Mechanical properties :
#
#
# Convention : Reuss Voigt Hill
#
# Bulk Modulus (GPa) = 20.40770 64.73434 42.57102
# Shear Modulus (GPa) = 11.24946 27.85324 19.55135
#
# Velocity S-wave (km/s) = 2.32645 3.66071 3.06702
# Velocity P-wave (km/s) = 4.12736 7.00092 5.74665
#
# Compressibility (1/GPa) = 0.04900111
#
# Stress axis : x y z
#
# Youngs Moduli (GPa) = 27.71624 71.70462 44.39164
#
# Poissons Ratio (x) = 0.86261 -0.06804
# Poissons Ratio (y) = 0.33343 0.05676
# Poissons Ratio (z) = -0.04248 0.09168
#
# Static dielectric constant tensor:
#      x y z
#    x 3.565570 -0.268500 -0.260720 
#    y -0.268500 4.384120 0.266730 
#    z -0.260720 0.266730 4.162430 
# 
# 
# High freq. dielectric constant tensor:
#      x y z
#    x 1.766020 -0.002050 -0.022170 
#    y -0.002050 1.841570 -0.002430 
#    z -0.022170 -0.002430 1.793930 
# 
# From -- ./inp_files/397533.got.cif
#   From: 2010.06.25/outbox.cif.g09.slc.cpg/sg2_199_cif.got.tgz:397533.got - 2010.06.27 13:26:56.
