data_PCOD8002700
_publ_section_title
;
Structure prediction by ZEFSAII (Michael W. Deem and Ramdas Pophale) SiO2 
 PCOD8002700
Probable space group: P -1
;
_chemical_formula_sum "Si O2"
_cell_formula_units_Z 16
_cell_length_a 6.264704
_cell_length_b 22.098929
_cell_length_c 7.907913
_cell_angle_alpha 122.966755
_cell_angle_beta 56.962557
_cell_angle_gamma 87.607232
_cell_volume 675.016047
_symmetry_space_group_name_H-M "P -1"
_symmetry_group_IT_number 2
_symmetry_cell_setting 'triclinic'
loop_
_space_group_symop_operation_xyz
x,y,z
-x,-y,-z
loop_
_atom_site_type_symbol
_atom_site_label
_atom_site_fract_x
_atom_site_fract_y
_atom_site_fract_z
Si Si1 0.296875 0.235499 0.348672
Si Si2 0.411501 0.386819 0.174362
Si Si3 0.305721 0.080062 0.484558
Si Si4 0.123731 0.589707 0.161077
Si Si5 0.293778 0.853216 0.686462
Si Si6 0.809989 0.209302 0.695784
Si Si7 0.973230 0.473944 0.233475
Si Si8 0.333956 0.101460 0.889084
O O1 0.578784 0.210190 0.307101
O O2 0.149581 0.331965 0.512052
O O3 0.059461 0.227612 0.551712
O O4 0.371712 0.176929 0.062521
O O5 0.341018 0.448731 0.458220
O O6 0.107003 0.415337 0.250509
O O7 0.597097 0.397554 0.957452
O O8 0.567962 0.291094 0.022801
O O9 0.551181 0.089625 0.285171
O O10 0.314109 0.113516 0.716808
O O11 0.977553 0.130852 0.629093
O O12 0.388704 0.984293 0.305662
O O13 0.176733 0.511430 0.130481
O O14 0.056013 0.581076 0.981658
O O15 0.358798 0.807213 0.408209
O O16 0.946917 0.903969 0.931460
#
# Coordination Sequence:
#
# PCOD8002700 Si02
#       8
#     2   2   2   2   2   2   2   2
#     4   9  20  37  58  83 113 147 184 227 274 327
#     4  10  20  37  55  81 113 142 179 226 272 321
#     4  10  22  38  56  82 112 145 188 229 270 326
#     4  10  20  37  55  81 113 142 179 226 272 321
#     4  10  20  36  58  81 110 150 182 225 278 318
#     4   9  20  37  58  83 113 147 184 227 274 327
#     4  10  21  34  58  83 106 144 184 219 272 334
#     4  10  22  38  56  82 112 145 188 229 270 326
#
# _framework density 23.703140000000001
#
# number of rings (size 3 to 8) (size 9 to 14) (size 15 to 20)
#    0.000    2.250    0.000    1.875    0.000    8.500 
#    0.000    8.750    0.000    0.000    0.000    0.000 
#    0.000    0.000    0.000    0.000    0.000    0.000 
#
# Total GULP energy -198323.810336 kJ/mol
# GULP energy per Si atom -12395.238146 kJ/mol
# Density = 2.364919 g / cm^3
# Si number density = 23.703140 Si / 1000 Ang^3
#
#
#
# Elastic Constant Matrix: (Units=GPa)
#
#
# Indices 1 2 3 4 5 6 
#
# 1 79.4839 11.9533 33.2340 26.1209 8.9241 -20.2540
# 2 11.9533 32.8715 11.4779 21.5804 -2.9140 -8.0653
# 3 33.2340 11.4779 134.6754 25.8964 10.6487 -9.8342
# 4 26.1209 21.5804 25.8964 37.6613 0.5735 -6.5685
# 5 8.9241 -2.9140 10.6487 0.5735 29.4970 -2.6381
# 6 -20.2540 -8.0653 -9.8342 -6.5685 -2.6381 28.8074
#
#
#
# Elastic Compliance Matrix: (Units=1/GPa)
#
#
# Indices 1 2 3 4 5 6 
#
# 1 0.020446 0.004568 -0.001675 -0.013558 -0.003825 0.011640
# 2 0.004568 0.052818 0.000994 -0.032195 0.005129 0.011467
# 3 -0.001675 0.000994 0.009056 -0.005471 -0.002494 0.000716
# 4 -0.013558 -0.032195 -0.005471 0.056868 0.001134 -0.007343
# 5 -0.003825 0.005129 -0.002494 0.001134 0.036578 0.001504
# 6 0.011640 0.011467 0.000716 -0.007343 0.001504 0.044816
#
#
# Mechanical properties :
#
#
# Convention : Reuss Voigt Hill
#
# Bulk Modulus (GPa) = 11.09982 40.04014 25.56998
# Shear Modulus (GPa) = 20.58979 31.88419 26.23699
#
# Velocity S-wave (km/s) = 2.95049 3.67160 3.33062
# Velocity P-wave (km/s) = 4.03735 5.90790 5.05981
#
# Compressibility (1/GPa) = 0.09009152
#
# Stress axis : x y z
#
# Youngs Moduli (GPa) = 48.90970 18.93307 110.43007
#
# Poissons Ratio (x) = -0.08648 0.18501
# Poissons Ratio (y) = -0.22341 -0.10975
# Poissons Ratio (z) = 0.08194 -0.01882
#
# Static dielectric constant tensor:
#      x y z
#    x 4.000050 -0.140860 -0.099990 
#    y -0.140860 4.032380 0.127980 
#    z -0.099990 0.127980 4.423050 
# 
# 
# High freq. dielectric constant tensor:
#      x y z
#    x 1.922220 -0.007670 -0.004050 
#    y -0.007670 1.928110 -0.000120 
#    z -0.004050 -0.000120 1.947530 
# 
# From -- ./inp_files/51397.got.cif
#   From: 2010.06.25/outbox.cif.g09.slc.cpg/sg2_26_cif.got.tgz:51397.got - 2010.06.27 13:26:56.
