data_PCOD8002055
_publ_section_title
;
Structure prediction by ZEFSAII (Michael W. Deem and Ramdas Pophale) SiO2 
 PCOD8002055
Probable space group: P -1
;
_chemical_formula_sum "Si O2"
_cell_formula_units_Z 16
_cell_length_a 11.949618
_cell_length_b 11.645396
_cell_length_c 14.937044
_cell_angle_alpha 93.583047
_cell_angle_beta 87.903846
_cell_angle_gamma 155.519295
_cell_volume 858.628433
_symmetry_space_group_name_H-M "P -1"
_symmetry_group_IT_number 2
_symmetry_cell_setting 'triclinic'
loop_
_space_group_symop_operation_xyz
x,y,z
-x,-y,-z
loop_
_atom_site_type_symbol
_atom_site_label
_atom_site_fract_x
_atom_site_fract_y
_atom_site_fract_z
Si Si1 0.324267 0.325031 0.406388
Si Si2 0.474828 0.959544 0.754690
Si Si3 0.613262 0.013581 0.428650
Si Si4 0.180314 0.429951 0.460689
Si Si5 0.362846 0.752395 0.068158
Si Si6 0.981971 0.647866 0.216332
Si Si7 0.832689 0.694842 0.360174
Si Si8 0.140211 0.784800 0.019321
O O1 0.500000 0.500000 0.500000
O O2 0.171322 0.303629 0.396176
O O3 0.559731 0.513713 0.336705
O O4 0.089443 0.009795 0.400262
O O5 0.254709 0.668375 0.790376
O O6 0.359604 0.906213 0.665836
O O7 0.542461 0.125870 0.829348
O O8 0.750223 0.149436 0.732998
O O9 0.419760 0.723606 0.421813
O O10 0.500000 0.000000 0.500000
O O11 0.909902 0.250617 0.457670
O O12 0.241089 0.462457 0.565169
O O13 0.250555 0.757463 0.017497
O O14 0.102881 0.425270 0.055864
O O15 0.601574 0.908142 0.015433
O O16 0.896366 0.684925 0.268409
O O17 0.052946 0.747996 0.117359
#
# Coordination Sequence:
#
# PCOD8002055 Si02
#       8
#     2   2   2   2   2   2   2   2
#     4  10  20  35  54  73  92 123 164 205 250 291
#     4  11  21  32  46  69 101 138 169 194 227 278
#     4  12  23  35  49  70 100 134 169 196 228 272
#     4  11  21  36  52  68  96 130 165 201 235 277
#     4   9  16  28  44  63  93 129 164 192 226 280
#     4  11  20  31  48  73 104 129 157 196 245 294
#     4  11  20  34  53  75  98 124 159 202 254 294
#     4   9  16  27  45  67  92 127 157 191 240 286
#
# _framework density 18.634370000000001
#
# number of rings (size 3 to 8) (size 9 to 14) (size 15 to 20)
#    0.000    1.500    0.000   10.875    0.000    0.000 
#    0.000    0.000    0.000    0.000    0.000    0.000 
#    0.000   20.000    0.000    0.000    0.000    0.000 
#
# Total GULP energy -198277.845272 kJ/mol
# GULP energy per Si atom -12392.365329 kJ/mol
# Density = 1.859196 g / cm^3
# Si number density = 18.634370 Si / 1000 Ang^3
#
#
#
# Elastic Constant Matrix: (Units=GPa)
#
#
# Indices 1 2 3 4 5 6 
#
# 1 110.4354 37.7328 38.6079 -16.1893 -25.2770 31.2563
# 2 37.7328 95.8525 22.5285 -13.4672 -10.7581 24.6560
# 3 38.6079 22.5285 99.2779 -7.3915 -21.0072 7.3712
# 4 -16.1893 -13.4672 -7.3915 27.9947 11.1010 -9.6146
# 5 -25.2770 -10.7581 -21.0072 11.1010 23.1868 -6.2048
# 6 31.2563 24.6560 7.3712 -9.6146 -6.2048 38.2564
#
#
#
# Elastic Compliance Matrix: (Units=1/GPa)
#
#
# Indices 1 2 3 4 5 6 
#
# 1 0.015947 -0.001966 -0.002592 -0.000306 0.011745 -0.009434
# 2 -0.001966 0.013557 -0.001742 0.003029 -0.000519 -0.006118
# 3 -0.002592 -0.001742 0.013280 -0.002156 0.009897 0.001745
# 4 -0.000306 0.003029 -0.002156 0.047489 -0.021710 0.007126
# 5 0.011745 -0.000519 0.009897 -0.021710 0.073806 -0.004654
# 6 -0.009434 -0.006118 0.001745 0.007126 -0.004654 0.038490
#
#
# Mechanical properties :
#
#
# Convention : Reuss Voigt Hill
#
# Bulk Modulus (GPa) = 33.13082 55.92269 44.52676
# Shear Modulus (GPa) = 22.19943 31.66735 26.93339
#
# Velocity S-wave (km/s) = 3.45529 4.12686 3.80591
# Velocity P-wave (km/s) = 5.80833 7.26523 6.57724
#
# Compressibility (1/GPa) = 0.03018338
#
# Stress axis : x y z
#
# Youngs Moduli (GPa) = 62.70899 73.76093 75.30016
#
# Poissons Ratio (x) = 0.14503 0.19520
# Poissons Ratio (y) = 0.12330 0.13116
# Poissons Ratio (z) = 0.16256 0.12848
#
# Static dielectric constant tensor:
#      x y z
#    x 3.417070 0.367070 -0.285550 
#    y 0.367070 3.908480 -0.109460 
#    z -0.285550 -0.109460 3.243400 
# 
# 
# High freq. dielectric constant tensor:
#      x y z
#    x 1.677510 0.027440 -0.028940 
#    y 0.027440 1.753040 -0.002330 
#    z -0.028940 -0.002330 1.705350 
# 
# From -- ./inp_files/519756.got.cif
#   From: 2010.06.25/outbox.cif.g09.slc.cpg/sg2_260_cif.got.tgz:519756.got - 2010.06.27 13:26:56.
