data_PCOD8002442
_publ_section_title
;
Structure prediction by ZEFSAII (Michael W. Deem and Ramdas Pophale) SiO2 
 PCOD8002442
Probable space group: P -1
;
_chemical_formula_sum "Si O2"
_cell_formula_units_Z 14
_cell_length_a 8.046763
_cell_length_b 9.259624
_cell_length_c 8.918949
_cell_angle_alpha 95.854609
_cell_angle_beta 107.356935
_cell_angle_gamma 68.777925
_cell_volume 591.262292
_symmetry_space_group_name_H-M "P -1"
_symmetry_group_IT_number 2
_symmetry_cell_setting 'triclinic'
loop_
_space_group_symop_operation_xyz
x,y,z
-x,-y,-z
loop_
_atom_site_type_symbol
_atom_site_label
_atom_site_fract_x
_atom_site_fract_y
_atom_site_fract_z
Si Si1 0.985286 0.625716 0.217217
Si Si2 0.754608 0.926911 0.083644
Si Si3 0.302653 0.717227 0.862828
Si Si4 0.951641 0.244634 0.469480
Si Si5 0.286077 0.476280 0.054638
Si Si6 0.279563 0.934122 0.465047
Si Si7 0.548140 0.995563 0.758020
O O1 0.952154 0.803130 0.172350
O O2 0.007651 0.623428 0.404379
O O3 0.167440 0.505558 0.177934
O O4 0.803769 0.591447 0.110744
O O5 0.763367 0.097797 0.119937
O O6 0.599908 0.898801 0.149763
O O7 0.715610 0.887541 0.897205
O O8 0.163894 0.680620 0.702138
O O9 0.514853 0.645312 0.856654
O O10 0.294131 0.638753 0.011934
O O11 0.145779 0.113129 0.463982
O O12 0.827812 0.180039 0.538374
O O13 0.368156 0.905181 0.319100
O O14 0.450156 0.898162 0.624766
#
# Coordination Sequence:
#
# PCOD8002442 Si02
#       7
#     2   2   2   2   2   2   2
#     4  11  24  45  67  97 132 172 219 271 325 391
#     4  11  21  39  74 100 121 167 228 274 310 383
#     4  11  24  45  67  97 132 172 219 271 325 391
#     4  11  22  40  64  94 138 167 216 270 328 385
#     4  10  26  46  66  92 136 176 216 266 332 392
#     4  10  21  38  57 106 138 163 203 292 327 375
#     4  10  20  35  61  98 137 164 208 269 337 369
#
# _framework density 23.678153999999999
#
# number of rings (size 3 to 8) (size 9 to 14) (size 15 to 20)
#    0.000    1.429    2.857    2.571    4.000    1.714 
#    0.000    0.000    0.000    0.000    0.000    0.000 
#    0.000    0.000    0.000    0.000    0.000    0.000 
#
# Total GULP energy -173531.230761 kJ/mol
# GULP energy per Si atom -12395.087911 kJ/mol
# Density = 2.362426 g / cm^3
# Si number density = 23.678154 Si / 1000 Ang^3
#
#
#
# Elastic Constant Matrix: (Units=GPa)
#
#
# Indices 1 2 3 4 5 6 
#
# 1 39.8121 1.3740 16.5653 1.0038 -1.9563 -2.7977
# 2 1.3740 75.1501 10.4965 2.6249 7.2420 -2.4395
# 3 16.5653 10.4965 144.6456 0.6856 8.4887 -10.1545
# 4 1.0038 2.6249 0.6856 26.4581 -3.4076 0.1653
# 5 -1.9563 7.2420 8.4887 -3.4076 39.6126 -9.6417
# 6 -2.7977 -2.4395 -10.1545 0.1653 -9.6417 16.0666
#
#
#
# Elastic Compliance Matrix: (Units=1/GPa)
#
#
# Indices 1 2 3 4 5 6 
#
# 1 0.026827 -0.000210 -0.002908 -0.000555 0.003070 0.004650
# 2 -0.000210 0.013722 -0.000814 -0.001651 -0.002470 0.000067
# 3 -0.002908 -0.000814 0.007612 -0.000123 -0.000724 0.003747
# 4 -0.000555 -0.001651 -0.000123 0.038488 0.003995 0.001577
# 5 0.003070 -0.002470 -0.000724 0.003995 0.030757 0.018118
# 6 0.004650 0.000067 0.003747 0.001577 0.018118 0.076286
#
#
# Mechanical properties :
#
#
# Convention : Reuss Voigt Hill
#
# Bulk Modulus (GPa) = 24.81624 35.16438 29.99031
# Shear Modulus (GPa) = 23.25707 31.83892 27.54800
#
# Velocity S-wave (km/s) = 3.13743 3.67093 3.41462
# Velocity P-wave (km/s) = 4.86087 5.73157 5.31408
#
# Compressibility (1/GPa) = 0.04029619
#
# Stress axis : x y z
#
# Youngs Moduli (GPa) = 37.27604 72.87487 131.37561
#
# Poissons Ratio (x) = 0.01529 0.38207
# Poissons Ratio (y) = 0.00782 0.10697
# Poissons Ratio (z) = 0.10841 0.05934
#
# Static dielectric constant tensor:
#      x y z
#    x 4.233520 -0.076500 0.131380 
#    y -0.076500 3.900880 -0.144660 
#    z 0.131380 -0.144660 4.542220 
# 
# 
# High freq. dielectric constant tensor:
#      x y z
#    x 1.934680 -0.006040 0.011790 
#    y -0.006040 1.904950 -0.005710 
#    z 0.011790 -0.005710 1.953290 
# 
# From -- ./inp_files/171644.got.cif
#   From: 2010.06.25/outbox.cif.g09.slc.cpg/sg2_86_cif.got.tgz:171644.got - 2010.06.27 13:26:56.
