data_PCOD8002886
_publ_section_title
;
Structure prediction by ZEFSAII (Michael W. Deem and Ramdas Pophale) SiO2 
 PCOD8002886
Probable space group: P -1
;
_chemical_formula_sum "Si O2"
_cell_formula_units_Z 16
_cell_length_a 6.154674
_cell_length_b 22.987399
_cell_length_c 8.016159
_cell_angle_alpha 127.662609
_cell_angle_beta 57.971752
_cell_angle_gamma 107.616570
_cell_volume 760.755510
_symmetry_space_group_name_H-M "P -1"
_symmetry_group_IT_number 2
_symmetry_cell_setting 'triclinic'
loop_
_space_group_symop_operation_xyz
x,y,z
-x,-y,-z
loop_
_atom_site_type_symbol
_atom_site_label
_atom_site_fract_x
_atom_site_fract_y
_atom_site_fract_z
Si Si1 0.117315 0.976477 0.673971
Si Si2 0.422378 0.365317 0.020811
Si Si3 0.156589 0.890869 0.179451
Si Si4 0.941586 0.273449 0.110784
Si Si5 0.763134 0.482481 0.680079
Si Si6 0.528125 0.630209 0.609780
Si Si7 0.367327 0.043370 0.980873
Si Si8 0.915889 0.349697 0.598789
O O1 0.173822 0.914730 0.406560
O O2 0.361970 0.996761 0.725531
O O3 0.004157 0.050680 0.764133
O O4 0.921783 0.937186 0.812946
O O5 0.361323 0.439750 0.068065
O O6 0.420153 0.392272 0.259839
O O7 0.196670 0.307697 0.988000
O O8 0.697960 0.330089 0.789006
O O9 0.456225 0.886082 0.992878
O O10 0.026448 0.813408 0.079586
O O11 0.685417 0.304076 0.178298
O O12 0.902658 0.291607 0.352588
O O13 0.559709 0.439067 0.578577
O O14 0.861396 0.433585 0.708993
O O15 0.000000 0.500000 0.500000
O O16 0.792970 0.656038 0.459477
O O17 0.500000 0.000000 0.000000
#
# Coordination Sequence:
#
# PCOD8002886 Si02
#       8
#     2   2   2   2   2   2   2   2
#     4   9  19  36  59  87 115 145 197 240 288 350
#     4  11  22  38  59  84 114 153 194 240 291 349
#     4  10  20  36  60  84 112 157 193 238 293 348
#     4  10  23  40  56  81 122 153 190 240 291 347
#     4  11  19  38  61  83 115 146 191 251 294 337
#     4  10  21  38  56  80 116 151 191 240 294 346
#     4   9  18  34  56  87 118 144 181 241 290 343
#     4  10  23  38  57  84 112 151 197 240 290 351
#
# _framework density 21.031724000000001
#
# number of rings (size 3 to 8) (size 9 to 14) (size 15 to 20)
#    0.000    2.000    3.750    1.125    0.000    5.500 
#    0.000    3.750    0.000    0.000    0.000    0.000 
#    0.000    0.000    0.000    0.000    0.000    0.000 
#
# Total GULP energy -198284.721205 kJ/mol
# GULP energy per Si atom -12392.795075 kJ/mol
# Density = 2.098385 g / cm^3
# Si number density = 21.031724 Si / 1000 Ang^3
#
#
#
# Elastic Constant Matrix: (Units=GPa)
#
#
# Indices 1 2 3 4 5 6 
#
# 1 110.6071 37.5829 31.7218 -6.7424 -2.7482 24.2352
# 2 37.5829 96.0784 51.4623 10.6009 -3.0566 28.0796
# 3 31.7218 51.4623 86.7169 -1.5089 -5.4077 17.0740
# 4 -6.7424 10.6009 -1.5089 33.7811 7.9835 -1.3706
# 5 -2.7482 -3.0566 -5.4077 7.9835 33.4787 -10.9714
# 6 24.2352 28.0796 17.0740 -1.3706 -10.9714 29.9640
#
#
#
# Elastic Compliance Matrix: (Units=1/GPa)
#
#
# Indices 1 2 3 4 5 6 
#
# 1 0.012057 -0.001879 -0.001878 0.003262 -0.002821 -0.007804
# 2 -0.001879 0.020959 -0.009257 -0.007319 -0.002625 -0.014142
# 3 -0.001878 -0.009257 0.017703 0.003024 0.001385 0.000752
# 4 0.003262 -0.007319 0.003024 0.034567 -0.007748 0.001241
# 5 -0.002821 -0.002625 0.001385 -0.007748 0.037101 0.017182
# 6 -0.007804 -0.014142 0.000752 0.001241 0.017182 0.058858
#
#
# Mechanical properties :
#
#
# Convention : Reuss Voigt Hill
#
# Bulk Modulus (GPa) = 40.50140 59.43736 49.96938
# Shear Modulus (GPa) = 23.20152 30.95380 27.07766
#
# Velocity S-wave (km/s) = 3.32500 3.84052 3.59202
# Velocity P-wave (km/s) = 5.83438 6.92736 6.40423
#
# Compressibility (1/GPa) = 0.02469050
#
# Stress axis : x y z
#
# Youngs Moduli (GPa) = 82.94016 47.71262 56.48636
#
# Poissons Ratio (x) = 0.08967 0.10607
# Poissons Ratio (y) = 0.15587 0.52290
# Poissons Ratio (z) = 0.15574 0.44168
#
# Static dielectric constant tensor:
#      x y z
#    x 4.097120 0.295830 -0.092700 
#    y 0.295830 3.801670 -0.299950 
#    z -0.092700 -0.299950 3.839980 
# 
# 
# High freq. dielectric constant tensor:
#      x y z
#    x 1.834970 0.021040 -0.000640 
#    y 0.021040 1.807830 -0.023280 
#    z -0.000640 -0.023280 1.808660 
# 
# From -- ./inp_files/142338.got.cif
#   From: 2010.06.25/outbox.cif.g09.slc.cpg/sg2_72_cif.got.tgz:142338.got - 2010.06.27 13:26:56.
