data_PCOD8002808
_publ_section_title
;
Structure prediction by ZEFSAII (Michael W. Deem and Ramdas Pophale) SiO2 
 PCOD8002808
Probable space group: P -1
;
_chemical_formula_sum "Si O2"
_cell_formula_units_Z 16
_cell_length_a 18.744973
_cell_length_b 15.850227
_cell_length_c 9.105738
_cell_angle_alpha 131.315245
_cell_angle_beta 130.169526
_cell_angle_gamma 22.813832
_cell_volume 781.677208
_symmetry_space_group_name_H-M "P -1"
_symmetry_group_IT_number 2
_symmetry_cell_setting 'triclinic'
loop_
_space_group_symop_operation_xyz
x,y,z
-x,-y,-z
loop_
_atom_site_type_symbol
_atom_site_label
_atom_site_fract_x
_atom_site_fract_y
_atom_site_fract_z
Si Si1 0.978907 0.279634 0.778722
Si Si2 0.667761 0.338504 0.146437
Si Si3 0.662698 0.217619 0.306288
Si Si4 0.003901 0.150245 0.077394
Si Si5 0.016016 0.596910 0.798357
Si Si6 0.255575 0.646867 0.278323
Si Si7 0.821909 0.411977 0.417722
Si Si8 0.288208 0.261177 0.522058
O O1 0.883032 0.264041 0.686052
O O2 0.921978 0.366294 0.636629
O O3 0.200067 0.030565 0.800101
O O4 0.923447 0.441329 0.996644
O O5 0.635516 0.308232 0.219967
O O6 0.845732 0.102867 0.030517
O O7 0.690594 0.447095 0.336374
O O8 0.500000 0.500000 0.000000
O O9 0.460164 0.381560 0.268457
O O10 0.739043 0.225218 0.538690
O O11 0.974696 0.200928 0.269026
O O12 0.068968 0.200201 0.148950
O O13 0.814771 0.304898 0.924682
O O14 0.852028 0.676647 0.675460
O O15 0.201691 0.365302 0.690927
O O16 0.704939 0.627502 0.424642
O O17 0.500000 0.000000 0.500000
#
# Coordination Sequence:
#
# PCOD8002808 Si02
#       8
#     2   2   2   2   2   2   2   2
#     4  11  21  40  63  88 132 154 209 257 310 366
#     4  12  23  35  59  95 132 161 208 251 304 373
#     4  11  21  36  60  88 125 176 199 248 307 374
#     4  10  21  40  61  88 130 163 202 258 301 371
#     4   9  21  41  68  90 112 168 207 247 318 369
#     4  10  20  36  59  85 125 174 213 230 305 374
#     4  11  24  39  61  94 123 167 203 259 312 354
#     4  10  23  44  68  88 121 158 210 262 304 370
#
# _framework density 20.468805
#
# number of rings (size 3 to 8) (size 9 to 14) (size 15 to 20)
#    0.000    1.500    3.750    2.250    1.750    5.500 
#    0.000    0.625    0.000    0.000    0.000    0.000 
#    0.000    0.000    0.000    0.000    0.000    0.000 
#
# Total GULP energy -198388.631572 kJ/mol
# GULP energy per Si atom -12399.289473 kJ/mol
# Density = 2.042222 g / cm^3
# Si number density = 20.468805 Si / 1000 Ang^3
#
#
#
# Elastic Constant Matrix: (Units=GPa)
#
#
# Indices 1 2 3 4 5 6 
#
# 1 31.7045 21.9838 18.8900 1.0201 -1.7383 4.0203
# 2 21.9838 123.7047 37.1064 8.9117 0.2973 -12.8299
# 3 18.8900 37.1064 142.5245 -3.6526 -14.4919 -2.1221
# 4 1.0201 8.9117 -3.6526 25.4747 2.3883 1.1170
# 5 -1.7383 0.2973 -14.4919 2.3883 35.8508 0.0557
# 6 4.0203 -12.8299 -2.1221 1.1170 0.0557 26.2701
#
#
#
# Elastic Compliance Matrix: (Units=1/GPa)
#
#
# Indices 1 2 3 4 5 6 
#
# 1 0.039812 -0.007107 -0.003499 0.000773 0.000539 -0.009880
# 2 -0.007107 0.010905 -0.002005 -0.004007 -0.000988 0.006424
# 3 -0.003499 -0.002005 0.008365 0.001742 0.003112 0.000151
# 4 0.000773 -0.004007 0.001742 0.041221 -0.001965 -0.003683
# 5 0.000539 -0.000988 0.003112 -0.001965 0.029317 -0.000292
# 6 -0.009880 0.006424 0.000151 -0.003683 -0.000292 0.042885
#
#
# Mechanical properties :
#
#
# Convention : Reuss Voigt Hill
#
# Bulk Modulus (GPa) = 29.53260 50.43268 39.98264
# Shear Modulus (GPa) = 23.92181 32.18268 28.05225
#
# Velocity S-wave (km/s) = 3.42233 3.96950 3.70603
# Velocity P-wave (km/s) = 5.48415 6.76029 6.15538
#
# Compressibility (1/GPa) = 0.03386088
#
# Stress axis : x y z
#
# Youngs Moduli (GPa) = 25.11832 91.69689 119.54056
#
# Poissons Ratio (x) = 0.65171 0.41824
# Poissons Ratio (y) = 0.17852 0.23966
# Poissons Ratio (z) = 0.08788 0.18384
#
# Static dielectric constant tensor:
#      x y z
#    x 3.596610 -0.124240 -0.048220 
#    y -0.124240 3.615470 0.092040 
#    z -0.048220 0.092040 3.972500 
# 
# 
# High freq. dielectric constant tensor:
#      x y z
#    x 1.784710 -0.011550 -0.005060 
#    y -0.011550 1.784010 0.002560 
#    z -0.005060 0.002560 1.816130 
# 
# From -- ./inp_files/348902.got.cif
#   From: 2010.06.25/outbox.cif.g09.slc.cpg/sg2_175_cif.got.tgz:348902.got - 2010.06.27 13:26:56.
