data_PCOD8002759
_publ_section_title
;
Structure prediction by ZEFSAII (Michael W. Deem and Ramdas Pophale) SiO2 
 PCOD8002759
Probable space group: P -1
;
_chemical_formula_sum "Si O2"
_cell_formula_units_Z 14
_cell_length_a 24.754153
_cell_length_b 12.597243
_cell_length_c 15.911356
_cell_angle_alpha 154.517811
_cell_angle_beta 19.004781
_cell_angle_gamma 154.477534
_cell_volume 651.428366
_symmetry_space_group_name_H-M "P -1"
_symmetry_group_IT_number 2
_symmetry_cell_setting 'triclinic'
loop_
_space_group_symop_operation_xyz
x,y,z
-x,-y,-z
loop_
_atom_site_type_symbol
_atom_site_label
_atom_site_fract_x
_atom_site_fract_y
_atom_site_fract_z
Si Si1 0.373805 0.464698 0.916412
Si Si2 0.863004 0.634441 0.434791
Si Si3 0.770310 0.305469 0.016373
Si Si4 0.232934 0.297049 0.558740
Si Si5 0.697999 0.196509 0.862862
Si Si6 0.355768 0.905309 0.572749
Si Si7 0.463230 0.212802 0.938645
O O1 0.561005 0.560820 0.662663
O O2 0.295812 0.146956 0.803479
O O3 0.246502 0.587060 0.139071
O O4 0.396248 0.574225 0.056417
O O5 0.873632 0.681131 0.352189
O O6 0.814758 0.322773 0.302460
O O7 0.057989 0.788365 0.296776
O O8 0.715320 0.720182 0.760623
O O9 0.728514 0.363387 0.023885
O O10 0.817886 0.563222 0.187566
O O11 0.593781 0.075707 0.142522
O O12 0.184032 0.990850 0.438356
O O13 0.500000 0.000000 0.000000
O O14 0.442939 0.785609 0.285960
O O15 0.500000 0.000000 0.500000
#
# Coordination Sequence:
#
# PCOD8002759 Si02
#       7
#     2   2   2   2   2   2   2
#     4  10  21  38  59  86 116 152 204 241 277 346
#     4  11  23  38  57  94 126 150 190 244 303 349
#     4  12  21  37  62  91 122 152 190 253 299 334
#     4  10  20  36  58  90 119 150 194 241 296 341
#     4  10  21  38  57  89 119 151 204 244 284 344
#     4  12  22  40  60  88 119 155 196 236 289 361
#     4  11  21  37  62  87 117 153 195 240 294 346
#
# _framework density 21.491235
#
# number of rings (size 3 to 8) (size 9 to 14) (size 15 to 20)
#    0.000    1.143    8.571    1.286    0.000    3.429 
#    0.000    0.714    0.000    1.714    0.000    0.000 
#    0.000    0.000    0.000    0.000    0.000    0.000 
#
# Total GULP energy -173548.750326 kJ/mol
# GULP energy per Si atom -12396.339309 kJ/mol
# Density = 2.144232 g / cm^3
# Si number density = 21.491235 Si / 1000 Ang^3
#
#
#
# Elastic Constant Matrix: (Units=GPa)
#
#
# Indices 1 2 3 4 5 6 
#
# 1 149.9272 34.6791 62.0003 13.2684 11.4984 -1.7959
# 2 34.6791 74.9709 19.8697 24.9169 -3.4582 -14.9201
# 3 62.0003 19.8697 64.5509 22.9011 20.5306 0.2343
# 4 13.2684 24.9169 22.9011 29.7320 4.4184 -8.4014
# 5 11.4984 -3.4582 20.5306 4.4184 32.3943 13.0763
# 6 -1.7959 -14.9201 0.2343 -8.4014 13.0763 32.9259
#
#
#
# Elastic Compliance Matrix: (Units=1/GPa)
#
#
# Indices 1 2 3 4 5 6 
#
# 1 0.013225 -0.005149 -0.015765 0.009922 0.003545 -0.000376
# 2 -0.005149 0.021583 0.003876 -0.018080 0.002596 0.003828
# 3 -0.015765 0.003876 0.045630 -0.028131 -0.019539 0.001154
# 4 0.009922 -0.018080 -0.028131 0.069290 -0.001433 0.010798
# 5 0.003545 0.002596 -0.019539 -0.001433 0.050025 -0.018724
# 6 -0.000376 0.003828 0.001154 0.010798 -0.018724 0.042268
#
#
# Mechanical properties :
#
#
# Convention : Reuss Voigt Hill
#
# Bulk Modulus (GPa) = 21.56770 58.06079 39.81424
# Shear Modulus (GPa) = 17.14967 30.53708 23.84337
#
# Velocity S-wave (km/s) = 2.82793 3.77358 3.33445
# Velocity P-wave (km/s) = 4.55195 6.78684 5.77847
#
# Compressibility (1/GPa) = 0.04636563
#
# Stress axis : x y z
#
# Youngs Moduli (GPa) = 75.61153 46.33233 21.91523
#
# Poissons Ratio (x) = 0.23854 0.34549
# Poissons Ratio (y) = 0.38929 -0.08495
# Poissons Ratio (z) = 1.19199 -0.17960
#
# Static dielectric constant tensor:
#      x y z
#    x 4.183920 -0.353580 -0.086870 
#    y -0.353580 4.251470 0.488030 
#    z -0.086870 0.488030 3.723700 
# 
# 
# High freq. dielectric constant tensor:
#      x y z
#    x 1.847640 -0.005390 0.006950 
#    y -0.005390 1.838080 0.031880 
#    z 0.006950 0.031880 1.813780 
# 
# From -- ./inp_files/278861.got.cif
#   From: 2010.06.25/outbox.cif.g09.slc.cpg/sg2_140_cif.got.tgz:278861.got - 2010.06.27 13:26:56.
