data_PCOD8002984
_publ_section_title
;
Structure prediction by ZEFSAII (Michael W. Deem and Ramdas Pophale) SiO2 
 PCOD8002984
Probable space group: P -1
;
_chemical_formula_sum "Si O2"
_cell_formula_units_Z 16
_cell_length_a 11.902920
_cell_length_b 20.887913
_cell_length_c 14.594367
_cell_angle_alpha 150.373668
_cell_angle_beta 128.892147
_cell_angle_gamma 30.352222
_cell_volume 790.409799
_symmetry_space_group_name_H-M "P -1"
_symmetry_group_IT_number 2
_symmetry_cell_setting 'triclinic'
loop_
_space_group_symop_operation_xyz
x,y,z
-x,-y,-z
loop_
_atom_site_type_symbol
_atom_site_label
_atom_site_fract_x
_atom_site_fract_y
_atom_site_fract_z
Si Si1 0.482918 0.859983 0.031478
Si Si2 0.812005 0.806412 0.854416
Si Si3 0.776701 0.196475 0.510522
Si Si4 0.318535 0.561474 0.412542
Si Si5 0.064914 0.344822 0.077369
Si Si6 0.952482 0.699838 0.527225
Si Si7 0.755810 0.321816 0.850756
Si Si8 0.286948 0.403360 0.501443
O O1 0.344224 0.963520 0.988820
O O2 0.309502 0.046116 0.254473
O O3 0.537755 0.669869 0.843300
O O4 0.742495 0.752748 0.025572
O O5 0.759506 0.839114 0.976663
O O6 0.729054 0.739062 0.672467
O O7 0.117344 0.596860 0.735237
O O8 0.760626 0.290927 0.528268
O O9 0.707509 0.335146 0.735162
O O10 0.578427 0.225499 0.441041
O O11 0.055202 0.927707 0.324547
O O12 0.500000 0.500000 0.500000
O O13 0.055280 0.712766 0.513892
O O14 0.901641 0.590032 0.332280
O O15 0.871133 0.380308 0.988242
O O16 0.176413 0.533322 0.509770
O O17 0.500000 0.500000 0.000000
#
# Coordination Sequence:
#
# PCOD8002984 Si02
#       8
#     2   2   2   2   2   2   2   2
#     4  10  21  35  59  92 123 161 199 245 311 362
#     4   9  17  29  57  91 120 152 196 242 305 361
#     4  11  24  42  61  87 128 162 203 251 302 362
#     4  11  23  39  61  91 130 164 199 243 305 375
#     4  10  20  36  61  86 119 156 209 256 301 353
#     4   9  20  38  58  93 124 157 200 249 304 365
#     4  11  26  43  64  90 118 164 211 254 304 354
#     4   9  16  33  57  87 122 155 191 250 304 357
#
# _framework density 20.242664000000001
#
# number of rings (size 3 to 8) (size 9 to 14) (size 15 to 20)
#    0.000    2.000    1.250    2.625    1.750    3.500 
#    0.000    2.500    0.000    4.500    0.000    0.000 
#    0.000    0.000    0.000    0.000    0.000    0.000 
#
# Total GULP energy -198403.571068 kJ/mol
# GULP energy per Si atom -12400.223192 kJ/mol
# Density = 2.019659 g / cm^3
# Si number density = 20.242664 Si / 1000 Ang^3
#
#
#
# Elastic Constant Matrix: (Units=GPa)
#
#
# Indices 1 2 3 4 5 6 
#
# 1 110.0691 47.4252 55.4532 -1.4133 -3.7608 -0.2078
# 2 47.4252 76.9321 40.2200 -8.7925 -0.0269 -4.1116
# 3 55.4532 40.2200 122.1783 -1.7339 -18.5453 -11.0639
# 4 -1.4133 -8.7925 -1.7339 29.2182 -4.6991 1.6135
# 5 -3.7608 -0.0269 -18.5453 -4.6991 31.9831 2.5604
# 6 -0.2078 -4.1116 -11.0639 1.6135 2.5604 35.7961
#
#
#
# Elastic Compliance Matrix: (Units=1/GPa)
#
#
# Indices 1 2 3 4 5 6 
#
# 1 0.014217 -0.006634 -0.004638 -0.001654 -0.001110 -0.001959
# 2 -0.006634 0.019596 -0.003613 0.004949 -0.002214 0.001031
# 3 -0.004638 -0.003613 0.012769 0.000352 0.006666 0.003012
# 4 -0.001654 0.004949 0.000352 0.036617 0.005504 -0.001377
# 5 -0.001110 -0.002214 0.006666 0.005504 0.035889 -0.001016
# 6 -0.001959 0.001031 0.003012 -0.001377 -0.001016 0.029109
#
#
# Mechanical properties :
#
#
# Convention : Reuss Voigt Hill
#
# Bulk Modulus (GPa) = 59.47637 66.15291 62.81464
# Shear Modulus (GPa) = 27.23743 30.47157 28.85450
#
# Velocity S-wave (km/s) = 3.67215 3.88405 3.77958
# Velocity P-wave (km/s) = 6.88658 7.27085 7.08133
#
# Compressibility (1/GPa) = 0.01681340
#
# Stress axis : x y z
#
# Youngs Moduli (GPa) = 70.33630 51.02993 78.31561
#
# Poissons Ratio (x) = 0.33851 0.36326
# Poissons Ratio (y) = 0.46658 0.28292
# Poissons Ratio (z) = 0.32625 0.18435
#
# Static dielectric constant tensor:
#      x y z
#    x 3.740470 -0.072990 -0.104380 
#    y -0.072990 3.411470 0.004820 
#    z -0.104380 0.004820 3.763760 
# 
# 
# High freq. dielectric constant tensor:
#      x y z
#    x 1.798930 -0.008290 -0.008070 
#    y -0.008290 1.755770 0.004460 
#    z -0.008070 0.004460 1.800290 
# 
# From -- ./inp_files/472713.got.cif
#   From: 2010.06.25/outbox.cif.g09.slc.cpg/sg2_237_cif.got.tgz:472713.got - 2010.06.27 13:26:56.
