data_PCOD8002693
_publ_section_title
;
Structure prediction by ZEFSAII (Michael W. Deem and Ramdas Pophale) SiO2 
 PCOD8002693
Probable space group: P -1
;
_chemical_formula_sum "Si O2"
_cell_formula_units_Z 16
_cell_length_a 26.862696
_cell_length_b 14.378670
_cell_length_c 17.925546
_cell_angle_alpha 35.528672
_cell_angle_beta 158.124178
_cell_angle_gamma 159.755285
_cell_volume 801.242522
_symmetry_space_group_name_H-M "P -1"
_symmetry_group_IT_number 2
_symmetry_cell_setting 'triclinic'
loop_
_space_group_symop_operation_xyz
x,y,z
-x,-y,-z
loop_
_atom_site_type_symbol
_atom_site_label
_atom_site_fract_x
_atom_site_fract_y
_atom_site_fract_z
Si Si1 0.130779 0.083486 0.786468
Si Si2 0.401267 0.571044 0.571725
Si Si3 0.619021 0.417269 0.289346
Si Si4 0.930090 0.988987 0.714802
Si Si5 0.286980 0.012041 0.478989
Si Si6 0.741703 0.180761 0.579068
Si Si7 0.403575 0.431928 0.271336
Si Si8 0.811848 0.568150 0.921834
O O1 0.167928 0.249683 0.663867
O O2 0.357519 0.186610 0.034854
O O3 0.879798 0.729004 0.654868
O O4 0.132601 0.180772 0.805058
O O5 0.410026 0.580656 0.665387
O O6 0.562503 0.577418 0.763268
O O7 0.510199 0.843959 0.509609
O O8 0.700324 0.320255 0.451712
O O9 0.936398 0.160366 0.661481
O O10 0.664334 0.735626 0.472375
O O11 0.942265 0.841099 0.877767
O O12 0.297685 0.167142 0.334707
O O13 0.551375 0.247396 0.733509
O O14 0.229933 0.802428 0.483134
O O15 0.000211 0.389930 0.841434
O O16 0.226242 0.402665 0.064846
#
# Coordination Sequence:
#
# PCOD8002693 Si02
#       8
#     2   2   2   2   2   2   2   2
#     4  10  22  40  57  71 100 143 181 215 250 303
#     4  10  20  36  58  79 101 134 175 219 258 298
#     4  11  24  38  52  76 105 139 180 214 254 306
#     4   8  14  30  55  76  99 136 175 208 250 306
#     4   8  16  30  49  78 111 135 160 205 264 312
#     4  11  22  32  52  85 109 131 169 213 264 313
#     4   7  14  28  51  81 104 130 169 208 256 309
#     4   9  16  30  52  81 112 131 159 217 265 301
#
# _framework density 19.968986000000001
#
# number of rings (size 3 to 8) (size 9 to 14) (size 15 to 20)
#    0.000    2.750    0.000    3.750    0.000    7.000 
#    0.000    0.625    0.000    6.750    0.000    0.000 
#    0.000    0.000    0.000    0.000    0.000    0.000 
#
# Total GULP energy -198218.346528 kJ/mol
# GULP energy per Si atom -12388.646658 kJ/mol
# Density = 1.992354 g / cm^3
# Si number density = 19.968986 Si / 1000 Ang^3
#
#
#
# Elastic Constant Matrix: (Units=GPa)
#
#
# Indices 1 2 3 4 5 6 
#
# 1 116.3182 10.1988 55.0809 -28.6998 15.3144 -24.6292
# 2 10.1988 29.0887 50.2858 -8.0807 11.9429 -13.2983
# 3 55.0809 50.2858 98.8154 -5.4985 14.2982 7.6014
# 4 -28.6998 -8.0807 -5.4985 18.2346 -0.7940 -5.7212
# 5 15.3144 11.9429 14.2982 -0.7940 21.7933 12.6932
# 6 -24.6292 -13.2983 7.6014 -5.7212 12.6932 -2.6578
#
#
#
# Elastic Compliance Matrix: (Units=1/GPa)
#
#
# Indices 1 2 3 4 5 6 
#
# 1 0.007583 -0.009020 0.000674 0.005250 0.005147 -0.009932
# 2 -0.009020 0.035419 -0.013237 -0.012450 0.014845 -0.033798
# 3 0.000674 -0.013237 0.017625 0.006072 -0.016196 0.019974
# 4 0.005250 -0.012450 0.006072 0.053454 0.013236 -0.020842
# 5 0.005147 0.014845 -0.016196 0.013236 0.042272 0.005098
# 6 -0.009932 -0.033798 0.019974 -0.020842 0.005098 0.011227
#
#
# Mechanical properties :
#
#
# Convention : Reuss Voigt Hill
#
# Bulk Modulus (GPa) = 57.26782 52.81702 55.04242
# Shear Modulus (GPa) = 23.08755 16.05115 19.56935
#
# Velocity S-wave (km/s) = 3.40394 2.83822 3.13387
# Velocity P-wave (km/s) = 6.64753 6.10308 6.38112
#
# Compressibility (1/GPa) = 0.01746181
#
# Stress axis : x y z
#
# Youngs Moduli (GPa) = 131.86812 28.23339 56.73736
#
# Poissons Ratio (x) = 0.25466 -0.03826
# Poissons Ratio (y) = 1.18943 0.75105
# Poissons Ratio (z) = -0.08892 0.37373
#
# Static dielectric constant tensor:
#      x y z
#    x 4.309610 0.083360 0.184270 
#    y 0.083360 3.203390 0.239780 
#    z 0.184270 0.239780 3.468850 
# 
# 
# High freq. dielectric constant tensor:
#      x y z
#    x 1.803190 0.000070 0.008090 
#    y 0.000070 1.726240 0.028550 
#    z 0.008090 0.028550 1.771790 
# 
# From -- ./inp_files/422444.got.cif
#   From: 2010.06.25/outbox.cif.g09.slc.cpg/sg2_212_cif.got.tgz:422444.got - 2010.06.27 13:26:56.
