data_PCOD8002178
_publ_section_title
;
Structure prediction by ZEFSAII (Michael W. Deem and Ramdas Pophale) SiO2 
 PCOD8002178
Probable space group: P -1
;
_chemical_formula_sum "Si O2"
_cell_formula_units_Z 16
_cell_length_a 9.316508
_cell_length_b 6.523245
_cell_length_c 19.672841
_cell_angle_alpha 99.943443
_cell_angle_beta 127.447483
_cell_angle_gamma 55.798174
_cell_volume 758.562442
_symmetry_space_group_name_H-M "P -1"
_symmetry_group_IT_number 2
_symmetry_cell_setting 'triclinic'
loop_
_space_group_symop_operation_xyz
x,y,z
-x,-y,-z
loop_
_atom_site_type_symbol
_atom_site_label
_atom_site_fract_x
_atom_site_fract_y
_atom_site_fract_z
Si Si1 0.424951 0.272875 0.408493
Si Si2 0.669907 0.493165 0.739448
Si Si3 0.560532 0.756595 0.356076
Si Si4 0.465291 0.991679 0.874890
Si Si5 0.638601 0.599713 0.020690
Si Si6 0.213087 0.627304 0.487543
Si Si7 0.733593 0.948595 0.313125
Si Si8 0.900916 0.636651 0.909827
O O1 0.264007 0.479163 0.315824
O O2 0.297770 0.386428 0.448707
O O3 0.655450 0.245825 0.475616
O O4 0.467634 0.001187 0.391953
O O5 0.645923 0.258966 0.723111
O O6 0.849803 0.461020 0.842214
O O7 0.428375 0.754091 0.699052
O O8 0.753527 0.494402 0.434959
O O9 0.653474 0.785447 0.314309
O O10 0.385735 0.222934 0.915035
O O11 0.261495 0.077493 0.769439
O O12 0.673653 0.915065 0.879412
O O13 0.535644 0.748501 0.928101
O O14 0.903120 0.367424 0.073360
O O15 0.500000 0.500000 0.000000
O O16 0.963376 0.855465 0.409516
O O17 0.000000 0.500000 0.000000
#
# Coordination Sequence:
#
# PCOD8002178 Si02
#       8
#     2   2   2   2   2   2   2   2
#     4   9  20  36  55  80 115 154 196 243 293 347
#     4   9  20  37  56  81 115 149 197 240 297 354
#     4  10  20  36  56  83 113 152 202 246 282 361
#     4   9  21  40  57  89 125 154 198 247 300 358
#     4  10  21  39  65  90 119 154 201 248 296 364
#     4  10  20  35  57  80 116 158 193 243 297 343
#     4  10  21  35  57  82 117 152 195 243 294 350
#     4   9  19  38  64  84 120 162 189 242 307 352
#
# _framework density 21.092528999999999
#
# number of rings (size 3 to 8) (size 9 to 14) (size 15 to 20)
#    0.000    2.500    0.000    0.750    1.750    9.000 
#    0.000   10.000    0.000    0.000    0.000    0.000 
#    0.000    0.000    0.000    0.000    0.000    0.000 
#
# Total GULP energy -198236.722270 kJ/mol
# GULP energy per Si atom -12389.795142 kJ/mol
# Density = 2.104452 g / cm^3
# Si number density = 21.092529 Si / 1000 Ang^3
#
#
#
# Elastic Constant Matrix: (Units=GPa)
#
#
# Indices 1 2 3 4 5 6 
#
# 1 95.3323 34.0058 29.2625 4.9990 4.1873 -0.1268
# 2 34.0058 58.5905 19.3334 3.7145 3.7820 10.5776
# 3 29.2625 19.3334 120.1858 12.4703 -6.8147 2.8341
# 4 4.9990 3.7145 12.4703 20.7158 -3.4849 2.7706
# 5 4.1873 3.7820 -6.8147 -3.4849 34.4226 1.4144
# 6 -0.1268 10.5776 2.8341 2.7706 1.4144 24.4160
#
#
#
# Elastic Compliance Matrix: (Units=1/GPa)
#
#
# Indices 1 2 3 4 5 6 
#
# 1 0.014187 -0.008050 -0.002193 -0.001473 -0.001592 0.004075
# 2 -0.008050 0.024296 -0.001774 -0.000254 -0.001646 -0.010237
# 3 -0.002193 -0.001774 0.009734 -0.004698 0.001911 0.000050
# 4 -0.001473 -0.000254 -0.004698 0.053079 0.004883 -0.005658
# 5 -0.001592 -0.001646 0.001911 0.004883 0.030373 -0.001831
# 6 0.004075 -0.010237 0.000050 -0.005658 -0.001831 0.046155
#
#
# Mechanical properties :
#
#
# Convention : Reuss Voigt Hill
#
# Bulk Modulus (GPa) = 41.35046 48.81244 45.08145
# Shear Modulus (GPa) = 23.81876 28.67803 26.24840
#
# Velocity S-wave (km/s) = 3.36408 3.69132 3.53149
# Velocity P-wave (km/s) = 5.89375 6.43118 6.16832
#
# Compressibility (1/GPa) = 0.02418353
#
# Stress axis : x y z
#
# Youngs Moduli (GPa) = 70.48833 41.15972 102.72948
#
# Poissons Ratio (x) = 0.33133 0.22526
# Poissons Ratio (y) = 0.56743 0.18223
# Poissons Ratio (z) = 0.15456 0.07301
#
# Static dielectric constant tensor:
#      x y z
#    x 4.109870 -0.612470 -0.086440 
#    y -0.612470 5.005750 0.108970 
#    z -0.086440 0.108970 4.329740 
# 
# 
# High freq. dielectric constant tensor:
#      x y z
#    x 1.813830 -0.008550 -0.014350 
#    y -0.008550 1.805640 0.013260 
#    z -0.014350 0.013260 1.844120 
# 
# From -- ./inp_files/206654.got.cif
#   From: 2010.06.25/outbox.cif.g09.slc.cpg/sg2_104_cif.got.tgz:206654.got - 2010.06.27 13:26:56.
