data_PCOD8002341
_publ_section_title
;
Structure prediction by ZEFSAII (Michael W. Deem and Ramdas Pophale) SiO2 
 PCOD8002341
Probable space group: P -1
;
_chemical_formula_sum "Si O2"
_cell_formula_units_Z 16
_cell_length_a 22.983077
_cell_length_b 5.165152
_cell_length_c 9.279620
_cell_angle_alpha 70.141624
_cell_angle_beta 53.438140
_cell_angle_gamma 63.091673
_cell_volume 785.229456
_symmetry_space_group_name_H-M "P -1"
_symmetry_group_IT_number 2
_symmetry_cell_setting 'triclinic'
loop_
_space_group_symop_operation_xyz
x,y,z
-x,-y,-z
loop_
_atom_site_type_symbol
_atom_site_label
_atom_site_fract_x
_atom_site_fract_y
_atom_site_fract_z
Si Si1 0.356747 0.900386 0.893105
Si Si2 0.912524 0.896517 0.012334
Si Si3 0.489408 0.326762 0.412197
Si Si4 0.732891 0.809258 0.785937
Si Si5 0.767774 0.386708 0.553635
Si Si6 0.676810 0.569582 0.367777
Si Si7 0.232018 0.697499 0.985301
Si Si8 0.083526 0.732243 0.794199
O O1 0.443910 0.671952 0.800857
O O2 0.288966 0.759323 0.008959
O O3 0.344301 0.114857 0.734010
O O4 0.348637 0.052931 0.034211
O O5 0.910556 0.571382 0.082984
O O6 0.850181 0.054007 0.953643
O O7 0.893015 0.064101 0.162484
O O8 0.996680 0.892098 0.836872
O O9 0.500000 0.500000 0.500000
O O10 0.402172 0.483636 0.455377
O O11 0.500000 0.000000 0.500000
O O12 0.727669 0.621088 0.690419
O O13 0.762910 0.068173 0.646763
O O14 0.784795 0.590002 0.873981
O O15 0.728573 0.540288 0.436345
O O16 0.858874 0.329587 0.415047
O O17 0.724794 0.335231 0.225099
#
# Coordination Sequence:
#
# PCOD8002341 Si02
#       8
#     2   2   2   2   2   2   2   2
#     4  10  21  41  63  87 121 160 197 246 301 353
#     4  10  21  36  63  93 118 148 196 251 297 349
#     4  10  20  35  59  93 119 144 195 260 298 334
#     4  11  26  39  59  85 127 166 193 241 297 362
#     4  12  23  41  60  88 124 158 199 245 298 349
#     4  10  22  35  66  94 111 153 208 253 288 352
#     4  11  20  40  64  89 116 160 205 238 297 356
#     4  10  21  38  59  93 123 147 190 255 304 333
#
# _framework density 20.376207999999998
#
# number of rings (size 3 to 8) (size 9 to 14) (size 15 to 20)
#    0.000    1.500    3.750    1.500    3.500    0.000 
#    0.000    2.500    0.000    0.000    0.000    0.000 
#    0.000    0.000    0.000    0.000    0.000    0.000 
#
# Total GULP energy -198249.584897 kJ/mol
# GULP energy per Si atom -12390.599056 kJ/mol
# Density = 2.032983 g / cm^3
# Si number density = 20.376208 Si / 1000 Ang^3
#
#
#
# Elastic Constant Matrix: (Units=GPa)
#
#
# Indices 1 2 3 4 5 6 
#
# 1 76.0132 29.6170 44.3952 13.8850 -7.5696 0.5321
# 2 29.6170 81.0699 36.6686 12.3833 -1.8611 9.4957
# 3 44.3952 36.6686 101.0820 13.9707 4.4788 -6.3925
# 4 13.8850 12.3833 13.9707 35.9466 7.8575 1.1443
# 5 -7.5696 -1.8611 4.4788 7.8575 28.1152 8.6350
# 6 0.5321 9.4957 -6.3925 1.1443 8.6350 32.5018
#
#
#
# Elastic Compliance Matrix: (Units=1/GPa)
#
#
# Indices 1 2 3 4 5 6 
#
# 1 0.020926 -0.002403 -0.008129 -0.006072 0.009562 -0.003566
# 2 -0.002403 0.017097 -0.005286 -0.003670 0.004523 -0.007068
# 3 -0.008129 -0.005286 0.016120 0.000054 -0.007197 0.006758
# 4 -0.006072 -0.003670 0.000054 0.034014 -0.012400 0.003279
# 5 0.009562 0.004523 -0.007197 -0.012400 0.047700 -0.015130
# 6 -0.003566 -0.007068 0.006758 0.003279 -0.015130 0.038124
#
#
# Mechanical properties :
#
#
# Convention : Reuss Voigt Hill
#
# Bulk Modulus (GPa) = 44.43473 53.28076 48.85775
# Shear Modulus (GPa) = 23.46099 29.14502 26.30300
#
# Velocity S-wave (km/s) = 3.39690 3.78609 3.59676
# Velocity P-wave (km/s) = 6.10244 6.73186 6.42486
#
# Compressibility (1/GPa) = 0.02250492
#
# Stress axis : x y z
#
# Youngs Moduli (GPa) = 47.78747 58.49146 62.03625
#
# Poissons Ratio (x) = 0.14058 0.50428
# Poissons Ratio (y) = 0.11485 0.32795
# Poissons Ratio (z) = 0.38845 0.30921
#
# Static dielectric constant tensor:
#      x y z
#    x 3.720850 0.009580 -0.338620 
#    y 0.009580 3.840360 0.304440 
#    z -0.338620 0.304440 3.994460 
# 
# 
# High freq. dielectric constant tensor:
#      x y z
#    x 1.774390 0.012400 -0.016550 
#    y 0.012400 1.808070 0.018490 
#    z -0.016550 0.018490 1.790790 
# 
# From -- ./inp_files/47548.got.cif
#   From: 2010.06.25/outbox.cif.g09.slc.cpg/sg2_24_cif.got.tgz:47548.got - 2010.06.27 13:26:56.
