data_PCOD8002848
_publ_section_title
;
Structure prediction by ZEFSAII (Michael W. Deem and Ramdas Pophale) SiO2 
 PCOD8002848
Probable space group: P -1
;
_chemical_formula_sum "Si O2"
_cell_formula_units_Z 14
_cell_length_a 11.705385
_cell_length_b 10.986027
_cell_length_c 10.724217
_cell_angle_alpha 70.716821
_cell_angle_beta 76.662656
_cell_angle_gamma 136.884303
_cell_volume 606.869179
_symmetry_space_group_name_H-M "P -1"
_symmetry_group_IT_number 2
_symmetry_cell_setting 'triclinic'
loop_
_space_group_symop_operation_xyz
x,y,z
-x,-y,-z
loop_
_atom_site_type_symbol
_atom_site_label
_atom_site_fract_x
_atom_site_fract_y
_atom_site_fract_z
Si Si1 0.123707 0.094860 0.146794
Si Si2 0.594712 0.550565 0.710883
Si Si3 0.896174 0.055643 0.536720
Si Si4 0.726910 0.913648 0.235965
Si Si5 0.770719 0.187184 0.657299
Si Si6 0.930658 0.220214 0.841941
Si Si7 0.437482 0.841651 0.462430
O O1 0.140895 0.078841 0.292471
O O2 0.990225 0.848445 0.192520
O O3 0.395467 0.373572 0.929163
O O4 0.966283 0.071631 0.171847
O O5 0.719860 0.812610 0.561826
O O6 0.474721 0.379673 0.671355
O O7 0.812720 0.662785 0.662747
O O8 0.809357 0.115436 0.565419
O O9 0.616399 0.891861 0.384655
O O10 0.806408 0.094967 0.050199
O O11 0.729655 0.080868 0.838435
O O12 0.553846 0.069461 0.701076
O O13 0.000000 0.500000 0.500000
O O14 0.167665 0.536275 0.671637
O O15 0.500000 0.000000 0.500000
#
# Coordination Sequence:
#
# PCOD8002848 Si02
#       7
#     2   2   2   2   2   2   2
#     4  10  21  37  60  93 125 152 192 245 306 370
#     4  10  20  36  59  90 120 152 198 246 304 361
#     4  10  21  36  60  89 121 157 196 251 302 345
#     4  11  23  39  62  90 123 162 198 243 309 366
#     4   9  19  39  60  82 118 162 204 240 284 352
#     4   9  20  40  62  86 119 157 199 248 301 355
#     4  11  25  41  59  86 120 161 209 249 289 354
#
# _framework density 23.069223000000001
#
# number of rings (size 3 to 8) (size 9 to 14) (size 15 to 20)
#    0.000    2.000    0.000    4.714    0.000    9.143 
#    0.000    4.286    0.000    0.000    0.000    0.000 
#    0.000    0.000    0.000    0.000    0.000    0.000 
#
# Total GULP energy -173461.473760 kJ/mol
# GULP energy per Si atom -12390.105269 kJ/mol
# Density = 2.301672 g / cm^3
# Si number density = 23.069223 Si / 1000 Ang^3
#
#
#
# Elastic Constant Matrix: (Units=GPa)
#
#
# Indices 1 2 3 4 5 6 
#
# 1 114.3893 38.0301 39.2567 -6.3367 -3.5688 -1.5335
# 2 38.0301 71.5939 46.6288 -7.3223 -5.7579 -23.1037
# 3 39.2567 46.6288 86.3545 -12.1735 -11.7927 3.9568
# 4 -6.3367 -7.3223 -12.1735 30.2827 0.6538 3.2024
# 5 -3.5688 -5.7579 -11.7927 0.6538 32.0601 0.8636
# 6 -1.5335 -23.1037 3.9568 3.2024 0.8636 37.9770
#
#
#
# Elastic Compliance Matrix: (Units=1/GPa)
#
#
# Indices 1 2 3 4 5 6 
#
# 1 0.011245 -0.005567 -0.001962 0.000519 -0.000406 -0.002763
# 2 -0.005567 0.036811 -0.019032 -0.002460 -0.001616 0.024397
# 3 -0.001962 -0.019032 0.025163 0.006559 0.005889 -0.014966
# 4 0.000519 -0.002460 0.006559 0.035691 0.001441 -0.005201
# 5 -0.000406 -0.001616 0.005889 0.001441 0.033060 -0.002486
# 6 -0.002763 0.024397 -0.014966 -0.005201 -0.002486 0.043117
#
#
# Mechanical properties :
#
#
# Convention : Reuss Voigt Hill
#
# Bulk Modulus (GPa) = 49.75322 57.79655 53.77488
# Shear Modulus (GPa) = 20.41591 29.95878 25.18735
#
# Velocity S-wave (km/s) = 2.97810 3.60758 3.30785
# Velocity P-wave (km/s) = 5.78266 6.51620 6.16036
#
# Compressibility (1/GPa) = 0.02009920
#
# Stress axis : x y z
#
# Youngs Moduli (GPa) = 88.92762 27.16562 39.74078
#
# Poissons Ratio (x) = 0.15122 0.07797
# Poissons Ratio (y) = 0.49502 0.75633
# Poissons Ratio (z) = 0.17447 0.51701
#
# Static dielectric constant tensor:
#      x y z
#    x 6.203210 0.660550 0.472470 
#    y 0.660550 4.490910 0.196810 
#    z 0.472470 0.196810 4.180890 
# 
# 
# High freq. dielectric constant tensor:
#      x y z
#    x 1.912340 -0.006800 0.002790 
#    y -0.006800 1.917500 0.001980 
#    z 0.002790 0.001980 1.894900 
# 
# From -- ./inp_files/425628.got.cif
#   From: 2010.06.25/outbox.cif.g09.slc.cpg/sg2_213_cif.got.tgz:425628.got - 2010.06.27 13:26:56.
