data_PCOD8002490
_publ_section_title
;
Structure prediction by ZEFSAII (Michael W. Deem and Ramdas Pophale) SiO2 
 PCOD8002490
Probable space group: P -1
;
_chemical_formula_sum "Si O2"
_cell_formula_units_Z 16
_cell_length_a 11.867153
_cell_length_b 16.659939
_cell_length_c 19.403086
_cell_angle_alpha 20.842947
_cell_angle_beta 143.074179
_cell_angle_gamma 131.730174
_cell_volume 758.113511
_symmetry_space_group_name_H-M "P -1"
_symmetry_group_IT_number 2
_symmetry_cell_setting 'triclinic'
loop_
_space_group_symop_operation_xyz
x,y,z
-x,-y,-z
loop_
_atom_site_type_symbol
_atom_site_label
_atom_site_fract_x
_atom_site_fract_y
_atom_site_fract_z
Si Si1 0.755324 0.303055 0.671468
Si Si2 0.977595 0.147740 0.767390
Si Si3 0.587025 0.123416 0.532787
Si Si4 0.704725 0.083626 0.115668
Si Si5 0.033730 0.202575 0.401075
Si Si6 0.270124 0.202127 0.770798
Si Si7 0.354539 0.366890 0.353031
Si Si8 0.385272 0.384718 0.087799
O O1 0.920877 0.245668 0.737579
O O2 0.708467 0.585926 0.437715
O O3 0.552932 0.261221 0.583736
O O4 0.858967 0.134087 0.922795
O O5 0.779442 0.177653 0.605029
O O6 0.088835 0.299265 0.659605
O O7 0.405684 0.235675 0.409022
O O8 0.526766 0.258450 0.322475
O O9 0.654211 0.831650 0.797386
O O10 0.851293 0.907447 0.384366
O O11 0.775237 0.987892 0.149329
O O12 0.477185 0.087829 0.008169
O O13 0.713542 0.345730 0.921158
O O14 0.166284 0.319690 0.329660
O O15 0.000000 0.000000 0.500000
O O16 0.820756 0.410434 0.150346
O O17 0.500000 0.500000 0.000000
#
# Coordination Sequence:
#
# PCOD8002490 Si02
#       8
#     2   2   2   2   2   2   2   2
#     4   9  20  37  60  95 126 163 207 248 314 375
#     4  10  20  35  63  90 125 167 202 254 309 376
#     4  10  24  42  63  91 122 167 210 259 316 364
#     4  10  24  39  62  95 128 168 208 258 319 373
#     4  12  26  42  68  94 122 171 216 263 318 377
#     4  10  21  38  60  93 131 163 206 256 312 378
#     4  10  22  44  65  90 131 164 208 262 311 379
#     4  11  26  43  62  90 124 161 212 267 313 370
#
# _framework density 21.10502
#
# number of rings (size 3 to 8) (size 9 to 14) (size 15 to 20)
#    0.000    1.750    0.000    2.625    5.250    3.000 
#    0.000    7.500    0.000    0.000    0.000    0.000 
#    0.000    0.000    0.000    0.000    0.000    0.000 
#
# Total GULP energy -198376.403412 kJ/mol
# GULP energy per Si atom -12398.525213 kJ/mol
# Density = 2.105698 g / cm^3
# Si number density = 21.105020 Si / 1000 Ang^3
#
#
#
# Elastic Constant Matrix: (Units=GPa)
#
#
# Indices 1 2 3 4 5 6 
#
# 1 117.9421 48.4042 28.7183 -3.3562 13.2762 19.5910
# 2 48.4042 75.1989 27.4118 -11.3384 4.0772 -5.4222
# 3 28.7183 27.4118 93.7609 -8.2210 -0.1890 0.3906
# 4 -3.3562 -11.3384 -8.2210 33.6604 -6.5732 6.8143
# 5 13.2762 4.0772 -0.1890 -6.5732 34.7868 -0.3595
# 6 19.5910 -5.4222 0.3906 6.8143 -0.3595 30.2666
#
#
#
# Elastic Compliance Matrix: (Units=1/GPa)
#
#
# Indices 1 2 3 4 5 6 
#
# 1 0.015528 -0.010019 -0.001868 -0.000906 -0.005054 -0.011678
# 2 -0.010019 0.022063 -0.003052 0.004162 0.002107 0.009565
# 3 -0.001868 -0.003052 0.012315 0.002082 0.001531 0.000053
# 4 -0.000906 0.004162 0.002082 0.034017 0.006232 -0.006280
# 5 -0.005054 0.002107 0.001531 0.006232 0.031641 0.002602
# 6 -0.011678 0.009565 0.000053 -0.006280 0.002602 0.043756
#
#
# Mechanical properties :
#
#
# Convention : Reuss Voigt Hill
#
# Bulk Modulus (GPa) = 49.92972 55.10784 52.51878
# Shear Modulus (GPa) = 25.52645 31.90060 28.71353
#
# Velocity S-wave (km/s) = 3.48156 3.89204 3.69251
# Velocity P-wave (km/s) = 6.31433 6.80920 6.56643
#
# Compressibility (1/GPa) = 0.02002815
#
# Stress axis : x y z
#
# Youngs Moduli (GPa) = 64.39818 45.32532 81.19973
#
# Poissons Ratio (x) = 0.45411 0.15169
# Poissons Ratio (y) = 0.64520 0.24783
# Poissons Ratio (z) = 0.12030 0.13834
#
# Static dielectric constant tensor:
#      x y z
#    x 3.878560 -0.052560 0.099580 
#    y -0.052560 3.809790 -0.093600 
#    z 0.099580 -0.093600 4.068700 
# 
# 
# High freq. dielectric constant tensor:
#      x y z
#    x 1.827740 0.001080 0.004860 
#    y 0.001080 1.828850 -0.003460 
#    z 0.004860 -0.003460 1.840410 
# 
# From -- ./inp_files/595971.got.cif
#   From: 2010.06.25/outbox.cif.g09.slc.cpg/sg2_298_cif.got.tgz:595971.got - 2010.06.27 13:26:56.
