data_PCOD8002206
_publ_section_title
;
Structure prediction by ZEFSAII (Michael W. Deem and Ramdas Pophale) SiO2 
 PCOD8002206
Probable space group: P -1
;
_chemical_formula_sum "Si O2"
_cell_formula_units_Z 16
_cell_length_a 8.801880
_cell_length_b 13.930277
_cell_length_c 12.200372
_cell_angle_alpha 87.020224
_cell_angle_beta 93.185948
_cell_angle_gamma 32.843535
_cell_volume 796.490365
_symmetry_space_group_name_H-M "P -1"
_symmetry_group_IT_number 2
_symmetry_cell_setting 'triclinic'
loop_
_space_group_symop_operation_xyz
x,y,z
-x,-y,-z
loop_
_atom_site_type_symbol
_atom_site_label
_atom_site_fract_x
_atom_site_fract_y
_atom_site_fract_z
Si Si1 0.102902 0.416270 0.627574
Si Si2 0.262755 0.244804 0.147343
Si Si3 0.472011 0.950131 0.257727
Si Si4 0.845443 0.243932 0.203720
Si Si5 0.692405 0.538022 0.207401
Si Si6 0.854912 0.780877 0.080928
Si Si7 0.125642 0.827920 0.034163
Si Si8 0.662484 0.599669 0.782866
O O1 0.311549 0.211259 0.635057
O O2 0.285164 0.406781 0.687221
O O3 0.000000 0.500000 0.500000
O O4 0.824056 0.540299 0.681025
O O5 0.419648 0.262582 0.156328
O O6 0.929832 0.449386 0.137024
O O7 0.387834 0.108124 0.257810
O O8 0.297359 0.167645 0.041410
O O9 0.643050 0.849780 0.157109
O O10 0.181873 0.042039 0.241116
O O11 0.772482 0.385601 0.244782
O O12 0.649039 0.276718 0.263954
O O13 0.769335 0.277003 0.069071
O O14 0.382219 0.709353 0.134241
O O15 0.902318 0.871622 0.079155
O O16 0.163231 0.567768 0.124339
O O17 0.000000 0.000000 0.000000
#
# Coordination Sequence:
#
# PCOD8002206 Si02
#       8
#     2   2   2   2   2   2   2   2
#     4  10  23  46  65  82 112 155 205 255 305 346
#     4  10  20  35  57  86 123 161 194 231 288 355
#     4  10  22  37  59  88 120 155 199 247 283 351
#     4  11  21  38  57  92 128 152 192 238 289 360
#     4  10  20  38  59  85 117 159 196 241 291 349
#     4  11  20  36  54  86 130 165 196 224 283 359
#     4  12  23  32  57  92 132 166 190 229 289 355
#     4  10  22  37  61  84 117 162 199 238 294 353
#
# _framework density 20.088128999999999
#
# number of rings (size 3 to 8) (size 9 to 14) (size 15 to 20)
#    0.000    1.500    3.750    2.625    1.750    2.000 
#    0.000    6.875    0.000    0.000    0.000    0.000 
#    0.000    0.000    0.000    0.000    0.000    0.000 
#
# Total GULP energy -198261.731622 kJ/mol
# GULP energy per Si atom -12391.358226 kJ/mol
# Density = 2.004241 g / cm^3
# Si number density = 20.088129 Si / 1000 Ang^3
#
#
#
# Elastic Constant Matrix: (Units=GPa)
#
#
# Indices 1 2 3 4 5 6 
#
# 1 134.8698 54.6436 33.1687 -10.6749 -6.8280 -2.8276
# 2 54.6436 95.5719 32.9236 -23.0236 -3.7264 -1.8439
# 3 33.1687 32.9236 90.8661 -20.4844 -6.6826 -0.6747
# 4 -10.6749 -23.0236 -20.4844 23.0766 3.1300 -0.6304
# 5 -6.8280 -3.7264 -6.6826 3.1300 18.9061 -1.9158
# 6 -2.8276 -1.8439 -0.6747 -0.6304 -1.9158 39.1618
#
#
#
# Elastic Compliance Matrix: (Units=1/GPa)
#
#
# Indices 1 2 3 4 5 6 
#
# 1 0.010146 -0.005736 -0.002187 -0.003277 0.002352 0.000487
# 2 -0.005736 0.017462 -0.001190 0.013903 -0.001297 0.000548
# 3 -0.002187 -0.001190 0.014815 0.010623 0.002487 0.000334
# 4 -0.003277 0.013903 0.010623 0.065897 -0.005456 0.001395
# 5 0.002352 -0.001297 0.002487 -0.005456 0.055551 0.002781
# 6 0.000487 0.000548 0.000334 0.001395 0.002781 0.025760
#
#
# Mechanical properties :
#
#
# Convention : Reuss Voigt Hill
#
# Bulk Modulus (GPa) = 41.32871 62.53107 51.92989
# Shear Modulus (GPa) = 23.15609 29.60036 26.37822
#
# Velocity S-wave (km/s) = 3.39886 3.84282 3.62764
# Velocity P-wave (km/s) = 6.00178 7.13341 6.59193
#
# Compressibility (1/GPa) = 0.02419626
#
# Stress axis : x y z
#
# Youngs Moduli (GPa) = 98.55659 57.26648 67.49782
#
# Poissons Ratio (x) = 0.32848 0.14765
# Poissons Ratio (y) = 0.56532 0.08035
# Poissons Ratio (z) = 0.21559 0.06817
#
# Static dielectric constant tensor:
#      x y z
#    x 4.009290 0.076300 -0.036290 
#    y 0.076300 3.960130 -0.230390 
#    z -0.036290 -0.230390 3.140470 
# 
# 
# High freq. dielectric constant tensor:
#      x y z
#    x 1.800790 0.000340 -0.004890 
#    y 0.000340 1.802400 -0.015660 
#    z -0.004890 -0.015660 1.718310 
# 
# From -- ./inp_files/181323.got.cif
#   From: 2010.06.25/outbox.cif.g09.slc.cpg/sg2_91_cif.got.tgz:181323.got - 2010.06.27 13:26:56.
