data_PCOD8002425
_publ_section_title
;
Structure prediction by ZEFSAII (Michael W. Deem and Ramdas Pophale) SiO2 
 PCOD8002425
Probable space group: P -1
;
_chemical_formula_sum "Si O2"
_cell_formula_units_Z 16
_cell_length_a 23.567701
_cell_length_b 8.224984
_cell_length_c 18.536733
_cell_angle_alpha 31.700584
_cell_angle_beta 155.445457
_cell_angle_gamma 133.907209
_cell_volume 729.568891
_symmetry_space_group_name_H-M "P -1"
_symmetry_group_IT_number 2
_symmetry_cell_setting 'triclinic'
loop_
_space_group_symop_operation_xyz
x,y,z
-x,-y,-z
loop_
_atom_site_type_symbol
_atom_site_label
_atom_site_fract_x
_atom_site_fract_y
_atom_site_fract_z
Si Si1 0.157471 0.706474 0.583648
Si Si2 0.878589 0.738024 0.865571
Si Si3 0.974592 0.750864 0.669474
Si Si4 0.909688 0.098076 0.054592
Si Si5 0.440281 0.788260 0.711893
Si Si6 0.586909 0.762949 0.030923
Si Si7 0.800705 0.069419 0.219880
Si Si8 0.277613 0.296972 0.010001
O O1 0.295879 0.579890 0.738032
O O2 0.181439 0.427630 0.777266
O O3 0.139177 0.052654 0.472920
O O4 0.013009 0.781462 0.340089
O O5 0.856173 0.434420 0.912151
O O6 0.721866 0.034334 0.574047
O O7 0.934778 0.621389 0.056432
O O8 0.000369 0.857612 0.926821
O O9 0.088234 0.939457 0.713211
O O10 0.882951 0.762220 0.485956
O O11 0.769742 0.006235 0.902708
O O12 0.474822 0.390028 0.915565
O O13 0.467853 0.939897 0.763860
O O14 0.550249 0.828485 0.763087
O O15 0.657249 0.024811 0.039110
O O16 0.756604 0.423268 0.074194
#
# Coordination Sequence:
#
# PCOD8002425 Si02
#       8
#     2   2   2   2   2   2   2   2
#     4   9  18  32  62  89 112 147 201 254 289 329
#     4  10  21  38  62  91 120 155 200 248 302 349
#     4   9  21  36  60  93 120 153 196 251 302 351
#     4  10  20  35  61  91 119 149 201 258 292 344
#     4  10  22  39  62  89 120 157 203 243 297 355
#     4  10  21  37  63  89 118 157 199 252 293 353
#     4  10  22  39  59  89 123 156 202 244 298 356
#     4  10  22  37  59  88 122 161 198 245 293 354
#
# _framework density 21.930759999999999
#
# number of rings (size 3 to 8) (size 9 to 14) (size 15 to 20)
#    0.000    2.250    1.250    0.375   12.250    1.000 
#    0.000    3.125    0.000    0.000    0.000    0.000 
#    0.000    0.000    0.000    0.000    0.000    0.000 
#
# Total GULP energy -198239.623783 kJ/mol
# GULP energy per Si atom -12389.976486 kJ/mol
# Density = 2.188084 g / cm^3
# Si number density = 21.930760 Si / 1000 Ang^3
#
#
#
# Elastic Constant Matrix: (Units=GPa)
#
#
# Indices 1 2 3 4 5 6 
#
# 1 80.5735 29.6178 25.7105 0.4663 2.7918 8.5603
# 2 29.6178 99.6616 -3.1215 10.7982 2.4928 14.7651
# 3 25.7105 -3.1215 56.0231 -10.0383 -7.1881 7.7978
# 4 0.4663 10.7982 -10.0383 18.2255 0.5282 3.9157
# 5 2.7918 2.4928 -7.1881 0.5282 25.8809 8.0323
# 6 8.5603 14.7651 7.7978 3.9157 8.0323 21.2766
#
#
#
# Elastic Compliance Matrix: (Units=1/GPa)
#
#
# Indices 1 2 3 4 5 6 
#
# 1 0.017467 -0.005457 -0.009906 -0.003134 -0.004923 0.002825
# 2 -0.005457 0.013486 0.004397 -0.003499 0.003518 -0.009459
# 3 -0.009906 0.004397 0.030410 0.018069 0.014639 -0.019062
# 4 -0.003134 -0.003499 0.018069 0.070953 0.010431 -0.019929
# 5 -0.004923 0.003518 0.014639 0.010431 0.051071 -0.027025
# 6 0.002825 -0.009459 -0.019062 -0.019929 -0.027025 0.073283
#
#
# Mechanical properties :
#
#
# Convention : Reuss Voigt Hill
#
# Bulk Modulus (GPa) = 25.36185 37.85242 31.60714
# Shear Modulus (GPa) = 17.13818 25.34668 21.24243
#
# Velocity S-wave (km/s) = 2.79851 3.40333 3.11563
# Velocity P-wave (km/s) = 4.69381 5.72198 5.23320
#
# Compressibility (1/GPa) = 0.03942930
#
# Stress axis : x y z
#
# Youngs Moduli (GPa) = 57.25237 74.15232 32.88367
#
# Poissons Ratio (x) = 0.40464 0.32576
# Poissons Ratio (y) = 0.31242 -0.14458
# Poissons Ratio (z) = 0.56717 -0.32603
#
# Static dielectric constant tensor:
#      x y z
#    x 4.029000 0.159430 -0.046060 
#    y 0.159430 3.557250 0.096210 
#    z -0.046060 0.096210 3.892630 
# 
# 
# High freq. dielectric constant tensor:
#      x y z
#    x 1.862400 0.015520 0.000710 
#    y 0.015520 1.837230 0.011290 
#    z 0.000710 0.011290 1.843700 
# 
# From -- ./inp_files/602264.got.cif
#   From: 2010.06.25/outbox.cif.g09.slc.cpg/sg2_302_cif.got.tgz:602264.got - 2010.06.27 13:26:56.
