data_PCOD8002229
_publ_section_title
;
Structure prediction by ZEFSAII (Michael W. Deem and Ramdas Pophale) SiO2 
 PCOD8002229
Probable space group: P -1
;
_chemical_formula_sum "Si O2"
_cell_formula_units_Z 14
_cell_length_a 7.749245
_cell_length_b 9.389716
_cell_length_c 18.115846
_cell_angle_alpha 87.849388
_cell_angle_beta 137.302671
_cell_angle_gamma 113.178731
_cell_volume 751.742836
_symmetry_space_group_name_H-M "P -1"
_symmetry_group_IT_number 2
_symmetry_cell_setting 'triclinic'
loop_
_space_group_symop_operation_xyz
x,y,z
-x,-y,-z
loop_
_atom_site_type_symbol
_atom_site_label
_atom_site_fract_x
_atom_site_fract_y
_atom_site_fract_z
Si Si1 0.292127 0.188779 0.764328
Si Si2 0.649904 0.318580 0.657878
Si Si3 0.364335 0.110967 0.436166
Si Si4 0.784637 0.659558 0.122490
Si Si5 0.294826 0.415130 0.634430
Si Si6 0.350611 0.754167 0.630688
Si Si7 0.358044 0.898334 0.221162
O O1 0.326534 0.251388 0.858110
O O2 0.285831 0.327912 0.709705
O O3 0.567549 0.165842 0.829513
O O4 0.993487 0.003743 0.663375
O O5 0.513475 0.273012 0.533819
O O6 0.568930 0.444882 0.667417
O O7 0.496081 0.146639 0.663052
O O8 0.012530 0.399111 0.769788
O O9 0.433305 0.177622 0.373631
O O10 0.500000 0.000000 0.500000
O O11 0.500000 0.500000 0.000000
O O12 0.993760 0.794585 0.121229
O O13 0.347355 0.595709 0.667144
O O14 0.984633 0.297295 0.494841
O O15 0.490097 0.899941 0.734351
#
# Coordination Sequence:
#
# PCOD8002229 Si02
#       7
#     2   2   2   2   2   2   2
#     4  11  19  35  57  80 104 145 169 224 269 320
#     4   9  18  33  49  80 105 145 167 226 257 315
#     4  12  16  29  57  76 109 139 181 206 269 314
#     4  10  20  35  58  83 101 132 190 231 257 305
#     4  10  21  31  50  81 119 140 174 209 278 318
#     4  11  19  32  50  83 115 145 169 222 255 331
#     4   9  19  34  54  78 101 141 179 217 263 305
#
# _framework density 18.623389
#
# number of rings (size 3 to 8) (size 9 to 14) (size 15 to 20)
#    0.857    0.857    5.714    0.857    0.000    3.429 
#    0.000    1.429    0.000    1.714    0.000    0.000 
#    0.000    0.000    0.000    0.000    0.000    0.000 
#
# Total GULP energy -173525.059938 kJ/mol
# GULP energy per Si atom -12394.647138 kJ/mol
# Density = 1.858100 g / cm^3
# Si number density = 18.623389 Si / 1000 Ang^3
#
#
#
# Elastic Constant Matrix: (Units=GPa)
#
#
# Indices 1 2 3 4 5 6 
#
# 1 133.6294 33.0559 51.3292 21.6689 -16.8805 -3.6803
# 2 33.0559 71.2907 28.0730 20.9754 5.0637 -0.5516
# 3 51.3292 28.0730 88.4723 33.9511 -2.2997 -3.5195
# 4 21.6689 20.9754 33.9511 26.4059 3.6244 -4.8739
# 5 -16.8805 5.0637 -2.2997 3.6244 17.3792 6.4771
# 6 -3.6803 -0.5516 -3.5195 -4.8739 6.4771 22.7230
#
#
#
# Elastic Compliance Matrix: (Units=1/GPa)
#
#
# Indices 1 2 3 4 5 6 
#
# 1 0.012628 -0.003952 -0.003843 -0.005192 0.015554 -0.004193
# 2 -0.003952 0.019755 0.000614 -0.012495 -0.006584 -0.000869
# 3 -0.003843 0.000614 0.026047 -0.033167 0.008757 -0.006183
# 4 -0.005192 -0.012495 -0.033167 0.104851 -0.037703 0.026956
# 5 0.015554 -0.006584 0.008757 -0.037703 0.095346 -0.031550
# 6 -0.004193 -0.000869 -0.006183 0.026956 -0.031550 0.057125
#
#
# Mechanical properties :
#
#
# Convention : Reuss Voigt Hill
#
# Bulk Modulus (GPa) = 22.69194 57.58983 40.14088
# Shear Modulus (GPa) = 14.50095 25.36392 19.93244
#
# Velocity S-wave (km/s) = 2.79344 3.69445 3.27508
# Velocity P-wave (km/s) = 4.75558 7.01350 5.99186
#
# Compressibility (1/GPa) = 0.04406851
#
# Stress axis : x y z
#
# Youngs Moduli (GPa) = 79.18702 50.61976 38.39171
#
# Poissons Ratio (x) = 0.20005 0.14753
# Poissons Ratio (y) = 0.31295 -0.02356
# Poissons Ratio (z) = 0.30430 -0.03106
#
# Static dielectric constant tensor:
#      x y z
#    x 3.682220 0.015000 -0.139770 
#    y 0.015000 3.212580 0.185780 
#    z -0.139770 0.185780 3.021890 
# 
# 
# High freq. dielectric constant tensor:
#      x y z
#    x 1.739860 0.000320 -0.011980 
#    y 0.000320 1.694510 0.024190 
#    z -0.011980 0.024190 1.676770 
# 
# From -- ./inp_files/493099.got.cif
#   From: 2010.06.25/outbox.cif.g09.slc.cpg/sg2_247_cif.got.tgz:493099.got - 2010.06.27 13:26:56.
