data_PCOD8002516
_publ_section_title
;
Structure prediction by ZEFSAII (Michael W. Deem and Ramdas Pophale) SiO2 
 PCOD8002516
Probable space group: P -1
;
_chemical_formula_sum "Si O2"
_cell_formula_units_Z 16
_cell_length_a 13.889329
_cell_length_b 11.615375
_cell_length_c 11.573108
_cell_angle_alpha 132.388777
_cell_angle_beta 121.403960
_cell_angle_gamma 32.694338
_cell_volume 739.851912
_symmetry_space_group_name_H-M "P -1"
_symmetry_group_IT_number 2
_symmetry_cell_setting 'triclinic'
loop_
_space_group_symop_operation_xyz
x,y,z
-x,-y,-z
loop_
_atom_site_type_symbol
_atom_site_label
_atom_site_fract_x
_atom_site_fract_y
_atom_site_fract_z
Si Si1 0.518609 0.631258 0.805841
Si Si2 0.214896 0.138895 0.340501
Si Si3 0.912255 0.250330 0.162849
Si Si4 0.812096 0.386951 0.658422
Si Si5 0.793930 0.053523 0.344638
Si Si6 0.636924 0.149601 0.543462
Si Si7 0.538115 0.638207 0.083837
Si Si8 0.245848 0.453014 0.519226
O O1 0.650381 0.598989 0.789037
O O2 0.318530 0.852237 0.778016
O O3 0.597724 0.373215 0.690026
O O4 0.504773 0.712892 0.980138
O O5 0.185340 0.355373 0.472626
O O6 0.060570 0.225763 0.225137
O O7 0.209532 0.073350 0.422636
O O8 0.409580 0.890543 0.243749
O O9 0.740114 0.471586 0.126755
O O10 0.847885 0.312165 0.300178
O O11 0.000000 0.000000 0.000000
O O12 0.778505 0.249065 0.501248
O O13 0.815617 0.484519 0.610151
O O14 0.998169 0.213382 0.725826
O O15 0.709727 0.041613 0.387152
O O16 0.459114 0.240685 0.513961
O O17 0.500000 0.500000 0.000000
#
# Coordination Sequence:
#
# PCOD8002516 Si02
#       8
#     2   2   2   2   2   2   2   2
#     4  11  20  39  63  94 130 162 226 274 312 380
#     4  12  26  42  65 101 135 176 212 272 336 393
#     4  12  25  42  66  95 132 176 217 271 322 385
#     4  10  21  37  62  96 127 170 217 272 322 382
#     4  10  20  35  64  94 123 168 220 276 320 365
#     4  11  19  39  65  95 130 166 219 270 324 384
#     4  12  24  43  66  96 131 175 221 270 325 388
#     4  12  23  43  68  98 139 169 216 271 339 393
#
# _framework density 21.62595
#
# number of rings (size 3 to 8) (size 9 to 14) (size 15 to 20)
#    0.000    0.750    6.250    2.250    0.000    3.000 
#    0.000    0.625    0.000    1.500    0.000    0.000 
#    0.000    0.000    0.000    0.000    0.000    0.000 
#
# Total GULP energy -198409.025677 kJ/mol
# GULP energy per Si atom -12400.564105 kJ/mol
# Density = 2.157673 g / cm^3
# Si number density = 21.625950 Si / 1000 Ang^3
#
#
#
# Elastic Constant Matrix: (Units=GPa)
#
#
# Indices 1 2 3 4 5 6 
#
# 1 95.6707 43.9956 32.4180 -11.0583 -4.6101 -2.3238
# 2 43.9956 136.3678 39.7537 -27.4619 -7.2294 -9.0672
# 3 32.4180 39.7537 73.0655 -10.2079 -13.0400 7.1278
# 4 -11.0583 -27.4619 -10.2079 29.7548 6.7865 -4.9448
# 5 -4.6101 -7.2294 -13.0400 6.7865 31.2398 -7.1579
# 6 -2.3238 -9.0672 7.1278 -4.9448 -7.1579 44.8123
#
#
#
# Elastic Compliance Matrix: (Units=1/GPa)
#
#
# Indices 1 2 3 4 5 6 
#
# 1 0.013354 -0.002743 -0.004457 0.001181 -0.000579 0.000884
# 2 -0.002743 0.011456 -0.004250 0.008852 -0.000595 0.003734
# 3 -0.004457 -0.004250 0.019216 -0.000862 0.005807 -0.003315
# 4 0.001181 0.008852 -0.000862 0.044362 -0.006432 0.005857
# 5 -0.000579 -0.000595 0.005807 -0.006432 0.036537 0.004052
# 6 0.000884 0.003734 -0.003315 0.005857 0.004052 0.024937
#
#
# Mechanical properties :
#
#
# Convention : Reuss Voigt Hill
#
# Bulk Modulus (GPa) = 47.33468 59.71542 53.52505
# Shear Modulus (GPa) = 27.80787 33.75716 30.78251
#
# Velocity S-wave (km/s) = 3.58977 3.95518 3.77690
# Velocity P-wave (km/s) = 6.25439 6.96640 6.61997
#
# Compressibility (1/GPa) = 0.02112616
#
# Stress axis : x y z
#
# Youngs Moduli (GPa) = 74.88151 87.28747 52.04112
#
# Poissons Ratio (x) = 0.23944 0.23196
# Poissons Ratio (y) = 0.20541 0.22117
# Poissons Ratio (z) = 0.33376 0.37096
#
# Static dielectric constant tensor:
#      x y z
#    x 4.088940 -0.130840 -0.289860 
#    y -0.130840 4.150270 -0.143430 
#    z -0.289860 -0.143430 3.730700 
# 
# 
# High freq. dielectric constant tensor:
#      x y z
#    x 1.849660 -0.020190 -0.021910 
#    y -0.020190 1.859160 -0.016640 
#    z -0.021910 -0.016640 1.819080 
# 
# From -- ./inp_files/306952.got.cif
#   From: 2010.06.25/outbox.cif.g09.slc.cpg/sg2_154_cif.got.tgz:306952.got - 2010.06.27 13:26:56.
