data_PCOD8002562
_publ_section_title
;
Structure prediction by ZEFSAII (Michael W. Deem and Ramdas Pophale) SiO2 
 PCOD8002562
Probable space group: P -1
;
_chemical_formula_sum "Si O2"
_cell_formula_units_Z 16
_cell_length_a 8.996128
_cell_length_b 8.924705
_cell_length_c 16.996317
_cell_angle_alpha 129.930171
_cell_angle_beta 115.272413
_cell_angle_gamma 54.020309
_cell_volume 844.046323
_symmetry_space_group_name_H-M "P -1"
_symmetry_group_IT_number 2
_symmetry_cell_setting 'triclinic'
loop_
_space_group_symop_operation_xyz
x,y,z
-x,-y,-z
loop_
_atom_site_type_symbol
_atom_site_label
_atom_site_fract_x
_atom_site_fract_y
_atom_site_fract_z
Si Si1 0.268462 0.714069 0.462469
Si Si2 0.508061 0.128031 0.970187
Si Si3 0.675238 0.828372 0.208686
Si Si4 0.173643 0.015017 0.274496
Si Si5 0.023547 0.041679 0.645360
Si Si6 0.830546 0.049300 0.921428
Si Si7 0.447297 0.604169 0.126504
Si Si8 0.407323 0.239638 0.382754
O O1 0.169220 0.819145 0.394289
O O2 0.302754 0.465290 0.387903
O O3 0.457808 0.735927 0.513808
O O4 0.147941 0.830479 0.551027
O O5 0.336864 0.170659 0.888697
O O6 0.698633 0.975638 0.916136
O O7 0.500202 0.356113 0.074948
O O8 0.500000 0.000000 0.000000
O O9 0.633980 0.634001 0.167970
O O10 0.875780 0.802763 0.268338
O O11 0.516390 0.056091 0.281342
O O12 0.262063 0.176361 0.373213
O O13 0.012003 0.044508 0.308113
O O14 0.095674 0.078674 0.187982
O O15 0.329751 0.760473 0.224974
O O16 0.685303 0.306471 0.952527
O O17 0.000000 0.000000 0.000000
#
# Coordination Sequence:
#
# PCOD8002562 Si02
#       8
#     2   2   2   2   2   2   2   2
#     4   9  20  35  58  78 106 142 177 229 276 331
#     4  11  21  35  58  81 108 148 190 218 268 323
#     4   9  18  36  55  73 111 147 174 224 264 327
#     4   9  20  35  57  78 114 140 181 225 265 324
#     4  10  20  36  54  84 108 136 184 225 279 316
#     4   9  19  37  55  78 112 147 175 227 273 314
#     4   8  19  39  54  75 110 152 176 220 271 320
#     4   9  17  38  57  75 107 145 177 220 280 325
#
# _framework density 18.956306000000001
#
# number of rings (size 3 to 8) (size 9 to 14) (size 15 to 20)
#    0.750    2.000    1.250    1.500    1.750    2.000 
#    4.500    1.250    0.000    0.000    0.000    0.000 
#    0.000    0.000    0.000    0.000    0.000    0.000 
#
# Total GULP energy -198222.624501 kJ/mol
# GULP energy per Si atom -12388.914031 kJ/mol
# Density = 1.891316 g / cm^3
# Si number density = 18.956306 Si / 1000 Ang^3
#
#
#
# Elastic Constant Matrix: (Units=GPa)
#
#
# Indices 1 2 3 4 5 6 
#
# 1 101.8652 42.7831 42.8814 -11.6818 11.5964 15.7330
# 2 42.7831 78.7056 37.7546 -0.0979 13.5779 14.3699
# 3 42.8814 37.7546 83.4776 -0.1814 15.9422 15.1265
# 4 -11.6818 -0.0979 -0.1814 30.0348 6.8234 6.9967
# 5 11.5964 13.5779 15.9422 6.8234 31.5050 -6.5902
# 6 15.7330 14.3699 15.1265 6.9967 -6.5902 26.0770
#
#
#
# Elastic Compliance Matrix: (Units=1/GPa)
#
#
# Indices 1 2 3 4 5 6 
#
# 1 0.016617 -0.004342 -0.003379 0.010377 -0.006917 -0.010205
# 2 -0.004342 0.019621 -0.003781 0.001897 -0.007092 -0.008301
# 3 -0.003379 -0.003781 0.019173 0.003420 -0.009741 -0.010379
# 4 0.010377 0.001897 0.003420 0.049152 -0.022927 -0.028272
# 5 -0.006917 -0.007092 -0.009741 -0.022927 0.054266 0.033597
# 6 -0.010205 -0.008301 -0.010379 -0.028272 0.033597 0.071176
#
#
# Mechanical properties :
#
#
# Convention : Reuss Voigt Hill
#
# Bulk Modulus (GPa) = 30.85818 56.76519 43.81169
# Shear Modulus (GPa) = 18.95293 26.89865 22.92579
#
# Velocity S-wave (km/s) = 3.16543 3.77102 3.48142
# Velocity P-wave (km/s) = 5.44737 6.99794 6.27076
#
# Compressibility (1/GPa) = 0.03240632
#
# Stress axis : x y z
#
# Youngs Moduli (GPa) = 60.18030 50.96601 52.15532
#
# Poissons Ratio (x) = 0.22131 0.17625
# Poissons Ratio (y) = 0.26132 0.19719
# Poissons Ratio (z) = 0.20337 0.19270
#
# Static dielectric constant tensor:
#      x y z
#    x 3.463280 -0.050320 0.187040 
#    y -0.050320 3.133470 -0.000210 
#    z 0.187040 -0.000210 3.560120 
# 
# 
# High freq. dielectric constant tensor:
#      x y z
#    x 1.730050 0.000580 0.008990 
#    y 0.000580 1.707080 0.001060 
#    z 0.008990 0.001060 1.738400 
# 
# From -- ./inp_files/556583.got.cif
#   From: 2010.06.25/outbox.cif.g09.slc.cpg/sg2_279_cif.got.tgz:556583.got - 2010.06.27 13:26:56.
