data_PCOD8002569
_publ_section_title
;
Structure prediction by ZEFSAII (Michael W. Deem and Ramdas Pophale) SiO2 
 PCOD8002569
Probable space group: P -1
;
_chemical_formula_sum "Si O2"
_cell_formula_units_Z 12
_cell_length_a 12.514454
_cell_length_b 8.562283
_cell_length_c 16.028182
_cell_angle_alpha 102.537468
_cell_angle_beta 27.920257
_cell_angle_gamma 84.619874
_cell_volume 612.934834
_symmetry_space_group_name_H-M "P -1"
_symmetry_group_IT_number 2
_symmetry_cell_setting 'triclinic'
loop_
_space_group_symop_operation_xyz
x,y,z
-x,-y,-z
loop_
_atom_site_type_symbol
_atom_site_label
_atom_site_fract_x
_atom_site_fract_y
_atom_site_fract_z
Si Si1 0.399484 0.708931 0.633028
Si Si2 0.021575 0.067193 0.620169
Si Si3 0.945750 0.269502 0.526257
Si Si4 0.849428 0.145720 0.001590
Si Si5 0.468549 0.255486 0.131840
Si Si6 0.252508 0.150048 0.622410
O O1 0.500000 0.500000 0.500000
O O2 0.303904 0.721981 0.795046
O O3 0.685949 0.697267 0.433229
O O4 0.124886 0.907500 0.798139
O O5 0.004388 0.207265 0.575878
O O6 0.238826 0.037679 0.538741
O O7 0.697404 0.165891 0.888036
O O8 0.155893 0.845123 0.465267
O O9 0.681202 0.507061 0.729445
O O10 0.231967 0.218925 0.277576
O O11 0.625364 0.146126 0.098878
O O12 0.949115 0.261202 0.894769
O O13 0.500000 0.000000 0.500000
#
# Coordination Sequence:
#
# PCOD8002569 Si02
#       6
#     2   2   2   2   2   2
#     4  10  20  36  56  80 108 142 181 221 271 321
#     4  10  20  37  55  79 110 142 181 223 269 319
#     4  10  21  35  57  80 108 147 181 221 270 316
#     4   9  20  36  54  79 111 141 176 224 268 321
#     4  10  20  36  55  81 110 140 182 224 266 319
#     4   9  19  36  56  78 109 141 175 223 269 318
#
# _framework density 19.577939000000001
#
# number of rings (size 3 to 8) (size 9 to 14) (size 15 to 20)
#    0.000    2.333    0.000    2.000    0.000    4.667 
#    0.000   16.667    0.000    0.000    0.000    0.000 
#    0.000    0.000    0.000    0.000    0.000    0.000 
#
# Total GULP energy -148733.110871 kJ/mol
# GULP energy per Si atom -12394.425906 kJ/mol
# Density = 1.953338 g / cm^3
# Si number density = 19.577939 Si / 1000 Ang^3
#
#
#
# Elastic Constant Matrix: (Units=GPa)
#
#
# Indices 1 2 3 4 5 6 
#
# 1 100.9714 48.7522 27.4554 -10.8871 11.1052 9.4637
# 2 48.7522 98.7622 44.0857 -8.3202 13.8648 11.2729
# 3 27.4554 44.0857 75.3490 -3.8617 18.8982 0.8958
# 4 -10.8871 -8.3202 -3.8617 21.0427 -2.3198 4.1948
# 5 11.1052 13.8648 18.8982 -2.3198 27.7522 -1.7981
# 6 9.4637 11.2729 0.8958 4.1948 -1.7981 26.3919
#
#
#
# Elastic Compliance Matrix: (Units=1/GPa)
#
#
# Indices 1 2 3 4 5 6 
#
# 1 0.013871 -0.005137 -0.001242 0.005450 -0.001925 -0.003735
# 2 -0.005137 0.017259 -0.007592 0.003802 -0.001466 -0.005976
# 3 -0.001242 -0.007592 0.020470 -0.001459 -0.009604 0.002571
# 4 0.005450 0.003802 -0.001459 0.054057 0.000649 -0.012077
# 5 -0.001925 -0.001466 -0.009604 0.000649 0.044426 0.004566
# 6 -0.003735 -0.005976 0.002571 -0.012077 0.004566 0.043926
#
#
# Mechanical properties :
#
#
# Convention : Reuss Voigt Hill
#
# Bulk Modulus (GPa) = 42.27199 57.29659 49.78429
# Shear Modulus (GPa) = 21.75455 25.35665 23.55560
#
# Velocity S-wave (km/s) = 3.33705 3.60274 3.47244
# Velocity P-wave (km/s) = 6.04039 6.82904 6.44679
#
# Compressibility (1/GPa) = 0.02365633
#
# Stress axis : x y z
#
# Youngs Moduli (GPa) = 72.09103 57.94239 48.85224
#
# Poissons Ratio (x) = 0.29766 0.06069
# Poissons Ratio (y) = 0.37035 0.37090
# Poissons Ratio (z) = 0.08955 0.43992
#
# Static dielectric constant tensor:
#      x y z
#    x 3.622190 -0.009160 -0.046750 
#    y -0.009160 3.686100 -0.484570 
#    z -0.046750 -0.484570 3.724790 
# 
# 
# High freq. dielectric constant tensor:
#      x y z
#    x 1.768880 -0.002590 0.004040 
#    y -0.002590 1.757450 -0.025990 
#    z 0.004040 -0.025990 1.762010 
# 
# From -- ./inp_files/23025.got.cif
#   From: 2010.06.25/outbox.cif.g09.slc.cpg/sg2_12_cif.got.tgz:23025.got - 2010.06.27 13:26:56.
