data_PCOD8002003
_publ_section_title
;
Structure prediction by ZEFSAII (Michael W. Deem and Ramdas Pophale) SiO2 
 PCOD8002003
Probable space group: P -1
;
_chemical_formula_sum "Si O2"
_cell_formula_units_Z 14
_cell_length_a 11.059623
_cell_length_b 5.047209
_cell_length_c 13.951560
_cell_angle_alpha 78.554907
_cell_angle_beta 98.795861
_cell_angle_gamma 121.963915
_cell_volume 646.490242
_symmetry_space_group_name_H-M "P -1"
_symmetry_group_IT_number 2
_symmetry_cell_setting 'triclinic'
loop_
_space_group_symop_operation_xyz
x,y,z
-x,-y,-z
loop_
_atom_site_type_symbol
_atom_site_label
_atom_site_fract_x
_atom_site_fract_y
_atom_site_fract_z
Si Si1 0.404446 0.656315 0.973827
Si Si2 0.048599 0.556233 0.610177
Si Si3 0.285031 0.516469 0.158733
Si Si4 0.488034 0.850414 0.611297
Si Si5 0.781163 0.108475 0.731126
Si Si6 0.772178 0.770006 0.340490
Si Si7 0.595859 0.973539 0.219578
O O1 0.361635 0.705564 0.857946
O O2 0.500000 0.500000 0.000000
O O3 0.268173 0.486046 0.042400
O O4 0.500000 0.000000 0.000000
O O5 0.145566 0.411518 0.662843
O O6 0.000000 0.500000 0.500000
O O7 0.911466 0.396249 0.672870
O O8 0.129146 0.933180 0.601616
O O9 0.243974 0.755837 0.183115
O O10 0.453658 0.659478 0.188424
O O11 0.188863 0.168256 0.216873
O O12 0.379642 0.475411 0.609861
O O13 0.500000 0.000000 0.500000
O O14 0.645356 0.944793 0.656708
O O15 0.419648 0.966056 0.675105
O O16 0.726447 0.904429 0.233334
#
# Coordination Sequence:
#
# PCOD8002003 Si02
#       7
#     2   2   2   2   2   2   2
#     4  10  20  34  63  97 134 164 207 263 330 386
#     4  12  27  45  64  90 129 181 225 256 319 395
#     4  10  20  39  63  96 128 162 210 268 325 373
#     4  11  23  41  65  97 130 164 212 271 328 373
#     4  11  23  41  63  93 129 167 213 268 316 383
#     4  12  24  44  65  93 130 172 216 270 318 380
#     4  10  22  38  64  99 130 166 212 268 325 379
#
# _framework density 21.655391999999999
#
# number of rings (size 3 to 8) (size 9 to 14) (size 15 to 20)
#    0.000    1.143    2.857    4.714    2.000    2.857 
#    0.000    0.000    0.000    5.143    0.000    0.000 
#    0.000    0.000    0.000    0.000    0.000    0.000 
#
# Total GULP energy -173478.924242 kJ/mol
# GULP energy per Si atom -12391.351732 kJ/mol
# Density = 2.160610 g / cm^3
# Si number density = 21.655392 Si / 1000 Ang^3
#
#
#
# Elastic Constant Matrix: (Units=GPa)
#
#
# Indices 1 2 3 4 5 6 
#
# 1 93.2220 33.7911 44.0492 -5.3807 5.5880 -1.4327
# 2 33.7911 128.5909 28.3295 -18.9941 -7.1544 -2.0833
# 3 44.0492 28.3295 138.0434 -23.2550 -18.3552 -2.6286
# 4 -5.3807 -18.9941 -23.2550 25.2940 -8.1457 2.4496
# 5 5.5880 -7.1544 -18.3552 -8.1457 30.4734 -3.6819
# 6 -1.4327 -2.0833 -2.6286 2.4496 -3.6819 36.2006
#
#
#
# Elastic Compliance Matrix: (Units=1/GPa)
#
#
# Indices 1 2 3 4 5 6 
#
# 1 0.016077 -0.004812 -0.007500 -0.010745 -0.011544 -0.000632
# 2 -0.004812 0.010708 0.002404 0.011764 0.008065 0.000625
# 3 -0.007500 0.002404 0.014322 0.018282 0.015602 0.001231
# 4 -0.010745 0.011764 0.018282 0.074353 0.035640 0.000173
# 5 -0.011544 0.008065 0.015602 0.035640 0.056288 0.004453
# 6 -0.000632 0.000625 0.001231 0.000173 0.004453 0.028165
#
#
# Mechanical properties :
#
#
# Convention : Reuss Voigt Hill
#
# Bulk Modulus (GPa) = 46.96773 63.57731 55.27252
# Shear Modulus (GPa) = 22.04326 35.30602 28.67464
#
# Velocity S-wave (km/s) = 3.19393 4.04215 3.64281
# Velocity P-wave (km/s) = 5.94453 7.15595 6.57819
#
# Compressibility (1/GPa) = 0.02129121
#
# Stress axis : x y z
#
# Youngs Moduli (GPa) = 62.19969 93.38786 69.82393
#
# Poissons Ratio (x) = 0.44940 0.52366
# Poissons Ratio (y) = 0.29932 -0.16786
# Poissons Ratio (z) = 0.46648 -0.22451
#
# Static dielectric constant tensor:
#      x y z
#    x 3.802690 -0.076870 0.086690 
#    y -0.076870 3.945560 -0.132150 
#    z 0.086690 -0.132150 5.136540 
# 
# 
# High freq. dielectric constant tensor:
#      x y z
#    x 1.832010 -0.018690 0.001830 
#    y -0.018690 1.856340 -0.013570 
#    z 0.001830 -0.013570 1.851890 
# 
# From -- ./inp_files/510194.got.cif
#   From: 2010.06.25/outbox.cif.g09.slc.cpg/sg2_256_cif.got.tgz:510194.got - 2010.06.27 13:26:56.
