data_PCOD8002283
_publ_section_title
;
Structure prediction by ZEFSAII (Michael W. Deem and Ramdas Pophale) SiO2 
 PCOD8002283
Probable space group: P -1
;
_chemical_formula_sum "Si O2"
_cell_formula_units_Z 16
_cell_length_a 11.718221
_cell_length_b 23.311791
_cell_length_c 18.072528
_cell_angle_alpha 18.506484
_cell_angle_beta 34.642383
_cell_angle_gamma 31.572078
_cell_volume 817.198937
_symmetry_space_group_name_H-M "P -1"
_symmetry_group_IT_number 2
_symmetry_cell_setting 'triclinic'
loop_
_space_group_symop_operation_xyz
x,y,z
-x,-y,-z
loop_
_atom_site_type_symbol
_atom_site_label
_atom_site_fract_x
_atom_site_fract_y
_atom_site_fract_z
Si Si1 0.561841 0.108636 0.165344
Si Si2 0.752784 0.677311 0.568276
Si Si3 0.708428 0.321937 0.630659
Si Si4 0.834149 0.338289 0.706900
Si Si5 0.564135 0.890227 0.935444
Si Si6 0.516309 0.668963 0.567386
Si Si7 0.990115 0.514009 0.198867
Si Si8 0.201810 0.461715 0.993245
O O1 0.442219 0.149359 0.099900
O O2 0.382026 0.240084 0.159109
O O3 0.638050 0.881157 0.425404
O O4 0.777147 0.162114 0.987945
O O5 0.576187 0.632594 0.667696
O O6 0.869929 0.505538 0.775854
O O7 0.907771 0.716199 0.374757
O O8 0.500000 0.500000 0.500000
O O9 0.731427 0.379926 0.630553
O O10 0.911974 0.329560 0.465680
O O11 0.653777 0.127402 0.890396
O O12 0.727003 0.535804 0.570489
O O13 0.555935 0.104551 0.695119
O O14 0.788478 0.726807 0.048293
O O15 0.311048 0.613564 0.727481
O O16 0.135452 0.493876 0.074538
O O17 0.000000 0.500000 0.000000
#
# Coordination Sequence:
#
# PCOD8002283 Si02
#       8
#     2   2   2   2   2   2   2   2
#     4   9  18  34  59  84 107 148 194 228 266 334
#     4  10  20  36  55  85 115 145 182 230 290 331
#     4   8  16  31  56  81 112 146 181 228 277 323
#     4   9  17  33  58  82 114 148 184 226 278 336
#     4   9  17  36  57  86 111 145 190 231 276 328
#     4  10  22  35  60  85 113 149 188 231 273 331
#     4  10  20  35  59  80 117 151 183 226 284 328
#     4  11  22  39  61  80 109 149 199 233 266 331
#
# _framework density 19.579076000000001
#
# number of rings (size 3 to 8) (size 9 to 14) (size 15 to 20)
#    0.000    2.500    1.250    0.750    1.750    2.500 
#    0.000    5.625    5.500    0.000    0.000    0.000 
#    0.000    0.000    0.000    0.000    0.000    0.000 
#
# Total GULP energy -198247.750213 kJ/mol
# GULP energy per Si atom -12390.484388 kJ/mol
# Density = 1.953451 g / cm^3
# Si number density = 19.579076 Si / 1000 Ang^3
#
#
#
# Elastic Constant Matrix: (Units=GPa)
#
#
# Indices 1 2 3 4 5 6 
#
# 1 66.9746 14.6283 29.3782 -11.3910 -7.0367 -15.6754
# 2 14.6283 75.3459 32.9703 -6.9916 -11.9721 9.6582
# 3 29.3782 32.9703 76.2077 -14.3328 -11.1243 4.5146
# 4 -11.3910 -6.9916 -14.3328 31.0154 -0.0750 -0.5979
# 5 -7.0367 -11.9721 -11.1243 -0.0750 29.9013 -4.0702
# 6 -15.6754 9.6582 4.5146 -0.5979 -4.0702 24.1278
#
#
#
# Elastic Compliance Matrix: (Units=1/GPa)
#
#
# Indices 1 2 3 4 5 6 
#
# 1 0.025011 -0.002672 -0.007999 0.005278 0.004537 0.019711
# 2 -0.002672 0.017765 -0.005684 0.000266 0.003389 -0.007205
# 3 -0.007999 -0.005684 0.020364 0.005079 0.002591 -0.006169
# 4 0.005278 0.000266 0.005079 0.036673 0.003865 0.003933
# 5 0.004537 0.003389 0.002591 0.003865 0.037875 0.007591
# 6 0.019711 -0.007205 -0.006169 0.003933 0.007591 0.059668
#
#
# Mechanical properties :
#
#
# Convention : Reuss Voigt Hill
#
# Bulk Modulus (GPa) = 32.86216 41.38687 37.12451
# Shear Modulus (GPa) = 20.81528 26.44568 23.63048
#
# Velocity S-wave (km/s) = 3.26412 3.67919 3.47785
# Velocity P-wave (km/s) = 5.57016 6.26361 5.92704
#
# Compressibility (1/GPa) = 0.03043014
#
# Stress axis : x y z
#
# Youngs Moduli (GPa) = 39.98236 56.29052 49.10738
#
# Poissons Ratio (x) = 0.15040 0.39279
# Poissons Ratio (y) = 0.10682 0.27914
# Poissons Ratio (z) = 0.31981 0.31997
#
# Static dielectric constant tensor:
#      x y z
#    x 3.749990 -0.146190 -0.476910 
#    y -0.146190 3.504680 0.191470 
#    z -0.476910 0.191470 4.380550 
# 
# 
# High freq. dielectric constant tensor:
#      x y z
#    x 1.759280 -0.013460 -0.005160 
#    y -0.013460 1.750180 0.001470 
#    z -0.005160 0.001470 1.752190 
# 
# From -- ./inp_files/258990.got.cif
#   From: 2010.06.25/outbox.cif.g09.slc.cpg/sg2_130_cif.got.tgz:258990.got - 2010.06.27 13:26:56.
