data_PCOD8002718
_publ_section_title
;
Structure prediction by ZEFSAII (Michael W. Deem and Ramdas Pophale) SiO2 
 PCOD8002718
Probable space group: P -1
;
_chemical_formula_sum "Si O2"
_cell_formula_units_Z 16
_cell_length_a 7.745555
_cell_length_b 15.277525
_cell_length_c 19.460635
_cell_angle_alpha 23.099291
_cell_angle_beta 124.309346
_cell_angle_gamma 128.347474
_cell_volume 708.365776
_symmetry_space_group_name_H-M "P -1"
_symmetry_group_IT_number 2
_symmetry_cell_setting 'triclinic'
loop_
_space_group_symop_operation_xyz
x,y,z
-x,-y,-z
loop_
_atom_site_type_symbol
_atom_site_label
_atom_site_fract_x
_atom_site_fract_y
_atom_site_fract_z
Si Si1 0.342294 0.660822 0.006356
Si Si2 0.411783 0.667470 0.665885
Si Si3 0.827312 0.082494 0.487684
Si Si4 0.604090 0.154061 0.735655
Si Si5 0.083527 0.748021 0.763546
Si Si6 0.431048 0.522593 0.625562
Si Si7 0.023447 0.055884 0.885102
Si Si8 0.692848 0.226606 0.858927
O O1 0.273697 0.689004 0.892050
O O2 0.399406 0.914940 0.872444
O O3 0.561733 0.578388 0.122836
O O4 0.135433 0.475557 0.130454
O O5 0.186236 0.719922 0.601466
O O6 0.426489 0.679680 0.577565
O O7 0.611597 0.860513 0.607424
O O8 0.823341 0.198458 0.329750
O O9 0.032594 0.979629 0.616816
O O10 0.543693 0.336160 0.541327
O O11 0.683032 0.271666 0.741961
O O12 0.795555 0.082848 0.788380
O O13 0.214648 0.298019 0.737256
O O14 0.654481 0.444440 0.734453
O O15 0.082619 0.830959 0.028544
O O16 0.000000 0.000000 0.000000
O O17 0.500000 0.000000 0.000000
#
# Coordination Sequence:
#
# PCOD8002718 Si02
#       8
#     2   2   2   2   2   2   2   2
#     4  10  20  36  58  84 114 147 185 233 284 339
#     4  10  20  36  59  84 115 148 183 230 288 340
#     4   9  19  38  60  84 112 145 185 236 287 336
#     4  11  21  37  57  84 116 149 190 233 281 335
#     4   9  19  38  60  83 111 144 189 238 283 337
#     4  11  21  37  58  85 116 149 189 232 281 337
#     4   9  19  37  58  80 113 148 185 231 281 333
#     4   9  19  37  60  81 113 150 187 231 279 331
#
# _framework density 22.587201
#
# number of rings (size 3 to 8) (size 9 to 14) (size 15 to 20)
#    0.000    2.250    0.000    3.750    0.000    0.500 
#    0.000   28.750    0.000    0.000    0.000    0.000 
#    0.000    0.000    0.000    0.000    0.000    0.000 
#
# Total GULP energy -198228.131375 kJ/mol
# GULP energy per Si atom -12389.258211 kJ/mol
# Density = 2.253579 g / cm^3
# Si number density = 22.587201 Si / 1000 Ang^3
#
#
#
# Elastic Constant Matrix: (Units=GPa)
#
#
# Indices 1 2 3 4 5 6 
#
# 1 72.9954 6.4621 27.5777 -0.4689 26.5957 -23.4420
# 2 6.4621 45.4996 12.2983 0.4265 11.3752 -15.2366
# 3 27.5777 12.2983 102.2852 5.4549 1.0776 -14.7638
# 4 -0.4689 0.4265 5.4549 34.5200 -3.3554 2.2922
# 5 26.5957 11.3752 1.0776 -3.3554 35.1318 -3.3694
# 6 -23.4420 -15.2366 -14.7638 2.2922 -3.3694 31.9474
#
#
#
# Elastic Compliance Matrix: (Units=1/GPa)
#
#
# Indices 1 2 3 4 5 6 
#
# 1 0.031911 0.011460 -0.006167 -0.002793 -0.025689 0.023522
# 2 0.011460 0.032637 -0.003709 -0.002723 -0.017412 0.020619
# 3 -0.006167 -0.003709 0.011883 -0.001386 0.005359 -0.000138
# 4 -0.002793 -0.002723 -0.001386 0.030076 0.005376 -0.005579
# 5 -0.025689 -0.017412 0.005359 0.005376 0.052021 -0.019577
# 6 0.023522 0.020619 -0.000138 -0.005579 -0.019577 0.056667
#
#
# Mechanical properties :
#
#
# Convention : Reuss Voigt Hill
#
# Bulk Modulus (GPa) = 12.56305 34.82848 23.69577
# Shear Modulus (GPa) = 20.95928 31.94932 26.45430
#
# Velocity S-wave (km/s) = 3.04949 3.76505 3.42600
# Velocity P-wave (km/s) = 4.23950 5.86121 5.11503
#
# Compressibility (1/GPa) = 0.07959848
#
# Stress axis : x y z
#
# Youngs Moduli (GPa) = 31.33764 30.64050 84.15578
#
# Poissons Ratio (x) = -0.35115 0.51897
# Poissons Ratio (y) = -0.35914 0.31214
# Poissons Ratio (z) = 0.19325 0.11365
#
# Static dielectric constant tensor:
#      x y z
#    x 4.391340 -0.034330 0.537160 
#    y -0.034330 3.642010 -0.028250 
#    z 0.537160 -0.028250 4.626120 
# 
# 
# High freq. dielectric constant tensor:
#      x y z
#    x 1.889540 0.000710 0.001360 
#    y 0.000710 1.850880 0.002270 
#    z 0.001360 0.002270 1.911010 
# 
# From -- ./inp_files/590430.got.cif
#   From: 2010.06.25/outbox.cif.g09.slc.cpg/sg2_296_cif.got.tgz:590430.got - 2010.06.27 13:26:56.
