data_PCOD8002157
_publ_section_title
;
Structure prediction by ZEFSAII (Michael W. Deem and Ramdas Pophale) SiO2 
 PCOD8002157
Probable space group: P -1
;
_chemical_formula_sum "Si O2"
_cell_formula_units_Z 14
_cell_length_a 8.584100
_cell_length_b 14.709451
_cell_length_c 15.327439
_cell_angle_alpha 28.869007
_cell_angle_beta 91.532773
_cell_angle_gamma 72.965493
_cell_volume 705.399789
_symmetry_space_group_name_H-M "P -1"
_symmetry_group_IT_number 2
_symmetry_cell_setting 'triclinic'
loop_
_space_group_symop_operation_xyz
x,y,z
-x,-y,-z
loop_
_atom_site_type_symbol
_atom_site_label
_atom_site_fract_x
_atom_site_fract_y
_atom_site_fract_z
Si Si1 0.122563 0.033246 0.855311
Si Si2 0.215125 0.798688 0.873420
Si Si3 0.392917 0.280126 0.063196
Si Si4 0.292849 0.624881 0.340970
Si Si5 0.061015 0.279017 0.384720
Si Si6 0.204169 0.393019 0.141934
Si Si7 0.292922 0.225088 0.593963
O O1 0.116095 0.904599 0.878393
O O2 0.235403 0.142114 0.746254
O O3 0.248591 0.835987 0.100545
O O4 0.889115 0.259610 0.689618
O O5 0.457964 0.658520 0.000184
O O6 0.101039 0.025207 0.611567
O O7 0.181338 0.614871 0.998058
O O8 0.383694 0.247286 0.194854
O O9 0.491655 0.018373 0.239472
O O10 0.173411 0.499217 0.833066
O O11 0.500000 0.500000 0.500000
O O12 0.320724 0.417727 0.457334
O O13 0.226815 0.223359 0.362457
O O14 0.107253 0.350179 0.416198
O O15 0.000000 0.500000 0.000000
#
# Coordination Sequence:
#
# PCOD8002157 Si02
#       7
#     2   2   2   2   2   2   2
#     4   9  22  40  57  83 111 141 185 230 272 329
#     4  10  21  38  58  81 112 147 185 228 274 323
#     4   9  20  36  57  84 111 147 190 225 267 325
#     4  11  23  38  60  85 109 143 183 226 281 332
#     4   9  20  38  57  79 113 150 183 226 276 318
#     4  10  20  35  56  84 115 148 186 227 269 322
#     4  10  22  39  58  82 113 147 181 226 278 327
#
# _framework density 19.846902
#
# number of rings (size 3 to 8) (size 9 to 14) (size 15 to 20)
#    0.000    2.571    0.000    1.714    0.000   14.286 
#    0.000    8.571    0.000    0.000    0.000    0.000 
#    0.000    0.000    0.000    0.000    0.000    0.000 
#
# Total GULP energy -173552.022651 kJ/mol
# GULP energy per Si atom -12396.573047 kJ/mol
# Density = 1.980173 g / cm^3
# Si number density = 19.846902 Si / 1000 Ang^3
#
#
#
# Elastic Constant Matrix: (Units=GPa)
#
#
# Indices 1 2 3 4 5 6 
#
# 1 47.3658 11.5466 35.3044 4.2773 7.9573 9.0619
# 2 11.5466 75.8275 32.9012 9.7581 -0.9451 -14.4367
# 3 35.3044 32.9012 100.6965 3.3609 19.7039 -8.3317
# 4 4.2773 9.7581 3.3609 20.5308 -4.2453 -2.4331
# 5 7.9573 -0.9451 19.7039 -4.2453 30.0168 5.6781
# 6 9.0619 -14.4367 -8.3317 -2.4331 5.6781 29.8457
#
#
#
# Elastic Compliance Matrix: (Units=1/GPa)
#
#
# Indices 1 2 3 4 5 6 
#
# 1 0.034420 -0.001909 -0.012822 -0.005737 0.001388 -0.015685
# 2 -0.001909 0.017636 -0.004711 -0.005979 0.001998 0.006928
# 3 -0.012822 -0.004711 0.018768 0.000693 -0.010662 0.008939
# 4 -0.005737 -0.005979 0.000693 0.054561 0.008230 0.001925
# 5 0.001388 0.001998 -0.010662 0.008230 0.043055 -0.009952
# 6 -0.015685 0.006928 0.008939 0.001925 -0.009952 0.046165
#
#
# Mechanical properties :
#
#
# Convention : Reuss Voigt Hill
#
# Bulk Modulus (GPa) = 31.30802 42.59935 36.95369
# Shear Modulus (GPa) = 18.92961 25.68782 22.30872
#
# Velocity S-wave (km/s) = 3.09169 3.60154 3.35631
# Velocity P-wave (km/s) = 5.34357 6.22939 5.80341
#
# Compressibility (1/GPa) = 0.03194069
#
# Stress axis : x y z
#
# Youngs Moduli (GPa) = 29.05255 56.70236 53.28085
#
# Poissons Ratio (x) = 0.10822 0.68317
# Poissons Ratio (y) = 0.05545 0.25102
# Poissons Ratio (z) = 0.37252 0.26714
#
# Static dielectric constant tensor:
#      x y z
#    x 3.613260 -0.344230 -0.151210 
#    y -0.344230 4.025720 0.221110 
#    z -0.151210 0.221110 3.593600 
# 
# 
# High freq. dielectric constant tensor:
#      x y z
#    x 1.771550 -0.011670 -0.004050 
#    y -0.011670 1.785160 0.007640 
#    z -0.004050 0.007640 1.774590 
# 
# From -- ./inp_files/315313.got.cif
#   From: 2010.06.25/outbox.cif.g09.slc.cpg/sg2_158_cif.got.tgz:315313.got - 2010.06.27 13:26:56.
