data_PCOD8002464
_publ_section_title
;
Structure prediction by ZEFSAII (Michael W. Deem and Ramdas Pophale) SiO2 
 PCOD8002464
Probable space group: P -1
;
_chemical_formula_sum "Si O2"
_cell_formula_units_Z 14
_cell_length_a 9.316501
_cell_length_b 9.088478
_cell_length_c 10.781635
_cell_angle_alpha 122.340328
_cell_angle_beta 81.049927
_cell_angle_gamma 65.267245
_cell_volume 608.948041
_symmetry_space_group_name_H-M "P -1"
_symmetry_group_IT_number 2
_symmetry_cell_setting 'triclinic'
loop_
_space_group_symop_operation_xyz
x,y,z
-x,-y,-z
loop_
_atom_site_type_symbol
_atom_site_label
_atom_site_fract_x
_atom_site_fract_y
_atom_site_fract_z
Si Si1 0.394428 0.332958 0.093305
Si Si2 0.360462 0.964859 0.692841
Si Si3 0.711627 0.251177 0.603044
Si Si4 0.919112 0.923448 0.636299
Si Si5 0.002941 0.879040 0.064400
Si Si6 0.804666 0.570379 0.086967
Si Si7 0.322886 0.145245 0.232422
O O1 0.431580 0.498517 0.220470
O O2 0.278858 0.295704 0.187543
O O3 0.281281 0.441640 0.032932
O O4 0.585422 0.102400 0.936106
O O5 0.199848 0.049889 0.852999
O O6 0.320020 0.182413 0.729882
O O7 0.377006 0.798225 0.516653
O O8 0.548350 0.837899 0.684887
O O9 0.889074 0.233478 0.529790
O O10 0.760984 0.086275 0.633695
O O11 0.863610 0.778494 0.640301
O O12 0.937457 0.060906 0.795544
O O13 0.156617 0.616656 0.907012
O O14 0.000000 0.000000 0.000000
O O15 0.000000 0.500000 0.000000
#
# Coordination Sequence:
#
# PCOD8002464 Si02
#       7
#     2   2   2   2   2   2   2
#     4  10  21  39  63  87 125 166 199 253 303 365
#     4   9  21  40  59  86 125 165 194 253 307 363
#     4  10  21  42  63  85 126 165 203 248 306 367
#     4  10  22  38  62  91 120 161 204 254 302 362
#     4  10  20  35  62  92 119 155 212 255 292 357
#     4   9  18  35  58  88 114 163 202 244 296 356
#     4  10  23  39  61  92 125 159 208 251 301 361
#
# _framework density 22.990468
#
# number of rings (size 3 to 8) (size 9 to 14) (size 15 to 20)
#    0.000    2.286    1.429    0.000   10.000    2.286 
#    0.000    2.857    0.000    0.000    0.000    0.000 
#    0.000    0.000    0.000    0.000    0.000    0.000 
#
# Total GULP energy -173540.977868 kJ/mol
# GULP energy per Si atom -12395.784133 kJ/mol
# Density = 2.293814 g / cm^3
# Si number density = 22.990468 Si / 1000 Ang^3
#
#
#
# Elastic Constant Matrix: (Units=GPa)
#
#
# Indices 1 2 3 4 5 6 
#
# 1 71.7379 10.3225 17.0022 2.0357 9.0798 7.2538
# 2 10.3225 114.7047 23.5973 2.1254 7.9947 11.2739
# 3 17.0022 23.5973 78.0104 11.1561 35.4582 2.9989
# 4 2.0357 2.1254 11.1561 27.7323 15.9789 -3.2993
# 5 9.0798 7.9947 35.4582 15.9789 31.5604 -3.9009
# 6 7.2538 11.2739 2.9989 -3.2993 -3.9009 22.7663
#
#
#
# Elastic Compliance Matrix: (Units=1/GPa)
#
#
# Indices 1 2 3 4 5 6 
#
# 1 0.015296 -0.000338 -0.001423 0.001130 -0.003910 -0.005025
# 2 -0.000338 0.009736 -0.002906 -0.000386 0.000562 -0.004290
# 3 -0.001423 -0.002906 0.030727 0.009658 -0.039189 -0.007470
# 4 0.001130 -0.000386 0.009658 0.054350 -0.038618 -0.000182
# 5 -0.003910 0.000562 -0.039189 -0.038618 0.098399 0.017394
# 6 -0.005025 -0.004290 -0.007470 -0.000182 0.017394 0.051588
#
#
# Mechanical properties :
#
#
# Convention : Reuss Voigt Hill
#
# Bulk Modulus (GPa) = 21.54056 40.69967 31.12011
# Shear Modulus (GPa) = 17.54965 30.64720 24.09842
#
# Velocity S-wave (km/s) = 2.76587 3.65504 3.24109
# Velocity P-wave (km/s) = 4.42603 5.96269 5.25088
#
# Compressibility (1/GPa) = 0.04642405
#
# Stress axis : x y z
#
# Youngs Moduli (GPa) = 65.37480 102.71053 32.54492
#
# Poissons Ratio (x) = 0.03476 0.04630
# Poissons Ratio (y) = 0.02212 0.09459
# Poissons Ratio (z) = 0.09301 0.29852
#
# Static dielectric constant tensor:
#      x y z
#    x 4.055540 0.194190 0.078580 
#    y 0.194190 4.443340 0.058870 
#    z 0.078580 0.058870 4.201950 
# 
# 
# High freq. dielectric constant tensor:
#      x y z
#    x 1.905330 0.007190 0.015140 
#    y 0.007190 1.908400 0.000600 
#    z 0.015140 0.000600 1.886990 
# 
# From -- ./inp_files/380269.got.cif
#   From: 2010.06.25/outbox.cif.g09.slc.cpg/sg2_191_cif.got.tgz:380269.got - 2010.06.27 13:26:56.
