data_PCOD8002465
_publ_section_title
;
Structure prediction by ZEFSAII (Michael W. Deem and Ramdas Pophale) SiO2 
 PCOD8002465
Probable space group: P -1
;
_chemical_formula_sum "Si O2"
_cell_formula_units_Z 16
_cell_length_a 19.257857
_cell_length_b 16.124623
_cell_length_c 9.177463
_cell_angle_alpha 54.552003
_cell_angle_beta 63.572832
_cell_angle_gamma 21.645551
_cell_volume 813.368260
_symmetry_space_group_name_H-M "P -1"
_symmetry_group_IT_number 2
_symmetry_cell_setting 'triclinic'
loop_
_space_group_symop_operation_xyz
x,y,z
-x,-y,-z
loop_
_atom_site_type_symbol
_atom_site_label
_atom_site_fract_x
_atom_site_fract_y
_atom_site_fract_z
Si Si1 0.436066 0.234966 0.276334
Si Si2 0.715987 0.994499 0.492925
Si Si3 0.635056 0.461552 0.061172
Si Si4 0.764243 0.788768 0.910070
Si Si5 0.555390 0.955439 0.194205
Si Si6 0.431596 0.517795 0.227539
Si Si7 0.039335 0.911570 0.215794
Si Si8 0.127227 0.572059 0.448304
O O1 0.219962 0.464721 0.307541
O O2 0.578237 0.087759 0.429292
O O3 0.526967 0.033934 0.302753
O O4 0.418269 0.355526 0.066126
O O5 0.726068 0.936403 0.703928
O O6 0.928236 0.744426 0.467546
O O7 0.625303 0.215118 0.379497
O O8 0.475439 0.581804 0.168066
O O9 0.634977 0.417820 0.942203
O O10 0.852827 0.176020 0.215862
O O11 0.660816 0.817003 0.895960
O O12 0.655928 0.921270 0.033726
O O13 0.000000 0.500000 0.000000
O O14 0.707466 0.676258 0.345366
O O15 0.239946 0.716048 0.297554
O O16 0.066284 0.758420 0.361112
O O17 0.000000 0.000000 0.000000
#
# Coordination Sequence:
#
# PCOD8002465 Si02
#       8
#     2   2   2   2   2   2   2   2
#     4  11  23  37  55  89 126 147 180 238 294 341
#     4  11  21  34  60  88 113 148 193 237 283 332
#     4   9  17  28  50  79 118 148 178 225 286 335
#     4  11  23  43  61  80 107 155 205 234 275 339
#     4  11  25  41  59  82 118 155 188 234 290 343
#     4   9  16  28  49  81 112 143 184 230 273 331
#     4  10  16  28  48  79 115 146 183 225 277 333
#     4  12  20  33  57  86 117 151 185 233 285 334
#
# _framework density 19.671285999999998
#
# number of rings (size 3 to 8) (size 9 to 14) (size 15 to 20)
#    0.000    1.500    7.500    0.375    1.750    1.500 
#    0.000    0.000    0.000    0.750    0.000    8.750 
#    0.000    0.000    0.000    0.000    0.000    0.000 
#
# Total GULP energy -198217.185895 kJ/mol
# GULP energy per Si atom -12388.574118 kJ/mol
# Density = 1.962651 g / cm^3
# Si number density = 19.671286 Si / 1000 Ang^3
#
#
#
# Elastic Constant Matrix: (Units=GPa)
#
#
# Indices 1 2 3 4 5 6 
#
# 1 36.4039 33.6820 29.9005 -3.3543 -10.0103 -17.4953
# 2 33.6820 106.8515 42.4551 -10.5886 -3.7645 -34.8879
# 3 29.9005 42.4551 87.7537 -6.7714 -10.8115 -2.4935
# 4 -3.3543 -10.5886 -6.7714 34.6880 -4.5103 -3.0736
# 5 -10.0103 -3.7645 -10.8115 -4.5103 18.4671 2.7184
# 6 -17.4953 -34.8879 -2.4935 -3.0736 2.7184 29.9136
#
#
#
# Elastic Compliance Matrix: (Units=1/GPa)
#
#
# Indices 1 2 3 4 5 6 
#
# 1 0.067231 -0.000522 -0.018160 0.008928 0.022577 0.036064
# 2 -0.000522 0.022566 -0.009932 0.006739 -0.003710 0.026215
# 3 -0.018160 -0.009932 0.022108 -0.001842 0.003700 -0.020887
# 4 0.008928 0.006739 -0.001842 0.034215 0.011221 0.015424
# 5 0.022577 -0.003710 0.003700 0.011221 0.069952 0.003982
# 6 0.036064 0.026215 -0.020887 0.015424 0.003982 0.084578
#
#
# Mechanical properties :
#
#
# Convention : Reuss Voigt Hill
#
# Bulk Modulus (GPa) = 18.28884 49.23157 33.76021
# Shear Modulus (GPa) = 13.29417 24.94520 19.11969
#
# Velocity S-wave (km/s) = 2.60247 3.56491 3.12101
# Velocity P-wave (km/s) = 4.28344 6.48276 5.49427
#
# Compressibility (1/GPa) = 0.05467814
#
# Stress axis : x y z
#
# Youngs Moduli (GPa) = 14.87404 44.31451 45.23166
#
# Poissons Ratio (x) = 0.02313 0.82141
# Poissons Ratio (y) = 0.00776 0.44923
# Poissons Ratio (z) = 0.27011 0.44012
#
# Static dielectric constant tensor:
#      x y z
#    x 3.520430 -0.771100 -0.317510 
#    y -0.771100 4.157070 -0.103430 
#    z -0.317510 -0.103430 3.642760 
# 
# 
# High freq. dielectric constant tensor:
#      x y z
#    x 1.729770 -0.043710 -0.037370 
#    y -0.043710 1.771210 -0.016720 
#    z -0.037370 -0.016720 1.760250 
# 
# From -- ./inp_files/306253.got.cif
#   From: 2010.06.25/outbox.cif.g09.slc.cpg/sg2_154_cif.got.tgz:306253.got - 2010.06.27 13:26:56.
