data_PCOD8002095
_publ_section_title
;
Structure prediction by ZEFSAII (Michael W. Deem and Ramdas Pophale) SiO2 
 PCOD8002095
Probable space group: P -1
;
_chemical_formula_sum "Si O2"
_cell_formula_units_Z 16
_cell_length_a 11.674865
_cell_length_b 15.960155
_cell_length_c 25.186928
_cell_angle_alpha 157.869762
_cell_angle_beta 28.826504
_cell_angle_gamma 139.383470
_cell_volume 816.115951
_symmetry_space_group_name_H-M "P -1"
_symmetry_group_IT_number 2
_symmetry_cell_setting 'triclinic'
loop_
_space_group_symop_operation_xyz
x,y,z
-x,-y,-z
loop_
_atom_site_type_symbol
_atom_site_label
_atom_site_fract_x
_atom_site_fract_y
_atom_site_fract_z
Si Si1 0.831580 0.941742 0.194156
Si Si2 0.579200 0.079223 0.224343
Si Si3 0.669777 0.650743 0.998816
Si Si4 0.891535 0.331542 0.980384
Si Si5 0.133274 0.955113 0.593623
Si Si6 0.960928 0.613751 0.393597
Si Si7 0.027032 0.155156 0.153007
Si Si8 0.499380 0.247795 0.586194
O O1 0.605129 0.160523 0.433860
O O2 0.759444 0.766854 0.080619
O O3 0.024644 0.065747 0.162059
O O4 0.925587 0.784609 0.114829
O O5 0.333304 0.292968 0.443044
O O6 0.770966 0.139228 0.221993
O O7 0.511582 0.852862 0.142323
O O8 0.723529 0.017511 0.073960
O O9 0.907143 0.491240 0.776568
O O10 0.500000 0.500000 0.000000
O O11 0.631660 0.473954 0.195800
O O12 0.000000 0.500000 0.000000
O O13 0.880894 0.121221 0.821319
O O14 0.288435 0.782049 0.473304
O O15 0.062143 0.822722 0.495013
O O16 0.299167 0.112924 0.599467
O O17 0.021287 0.422294 0.303828
#
# Coordination Sequence:
#
# PCOD8002095 Si02
#       8
#     2   2   2   2   2   2   2   2
#     4  10  20  35  55  81 109 142 187 224 270 336
#     4   9  20  37  55  78 112 153 191 220 265 334
#     4  10  22  35  52  86 122 144 173 227 282 330
#     4   9  19  34  55  78 102 140 183 223 269 324
#     4   9  19  34  54  83 107 137 185 225 272 332
#     4  11  21  35  59  83 112 151 185 225 275 326
#     4   9  20  37  54  78 112 149 188 229 270 321
#     4   9  18  35  56  76 108 143 176 228 280 323
#
# _framework density 19.605056999999999
#
# number of rings (size 3 to 8) (size 9 to 14) (size 15 to 20)
#    0.000    2.500    0.000    2.625    0.000    7.500 
#    0.000    2.500    0.000    4.500    0.000    0.000 
#    0.000    0.000    0.000    0.000    0.000    0.000 
#
# Total GULP energy -198230.197308 kJ/mol
# GULP energy per Si atom -12389.387332 kJ/mol
# Density = 1.956043 g / cm^3
# Si number density = 19.605057 Si / 1000 Ang^3
#
#
#
# Elastic Constant Matrix: (Units=GPa)
#
#
# Indices 1 2 3 4 5 6 
#
# 1 57.3592 19.5182 36.7183 -9.2373 14.0505 -15.9291
# 2 19.5182 79.1280 29.3505 -7.6977 -0.0353 -22.5364
# 3 36.7183 29.3505 159.4693 -17.8649 12.9191 -9.4391
# 4 -9.2373 -7.6977 -17.8649 21.5419 -3.0704 1.3034
# 5 14.0505 -0.0353 12.9191 -3.0704 31.5172 0.0891
# 6 -15.9291 -22.5364 -9.4391 1.3034 0.0891 29.8477
#
#
#
# Elastic Compliance Matrix: (Units=1/GPa)
#
#
# Indices 1 2 3 4 5 6 
#
# 1 0.027027 -0.001258 -0.003820 0.005825 -0.009951 0.012041
# 2 -0.001258 0.017335 -0.001948 0.003576 0.001694 0.011640
# 3 -0.003820 -0.001948 0.008007 0.004209 -0.001168 -0.001158
# 4 0.005825 0.003576 0.004209 0.053523 0.000882 0.004800
# 5 -0.009951 0.001694 -0.001168 0.000882 0.036744 -0.004549
# 6 0.012041 0.011640 -0.001158 0.004800 -0.004549 0.048156
#
#
# Mechanical properties :
#
#
# Convention : Reuss Voigt Hill
#
# Bulk Modulus (GPa) = 26.09947 51.90340 39.00143
# Shear Modulus (GPa) = 22.97627 30.60599 26.79113
#
# Velocity S-wave (km/s) = 3.42710 3.95540 3.70069
# Velocity P-wave (km/s) = 5.38531 6.88420 6.18036
#
# Compressibility (1/GPa) = 0.03831496
#
# Stress axis : x y z
#
# Youngs Moduli (GPa) = 37.00002 57.68839 124.89695
#
# Poissons Ratio (x) = 0.07258 0.47712
# Poissons Ratio (y) = 0.04655 0.24336
# Poissons Ratio (z) = 0.14134 0.11240
#
# Static dielectric constant tensor:
#      x y z
#    x 3.376070 -0.287560 0.158550 
#    y -0.287560 3.629170 0.035260 
#    z 0.158550 0.035260 4.208380 
# 
# 
# High freq. dielectric constant tensor:
#      x y z
#    x 1.740220 -0.017370 0.010650 
#    y -0.017370 1.747610 0.001960 
#    z 0.010650 0.001960 1.786540 
# 
# From -- ./inp_files/466982.got.cif
#   From: 2010.06.25/outbox.cif.g09.slc.cpg/sg2_234_cif.got.tgz:466982.got - 2010.06.27 13:26:56.
