data_PCOD8002317
_publ_section_title
;
Structure prediction by ZEFSAII (Michael W. Deem and Ramdas Pophale) SiO2 
 PCOD8002317
Probable space group: P -1
;
_chemical_formula_sum "Si O2"
_cell_formula_units_Z 14
_cell_length_a 7.444570
_cell_length_b 19.750354
_cell_length_c 8.480573
_cell_angle_alpha 121.358468
_cell_angle_beta 36.709195
_cell_angle_gamma 105.485021
_cell_volume 608.298791
_symmetry_space_group_name_H-M "P -1"
_symmetry_group_IT_number 2
_symmetry_cell_setting 'triclinic'
loop_
_space_group_symop_operation_xyz
x,y,z
-x,-y,-z
loop_
_atom_site_type_symbol
_atom_site_label
_atom_site_fract_x
_atom_site_fract_y
_atom_site_fract_z
Si Si1 0.470865 0.825855 0.593170
Si Si2 0.159933 0.204387 0.378422
Si Si3 0.866112 0.487521 0.245468
Si Si4 0.969033 0.368211 0.524186
Si Si5 0.885805 0.923968 0.299981
Si Si6 0.676876 0.654297 0.073818
Si Si7 0.740699 0.106849 0.675130
O O1 0.672107 0.800836 0.579140
O O2 0.492351 0.743662 0.381142
O O3 0.589507 0.888713 0.477333
O O4 0.110594 0.872037 0.943639
O O5 0.058316 0.299986 0.516350
O O6 0.857876 0.170403 0.561181
O O7 0.380076 0.148371 0.023338
O O8 0.500000 0.500000 0.500000
O O9 0.929872 0.551476 0.403479
O O10 0.000000 0.500000 0.000000
O O11 0.040183 0.395035 0.071416
O O12 0.589809 0.393702 0.803731
O O13 0.163539 0.333682 0.188172
O O14 0.055029 0.912745 0.335011
O O15 0.771550 0.021560 0.455867
#
# Coordination Sequence:
#
# PCOD8002317 Si02
#       7
#     2   2   2   2   2   2   2
#     4  10  20  35  59  88 119 160 210 256 301 360
#     4  10  20  35  59  88 119 160 210 256 301 360
#     4  12  26  46  72  98 124 158 208 258 304 364
#     4  12  25  43  65  93 131 167 202 248 313 376
#     4   9  17  31  55  87 119 154 205 265 310 347
#     4  12  25  43  65  93 131 167 202 248 313 376
#     4   9  17  31  55  87 119 154 205 265 310 347
#
# _framework density 23.015006
#
# number of rings (size 3 to 8) (size 9 to 14) (size 15 to 20)
#    0.000    1.429    0.000    6.000    0.000    6.857 
#    0.000    0.000    0.000   17.143    0.000    0.000 
#    0.000    0.000    0.000    0.000    0.000    0.000 
#
# Total GULP energy -173661.869364 kJ/mol
# GULP energy per Si atom -12404.419240 kJ/mol
# Density = 2.296262 g / cm^3
# Si number density = 23.015006 Si / 1000 Ang^3
#
#
#
# Elastic Constant Matrix: (Units=GPa)
#
#
# Indices 1 2 3 4 5 6 
#
# 1 52.6331 17.5681 27.9664 -8.8714 -6.9249 11.8994
# 2 17.5681 93.8910 35.9517 -13.7814 12.6529 12.3152
# 3 27.9664 35.9517 143.6715 -26.9461 4.8703 4.8624
# 4 -8.8714 -13.7814 -26.9461 49.8820 6.8433 -2.6272
# 5 -6.9249 12.6529 4.8703 6.8433 30.5699 -6.0545
# 6 11.8994 12.3152 4.8624 -2.6272 -6.0545 28.7126
#
#
#
# Elastic Compliance Matrix: (Units=1/GPa)
#
#
# Indices 1 2 3 4 5 6 
#
# 1 0.024468 -0.002923 -0.003956 0.000224 0.005958 -0.006940
# 2 -0.002923 0.014298 -0.001929 0.003194 -0.008181 -0.006028
# 3 -0.003956 -0.001929 0.009009 0.003984 -0.002261 0.000829
# 4 0.000224 0.003194 0.003984 0.024083 -0.007601 -0.001536
# 5 0.005958 -0.008181 -0.002261 -0.007601 0.041382 0.009453
# 6 -0.006940 -0.006028 0.000829 -0.001536 0.009453 0.042001
#
#
# Mechanical properties :
#
#
# Convention : Reuss Voigt Hill
#
# Bulk Modulus (GPa) = 33.15828 50.35199 41.75513
# Shear Modulus (GPa) = 27.33572 35.74688 31.54130
#
# Velocity S-wave (km/s) = 3.45009 3.94534 3.70600
# Velocity P-wave (km/s) = 5.50539 6.53297 6.04107
#
# Compressibility (1/GPa) = 0.03015838
#
# Stress axis : x y z
#
# Youngs Moduli (GPa) = 40.86976 69.94004 111.00189
#
# Poissons Ratio (x) = 0.20444 0.43918
# Poissons Ratio (y) = 0.11947 0.21407
# Poissons Ratio (z) = 0.16170 0.13488
#
# Static dielectric constant tensor:
#      x y z
#    x 4.011280 0.026870 -0.031540 
#    y 0.026870 4.243960 -0.070170 
#    z -0.031540 -0.070170 4.276890 
# 
# 
# High freq. dielectric constant tensor:
#      x y z
#    x 1.900920 -0.000730 -0.001170 
#    y -0.000730 1.918880 -0.005370 
#    z -0.001170 -0.005370 1.923630 
# 
# From -- ./inp_files/218140.got.cif
#   From: 2010.06.25/outbox.cif.g09.slc.cpg/sg2_110_cif.got.tgz:218140.got - 2010.06.27 13:26:56.
