data_PCOD8002322
_publ_section_title
;
Structure prediction by ZEFSAII (Michael W. Deem and Ramdas Pophale) SiO2 
 PCOD8002322
Probable space group: P -1
;
_chemical_formula_sum "Si O2"
_cell_formula_units_Z 16
_cell_length_a 13.707969
_cell_length_b 24.775456
_cell_length_c 19.517456
_cell_angle_alpha 165.070391
_cell_angle_beta 155.123831
_cell_angle_gamma 25.314496
_cell_volume 695.064954
_symmetry_space_group_name_H-M "P -1"
_symmetry_group_IT_number 2
_symmetry_cell_setting 'triclinic'
loop_
_space_group_symop_operation_xyz
x,y,z
-x,-y,-z
loop_
_atom_site_type_symbol
_atom_site_label
_atom_site_fract_x
_atom_site_fract_y
_atom_site_fract_z
Si Si1 0.321587 0.468942 0.774804
Si Si2 0.226359 0.434548 0.823415
Si Si3 0.008963 0.744866 0.764250
Si Si4 0.539379 0.260546 0.205667
Si Si5 0.273231 0.962767 0.461808
Si Si6 0.942833 0.966530 0.732617
Si Si7 0.057980 0.138051 0.769973
Si Si8 0.632233 0.175225 0.007029
O O1 0.181503 0.529592 0.832593
O O2 0.135546 0.446796 0.567286
O O3 0.534609 0.251965 0.655537
O O4 0.485426 0.632402 0.058885
O O5 0.132960 0.218109 0.497862
O O6 0.087623 0.607373 0.003902
O O7 0.242481 0.681504 0.786657
O O8 0.080855 0.812334 0.968019
O O9 0.815065 0.942873 0.849224
O O10 0.500000 0.500000 0.500000
O O11 0.562624 0.289342 0.174750
O O12 0.781866 0.116450 0.216782
O O13 0.336269 0.137764 0.945316
O O14 0.017721 0.983967 0.362432
O O15 0.232172 0.966903 0.360284
O O16 0.384909 0.161557 0.796489
O O17 0.000000 0.000000 0.500000
#
# Coordination Sequence:
#
# PCOD8002322 Si02
#       8
#     2   2   2   2   2   2   2   2
#     4   9  19  37  61  87 116 154 197 234 284 345
#     4  10  20  35  59  89 114 153 196 242 277 345
#     4   9  18  32  59  85 114 148 191 235 281 345
#     4  11  21  37  61  87 112 151 201 246 276 335
#     4  10  21  37  60  87 118 154 187 236 298 354
#     4  11  22  36  60  90 119 149 190 242 299 339
#     4  11  22  40  62  83 112 158 202 237 280 343
#     4   9  17  33  56  83 110 149 195 227 277 341
#
# _framework density 23.019431999999998
#
# number of rings (size 3 to 8) (size 9 to 14) (size 15 to 20)
#    0.000    2.000    2.500    3.000    1.750    2.500 
#    0.000    2.500    2.750    7.500    0.000    0.000 
#    0.000    0.000    0.000    0.000    0.000    0.000 
#
# Total GULP energy -198266.074855 kJ/mol
# GULP energy per Si atom -12391.629678 kJ/mol
# Density = 2.296704 g / cm^3
# Si number density = 23.019432 Si / 1000 Ang^3
#
#
#
# Elastic Constant Matrix: (Units=GPa)
#
#
# Indices 1 2 3 4 5 6 
#
# 1 119.8638 26.7164 49.1789 -19.1755 -19.0287 -18.2379
# 2 26.7164 61.1382 38.4649 -31.5027 -14.5380 -2.1157
# 3 49.1789 38.4649 160.3939 -34.8042 -9.2006 -16.7226
# 4 -19.1755 -31.5027 -34.8042 44.4935 -2.5252 -6.3013
# 5 -19.0287 -14.5380 -9.2006 -2.5252 41.8371 -16.2098
# 6 -18.2379 -2.1157 -16.7226 -6.3013 -16.2098 33.0731
#
#
#
# Elastic Compliance Matrix: (Units=1/GPa)
#
#
# Indices 1 2 3 4 5 6 
#
# 1 0.015243 0.005674 0.000318 0.014742 0.017791 0.020458
# 2 0.005674 0.041131 0.001577 0.038658 0.030795 0.029016
# 3 0.000318 0.001577 0.009716 0.010862 0.007773 0.011068
# 4 0.014742 0.038658 0.010862 0.075048 0.047936 0.053888
# 5 0.017791 0.030795 0.007773 0.047936 0.070267 0.059283
# 6 0.020458 0.029016 0.011068 0.053888 0.059283 0.088293
#
#
# Mechanical properties :
#
#
# Convention : Reuss Voigt Hill
#
# Bulk Modulus (GPa) = 12.31121 63.34624 37.82873
# Shear Modulus (GPa) = 16.04422 39.01647 27.53035
#
# Velocity S-wave (km/s) = 2.64291 4.12143 3.46202
# Velocity P-wave (km/s) = 3.83055 7.08707 5.69648
#
# Compressibility (1/GPa) = 0.08122677
#
# Stress axis : x y z
#
# Youngs Moduli (GPa) = 65.60237 24.31243 102.92438
#
# Poissons Ratio (x) = -0.13794 -0.03273
# Poissons Ratio (y) = -0.37220 -0.16227
# Poissons Ratio (z) = -0.02086 -0.03833
#
# Static dielectric constant tensor:
#      x y z
#    x 4.331590 -0.213610 0.068700 
#    y -0.213610 3.955090 -0.542600 
#    z 0.068700 -0.542600 5.004460 
# 
# 
# High freq. dielectric constant tensor:
#      x y z
#    x 1.907850 -0.007920 -0.003560 
#    y -0.007920 1.884420 -0.028550 
#    z -0.003560 -0.028550 1.939540 
# 
# From -- ./inp_files/570815.got.cif
#   From: 2010.06.25/outbox.cif.g09.slc.cpg/sg2_286_cif.got.tgz:570815.got - 2010.06.27 13:26:56.
