data_PCOD8002904
_publ_section_title
;
Structure prediction by ZEFSAII (Michael W. Deem and Ramdas Pophale) SiO2 
 PCOD8002904
Probable space group: P -1
;
_chemical_formula_sum "Si O2"
_cell_formula_units_Z 16
_cell_length_a 8.795041
_cell_length_b 27.794521
_cell_length_c 13.347159
_cell_angle_alpha 21.850824
_cell_angle_beta 50.134045
_cell_angle_gamma 40.328459
_cell_volume 755.281021
_symmetry_space_group_name_H-M "P -1"
_symmetry_group_IT_number 2
_symmetry_cell_setting 'triclinic'
loop_
_space_group_symop_operation_xyz
x,y,z
-x,-y,-z
loop_
_atom_site_type_symbol
_atom_site_label
_atom_site_fract_x
_atom_site_fract_y
_atom_site_fract_z
Si Si1 0.679655 0.375901 0.446481
Si Si2 0.808008 0.305547 0.299011
Si Si3 0.407401 0.267671 0.876210
Si Si4 0.613788 0.649656 0.063997
Si Si5 0.345934 0.101216 0.525867
Si Si6 0.072620 0.525058 0.220196
Si Si7 0.493388 0.194712 0.667159
Si Si8 0.775492 0.866740 0.266389
O O1 0.717347 0.385710 0.293310
O O2 0.500329 0.320164 0.643198
O O3 0.931307 0.245810 0.649876
O O4 0.548392 0.552529 0.209350
O O5 0.664569 0.232994 0.465481
O O6 0.095601 0.163718 0.453669
O O7 0.763631 0.423726 0.998664
O O8 0.110284 0.369429 0.814878
O O9 0.509253 0.304907 0.860973
O O10 0.487588 0.088664 0.183315
O O11 0.525740 0.820946 0.724827
O O12 0.910445 0.534390 0.176193
O O13 0.294814 0.165099 0.536486
O O14 0.265972 0.348611 0.523614
O O15 0.365660 0.155786 0.714648
O O16 0.668778 0.053531 0.944039
#
# Coordination Sequence:
#
# PCOD8002904 Si02
#       8
#     2   2   2   2   2   2   2   2
#     4  11  20  38  60  93 108 143 196 243 281 324
#     4  10  22  34  62  85 114 144 190 242 277 335
#     4  10  20  36  60  87 115 148 188 236 285 338
#     4   9  20  33  60  84 113 144 183 237 283 331
#     4  10  20  38  58  88 111 147 191 240 284 323
#     4   9  21  36  58  81 115 153 185 227 283 344
#     4  11  20  38  53  88 114 157 183 228 289 342
#     4  10  22  34  61  82 120 144 189 241 280 333
#
# _framework density 21.184168
#
# number of rings (size 3 to 8) (size 9 to 14) (size 15 to 20)
#    0.750    1.250    1.250    2.625    1.750    3.500 
#    0.000    2.500    0.000    0.750    0.000    0.000 
#    0.000    0.000    0.000    0.000    0.000    0.000 
#
# Total GULP energy -198214.658261 kJ/mol
# GULP energy per Si atom -12388.416141 kJ/mol
# Density = 2.113595 g / cm^3
# Si number density = 21.184168 Si / 1000 Ang^3
#
#
#
# Elastic Constant Matrix: (Units=GPa)
#
#
# Indices 1 2 3 4 5 6 
#
# 1 39.0699 10.2518 25.1318 2.8472 1.5789 -7.3495
# 2 10.2518 84.5099 31.1484 -1.2033 -6.5486 -0.0720
# 3 25.1318 31.1484 99.7512 -16.5311 -20.0127 -11.4458
# 4 2.8472 -1.2033 -16.5311 31.8251 -2.0541 -3.8111
# 5 1.5789 -6.5486 -20.0127 -2.0541 15.1159 2.7445
# 6 -7.3495 -0.0720 -11.4458 -3.8111 2.7445 15.3367
#
#
#
# Elastic Compliance Matrix: (Units=1/GPa)
#
#
# Indices 1 2 3 4 5 6 
#
# 1 0.041214 -0.001125 -0.017695 -0.013919 -0.031700 0.008753
# 2 -0.001125 0.013770 -0.004993 -0.002551 0.000003 -0.004836
# 3 -0.017695 -0.004993 0.028055 0.019661 0.037577 0.010596
# 4 -0.013919 -0.002551 0.019661 0.046420 0.030121 0.014137
# 5 -0.031700 0.000003 0.037577 0.030121 0.123636 -0.001787
# 6 0.008753 -0.004836 0.010596 0.014137 -0.001787 0.081116
#
#
# Mechanical properties :
#
#
# Convention : Reuss Voigt Hill
#
# Bulk Modulus (GPa) = 28.23765 39.59947 33.91856
# Shear Modulus (GPa) = 12.70191 22.90879 17.80535
#
# Velocity S-wave (km/s) = 2.45132 3.29205 2.90229
# Velocity P-wave (km/s) = 4.62282 5.76053 5.22275
#
# Compressibility (1/GPa) = 0.03541371
#
# Stress axis : x y z
#
# Youngs Moduli (GPa) = 24.26340 72.62365 35.64381
#
# Poissons Ratio (x) = 0.08170 0.63070
# Poissons Ratio (y) = 0.02730 0.17798
# Poissons Ratio (z) = 0.42933 0.36263
#
# Static dielectric constant tensor:
#      x y z
#    x 3.525780 -0.056320 0.056790 
#    y -0.056320 3.688570 -0.038630 
#    z 0.056790 -0.038630 4.077350 
# 
# 
# High freq. dielectric constant tensor:
#      x y z
#    x 1.809230 0.001880 0.001130 
#    y 0.001880 1.821750 -0.000060 
#    z 0.001130 -0.000060 1.838130 
# 
# From -- ./inp_files/509129.got.cif
#   From: 2010.06.25/outbox.cif.g09.slc.cpg/sg2_255_cif.got.tgz:509129.got - 2010.06.27 13:26:56.
