data_PCOD8002212
_publ_section_title
;
Structure prediction by ZEFSAII (Michael W. Deem and Ramdas Pophale) SiO2 
 PCOD8002212
Probable space group: P -1
;
_chemical_formula_sum "Si O2"
_cell_formula_units_Z 14
_cell_length_a 11.444474
_cell_length_b 21.413085
_cell_length_c 18.919437
_cell_angle_alpha 161.483775
_cell_angle_beta 149.869657
_cell_angle_gamma 29.614265
_cell_volume 702.931286
_symmetry_space_group_name_H-M "P -1"
_symmetry_group_IT_number 2
_symmetry_cell_setting 'triclinic'
loop_
_space_group_symop_operation_xyz
x,y,z
-x,-y,-z
loop_
_atom_site_type_symbol
_atom_site_label
_atom_site_fract_x
_atom_site_fract_y
_atom_site_fract_z
Si Si1 0.877876 0.856045 0.011838
Si Si2 0.578052 0.102485 0.489931
Si Si3 0.667697 0.744949 0.061425
Si Si4 0.396929 0.014841 0.848586
Si Si5 0.732275 0.565900 0.216031
Si Si6 0.776358 0.904473 0.517782
Si Si7 0.772862 0.290181 0.665667
O O1 0.760288 0.886287 0.060024
O O2 0.675523 0.896883 0.889169
O O3 0.036667 0.010829 0.249148
O O4 0.053218 0.623466 0.844777
O O5 0.346559 0.259581 0.576893
O O6 0.697953 0.236247 0.646229
O O7 0.491021 0.934355 0.218769
O O8 0.785914 0.968976 0.510276
O O9 0.939839 0.747764 0.225037
O O10 0.608571 0.794623 0.001443
O O11 0.626783 0.529172 0.828324
O O12 0.290378 0.850909 0.578686
O O13 0.838871 0.659559 0.304352
O O14 0.500000 0.500000 0.000000
O O15 0.500000 0.000000 0.500000
#
# Coordination Sequence:
#
# PCOD8002212 Si02
#       7
#     2   2   2   2   2   2   2
#     4  11  22  40  61  86 127 157 190 247 299 352
#     4  10  20  35  57  88 118 145 195 248 292 341
#     4  10  21  36  61  85 117 158 202 246 287 345
#     4  10  23  40  59  89 123 158 195 241 299 354
#     4  11  23  35  60  91 118 153 195 245 295 353
#     4  10  20  35  58  89 118 150 195 241 292 346
#     4  10  21  37  61  85 116 158 204 244 285 350
#
# _framework density 19.916598
#
# number of rings (size 3 to 8) (size 9 to 14) (size 15 to 20)
#    0.000    1.714    2.857    3.429    2.000    3.429 
#    0.000    5.714    0.000   15.429    0.000    0.000 
#    0.000    0.000    0.000    0.000    0.000    0.000 
#
# Total GULP energy -173552.478962 kJ/mol
# GULP energy per Si atom -12396.605640 kJ/mol
# Density = 1.987127 g / cm^3
# Si number density = 19.916598 Si / 1000 Ang^3
#
#
#
# Elastic Constant Matrix: (Units=GPa)
#
#
# Indices 1 2 3 4 5 6 
#
# 1 83.2971 46.0751 45.6631 11.2934 1.8921 19.3764
# 2 46.0751 117.4666 50.0451 10.1078 6.0976 13.7162
# 3 45.6631 50.0451 75.3976 20.9791 5.0732 20.0221
# 4 11.2934 10.1078 20.9791 39.9788 5.3425 4.5197
# 5 1.8921 6.0976 5.0732 5.3425 31.4238 10.3608
# 6 19.3764 13.7162 20.0221 4.5197 10.3608 37.0906
#
#
#
# Elastic Compliance Matrix: (Units=1/GPa)
#
#
# Indices 1 2 3 4 5 6 
#
# 1 0.019768 -0.003760 -0.008254 -0.000062 0.002597 -0.005199
# 2 -0.003760 0.012694 -0.006779 0.001511 -0.001812 0.001252
# 3 -0.008254 -0.006779 0.027231 -0.009628 0.001393 -0.007097
# 4 -0.000062 0.001511 -0.009628 0.030057 -0.004601 0.002294
# 5 0.002597 -0.001812 0.001393 -0.004601 0.036199 -0.010989
# 6 -0.005199 0.001252 -0.007097 0.002294 -0.010989 0.035836
#
#
# Mechanical properties :
#
#
# Convention : Reuss Voigt Hill
#
# Bulk Modulus (GPa) = 45.23252 62.19199 53.71226
# Shear Modulus (GPa) = 24.18497 30.65716 27.42106
#
# Velocity S-wave (km/s) = 3.48848 3.92762 3.71454
# Velocity P-wave (km/s) = 6.24390 7.20154 6.73975
#
# Compressibility (1/GPa) = 0.02210799
#
# Stress axis : x y z
#
# Youngs Moduli (GPa) = 50.58578 78.77716 36.72256
#
# Poissons Ratio (x) = 0.29621 0.30309
# Poissons Ratio (y) = 0.19021 0.24895
# Poissons Ratio (z) = 0.41751 0.53405
#
# Static dielectric constant tensor:
#      x y z
#    x 3.920400 0.362030 0.127930 
#    y 0.362030 3.935690 0.398680 
#    z 0.127930 0.398680 3.824850 
# 
# 
# High freq. dielectric constant tensor:
#      x y z
#    x 1.778990 0.016310 0.000750 
#    y 0.016310 1.769680 0.019970 
#    z 0.000750 0.019970 1.771640 
# 
# From -- ./inp_files/402267.got.cif
#   From: 2010.06.25/outbox.cif.g09.slc.cpg/sg2_202_cif.got.tgz:402267.got - 2010.06.27 13:26:56.
