data_PCOD8002903
_publ_section_title
;
Structure prediction by ZEFSAII (Michael W. Deem and Ramdas Pophale) SiO2 
 PCOD8002903
Probable space group: P -1
;
_chemical_formula_sum "Si O2"
_cell_formula_units_Z 14
_cell_length_a 15.087998
_cell_length_b 9.422225
_cell_length_c 10.031578
_cell_angle_alpha 69.390132
_cell_angle_beta 37.179568
_cell_angle_gamma 82.504896
_cell_volume 777.777742
_symmetry_space_group_name_H-M "P -1"
_symmetry_group_IT_number 2
_symmetry_cell_setting 'triclinic'
loop_
_space_group_symop_operation_xyz
x,y,z
-x,-y,-z
loop_
_atom_site_type_symbol
_atom_site_label
_atom_site_fract_x
_atom_site_fract_y
_atom_site_fract_z
Si Si1 0.340988 0.815039 0.365666
Si Si2 0.935885 0.108818 0.213952
Si Si3 0.596787 0.119762 0.030294
Si Si4 0.204241 0.179495 0.694599
Si Si5 0.231340 0.094413 0.972690
Si Si6 0.456422 0.391397 0.715336
Si Si7 0.490447 0.400444 0.176755
O O1 0.168536 0.789388 0.631946
O O2 0.338529 0.806089 0.212242
O O3 0.399122 0.672863 0.400885
O O4 0.444186 0.981544 0.238410
O O5 0.826249 0.947646 0.343985
O O6 0.042478 0.204198 0.934038
O O7 0.048113 0.068702 0.206197
O O8 0.560114 0.253140 0.122508
O O9 0.726010 0.057330 0.969807
O O10 0.286078 0.119956 0.743541
O O11 0.313495 0.339728 0.453560
O O12 0.308953 0.248249 0.915168
O O13 0.500000 0.500000 0.500000
O O14 0.416552 0.489920 0.854308
O O15 0.500000 0.500000 0.000000
#
# Coordination Sequence:
#
# PCOD8002903 Si02
#       7
#     2   2   2   2   2   2   2
#     4  10  20  36  60  87 113 157 197 241 290 345
#     4   9  18  38  62  85 118 150 199 249 288 343
#     4  10  21  35  58  89 114 152 204 239 289 345
#     4   9  19  36  58  90 112 153 197 238 301 339
#     4   9  20  36  59  90 113 147 203 247 284 342
#     4  11  21  37  58  90 120 150 198 241 292 348
#     4  12  22  38  60  83 126 156 188 246 298 352
#
# _framework density 18.0
#
# number of rings (size 3 to 8) (size 9 to 14) (size 15 to 20)
#    0.857    1.143    4.286    0.000    0.000    2.286 
#    0.000    2.857    0.000    1.714    0.000    0.000 
#    0.000    0.000    0.000    0.000    0.000    0.000 
#
# Total GULP energy -173534.416071 kJ/mol
# GULP energy per Si atom -12395.315434 kJ/mol
# Density = 1.795903 g / cm^3
# Si number density = 18.000000 Si / 1000 Ang^3
#
#
#
# Elastic Constant Matrix: (Units=GPa)
#
#
# Indices 1 2 3 4 5 6 
#
# 1 118.3064 59.3864 41.5358 3.3489 9.6137 -0.8197
# 2 59.3864 118.6803 39.2064 12.2331 6.2822 3.2036
# 3 41.5358 39.2064 90.9417 6.5340 8.5062 -10.9992
# 4 3.3489 12.2331 6.5340 30.8187 -5.0196 3.0316
# 5 9.6137 6.2822 8.5062 -5.0196 29.0683 -2.6283
# 6 -0.8197 3.2036 -10.9992 3.0316 -2.6283 34.9538
#
#
#
# Elastic Compliance Matrix: (Units=1/GPa)
#
#
# Indices 1 2 3 4 5 6 
#
# 1 0.012290 -0.005023 -0.003427 0.001143 -0.001830 -0.000567
# 2 -0.005023 0.012392 -0.002922 -0.003724 -0.000979 -0.001924
# 3 -0.003427 -0.002922 0.014832 -0.002511 -0.002568 0.004879
# 4 0.001143 -0.003724 -0.002511 0.035780 0.007069 -0.002994
# 5 -0.001830 -0.000979 -0.002568 0.007069 0.037320 0.001432
# 6 -0.000567 -0.001924 0.004879 -0.002994 0.001432 0.030675
#
#
# Mechanical properties :
#
#
# Convention : Reuss Voigt Hill
#
# Bulk Modulus (GPa) = 59.63137 67.57618 63.60377
# Shear Modulus (GPa) = 29.13369 31.48815 30.31092
#
# Velocity S-wave (km/s) = 4.02747 4.18705 4.10804
# Velocity P-wave (km/s) = 7.40458 7.81019 7.61009
#
# Compressibility (1/GPa) = 0.01676970
#
# Stress axis : x y z
#
# Youngs Moduli (GPa) = 81.36895 80.69488 67.42367
#
# Poissons Ratio (x) = 0.40534 0.23106
# Poissons Ratio (y) = 0.40873 0.19700
# Poissons Ratio (z) = 0.27885 0.23578
#
# Static dielectric constant tensor:
#      x y z
#    x 3.357240 0.093710 0.058190 
#    y 0.093710 3.236240 0.037360 
#    z 0.058190 0.037360 3.186890 
# 
# 
# High freq. dielectric constant tensor:
#      x y z
#    x 1.695790 0.011050 0.008620 
#    y 0.011050 1.688340 0.004910 
#    z 0.008620 0.004910 1.685900 
# 
# From -- ./inp_files/263357.got.cif
#   From: 2010.06.25/outbox.cif.g09.slc.cpg/sg2_132_cif.got.tgz:263357.got - 2010.06.27 13:26:56.
