data_PCOD8002156
_publ_section_title
;
Structure prediction by ZEFSAII (Michael W. Deem and Ramdas Pophale) SiO2 
 PCOD8002156
Probable space group: P -1
;
_chemical_formula_sum "Si O2"
_cell_formula_units_Z 16
_cell_length_a 14.504545
_cell_length_b 8.828392
_cell_length_c 15.200901
_cell_angle_alpha 82.242041
_cell_angle_beta 24.105325
_cell_angle_gamma 96.615541
_cell_volume 636.472947
_symmetry_space_group_name_H-M "P -1"
_symmetry_group_IT_number 2
_symmetry_cell_setting 'triclinic'
loop_
_space_group_symop_operation_xyz
x,y,z
-x,-y,-z
loop_
_atom_site_type_symbol
_atom_site_label
_atom_site_fract_x
_atom_site_fract_y
_atom_site_fract_z
Si Si1 0.017898 0.103143 0.607177
Si Si2 0.146790 0.958559 0.744251
Si Si3 0.135046 0.289715 0.671195
Si Si4 0.446500 0.735604 0.131219
Si Si5 0.027017 0.790773 0.691206
Si Si6 0.724993 0.056322 0.175784
Si Si7 0.836771 0.634975 0.690888
Si Si8 0.514001 0.289363 0.704011
O O1 0.034118 0.233496 0.662481
O O2 0.183668 0.229937 0.368333
O O3 0.168230 0.006604 0.516993
O O4 0.692797 0.950472 0.872983
O O5 0.233137 0.169905 0.639656
O O6 0.411391 0.972531 0.474160
O O7 0.099542 0.893916 0.891608
O O8 0.915330 0.787821 0.890144
O O9 0.379912 0.511924 0.448330
O O10 0.874104 0.236910 0.965836
O O11 0.403726 0.584971 0.105954
O O12 0.554777 0.712545 0.132925
O O13 0.148044 0.694783 0.403581
O O14 0.790717 0.664713 0.831595
O O15 0.236244 0.734036 0.514448
O O16 0.733131 0.892280 0.126985
#
# Coordination Sequence:
#
# PCOD8002156 Si02
#       8
#     2   2   2   2   2   2   2   2
#     4  11  20  36  58  85 110 153 195 229 290 350
#     4   9  21  40  60  89 118 150 199 241 279 353
#     4  11  21  37  63  89 116 154 195 235 294 346
#     4  10  20  35  56  84 114 145 191 237 283 338
#     4   9  21  38  55  81 120 149 187 247 283 330
#     4  10  20  41  64  83 120 157 186 241 300 333
#     4  10  20  36  57  79 116 151 186 240 283 337
#     4  10  20  39  57  85 119 149 190 242 285 347
#
# _framework density 25.138541
#
# number of rings (size 3 to 8) (size 9 to 14) (size 15 to 20)
#    0.000    2.000    2.500    1.125    0.000    1.000 
#    2.250    5.625    0.000    0.000    0.000    0.000 
#    0.000    0.000    0.000    0.000    0.000    0.000 
#
# Total GULP energy -198305.750800 kJ/mol
# GULP energy per Si atom -12394.109425 kJ/mol
# Density = 2.508132 g / cm^3
# Si number density = 25.138541 Si / 1000 Ang^3
#
#
#
# Elastic Constant Matrix: (Units=GPa)
#
#
# Indices 1 2 3 4 5 6 
#
# 1 141.3762 56.7310 50.2936 -6.7094 9.0182 24.4516
# 2 56.7310 111.6061 49.2182 -5.0867 13.4768 21.3341
# 3 50.2936 49.2182 121.1615 -18.8369 9.4559 17.9322
# 4 -6.7094 -5.0867 -18.8369 50.5812 5.1966 7.3009
# 5 9.0182 13.4768 9.4559 5.1966 35.5362 8.0457
# 6 24.4516 21.3341 17.9322 7.3009 8.0457 40.1201
#
#
#
# Elastic Compliance Matrix: (Units=1/GPa)
#
#
# Indices 1 2 3 4 5 6 
#
# 1 0.009785 -0.003383 -0.002089 0.000662 0.000019 -0.003355
# 2 -0.003383 0.012975 -0.003166 0.000373 -0.002602 -0.002968
# 3 -0.002089 -0.003166 0.011575 0.004247 -0.001355 -0.002718
# 4 0.000662 0.000373 0.004247 0.022685 -0.003411 -0.005944
# 5 0.000019 -0.002602 -0.001355 -0.003411 0.030791 -0.003576
# 6 -0.003355 -0.002968 -0.002718 -0.005944 -0.003576 0.031562
#
#
# Mechanical properties :
#
#
# Convention : Reuss Voigt Hill
#
# Bulk Modulus (GPa) = 58.62497 76.29215 67.45856
# Shear Modulus (GPa) = 35.12843 39.77423 37.45133
#
# Velocity S-wave (km/s) = 3.74223 3.98200 3.86398
# Velocity P-wave (km/s) = 6.48411 7.18028 6.84106
#
# Compressibility (1/GPa) = 0.01705758
#
# Stress axis : x y z
#
# Youngs Moduli (GPa) = 102.20185 77.07424 86.39352
#
# Poissons Ratio (x) = 0.26075 0.18050
# Poissons Ratio (y) = 0.34576 0.27351
# Poissons Ratio (z) = 0.21353 0.24400
#
# Static dielectric constant tensor:
#      x y z
#    x 5.174440 0.476710 -0.182090 
#    y 0.476710 4.916490 0.496000 
#    z -0.182090 0.496000 4.664910 
# 
# 
# High freq. dielectric constant tensor:
#      x y z
#    x 2.024610 0.017960 -0.017210 
#    y 0.017960 2.018720 0.046410 
#    z -0.017210 0.046410 2.015620 
# 
# From -- ./inp_files/38467.got.cif
#   From: 2010.06.25/outbox.cif.g09.slc.cpg/sg2_20_cif.got.tgz:38467.got - 2010.06.27 13:26:56.
