data_PCOD8002533
_publ_section_title
;
Structure prediction by ZEFSAII (Michael W. Deem and Ramdas Pophale) SiO2 
 PCOD8002533
Probable space group: P -1
;
_chemical_formula_sum "Si O2"
_cell_formula_units_Z 14
_cell_length_a 11.896227
_cell_length_b 10.103948
_cell_length_c 10.884461
_cell_angle_alpha 89.706810
_cell_angle_beta 52.810292
_cell_angle_gamma 128.556217
_cell_volume 643.957742
_symmetry_space_group_name_H-M "P -1"
_symmetry_group_IT_number 2
_symmetry_cell_setting 'triclinic'
loop_
_space_group_symop_operation_xyz
x,y,z
-x,-y,-z
loop_
_atom_site_type_symbol
_atom_site_label
_atom_site_fract_x
_atom_site_fract_y
_atom_site_fract_z
Si Si1 0.474005 0.013812 0.670576
Si Si2 0.869069 0.747285 0.769159
Si Si3 0.976523 0.356377 0.162376
Si Si4 0.522936 0.508515 0.791406
Si Si5 0.372780 0.167703 0.423618
Si Si6 0.372575 0.599595 0.495940
Si Si7 0.042898 0.704144 0.087426
O O1 0.583974 0.954906 0.637615
O O2 0.695009 0.132640 0.338049
O O3 0.654170 0.267018 0.534080
O O4 0.305787 0.942925 0.894585
O O5 0.753059 0.646203 0.713925
O O6 0.934245 0.650901 0.777112
O O7 0.695801 0.688970 0.979721
O O8 0.102275 0.001665 0.603144
O O9 0.055453 0.562472 0.121344
O O10 0.081940 0.377134 0.964043
O O11 0.517859 0.659410 0.755377
O O12 0.513261 0.408929 0.679429
O O13 0.461840 0.275886 0.497443
O O14 0.124272 0.353215 0.700503
#
# Coordination Sequence:
#
# PCOD8002533 Si02
#       7
#     2   2   2   2   2   2   2
#     4  10  20  35  65  98 113 148 202 252 302 346
#     4  11  23  44  60  80 126 169 203 231 298 376
#     4   9  16  36  62  88 113 154 195 249 287 346
#     4  11  28  40  57  89 127 165 196 242 303 360
#     4  12  21  40  69  88 115 161 208 244 292 360
#     4  12  21  37  62  96 121 148 201 260 300 335
#     4   9  17  32  59  95 120 140 195 259 294 337
#
# _framework density 21.740556999999999
#
# number of rings (size 3 to 8) (size 9 to 14) (size 15 to 20)
#    0.857    0.571    2.857    3.857    0.000    1.714 
#    0.000    2.857    0.000    5.143    0.000    0.000 
#    0.000    0.000    0.000    0.000    0.000    0.000 
#
# Total GULP energy -173441.270050 kJ/mol
# GULP energy per Si atom -12388.662146 kJ/mol
# Density = 2.169107 g / cm^3
# Si number density = 21.740557 Si / 1000 Ang^3
#
#
#
# Elastic Constant Matrix: (Units=GPa)
#
#
# Indices 1 2 3 4 5 6 
#
# 1 99.4553 17.4685 17.8768 -9.1156 4.0383 -0.9770
# 2 17.4685 32.0235 24.9768 -1.9903 -4.0114 -1.0069
# 3 17.8768 24.9768 108.3948 -8.4456 -16.3201 11.4918
# 4 -9.1156 -1.9903 -8.4456 14.2198 -6.0977 4.2444
# 5 4.0383 -4.0114 -16.3201 -6.0977 32.5248 -7.8963
# 6 -0.9770 -1.0069 11.4918 4.2444 -7.8963 22.9245
#
#
#
# Elastic Compliance Matrix: (Units=1/GPa)
#
#
# Indices 1 2 3 4 5 6 
#
# 1 0.011791 -0.006191 -0.000074 0.006471 -0.001394 -0.001411
# 2 -0.006191 0.042364 -0.009707 -0.005341 0.002107 0.008177
# 3 -0.000074 -0.009707 0.014162 0.011977 0.006327 -0.007567
# 4 0.006471 -0.005341 0.011977 0.093645 0.017948 -0.017119
# 5 -0.001394 0.002107 0.006327 0.017948 0.039448 0.007127
# 6 -0.001411 0.008177 -0.007567 -0.017119 0.007127 0.053338
#
#
# Mechanical properties :
#
#
# Convention : Reuss Voigt Hill
#
# Bulk Modulus (GPa) = 27.49199 40.05753 33.77476
# Shear Modulus (GPa) = 16.73265 25.90393 21.31829
#
# Velocity S-wave (km/s) = 2.77727 3.45556 3.13481
# Velocity P-wave (km/s) = 4.79137 5.86400 5.35461
#
# Compressibility (1/GPa) = 0.03637423
#
# Stress axis : x y z
#
# Youngs Moduli (GPa) = 84.80767 23.60499 70.60947
#
# Poissons Ratio (x) = 0.14614 0.00524
# Poissons Ratio (y) = 0.52504 0.68537
# Poissons Ratio (z) = 0.00630 0.22912
#
# Static dielectric constant tensor:
#      x y z
#    x 3.823660 -0.110800 0.053660 
#    y -0.110800 3.271750 -0.190030 
#    z 0.053660 -0.190030 4.752240 
# 
# 
# High freq. dielectric constant tensor:
#      x y z
#    x 1.843200 -0.019750 0.000020 
#    y -0.019750 1.788660 -0.009040 
#    z 0.000020 -0.009040 1.896240 
# 
# From -- ./inp_files/423445.got.cif
#   From: 2010.06.25/outbox.cif.g09.slc.cpg/sg2_212_cif.got.tgz:423445.got - 2010.06.27 13:26:56.
