data_PCOD8002044
_publ_section_title
;
Structure prediction by ZEFSAII (Michael W. Deem and Ramdas Pophale) SiO2 
 PCOD8002044
Probable space group: P -1
;
_chemical_formula_sum "Si O2"
_cell_formula_units_Z 12
_cell_length_a 24.201048
_cell_length_b 14.302739
_cell_length_c 12.015433
_cell_angle_alpha 159.869816
_cell_angle_beta 146.322247
_cell_angle_gamma 29.589196
_cell_volume 703.745907
_symmetry_space_group_name_H-M "P -1"
_symmetry_group_IT_number 2
_symmetry_cell_setting 'triclinic'
loop_
_space_group_symop_operation_xyz
x,y,z
-x,-y,-z
loop_
_atom_site_type_symbol
_atom_site_label
_atom_site_fract_x
_atom_site_fract_y
_atom_site_fract_z
Si Si1 0.677973 0.708229 0.276058
Si Si2 0.423840 0.838036 0.205099
Si Si3 0.402125 0.222432 0.164708
Si Si4 0.440624 0.770290 0.916879
Si Si5 0.122009 0.842742 0.080530
Si Si6 0.780180 0.704661 0.224394
O O1 0.686394 0.845962 0.323568
O O2 0.672108 0.952960 0.633488
O O3 0.572099 0.637748 0.018986
O O4 0.789745 0.381863 0.115721
O O5 0.500000 0.000000 0.500000
O O6 0.500000 0.500000 0.000000
O O7 0.372892 0.838153 0.997172
O O8 0.416828 0.526639 0.537914
O O9 0.280929 0.308997 0.006043
O O10 0.500000 0.000000 0.000000
O O11 0.403927 0.076056 0.124352
O O12 0.156482 0.093970 0.462865
O O13 0.126662 0.638202 0.967272
O O14 0.000000 0.000000 0.000000
#
# Coordination Sequence:
#
# PCOD8002044 Si02
#       6
#     2   2   2   2   2   2
#     4   9  21  32  53  74 108 132 171 209 253 291
#     4  10  21  33  49  72 107 140 174 205 240 299
#     4  12  20  32  49  73 108 139 167 200 244 315
#     4  11  21  32  49  76 106 145 166 192 249 308
#     4  10  20  35  53  77 101 126 171 218 267 298
#     4  10  21  32  52  76 104 130 167 208 262 299
#
# _framework density 17.051608000000002
#
# number of rings (size 3 to 8) (size 9 to 14) (size 15 to 20)
#    1.000    0.667    1.667    5.000    4.667    0.000 
#    0.000    0.000    0.000    0.000    0.000    7.000 
#    0.000    0.000    0.000    0.000    0.000    0.000 
#
# Total GULP energy -148695.365987 kJ/mol
# GULP energy per Si atom -12391.280499 kJ/mol
# Density = 1.701280 g / cm^3
# Si number density = 17.051608 Si / 1000 Ang^3
#
#
#
# Elastic Constant Matrix: (Units=GPa)
#
#
# Indices 1 2 3 4 5 6 
#
# 1 50.4258 30.8480 21.7374 -0.6484 -7.7858 14.1022
# 2 30.8480 121.5403 42.2906 -1.7582 -1.9927 2.1010
# 3 21.7374 42.2906 106.0989 2.5594 5.6266 -4.6383
# 4 -0.6484 -1.7582 2.5594 28.0151 11.1804 6.4188
# 5 -7.7858 -1.9927 5.6266 11.1804 24.4875 0.5578
# 6 14.1022 2.1010 -4.6383 6.4188 0.5578 27.9711
#
#
#
# Elastic Compliance Matrix: (Units=1/GPa)
#
#
# Indices 1 2 3 4 5 6 
#
# 1 0.032347 -0.005741 -0.005698 0.000286 0.011386 -0.017115
# 2 -0.005741 0.010709 -0.003014 0.000738 -0.000631 0.001433
# 3 -0.005698 -0.003014 0.012296 -0.000843 -0.004621 0.005424
# 4 0.000286 0.000738 -0.000843 0.046490 -0.020640 -0.010596
# 5 0.011386 -0.000631 -0.004621 -0.020640 0.054956 -0.002819
# 6 -0.017115 0.001433 0.005424 -0.010596 -0.002819 0.047660
#
#
# Mechanical properties :
#
#
# Convention : Reuss Voigt Hill
#
# Bulk Modulus (GPa) = 37.81109 51.97968 44.89539
# Shear Modulus (GPa) = 20.64583 28.30736 24.47659
#
# Velocity S-wave (km/s) = 3.48341 4.07885 3.79283
# Velocity P-wave (km/s) = 6.19689 7.26172 6.75034
#
# Compressibility (1/GPa) = 0.02644727
#
# Stress axis : x y z
#
# Youngs Moduli (GPa) = 30.91440 93.37842 81.32401
#
# Poissons Ratio (x) = 0.53606 0.46338
# Poissons Ratio (y) = 0.17747 0.24512
# Poissons Ratio (z) = 0.17615 0.28146
#
# Static dielectric constant tensor:
#      x y z
#    x 3.510390 0.270170 -0.492670 
#    y 0.270170 3.060640 -0.033140 
#    z -0.492670 -0.033140 3.762730 
# 
# 
# High freq. dielectric constant tensor:
#      x y z
#    x 1.633140 0.029320 0.005180 
#    y 0.029320 1.637540 0.010520 
#    z 0.005180 0.010520 1.669100 
# 
# From -- ./inp_files/72938.got.cif
#   From: 2010.06.25/outbox.cif.g09.slc.cpg/sg2_37_cif.got.tgz:72938.got - 2010.06.27 13:26:56.
