data_PCOD8002980
_publ_section_title
;
Structure prediction by ZEFSAII (Michael W. Deem and Ramdas Pophale) SiO2 
 PCOD8002980
Probable space group: P -1
;
_chemical_formula_sum "Si O2"
_cell_formula_units_Z 16
_cell_length_a 14.734291
_cell_length_b 8.303974
_cell_length_c 9.122438
_cell_angle_alpha 91.469244
_cell_angle_beta 127.232259
_cell_angle_gamma 117.173934
_cell_volume 715.144947
_symmetry_space_group_name_H-M "P -1"
_symmetry_group_IT_number 2
_symmetry_cell_setting 'triclinic'
loop_
_space_group_symop_operation_xyz
x,y,z
-x,-y,-z
loop_
_atom_site_type_symbol
_atom_site_label
_atom_site_fract_x
_atom_site_fract_y
_atom_site_fract_z
Si Si1 0.557712 0.779885 0.589885
Si Si2 0.081903 0.139927 0.784412
Si Si3 0.829159 0.350079 0.489978
Si Si4 0.801535 0.022536 0.613177
Si Si5 0.442882 0.199852 0.852840
Si Si6 0.511359 0.114546 0.198772
Si Si7 0.383494 0.477936 0.181339
Si Si8 0.038757 0.774129 0.600793
O O1 0.713468 0.919005 0.672328
O O2 0.531968 0.910638 0.673109
O O3 0.435093 0.666604 0.343885
O O4 0.545293 0.620567 0.685067
O O5 0.059585 0.230213 0.621087
O O6 0.113041 0.979601 0.769762
O O7 0.214541 0.323068 0.006398
O O8 0.942419 0.031116 0.749319
O O9 0.674938 0.298919 0.337397
O O10 0.848023 0.253906 0.360166
O O11 0.941450 0.588676 0.611719
O O12 0.845502 0.247867 0.646401
O O13 0.708713 0.899402 0.374838
O O14 0.550648 0.432293 0.913796
O O15 0.516133 0.093488 0.872499
O O16 0.424774 0.168737 0.010891
#
# Coordination Sequence:
#
# PCOD8002980 Si02
#       8
#     2   2   2   2   2   2   2   2
#     4  10  23  40  57  83 121 157 192 235 286 340
#     4  10  20  36  61  85 117 155 190 234 294 344
#     4   9  18  34  57  85 119 148 187 238 289 342
#     4   9  20  38  57  84 122 154 188 237 285 341
#     4   9  20  37  61  90 116 143 193 247 286 336
#     4  10  20  36  63  88 114 153 193 237 291 341
#     4  10  22  39  58  83 117 154 195 239 281 343
#     4   9  19  34  58  92 120 145 186 246 298 337
#
# _framework density 22.373086000000001
#
# number of rings (size 3 to 8) (size 9 to 14) (size 15 to 20)
#    0.000    2.500    0.000    0.750    0.000   13.500 
#    0.000    2.500    0.000   11.250    0.000    0.000 
#    0.000    0.000    0.000    0.000    0.000    0.000 
#
# Total GULP energy -198320.923856 kJ/mol
# GULP energy per Si atom -12395.057741 kJ/mol
# Density = 2.232216 g / cm^3
# Si number density = 22.373086 Si / 1000 Ang^3
#
#
#
# Elastic Constant Matrix: (Units=GPa)
#
#
# Indices 1 2 3 4 5 6 
#
# 1 92.8324 21.2327 39.0368 9.8563 2.0525 20.7234
# 2 21.2327 106.5970 17.8810 8.9791 -3.3793 21.0336
# 3 39.0368 17.8810 80.9082 4.7854 6.2149 13.3268
# 4 9.8563 8.9791 4.7854 24.2157 4.6649 3.1340
# 5 2.0525 -3.3793 6.2149 4.6649 32.5244 -0.9983
# 6 20.7234 21.0336 13.3268 3.1340 -0.9983 28.8344
#
#
#
# Elastic Compliance Matrix: (Units=1/GPa)
#
#
# Indices 1 2 3 4 5 6 
#
# 1 0.015477 -0.000188 -0.005938 -0.004145 0.000494 -0.007774
# 2 -0.000188 0.011366 -0.001168 -0.003297 0.001668 -0.007200
# 3 -0.005938 -0.001168 0.016087 0.000566 -0.002978 -0.002480
# 4 -0.004145 -0.003297 0.000566 0.045390 -0.006700 -0.000043
# 5 0.000494 0.001668 -0.002978 -0.006700 0.032469 0.001657
# 6 -0.007774 -0.007200 -0.002480 -0.000043 0.001657 0.046728
#
#
# Mechanical properties :
#
#
# Convention : Reuss Voigt Hill
#
# Bulk Modulus (GPa) = 35.28536 48.51540 41.90038
# Shear Modulus (GPa) = 26.10267 30.59403 28.34835
#
# Velocity S-wave (km/s) = 3.41940 3.70191 3.56346
# Velocity P-wave (km/s) = 5.60315 6.32487 5.97492
#
# Compressibility (1/GPa) = 0.02834037
#
# Stress axis : x y z
#
# Youngs Moduli (GPa) = 64.61330 87.98362 62.16351
#
# Poissons Ratio (x) = 0.01653 0.36913
# Poissons Ratio (y) = 0.01214 0.07264
# Poissons Ratio (z) = 0.38367 0.10281
#
# Static dielectric constant tensor:
#      x y z
#    x 3.843150 0.125410 -0.097840 
#    y 0.125410 4.295110 -0.057140 
#    z -0.097840 -0.057140 3.870000 
# 
# 
# High freq. dielectric constant tensor:
#      x y z
#    x 1.865560 0.009000 0.006970 
#    y 0.009000 1.894680 0.000470 
#    z 0.006970 0.000470 1.850320 
# 
# From -- ./inp_files/298935.got.cif
#   From: 2010.06.25/outbox.cif.g09.slc.cpg/sg2_150_cif.got.tgz:298935.got - 2010.06.27 13:26:56.
