data_PCOD8002036
_publ_section_title
;
Structure prediction by ZEFSAII (Michael W. Deem and Ramdas Pophale) SiO2 
 PCOD8002036
Probable space group: P -1
;
_chemical_formula_sum "Si O2"
_cell_formula_units_Z 16
_cell_length_a 12.448735
_cell_length_b 21.200230
_cell_length_c 5.010761
_cell_angle_alpha 66.683592
_cell_angle_beta 80.498373
_cell_angle_gamma 38.520916
_cell_volume 731.771468
_symmetry_space_group_name_H-M "P -1"
_symmetry_group_IT_number 2
_symmetry_cell_setting 'triclinic'
loop_
_space_group_symop_operation_xyz
x,y,z
-x,-y,-z
loop_
_atom_site_type_symbol
_atom_site_label
_atom_site_fract_x
_atom_site_fract_y
_atom_site_fract_z
Si Si1 0.960827 0.332072 0.407328
Si Si2 0.323946 0.182137 0.672399
Si Si3 0.235498 0.875119 0.360270
Si Si4 0.634607 0.964316 0.714712
Si Si5 0.106878 0.866796 0.929120
Si Si6 0.972470 0.237532 0.081135
Si Si7 0.183021 0.450345 0.999243
Si Si8 0.635109 0.695851 0.336569
O O1 0.963078 0.302135 0.756685
O O2 0.838387 0.460256 0.227446
O O3 0.167464 0.251630 0.395819
O O4 0.886089 0.313807 0.255379
O O5 0.280458 0.270394 0.718371
O O6 0.526261 0.088039 0.631935
O O7 0.329294 0.107413 0.946286
O O8 0.229204 0.850109 0.706230
O O9 0.427225 0.804229 0.304829
O O10 0.178759 0.841278 0.241794
O O11 0.099706 0.007083 0.187026
O O12 0.500000 0.000000 0.500000
O O13 0.833945 0.884850 0.680568
O O14 0.127895 0.777640 0.975203
O O15 0.323437 0.346094 0.912104
O O16 0.269463 0.404742 0.333191
O O17 0.000000 0.500000 0.000000
#
# Coordination Sequence:
#
# PCOD8002036 Si02
#       8
#     2   2   2   2   2   2   2   2
#     4  11  23  39  60  89 124 163 211 250 311 371
#     4  10  22  35  55  87 126 164 198 242 308 378
#     4  10  22  42  66  97 127 161 210 264 310 378
#     4  10  20  35  52  89 129 159 193 246 295 395
#     4  10  21  42  67  96 128 161 208 257 318 383
#     4  11  22  38  65  88 125 169 201 252 319 384
#     4  12  26  42  64  91 128 171 217 265 308 370
#     4  12  25  41  67  91 125 170 210 267 315 367
#
# _framework density 21.864750000000001
#
# number of rings (size 3 to 8) (size 9 to 14) (size 15 to 20)
#    0.000    1.250    2.500    3.375    5.250    0.000 
#    6.750    0.000    0.000   15.000    0.000    0.000 
#    0.000    0.000    0.000    0.000    0.000    0.000 
#
# Total GULP energy -198262.888557 kJ/mol
# GULP energy per Si atom -12391.430535 kJ/mol
# Density = 2.181499 g / cm^3
# Si number density = 21.864750 Si / 1000 Ang^3
#
#
#
# Elastic Constant Matrix: (Units=GPa)
#
#
# Indices 1 2 3 4 5 6 
#
# 1 63.3902 23.7970 -1.3745 -5.7664 4.5767 17.9645
# 2 23.7970 91.9386 11.5095 6.9597 -2.6864 11.3434
# 3 -1.3745 11.5095 61.3990 1.9942 4.0980 6.8638
# 4 -5.7664 6.9597 1.9942 31.7035 8.1477 -3.0697
# 5 4.5767 -2.6864 4.0980 8.1477 21.8405 3.9016
# 6 17.9645 11.3434 6.8638 -3.0697 3.9016 45.7864
#
#
#
# Elastic Compliance Matrix: (Units=1/GPa)
#
#
# Indices 1 2 3 4 5 6 
#
# 1 0.020659 -0.005534 0.002433 0.005914 -0.006575 -0.006143
# 2 -0.005534 0.013409 -0.002659 -0.005375 0.005597 -0.001589
# 3 0.002433 -0.002659 0.017359 0.000693 -0.003903 -0.002519
# 4 0.005914 -0.005375 0.000693 0.038371 -0.016866 0.002917
# 5 -0.006575 0.005597 -0.003903 -0.016866 0.055608 -0.004091
# 6 -0.006143 -0.001589 -0.002519 0.002917 -0.004091 0.025566
#
#
# Mechanical properties :
#
#
# Convention : Reuss Voigt Hill
#
# Bulk Modulus (GPa) = 25.05739 31.62132 28.33936
# Shear Modulus (GPa) = 25.53709 32.05249 28.79479
#
# Velocity S-wave (km/s) = 3.42125 3.83292 3.63292
# Velocity P-wave (km/s) = 5.20496 5.83798 5.53053
#
# Compressibility (1/GPa) = 0.03990838
#
# Stress axis : x y z
#
# Youngs Moduli (GPa) = 48.40490 74.57926 57.60584
#
# Poissons Ratio (x) = 0.41271 -0.14017
# Poissons Ratio (y) = 0.26787 0.15315
# Poissons Ratio (z) = -0.11778 0.19828
#
# Static dielectric constant tensor:
#      x y z
#    x 3.494710 -0.250290 0.589280 
#    y -0.250290 3.601590 0.829030 
#    z 0.589280 0.829030 2.699080 
# 
# 
# High freq. dielectric constant tensor:
#      x y z
#    x 1.836230 0.019130 0.006080 
#    y 0.019130 1.859480 0.003130 
#    z 0.006080 0.003130 1.860850 
# 
# From -- ./inp_files/82098.got.cif
#   From: 2010.06.25/outbox.cif.g09.slc.cpg/sg2_42_cif.got.tgz:82098.got - 2010.06.27 13:26:56.
