data_PCOD8002690
_publ_section_title
;
Structure prediction by ZEFSAII (Michael W. Deem and Ramdas Pophale) SiO2 
 PCOD8002690
Probable space group: P -1
;
_chemical_formula_sum "Si O2"
_cell_formula_units_Z 16
_cell_length_a 15.309466
_cell_length_b 6.302886
_cell_length_c 16.946461
_cell_angle_alpha 63.603625
_cell_angle_beta 139.505225
_cell_angle_gamma 131.294827
_cell_volume 792.300629
_symmetry_space_group_name_H-M "P -1"
_symmetry_group_IT_number 2
_symmetry_cell_setting 'triclinic'
loop_
_space_group_symop_operation_xyz
x,y,z
-x,-y,-z
loop_
_atom_site_type_symbol
_atom_site_label
_atom_site_fract_x
_atom_site_fract_y
_atom_site_fract_z
Si Si1 0.725047 0.193195 0.960119
Si Si2 0.242517 0.255983 0.338101
Si Si3 0.503721 0.890392 0.435411
Si Si4 0.174045 0.218619 0.118717
Si Si5 0.637481 0.787813 0.164063
Si Si6 0.537295 0.757538 0.774551
Si Si7 0.891591 0.927568 0.187884
Si Si8 0.319333 0.664599 0.920974
O O1 0.663897 0.239707 0.992433
O O2 0.861400 0.128985 0.080301
O O3 0.799737 0.474044 0.912295
O O4 0.576995 0.931073 0.854518
O O5 0.333835 0.596495 0.348968
O O6 0.353037 0.158392 0.466186
O O7 0.190557 0.142189 0.231988
O O8 0.082146 0.106883 0.306807
O O9 0.500000 0.000000 0.500000
O O10 0.538123 0.132308 0.357099
O O11 0.303367 0.209769 0.155440
O O12 0.000000 0.000000 0.000000
O O13 0.596888 0.575216 0.244389
O O14 0.788781 0.827724 0.214124
O O15 0.684189 0.100036 0.173857
O O16 0.480002 0.660693 0.018598
O O17 0.841305 0.642696 0.152461
#
# Coordination Sequence:
#
# PCOD8002690 Si02
#       8
#     2   2   2   2   2   2   2   2
#     4  11  21  35  59  93 132 164 200 255 315 383
#     4  11  25  44  64  95 123 166 221 259 317 380
#     4  11  25  46  69  86 120 175 220 268 310 367
#     4  12  24  37  61  99 134 162 203 262 325 388
#     4  10  22  35  60  93 130 169 210 253 312 387
#     4  12  23  40  62  93 123 167 216 260 310 371
#     4  11  23  39  62  93 135 166 203 258 325 378
#     4  10  20  36  57  94 134 172 201 243 320 389
#
# _framework density 20.194351999999999
#
# number of rings (size 3 to 8) (size 9 to 14) (size 15 to 20)
#    0.000    1.000    5.000    1.875    5.250    3.000 
#    0.000    0.625    0.000    1.500    0.000    0.000 
#    0.000    0.000    0.000    0.000    0.000    0.000 
#
# Total GULP energy -198396.690896 kJ/mol
# GULP energy per Si atom -12399.793181 kJ/mol
# Density = 2.014839 g / cm^3
# Si number density = 20.194352 Si / 1000 Ang^3
#
#
#
# Elastic Constant Matrix: (Units=GPa)
#
#
# Indices 1 2 3 4 5 6 
#
# 1 105.9832 45.9720 44.9265 3.3459 9.9210 9.1977
# 2 45.9720 140.3671 55.6743 -20.6935 9.7387 9.4152
# 3 44.9265 55.6743 94.7448 -1.9333 8.6219 10.3833
# 4 3.3459 -20.6935 -1.9333 34.0467 4.3998 -3.6397
# 5 9.9210 9.7387 8.6219 4.3998 26.4012 7.0529
# 6 9.1977 9.4152 10.3833 -3.6397 7.0529 32.8541
#
#
#
# Elastic Compliance Matrix: (Units=1/GPa)
#
#
# Indices 1 2 3 4 5 6 
#
# 1 0.012790 -0.002789 -0.004192 -0.003157 -0.001485 -0.001487
# 2 -0.002789 0.011217 -0.004922 0.007235 -0.002830 0.000531
# 3 -0.004192 -0.004922 0.015735 -0.001843 -0.000793 -0.002423
# 4 -0.003157 0.007235 -0.001843 0.035574 -0.008168 0.005087
# 5 -0.001485 -0.002830 -0.000793 -0.008168 0.043437 -0.008752
# 6 -0.001487 0.000531 -0.002423 0.005087 -0.008752 0.033910
#
#
# Mechanical properties :
#
#
# Convention : Reuss Voigt Hill
#
# Bulk Modulus (GPa) = 62.75178 70.47121 66.61150
# Shear Modulus (GPa) = 27.50554 31.62855 29.56705
#
# Velocity S-wave (km/s) = 3.69459 3.96183 3.83054
# Velocity P-wave (km/s) = 7.02434 7.47665 7.25402
#
# Compressibility (1/GPa) = 0.01593580
#
# Stress axis : x y z
#
# Youngs Moduli (GPa) = 78.18594 89.14979 63.55228
#
# Poissons Ratio (x) = 0.24861 0.26644
# Poissons Ratio (y) = 0.21803 0.31281
# Poissons Ratio (z) = 0.32779 0.43880
#
# Static dielectric constant tensor:
#      x y z
#    x 3.598860 -0.086050 0.052240 
#    y -0.086050 4.168440 -0.143830 
#    z 0.052240 -0.143830 3.440220 
# 
# 
# High freq. dielectric constant tensor:
#      x y z
#    x 1.787550 -0.005160 0.007730 
#    y -0.005160 1.812670 -0.005540 
#    z 0.007730 -0.005540 1.749590 
# 
# From -- ./inp_files/363220.got.cif
#   From: 2010.06.25/outbox.cif.g09.slc.cpg/sg2_182_cif.got.tgz:363220.got - 2010.06.27 13:26:56.
