data_PCOD8002575
_publ_section_title
;
Structure prediction by ZEFSAII (Michael W. Deem and Ramdas Pophale) SiO2 
 PCOD8002575
Probable space group: P -1
;
_chemical_formula_sum "Si O2"
_cell_formula_units_Z 14
_cell_length_a 17.201925
_cell_length_b 6.984354
_cell_length_c 11.611059
_cell_angle_alpha 83.848999
_cell_angle_beta 147.578674
_cell_angle_gamma 86.406791
_cell_volume 712.273460
_symmetry_space_group_name_H-M "P -1"
_symmetry_group_IT_number 2
_symmetry_cell_setting 'triclinic'
loop_
_space_group_symop_operation_xyz
x,y,z
-x,-y,-z
loop_
_atom_site_type_symbol
_atom_site_label
_atom_site_fract_x
_atom_site_fract_y
_atom_site_fract_z
Si Si1 0.040329 0.828396 0.386543
Si Si2 0.784950 0.650010 0.122536
Si Si3 0.327465 0.503472 0.790568
Si Si4 0.448639 0.223910 0.376576
Si Si5 0.137756 0.527122 0.343881
Si Si6 0.071718 0.714999 0.829309
Si Si7 0.294215 0.590058 0.308977
O O1 0.208999 0.723929 0.656206
O O2 0.035551 0.738875 0.256881
O O3 0.909209 0.767365 0.297912
O O4 0.010786 0.065387 0.335808
O O5 0.694404 0.646433 0.127426
O O6 0.869667 0.425307 0.198790
O O7 0.666939 0.767524 0.872146
O O8 0.283835 0.433124 0.615207
O O9 0.500000 0.500000 0.000000
O O10 0.375975 0.364556 0.384001
O O11 0.589634 0.297144 0.502305
O O12 0.500000 0.000000 0.500000
O O13 0.179882 0.571593 0.266170
O O14 0.042852 0.367032 0.231727
O O15 0.208726 0.720012 0.085293
#
# Coordination Sequence:
#
# PCOD8002575 Si02
#       7
#     2   2   2   2   2   2   2
#     4   9  21  36  60  85 107 151 191 226 280 335
#     4  10  20  39  60  81 116 148 185 239 273 328
#     4  10  21  40  58  79 118 150 183 234 286 327
#     4  10  21  35  59  84 111 152 188 226 282 335
#     4   9  21  36  55  81 115 147 180 234 280 325
#     4  10  20  36  60  86 109 146 195 228 279 332
#     4  10  20  36  55  83 120 144 183 238 277 328
#
# _framework density 19.655373000000001
#
# number of rings (size 3 to 8) (size 9 to 14) (size 15 to 20)
#    0.857    1.429    0.000    2.571    0.000    2.286 
#    0.000    0.714    0.000    0.000    0.000    0.000 
#    0.000    0.000    0.000    0.000    0.000    0.000 
#
# Total GULP energy -173541.934465 kJ/mol
# GULP energy per Si atom -12395.852462 kJ/mol
# Density = 1.961064 g / cm^3
# Si number density = 19.655373 Si / 1000 Ang^3
#
#
#
# Elastic Constant Matrix: (Units=GPa)
#
#
# Indices 1 2 3 4 5 6 
#
# 1 79.5266 19.6613 6.6771 1.1142 11.4341 23.3342
# 2 19.6613 104.5521 29.5586 -19.5586 6.5640 6.2488
# 3 6.6771 29.5586 96.0618 -7.7919 18.7177 2.0200
# 4 1.1142 -19.5586 -7.7919 27.3887 4.2668 1.4805
# 5 11.4341 6.5640 18.7177 4.2668 32.2946 4.8657
# 6 23.3342 6.2488 2.0200 1.4805 4.8657 16.0742
#
#
#
# Elastic Compliance Matrix: (Units=1/GPa)
#
#
# Indices 1 2 3 4 5 6 
#
# 1 0.022711 -0.002395 0.000373 -0.000373 -0.003030 -0.031132
# 2 -0.002395 0.012545 -0.002780 0.008501 -0.000982 -0.001536
# 3 0.000373 -0.002780 0.012922 0.002803 -0.007570 0.000948
# 4 -0.000373 0.008501 0.002803 0.044966 -0.008454 -0.004698
# 5 -0.003030 -0.000982 -0.007570 -0.008454 0.038518 -0.005149
# 6 -0.031132 -0.001536 0.000948 -0.004698 -0.005149 0.109874
#
#
# Mechanical properties :
#
#
# Convention : Reuss Voigt Hill
#
# Bulk Modulus (GPa) = 25.92493 43.54830 34.73662
# Shear Modulus (GPa) = 18.93958 30.10107 24.52032
#
# Velocity S-wave (km/s) = 3.10753 3.91761 3.53585
# Velocity P-wave (km/s) = 5.10823 6.53204 5.86352
#
# Compressibility (1/GPa) = 0.03857291
#
# Stress axis : x y z
#
# Youngs Moduli (GPa) = 44.03179 79.71413 77.38727
#
# Poissons Ratio (x) = 0.19094 -0.02889
# Poissons Ratio (y) = 0.10547 0.21517
# Poissons Ratio (z) = -0.01644 0.22164
#
# Static dielectric constant tensor:
#      x y z
#    x 3.395940 0.038700 0.105100 
#    y 0.038700 3.281180 0.041010 
#    z 0.105100 0.041010 3.641910 
# 
# 
# High freq. dielectric constant tensor:
#      x y z
#    x 1.759450 0.012710 0.003980 
#    y 0.012710 1.744030 0.002920 
#    z 0.003980 0.002920 1.774600 
# 
# From -- ./inp_files/328091.got.cif
#   From: 2010.06.25/outbox.cif.g09.slc.cpg/sg2_165_cif.got.tgz:328091.got - 2010.06.27 13:26:56.
