data_PCOD8002978
_publ_section_title
;
Structure prediction by ZEFSAII (Michael W. Deem and Ramdas Pophale) SiO2 
 PCOD8002978
Probable space group: P -1
;
_chemical_formula_sum "Si O2"
_cell_formula_units_Z 16
_cell_length_a 12.945732
_cell_length_b 9.079791
_cell_length_c 26.695455
_cell_angle_alpha 149.882435
_cell_angle_beta 31.146761
_cell_angle_gamma 137.020314
_cell_volume 813.936207
_symmetry_space_group_name_H-M "P -1"
_symmetry_group_IT_number 2
_symmetry_cell_setting 'triclinic'
loop_
_space_group_symop_operation_xyz
x,y,z
-x,-y,-z
loop_
_atom_site_type_symbol
_atom_site_label
_atom_site_fract_x
_atom_site_fract_y
_atom_site_fract_z
Si Si1 0.927211 0.484680 0.760675
Si Si2 0.316820 0.672525 0.011852
Si Si3 0.863420 0.725943 0.480460
Si Si4 0.434754 0.885163 0.234190
Si Si5 0.859727 0.385447 0.481587
Si Si6 0.575001 0.352109 0.243556
Si Si7 0.930067 0.696724 0.244283
Si Si8 0.338106 0.955385 0.982018
O O1 0.758403 0.247837 0.751444
O O2 0.103431 0.464341 0.639641
O O3 0.030232 0.425822 0.753203
O O4 0.831779 0.811136 0.896051
O O5 0.117507 0.615349 0.107770
O O6 0.450565 0.894138 0.052859
O O7 0.436597 0.363031 0.863351
O O8 0.262361 0.802730 0.018802
O O9 0.926721 0.525923 0.442721
O O10 0.637282 0.860415 0.621358
O O11 0.000000 0.000000 0.500000
O O12 0.565304 0.034685 0.181080
O O13 0.633438 0.468924 0.614057
O O14 0.000000 0.500000 0.500000
O O15 0.885396 0.040133 0.364834
O O16 0.739087 0.544012 0.257343
O O17 0.631675 0.295412 0.145761
#
# Coordination Sequence:
#
# PCOD8002978 Si02
#       8
#     2   2   2   2   2   2   2   2
#     4  10  20  36  61  85 115 153 196 240 285 341
#     4  10  21  37  61  88 114 150 201 247 287 337
#     4   9  18  35  60  90 114 141 189 245 289 332
#     4   9  19  37  58  85 115 150 194 239 284 342
#     4  11  22  40  65  87 114 150 193 240 288 343
#     4  11  24  39  56  84 121 154 190 235 293 352
#     4  12  24  38  57  85 119 156 192 234 292 350
#     4  10  21  38  60  87 115 151 199 248 287 337
#
# _framework density 19.657561999999999
#
# number of rings (size 3 to 8) (size 9 to 14) (size 15 to 20)
#    0.000    1.750    0.000    5.625    0.000    9.500 
#    0.000    3.750    0.000    0.000    0.000    0.000 
#    0.000    0.000    0.000    0.000    0.000    0.000 
#
# Total GULP energy -198432.060199 kJ/mol
# GULP energy per Si atom -12402.003762 kJ/mol
# Density = 1.961282 g / cm^3
# Si number density = 19.657562 Si / 1000 Ang^3
#
#
#
# Elastic Constant Matrix: (Units=GPa)
#
#
# Indices 1 2 3 4 5 6 
#
# 1 140.6729 84.8342 79.1640 -4.3263 -1.9761 -17.3240
# 2 84.8342 76.7082 51.8862 2.2589 1.1138 -5.3501
# 3 79.1640 51.8862 119.3344 -4.7822 0.7934 -6.8829
# 4 -4.3263 2.2589 -4.7822 33.0498 -10.4959 -2.4819
# 5 -1.9761 1.1138 0.7934 -10.4959 28.0265 -0.7028
# 6 -17.3240 -5.3501 -6.8829 -2.4819 -0.7028 34.6486
#
#
#
# Elastic Compliance Matrix: (Units=1/GPa)
#
#
# Indices 1 2 3 4 5 6 
#
# 1 0.028036 -0.026361 -0.006351 0.007201 0.006135 0.009326
# 2 -0.026361 0.043552 -0.002234 -0.009663 -0.007339 -0.007740
# 3 -0.006351 -0.002234 0.013568 0.001119 -0.000343 -0.000752
# 4 0.007201 -0.009663 0.001119 0.037154 0.014907 0.005295
# 5 0.006135 -0.007339 -0.000343 0.014907 0.042092 0.003788
# 6 0.009326 -0.007740 -0.000752 0.005295 0.003788 0.032636
#
#
# Mechanical properties :
#
#
# Convention : Reuss Voigt Hill
#
# Bulk Modulus (GPa) = 65.51218 85.38713 75.44965
# Shear Modulus (GPa) = 18.38108 27.20039 22.79074
#
# Velocity S-wave (km/s) = 3.06120 3.72386 3.40867
# Velocity P-wave (km/s) = 6.77448 7.87535 7.34557
#
# Compressibility (1/GPa) = 0.01526434
#
# Stress axis : x y z
#
# Youngs Moduli (GPa) = 35.66809 22.96105 73.70148
#
# Poissons Ratio (x) = 0.60527 0.46811
# Poissons Ratio (y) = 0.94024 0.16464
# Poissons Ratio (z) = 0.22654 0.05129
#
# Static dielectric constant tensor:
#      x y z
#    x 3.528710 -0.250080 0.104620 
#    y -0.250080 3.608230 -0.079210 
#    z 0.104620 -0.079210 3.999610 
# 
# 
# High freq. dielectric constant tensor:
#      x y z
#    x 1.756170 -0.021720 0.000990 
#    y -0.021720 1.761070 0.001570 
#    z 0.000990 0.001570 1.786430 
# 
# From -- ./inp_files/218311.got.cif
#   From: 2010.06.25/outbox.cif.g09.slc.cpg/sg2_110_cif.got.tgz:218311.got - 2010.06.27 13:26:56.
