data_PCOD8002035
_publ_section_title
;
Structure prediction by ZEFSAII (Michael W. Deem and Ramdas Pophale) SiO2 
 PCOD8002035
Probable space group: P -1
;
_chemical_formula_sum "Si O2"
_cell_formula_units_Z 16
_cell_length_a 9.770917
_cell_length_b 19.315492
_cell_length_c 23.128968
_cell_angle_alpha 17.754056
_cell_angle_beta 41.773165
_cell_angle_gamma 52.335470
_cell_volume 773.737099
_symmetry_space_group_name_H-M "P -1"
_symmetry_group_IT_number 2
_symmetry_cell_setting 'triclinic'
loop_
_space_group_symop_operation_xyz
x,y,z
-x,-y,-z
loop_
_atom_site_type_symbol
_atom_site_label
_atom_site_fract_x
_atom_site_fract_y
_atom_site_fract_z
Si Si1 0.472503 0.947093 0.397741
Si Si2 0.137682 0.388316 0.509892
Si Si3 0.985997 0.026981 0.312569
Si Si4 0.974166 0.177561 0.008065
Si Si5 0.340537 0.261319 0.112859
Si Si6 0.832789 0.495683 0.724001
Si Si7 0.743897 0.293231 0.224229
Si Si8 0.334689 0.424196 0.795092
O O1 0.420931 0.865385 0.544779
O O2 0.366006 0.699014 0.586602
O O3 0.754640 0.109995 0.173490
O O4 0.351646 0.118423 0.281186
O O5 0.090989 0.400165 0.447228
O O6 0.412558 0.560701 0.301097
O O7 0.000000 0.500000 0.500000
O O8 0.036578 0.088070 0.798717
O O9 0.100837 0.080815 0.297331
O O10 0.768248 0.093212 0.331416
O O11 0.177346 0.204544 0.064629
O O12 0.892181 0.729951 0.563022
O O13 0.966662 0.339062 0.826348
O O14 0.215398 0.355783 0.824240
O O15 0.552841 0.306248 0.966974
O O16 0.362167 0.536798 0.906812
O O17 0.000000 0.500000 0.000000
#
# Coordination Sequence:
#
# PCOD8002035 Si02
#       8
#     2   2   2   2   2   2   2   2
#     4  10  20  38  59  84 123 162 207 245 289 343
#     4  11  24  43  69  92 118 151 192 248 304 366
#     4  11  21  36  60  84 119 164 199 247 294 348
#     4  10  23  41  64  90 121 160 196 244 298 361
#     4  10  20  38  58  84 120 166 200 250 292 338
#     4  11  22  42  62  88 121 158 201 239 304 360
#     4  10  20  35  52  89 120 161 208 251 287 335
#     4  11  20  41  63  88 122 157 200 241 301 357
#
# _framework density 20.678858999999999
#
# number of rings (size 3 to 8) (size 9 to 14) (size 15 to 20)
#    0.000    1.500    5.000    1.500    0.000    3.500 
#    2.250    1.875    0.000    0.000    0.000    0.000 
#    0.000    0.000    0.000    0.000    0.000    0.000 
#
# Total GULP energy -198429.583620 kJ/mol
# GULP energy per Si atom -12401.848976 kJ/mol
# Density = 2.063179 g / cm^3
# Si number density = 20.678859 Si / 1000 Ang^3
#
#
#
# Elastic Constant Matrix: (Units=GPa)
#
#
# Indices 1 2 3 4 5 6 
#
# 1 111.3310 44.4626 42.7990 -17.6461 7.4246 -17.5997
# 2 44.4626 106.0258 35.8179 -19.3543 5.4921 -22.8232
# 3 42.7990 35.8179 75.8768 -20.5620 22.5754 -7.9087
# 4 -17.6461 -19.3543 -20.5620 25.3971 -5.6726 1.9055
# 5 7.4246 5.4921 22.5754 -5.6726 30.2734 -13.5230
# 6 -17.5997 -22.8232 -7.9087 1.9055 -13.5230 23.2933
#
#
#
# Elastic Compliance Matrix: (Units=1/GPa)
#
#
# Indices 1 2 3 4 5 6 
#
# 1 0.014303 -0.000145 -0.008250 0.004240 0.009212 0.012865
# 2 -0.000145 0.017752 -0.007900 0.008542 0.014200 0.022147
# 3 -0.008250 -0.007900 0.029225 0.007649 -0.025643 -0.019565
# 4 0.004240 0.008542 0.007649 0.055872 0.008727 0.014666
# 5 0.009212 0.014200 -0.025643 0.008727 0.073003 0.053835
# 6 0.012865 0.022147 -0.019565 0.014666 0.053835 0.097763
#
#
# Mechanical properties :
#
#
# Convention : Reuss Voigt Hill
#
# Bulk Modulus (GPa) = 34.85452 59.93251 47.39352
# Shear Modulus (GPa) = 15.14820 27.13639 21.14229
#
# Velocity S-wave (km/s) = 2.70949 3.62647 3.20099
# Velocity P-wave (km/s) = 5.16529 6.82499 6.05230
#
# Compressibility (1/GPa) = 0.02869068
#
# Stress axis : x y z
#
# Youngs Moduli (GPa) = 69.91395 56.33069 34.21687
#
# Poissons Ratio (x) = 0.00815 0.28230
# Poissons Ratio (y) = 0.01012 0.27031
# Poissons Ratio (z) = 0.57682 0.44501
#
# Static dielectric constant tensor:
#      x y z
#    x 3.938450 -0.262410 -0.030330 
#    y -0.262410 3.598210 -0.155760 
#    z -0.030330 -0.155760 3.958830 
# 
# 
# High freq. dielectric constant tensor:
#      x y z
#    x 1.817320 -0.014700 -0.001200 
#    y -0.014700 1.779520 -0.011280 
#    z -0.001200 -0.011280 1.818690 
# 
# From -- ./inp_files/534474.got.cif
#   From: 2010.06.25/outbox.cif.g09.slc.cpg/sg2_268_cif.got.tgz:534474.got - 2010.06.27 13:26:56.
