data_PCOD8002916
_publ_section_title
;
Structure prediction by ZEFSAII (Michael W. Deem and Ramdas Pophale) SiO2 
 PCOD8002916
Probable space group: P -1
;
_chemical_formula_sum "Si O2"
_cell_formula_units_Z 14
_cell_length_a 8.086565
_cell_length_b 17.205704
_cell_length_c 9.759923
_cell_angle_alpha 127.867966
_cell_angle_beta 127.643006
_cell_angle_gamma 93.699079
_cell_volume 603.723547
_symmetry_space_group_name_H-M "P -1"
_symmetry_group_IT_number 2
_symmetry_cell_setting 'triclinic'
loop_
_space_group_symop_operation_xyz
x,y,z
-x,-y,-z
loop_
_atom_site_type_symbol
_atom_site_label
_atom_site_fract_x
_atom_site_fract_y
_atom_site_fract_z
Si Si1 0.809823 0.383500 0.520012
Si Si2 0.186988 0.916392 0.678078
Si Si3 0.024763 0.119985 0.186663
Si Si4 0.005859 0.344153 0.840233
Si Si5 0.592825 0.148026 0.957823
Si Si6 0.866209 0.323319 0.043767
Si Si7 0.597888 0.631629 0.540209
O O1 0.505388 0.341498 0.347653
O O2 0.912950 0.395217 0.739444
O O3 0.049705 0.534603 0.734723
O O4 0.780041 0.276898 0.298256
O O5 0.959483 0.877081 0.636188
O O6 0.034141 0.774905 0.374957
O O7 0.262427 0.023497 0.715065
O O8 0.500000 0.000000 0.000000
O O9 0.317078 0.265736 0.429081
O O10 0.745012 0.091144 0.962396
O O11 0.000000 0.000000 0.000000
O O12 0.343305 0.473272 0.191274
O O13 0.801906 0.283433 0.807664
O O14 0.585119 0.200519 0.863060
O O15 0.127775 0.341405 0.247978
#
# Coordination Sequence:
#
# PCOD8002916 Si02
#       7
#     2   2   2   2   2   2   2
#     4  11  19  38  64  92 118 157 204 242 293 358
#     4  10  20  38  59  86 120 155 203 248 294 348
#     4  10  20  36  60  88 116 159 201 244 300 353
#     4  11  21  37  66  91 119 156 207 245 293 356
#     4  10  21  38  61  87 120 164 196 244 300 357
#     4  10  22  39  60  92 125 156 192 247 308 354
#     4  10  22  37  62  91 127 156 193 249 307 348
#
# _framework density 23.189419999999998
#
# number of rings (size 3 to 8) (size 9 to 14) (size 15 to 20)
#    0.000    1.714    2.857    4.714    2.000    1.143 
#    0.000    0.000    3.143    6.857    0.000    0.000 
#    0.000    0.000    0.000    0.000    0.000    0.000 
#
# Total GULP energy -173513.502309 kJ/mol
# GULP energy per Si atom -12393.821593 kJ/mol
# Density = 2.313664 g / cm^3
# Si number density = 23.189420 Si / 1000 Ang^3
#
#
#
# Elastic Constant Matrix: (Units=GPa)
#
#
# Indices 1 2 3 4 5 6 
#
# 1 81.1631 59.2125 21.4703 16.0177 -37.1704 9.7862
# 2 59.2125 192.6158 25.2490 23.8826 -16.4736 36.5457
# 3 21.4703 25.2490 46.4890 8.8878 -23.3977 -8.4630
# 4 16.0177 23.8826 8.8878 37.3984 -6.0633 -0.9639
# 5 -37.1704 -16.4736 -23.3977 -6.0633 28.2308 6.7906
# 6 9.7862 36.5457 -8.4630 -0.9639 6.7906 53.5728
#
#
#
# Elastic Compliance Matrix: (Units=1/GPa)
#
#
# Indices 1 2 3 4 5 6 
#
# 1 0.059453 -0.009934 0.024901 -0.010132 0.093888 -0.012233
# 2 -0.009934 0.009053 -0.007410 -0.002046 -0.013447 -0.003864
# 3 0.024901 -0.007410 0.049560 -0.006664 0.068210 -0.000431
# 4 -0.010132 -0.002046 -0.006664 0.031762 -0.014337 0.004582
# 5 0.093888 -0.013447 0.068210 -0.014337 0.210453 -0.024136
# 6 -0.012233 -0.003864 -0.000431 0.004582 -0.024136 0.026611
#
#
# Mechanical properties :
#
#
# Convention : Reuss Voigt Hill
#
# Bulk Modulus (GPa) = 7.50856 59.12573 33.31714
# Shear Modulus (GPa) = 12.01427 38.12947 25.07187
#
# Velocity S-wave (km/s) = 2.27863 4.05935 3.29169
# Velocity P-wave (km/s) = 3.18871 6.89371 5.37081
#
# Compressibility (1/GPa) = 0.13318136
#
# Stress axis : x y z
#
# Youngs Moduli (GPa) = 16.81987 110.45515 20.17759
#
# Poissons Ratio (x) = 1.09723 -0.50243
# Poissons Ratio (y) = 0.16708 0.14951
# Poissons Ratio (z) = -0.41883 0.81844
#
# Static dielectric constant tensor:
#      x y z
#    x 4.384340 0.688470 -0.063220 
#    y 0.688470 5.136340 0.195080 
#    z -0.063220 0.195080 3.681200 
# 
# 
# High freq. dielectric constant tensor:
#      x y z
#    x 1.911190 0.017040 -0.017230 
#    y 0.017040 1.948700 0.015300 
#    z -0.017230 0.015300 1.877200 
# 
# From -- ./inp_files/218425.got.cif
#   From: 2010.06.25/outbox.cif.g09.slc.cpg/sg2_110_cif.got.tgz:218425.got - 2010.06.27 13:26:56.
