data_PCOD8002733
_publ_section_title
;
Structure prediction by ZEFSAII (Michael W. Deem and Ramdas Pophale) SiO2 
 PCOD8002733
Probable space group: P -1
;
_chemical_formula_sum "Si O2"
_cell_formula_units_Z 14
_cell_length_a 9.240018
_cell_length_b 15.502490
_cell_length_c 7.872631
_cell_angle_alpha 131.093237
_cell_angle_beta 68.992345
_cell_angle_gamma 79.772933
_cell_volume 642.157428
_symmetry_space_group_name_H-M "P -1"
_symmetry_group_IT_number 2
_symmetry_cell_setting 'triclinic'
loop_
_space_group_symop_operation_xyz
x,y,z
-x,-y,-z
loop_
_atom_site_type_symbol
_atom_site_label
_atom_site_fract_x
_atom_site_fract_y
_atom_site_fract_z
Si Si1 0.429254 0.881862 0.726880
Si Si2 0.698075 0.817201 0.844743
Si Si3 0.693383 0.313811 0.492601
Si Si4 0.729451 0.415881 0.288654
Si Si5 0.972636 0.521587 0.240815
Si Si6 0.646035 0.370777 0.939361
Si Si7 0.371845 0.275568 0.898836
O O1 0.553205 0.837624 0.787029
O O2 0.303680 0.822085 0.720962
O O3 0.556286 0.822056 0.424868
O O4 0.287553 0.051486 0.990425
O O5 0.905817 0.676907 0.525713
O O6 0.628101 0.808459 0.049194
O O7 0.814212 0.324290 0.307419
O O8 0.780700 0.302098 0.627269
O O9 0.473437 0.457047 0.787400
O O10 0.500000 0.500000 0.500000
O O11 0.800190 0.514275 0.368365
O O12 0.792207 0.314779 0.965462
O O13 0.000000 0.500000 0.000000
O O14 0.160412 0.411921 0.125099
O O15 0.502142 0.327038 0.959456
#
# Coordination Sequence:
#
# PCOD8002733 Si02
#       7
#     2   2   2   2   2   2   2
#     4  10  21  37  61  91 123 159 207 251 289 374
#     4  11  21  37  59  89 124 168 196 245 311 365
#     4   9  17  31  53  83 109 145 199 239 284 342
#     4  10  20  36  58  86 116 159 199 247 293 364
#     4  12  25  40  62  94 131 152 200 266 313 345
#     4   9  18  31  60  85 113 152 204 247 287 352
#     4  11  22  39  62  96 122 156 203 264 303 352
#
# _framework density 21.801507999999998
#
# number of rings (size 3 to 8) (size 9 to 14) (size 15 to 20)
#    0.000    1.714    1.429    5.143    6.000    0.000 
#    0.000    0.000    0.000    4.286    0.000    0.000 
#    0.000    0.000    0.000    0.000    0.000    0.000 
#
# Total GULP energy -173501.423718 kJ/mol
# GULP energy per Si atom -12392.958837 kJ/mol
# Density = 2.175189 g / cm^3
# Si number density = 21.801508 Si / 1000 Ang^3
#
#
#
# Elastic Constant Matrix: (Units=GPa)
#
#
# Indices 1 2 3 4 5 6 
#
# 1 53.8250 34.9723 31.7809 4.8768 15.3198 2.1572
# 2 34.9723 159.1128 64.4658 -15.4565 23.4484 4.7718
# 3 31.7809 64.4658 110.5373 8.8850 23.8319 4.5784
# 4 4.8768 -15.4565 8.8850 39.1349 0.9791 11.3056
# 5 15.3198 23.4484 23.8319 0.9791 30.7422 -5.4021
# 6 2.1572 4.7718 4.5784 11.3056 -5.4021 33.7995
#
#
#
# Elastic Compliance Matrix: (Units=1/GPa)
#
#
# Indices 1 2 3 4 5 6 
#
# 1 0.025205 -0.003378 -0.003388 -0.003305 -0.007383 -0.000747
# 2 -0.003378 0.010097 -0.004607 0.006480 -0.003228 -0.003269
# 3 -0.003388 -0.004607 0.014348 -0.004345 -0.005881 -0.000564
# 4 -0.003305 0.006480 -0.004345 0.032941 -0.003018 -0.011616
# 5 -0.007383 -0.003228 -0.005881 -0.003018 0.045071 0.009937
# 6 -0.000747 -0.003269 -0.000564 -0.011616 0.009937 0.035645
#
#
# Mechanical properties :
#
#
# Convention : Reuss Voigt Hill
#
# Bulk Modulus (GPa) = 37.16906 65.10144 51.13525
# Shear Modulus (GPa) = 25.63805 33.55240 29.59523
#
# Velocity S-wave (km/s) = 3.43297 3.92726 3.68840
# Velocity P-wave (km/s) = 5.72709 7.10565 6.45329
#
# Compressibility (1/GPa) = 0.02690410
#
# Stress axis : x y z
#
# Youngs Moduli (GPa) = 39.67486 99.03954 69.69439
#
# Poissons Ratio (x) = 0.33452 0.23615
# Poissons Ratio (y) = 0.13401 0.32109
# Poissons Ratio (z) = 0.13443 0.45628
#
# Static dielectric constant tensor:
#      x y z
#    x 3.848500 -0.364260 0.579870 
#    y -0.364260 4.861480 -0.582230 
#    z 0.579870 -0.582230 4.044910 
# 
# 
# High freq. dielectric constant tensor:
#      x y z
#    x 1.843970 -0.002910 0.041750 
#    y -0.002910 1.880040 -0.029910 
#    z 0.041750 -0.029910 1.830490 
# 
# From -- ./inp_files/208886.got.cif
#   From: 2010.06.25/outbox.cif.g09.slc.cpg/sg2_105_cif.got.tgz:208886.got - 2010.06.27 13:26:56.
