data_PCOD8002253
_publ_section_title
;
Structure prediction by ZEFSAII (Michael W. Deem and Ramdas Pophale) SiO2 
 PCOD8002253
Probable space group: P -1
;
_chemical_formula_sum "Si O2"
_cell_formula_units_Z 16
_cell_length_a 8.606672
_cell_length_b 12.827510
_cell_length_c 13.166496
_cell_angle_alpha 78.402255
_cell_angle_beta 130.819490
_cell_angle_gamma 70.398347
_cell_volume 837.017052
_symmetry_space_group_name_H-M "P -1"
_symmetry_group_IT_number 2
_symmetry_cell_setting 'triclinic'
loop_
_space_group_symop_operation_xyz
x,y,z
-x,-y,-z
loop_
_atom_site_type_symbol
_atom_site_label
_atom_site_fract_x
_atom_site_fract_y
_atom_site_fract_z
Si Si1 0.052815 0.811299 0.528161
Si Si2 0.141788 0.658728 0.400663
Si Si3 0.747340 0.876369 0.754403
Si Si4 0.813713 0.141039 0.952322
Si Si5 0.550109 0.858960 0.047678
Si Si6 0.692208 0.811299 0.528161
Si Si7 0.614902 0.123631 0.245597
Si Si8 0.499189 0.341272 0.599337
O O1 0.197076 0.704002 0.519258
O O2 0.273186 0.797329 0.693138
O O3 0.898973 0.776509 0.537227
O O4 0.853851 0.962551 0.365593
O O5 0.281528 0.500000 0.500000
O O6 0.252157 0.690335 0.347324
O O7 0.832315 0.739451 0.238781
O O8 0.815762 0.797328 0.693139
O O9 0.582301 0.848125 0.756364
O O10 0.585216 0.037449 0.634406
O O11 0.018873 0.816631 0.937876
O O12 0.675922 0.122430 0.987137
O O13 0.594204 0.260549 0.761219
O O14 0.000000 0.000000 0.000000
O O15 0.540251 0.816630 0.937877
O O16 0.500000 0.000000 0.000000
O O17 0.637437 0.704002 0.519257
#
# Coordination Sequence:
#
# PCOD8002253 Si02
#       8
#     2   2   2   2   2   2   2   2
#     4  10  20  35  58  87 119 156 194 240 294 348
#     4  11  24  41  61  86 120 160 198 241 295 353
#     4  10  20  35  58  88 120 153 192 244 295 345
#     4  12  23  37  60  89 120 154 197 247 292 345
#     4  12  23  37  60  89 120 154 197 247 292 345
#     4  10  20  35  58  87 119 156 194 240 294 348
#     4  10  20  35  58  88 120 153 192 244 295 345
#     4  11  24  41  61  86 120 160 198 241 295 353
#
# _framework density 19.115500999999998
#
# number of rings (size 3 to 8) (size 9 to 14) (size 15 to 20)
#    0.000    1.250    2.500    4.500    0.000    4.000 
#    0.000    1.250    0.000    7.500    0.000    0.000 
#    0.000    0.000    0.000    0.000    0.000    0.000 
#
# Total GULP energy -198516.721365 kJ/mol
# GULP energy per Si atom -12407.295085 kJ/mol
# Density = 1.907199 g / cm^3
# Si number density = 19.115501 Si / 1000 Ang^3
#
#
#
# Elastic Constant Matrix: (Units=GPa)
#
#
# Indices 1 2 3 4 5 6 
#
# 1 59.7367 29.7049 14.9404 -5.8246 1.5288 2.4449
# 2 29.7049 106.7082 45.5894 11.6938 0.3883 1.3831
# 3 14.9404 45.5894 86.6501 16.9248 1.1745 2.0541
# 4 -5.8246 11.6938 16.9248 30.6319 0.3063 0.6246
# 5 1.5288 0.3883 1.1745 0.3063 34.8104 7.4877
# 6 2.4449 1.3831 2.0541 0.6246 7.4877 31.1716
#
#
#
# Elastic Compliance Matrix: (Units=1/GPa)
#
#
# Indices 1 2 3 4 5 6 
#
# 1 0.020865 -0.005752 -0.001954 0.007275 -0.000579 -0.001259
# 2 -0.005752 0.013717 -0.005600 -0.003243 0.000272 0.000211
# 3 -0.001954 -0.005600 0.016244 -0.007197 -0.000236 -0.000468
# 4 0.007275 -0.003243 -0.007197 0.039260 -0.000239 -0.000682
# 5 -0.000579 0.000272 -0.000236 -0.000239 0.030314 -0.007228
# 6 -0.001259 0.000211 -0.000468 -0.000682 -0.007228 0.033951
#
#
# Mechanical properties :
#
#
# Convention : Reuss Voigt Hill
#
# Bulk Modulus (GPa) = 41.30139 48.17384 44.73762
# Shear Modulus (GPa) = 26.45007 30.18011 28.31509
#
# Velocity S-wave (km/s) = 3.72384 3.97776 3.85289
# Velocity P-wave (km/s) = 6.33581 6.80830 6.57630
#
# Compressibility (1/GPa) = 0.02421226
#
# Stress axis : x y z
#
# Youngs Moduli (GPa) = 47.92742 72.90273 61.56023
#
# Poissons Ratio (x) = 0.41934 0.12032
# Poissons Ratio (y) = 0.27568 0.34476
# Poissons Ratio (z) = 0.09367 0.40828
#
# Static dielectric constant tensor:
#      x y z
#    x 3.571070 0.001230 0.010120 
#    y 0.001230 3.499310 0.154770 
#    z 0.010120 0.154770 3.574900 
# 
# 
# High freq. dielectric constant tensor:
#      x y z
#    x 1.760610 -0.000700 0.000800 
#    y -0.000700 1.733970 0.026980 
#    z 0.000800 0.026980 1.735570 
# 
# From -- ./inp_files/199603.got.cif
#   From: 2010.06.25/outbox.cif.g09.slc.cpg/sg2_100_cif.got.tgz:199603.got - 2010.06.27 13:26:56.
