data_PCOD8002040
_publ_section_title
;
Structure prediction by ZEFSAII (Michael W. Deem and Ramdas Pophale) SiO2 
 PCOD8002040
Probable space group: P -1
;
_chemical_formula_sum "Si O2"
_cell_formula_units_Z 14
_cell_length_a 12.494340
_cell_length_b 16.140527
_cell_length_c 15.354470
_cell_angle_alpha 17.954957
_cell_angle_beta 52.087484
_cell_angle_gamma 51.465314
_cell_volume 743.614026
_symmetry_space_group_name_H-M "P -1"
_symmetry_group_IT_number 2
_symmetry_cell_setting 'triclinic'
loop_
_space_group_symop_operation_xyz
x,y,z
-x,-y,-z
loop_
_atom_site_type_symbol
_atom_site_label
_atom_site_fract_x
_atom_site_fract_y
_atom_site_fract_z
Si Si1 0.773309 0.233808 0.296830
Si Si2 0.854139 0.678940 0.911550
Si Si3 0.145861 0.821060 0.123568
Si Si4 0.226691 0.266192 0.537755
Si Si5 0.964731 0.277819 0.547196
Si Si6 0.500000 0.250000 0.312470
Si Si7 0.035269 0.222181 0.067565
O O1 0.631483 0.198332 0.359817
O O2 0.881363 0.305162 0.099423
O O3 0.838476 0.956067 0.588332
O O4 0.744635 0.486381 0.127787
O O5 0.847554 0.753290 0.942947
O O6 0.000000 0.500000 0.000000
O O7 0.161524 0.543933 0.338942
O O8 0.152446 0.746710 0.297081
O O9 0.255365 0.013620 0.845183
O O10 0.000000 0.000000 0.000000
O O11 0.368517 0.301668 0.387965
O O12 0.118637 0.194838 0.591110
O O13 0.944499 0.086126 0.667838
O O14 0.944499 0.586126 0.215412
O O15 0.500000 0.000000 0.500000
O O16 0.500000 0.500000 0.000000
#
# Coordination Sequence:
#
# PCOD8002040 Si02
#       7
#     2   2   2   2   2   2   2
#     4  11  21  36  53  77 113 148 177 215 265 330
#     4  10  20  35  53  76 107 144 181 221 272 326
#     4  10  20  35  53  76 107 144 181 221 272 326
#     4  11  21  36  53  77 113 148 177 215 265 330
#     4  11  19  31  52  80 106 134 171 224 272 310
#     4  12  24  38  56  84 114 150 186 216 256 324
#     4  11  19  31  52  80 106 134 171 224 272 310
#
# _framework density 18.826972000000001
#
# number of rings (size 3 to 8) (size 9 to 14) (size 15 to 20)
#    0.000    1.143    0.000   12.000    0.000    0.000 
#    0.000    0.000    0.000    0.000    0.000   20.000 
#    0.000    0.000    0.000    0.000    0.000    0.000 
#
# Total GULP energy -173586.929260 kJ/mol
# GULP energy per Si atom -12399.066376 kJ/mol
# Density = 1.878412 g / cm^3
# Si number density = 18.826972 Si / 1000 Ang^3
#
#
#
# Elastic Constant Matrix: (Units=GPa)
#
#
# Indices 1 2 3 4 5 6 
#
# 1 95.6885 45.0878 37.6763 3.6688 -11.0096 18.5201
# 2 45.0878 92.3133 41.9023 3.6560 -9.3031 16.6884
# 3 37.6763 41.9023 141.1974 8.4987 3.1859 9.8879
# 4 3.6688 3.6560 8.4987 44.7815 13.5647 -8.0309
# 5 -11.0096 -9.3031 3.1859 13.5647 35.8352 -5.2160
# 6 18.5201 16.6884 9.8879 -8.0309 -5.2160 20.9731
#
#
#
# Elastic Compliance Matrix: (Units=1/GPa)
#
#
# Indices 1 2 3 4 5 6 
#
# 1 0.015860 -0.004512 -0.002084 -0.003434 0.003758 -0.009813
# 2 -0.004512 0.016195 -0.002961 -0.002687 0.002963 -0.007798
# 3 -0.002084 -0.002961 0.008654 -0.000745 -0.001993 -0.000664
# 4 -0.003434 -0.002687 -0.000745 0.028644 -0.010509 0.013876
# 5 0.003758 0.002963 -0.001993 -0.010509 0.033938 -0.000321
# 6 -0.009813 -0.007798 -0.000664 0.013876 -0.000321 0.068097
#
#
# Mechanical properties :
#
#
# Convention : Reuss Voigt Hill
#
# Bulk Modulus (GPa) = 46.30754 64.28132 55.29443
# Shear Modulus (GPa) = 25.29062 33.95347 29.62205
#
# Velocity S-wave (km/s) = 3.66911 4.25131 3.97089
# Velocity P-wave (km/s) = 6.52684 7.63646 7.10335
#
# Compressibility (1/GPa) = 0.02159475
#
# Stress axis : x y z
#
# Youngs Moduli (GPa) = 63.05008 61.74595 115.55978
#
# Poissons Ratio (x) = 0.27859 0.24084
# Poissons Ratio (y) = 0.28447 0.34221
# Poissons Ratio (z) = 0.13140 0.18285
#
# Static dielectric constant tensor:
#      x y z
#    x 3.545340 0.388710 -0.138110 
#    y 0.388710 3.569590 0.099150 
#    z -0.138110 0.099150 3.996810 
# 
# 
# High freq. dielectric constant tensor:
#      x y z
#    x 1.705270 0.032430 -0.001890 
#    y 0.032430 1.716150 -0.005830 
#    z -0.001890 -0.005830 1.763380 
# 
# From -- ./inp_files/433894.got.cif
#   From: 2010.06.25/outbox.cif.g09.slc.cpg/sg2_217_cif.got.tgz:433894.got - 2010.06.27 13:26:56.
