data_PCOD8002396
_publ_section_title
;
Structure prediction by ZEFSAII (Michael W. Deem and Ramdas Pophale) SiO2 
 PCOD8002396
Probable space group: P -1
;
_chemical_formula_sum "Si O2"
_cell_formula_units_Z 16
_cell_length_a 17.368567
_cell_length_b 8.989721
_cell_length_c 9.988903
_cell_angle_alpha 99.800439
_cell_angle_beta 73.018175
_cell_angle_gamma 149.603790
_cell_volume 743.903417
_symmetry_space_group_name_H-M "P -1"
_symmetry_group_IT_number 2
_symmetry_cell_setting 'triclinic'
loop_
_space_group_symop_operation_xyz
x,y,z
-x,-y,-z
loop_
_atom_site_type_symbol
_atom_site_label
_atom_site_fract_x
_atom_site_fract_y
_atom_site_fract_z
Si Si1 0.500894 0.402401 0.352604
Si Si2 0.631155 0.381048 0.888271
Si Si3 0.256457 0.150265 0.242423
Si Si4 0.309158 0.806675 0.316201
Si Si5 0.860937 0.608151 0.026014
Si Si6 0.285135 0.905015 0.066688
Si Si7 0.996480 0.163916 0.476914
Si Si8 0.146958 0.123126 0.780256
O O1 0.500000 0.500000 0.500000
O O2 0.415458 0.355512 0.270362
O O3 0.678729 0.661001 0.252128
O O4 0.417338 0.105667 0.382294
O O5 0.727171 0.656166 0.793198
O O6 0.585178 0.166181 0.781712
O O7 0.745181 0.507091 0.965924
O O8 0.475192 0.202426 0.002767
O O9 0.230101 0.991019 0.106567
O O10 0.109005 0.905056 0.381298
O O11 0.231476 0.756912 0.216783
O O12 0.169795 0.521189 0.440245
O O13 0.800663 0.338109 0.039005
O O14 0.855357 0.695761 0.180046
O O15 0.039064 0.887856 0.920753
O O16 0.919015 0.039860 0.351389
O O17 0.000000 0.000000 0.500000
#
# Coordination Sequence:
#
# PCOD8002396 Si02
#       8
#     2   2   2   2   2   2   2   2
#     4  11  23  39  58  93 127 165 202 250 308 367
#     4  11  19  39  63  93 123 158 212 257 303 366
#     4  11  23  37  63  92 128 163 199 256 316 364
#     4  10  21  38  64  91 116 167 212 246 302 370
#     4  10  20  37  64  91 114 164 210 253 303 356
#     4  10  20  35  60  95 121 155 210 254 302 369
#     4  12  22  42  65  92 125 161 213 254 304 372
#     4  11  21  38  63  88 128 159 204 254 304 367
#
# _framework density 21.508168999999999
#
# number of rings (size 3 to 8) (size 9 to 14) (size 15 to 20)
#    0.000    1.250    5.000    4.125    0.000    3.000 
#    0.000    3.750    0.000   12.000    0.000    0.000 
#    0.000    0.000    0.000    0.000    0.000    0.000 
#
# Total GULP energy -198357.805593 kJ/mol
# GULP energy per Si atom -12397.362850 kJ/mol
# Density = 2.145921 g / cm^3
# Si number density = 21.508169 Si / 1000 Ang^3
#
#
#
# Elastic Constant Matrix: (Units=GPa)
#
#
# Indices 1 2 3 4 5 6 
#
# 1 44.2966 15.9116 19.5852 2.6999 -16.4466 -11.0458
# 2 15.9116 102.8449 42.9405 7.3926 -18.4458 -10.9461
# 3 19.5852 42.9405 95.6747 -4.0338 -33.1148 -3.5050
# 4 2.6999 7.3926 -4.0338 44.1563 -4.8558 -16.0518
# 5 -16.4466 -18.4458 -33.1148 -4.8558 34.6896 -2.0519
# 6 -11.0458 -10.9461 -3.5050 -16.0518 -2.0519 35.7977
#
#
#
# Elastic Compliance Matrix: (Units=1/GPa)
#
#
# Indices 1 2 3 4 5 6 
#
# 1 0.031624 -0.001121 0.000193 0.004525 0.015947 0.012377
# 2 -0.001121 0.012555 -0.004881 -0.001429 0.001431 0.002457
# 3 0.000193 -0.004881 0.018633 0.005715 0.016314 0.003889
# 4 0.004525 -0.001429 0.005715 0.030171 0.011995 0.015735
# 5 0.015947 0.001431 0.016314 0.011995 0.055318 0.015505
# 6 0.012377 0.002457 0.003889 0.015735 0.015505 0.040830
#
#
# Mechanical properties :
#
#
# Convention : Reuss Voigt Hill
#
# Bulk Modulus (GPa) = 19.53308 44.41010 31.97159
# Shear Modulus (GPa) = 22.95557 33.88731 28.42144
#
# Velocity S-wave (km/s) = 3.27049 3.97363 3.63909
# Velocity P-wave (km/s) = 4.83352 6.46110 5.70564
#
# Compressibility (1/GPa) = 0.05119522
#
# Stress axis : x y z
#
# Youngs Moduli (GPa) = 31.62190 79.64679 53.66856
#
# Poissons Ratio (x) = 0.08929 -0.01037
# Poissons Ratio (y) = 0.03545 0.26193
# Poissons Ratio (z) = -0.00611 0.38872
#
# Static dielectric constant tensor:
#      x y z
#    x 3.684040 -0.268620 -0.398870 
#    y -0.268620 4.270660 0.188600 
#    z -0.398870 0.188600 4.113400 
# 
# 
# High freq. dielectric constant tensor:
#      x y z
#    x 1.815360 -0.013240 -0.035080 
#    y -0.013240 1.853410 -0.000370 
#    z -0.035080 -0.000370 1.848730 
# 
# From -- ./inp_files/176518.got.cif
#   From: 2010.06.25/outbox.cif.g09.slc.cpg/sg2_89_cif.got.tgz:176518.got - 2010.06.27 13:26:56.
