data_PCOD8002365
_publ_section_title
;
Structure prediction by ZEFSAII (Michael W. Deem and Ramdas Pophale) SiO2 
 PCOD8002365
Probable space group: P -1
;
_chemical_formula_sum "Si O2"
_cell_formula_units_Z 14
_cell_length_a 14.499493
_cell_length_b 8.176872
_cell_length_c 8.434949
_cell_angle_alpha 125.517182
_cell_angle_beta 65.381164
_cell_angle_gamma 128.011317
_cell_volume 638.625155
_symmetry_space_group_name_H-M "P -1"
_symmetry_group_IT_number 2
_symmetry_cell_setting 'triclinic'
loop_
_space_group_symop_operation_xyz
x,y,z
-x,-y,-z
loop_
_atom_site_type_symbol
_atom_site_label
_atom_site_fract_x
_atom_site_fract_y
_atom_site_fract_z
Si Si1 0.585230 0.676738 0.214220
Si Si2 0.050951 0.838985 0.920857
Si Si3 0.632850 0.351602 0.511938
Si Si4 0.409295 0.735774 0.873074
Si Si5 0.222607 0.860314 0.564473
Si Si6 0.188099 0.560768 0.132480
Si Si7 0.741295 0.742022 0.869972
O O1 0.482712 0.738752 0.345369
O O2 0.545867 0.421173 0.163670
O O3 0.701942 0.858787 0.332293
O O4 0.620585 0.704799 0.017238
O O5 0.099918 0.774911 0.694033
O O6 0.944702 0.596736 0.930918
O O7 0.157433 0.984038 0.052918
O O8 0.000000 0.000000 0.000000
O O9 0.593851 0.308826 0.335723
O O10 0.699804 0.218342 0.435155
O O11 0.715110 0.629681 0.649942
O O12 0.279162 0.671724 0.985905
O O13 0.500000 0.000000 0.000000
O O14 0.196186 0.767032 0.352007
O O15 0.217204 0.398888 0.128052
#
# Coordination Sequence:
#
# PCOD8002365 Si02
#       7
#     2   2   2   2   2   2   2
#     4  10  20  37  58  82 113 151 187 227 279 335
#     4   9  17  34  59  84 109 142 188 235 273 325
#     4  11  21  35  55  85 119 148 182 233 278 325
#     4  11  24  39  55  81 116 153 187 224 279 341
#     4  10  20  35  60  89 109 142 191 234 276 326
#     4   9  18  35  56  79 111 148 184 224 272 329
#     4   8  18  33  56  84 108 142 190 231 271 319
#
# _framework density 21.922093
#
# number of rings (size 3 to 8) (size 9 to 14) (size 15 to 20)
#    0.000    2.286    0.000    3.429    0.000    4.571 
#    0.000    1.429    0.000    0.000    0.000    0.000 
#    0.000    0.000    0.000    0.000    0.000    0.000 
#
# Total GULP energy -173537.605000 kJ/mol
# GULP energy per Si atom -12395.543214 kJ/mol
# Density = 2.187220 g / cm^3
# Si number density = 21.922093 Si / 1000 Ang^3
#
#
#
# Elastic Constant Matrix: (Units=GPa)
#
#
# Indices 1 2 3 4 5 6 
#
# 1 66.6341 32.0035 42.1101 -6.8271 -10.1341 15.6345
# 2 32.0035 104.4909 46.7033 10.1884 -0.8765 27.4694
# 3 42.1101 46.7033 157.9253 7.4682 4.6329 17.7453
# 4 -6.8271 10.1884 7.4682 29.2856 12.7501 -6.6640
# 5 -10.1341 -0.8765 4.6329 12.7501 47.8625 -1.6011
# 6 15.6345 27.4694 17.7453 -6.6640 -1.6011 24.1647
#
#
#
# Elastic Compliance Matrix: (Units=1/GPa)
#
#
# Indices 1 2 3 4 5 6 
#
# 1 0.021883 -0.003875 -0.004480 0.004955 0.003513 -0.004864
# 2 -0.003875 0.017891 -0.001500 -0.012268 0.002253 -0.019962
# 3 -0.004480 -0.001500 0.008400 -0.002708 -0.001148 -0.002388
# 4 0.004955 -0.012268 -0.002708 0.051295 -0.011705 0.026099
# 5 0.003513 0.002253 -0.001148 -0.011705 0.024721 -0.005581
# 6 -0.004864 -0.019962 -0.002388 0.026099 -0.005581 0.075803
#
#
# Mechanical properties :
#
#
# Convention : Reuss Voigt Hill
#
# Bulk Modulus (GPa) = 35.13295 63.40935 49.27115
# Shear Modulus (GPa) = 21.81590 34.14479 27.98035
#
# Velocity S-wave (km/s) = 3.15803 3.95086 3.57649
# Velocity P-wave (km/s) = 5.41836 7.05692 6.29121
#
# Compressibility (1/GPa) = 0.02846331
#
# Stress axis : x y z
#
# Youngs Moduli (GPa) = 45.69791 55.89533 119.04199
#
# Poissons Ratio (x) = 0.21659 0.53329
# Poissons Ratio (y) = 0.17708 0.17861
# Poissons Ratio (z) = 0.20472 0.08387
#
# Static dielectric constant tensor:
#      x y z
#    x 3.790360 0.620080 -0.121340 
#    y 0.620080 4.080060 0.381520 
#    z -0.121340 0.381520 4.323120 
# 
# 
# High freq. dielectric constant tensor:
#      x y z
#    x 1.839960 0.039400 -0.015980 
#    y 0.039400 1.843800 0.025930 
#    z -0.015980 0.025930 1.881800 
# 
# From -- ./inp_files/188174.got.cif
#   From: 2010.06.25/outbox.cif.g09.slc.cpg/sg2_95_cif.got.tgz:188174.got - 2010.06.27 13:26:56.
