data_PCOD8002066
_publ_section_title
;
Structure prediction by ZEFSAII (Michael W. Deem and Ramdas Pophale) SiO2 
 PCOD8002066
Probable space group: P -1
;
_chemical_formula_sum "Si O2"
_cell_formula_units_Z 16
_cell_length_a 12.461770
_cell_length_b 12.068866
_cell_length_c 21.368120
_cell_angle_alpha 29.096215
_cell_angle_beta 45.519571
_cell_angle_gamma 35.828737
_cell_volume 914.451076
_symmetry_space_group_name_H-M "P -1"
_symmetry_group_IT_number 2
_symmetry_cell_setting 'triclinic'
loop_
_space_group_symop_operation_xyz
x,y,z
-x,-y,-z
loop_
_atom_site_type_symbol
_atom_site_label
_atom_site_fract_x
_atom_site_fract_y
_atom_site_fract_z
Si Si1 0.033598 0.742871 0.317882
Si Si2 0.081939 0.639940 0.485703
Si Si3 0.133609 0.918131 0.892396
Si Si4 0.874895 0.423770 0.831981
Si Si5 0.872029 0.933619 0.550873
Si Si6 0.504575 0.256833 0.229109
Si Si7 0.545855 0.700752 0.638124
Si Si8 0.509125 0.714157 0.510267
O O1 0.011518 0.827181 0.358593
O O2 0.238987 0.499289 0.338462
O O3 0.906841 0.637497 0.400672
O O4 0.967415 0.009207 0.169790
O O5 0.288754 0.537415 0.472491
O O6 0.940137 0.822763 0.507488
O O7 0.346657 0.791370 0.857847
O O8 0.110965 0.695523 0.045577
O O9 0.047923 0.195414 0.832517
O O10 0.875264 0.695893 0.705759
O O11 0.690954 0.488630 0.842393
O O12 0.666513 0.222624 0.488809
O O13 0.000000 0.000000 0.500000
O O14 0.547337 0.322666 0.249208
O O15 0.493291 0.998171 0.371572
O O16 0.489048 0.630731 0.630648
O O17 0.500000 0.000000 0.500000
#
# Coordination Sequence:
#
# PCOD8002066 Si02
#       8
#     2   2   2   2   2   2   2   2
#     4  10  17  29  50  78 106 127 156 200 256 301
#     4  10  18  31  49  77 102 125 163 201 252 299
#     4  11  19  30  50  73 106 136 154 197 251 307
#     4  10  21  34  45  72 107 131 170 197 240 304
#     4  11  22  36  52  70  98 135 173 208 241 285
#     4  10  16  28  46  72 103 132 155 191 253 304
#     4   9  16  25  43  73 106 128 152 199 250 303
#     4   9  18  29  47  72  99 125 161 207 246 287
#
# _framework density 17.496835000000001
#
# number of rings (size 3 to 8) (size 9 to 14) (size 15 to 20)
#    0.000    2.000    3.750    1.875    3.500    0.500 
#    0.000    0.000    0.000    0.750    0.000    1.750 
#    0.000    0.000    0.000    0.000    0.000    0.000 
#
# Total GULP energy -198243.214144 kJ/mol
# GULP energy per Si atom -12390.200884 kJ/mol
# Density = 1.745701 g / cm^3
# Si number density = 17.496835 Si / 1000 Ang^3
#
#
#
# Elastic Constant Matrix: (Units=GPa)
#
#
# Indices 1 2 3 4 5 6 
#
# 1 83.0005 24.0424 42.0811 3.4975 9.0226 -19.6130
# 2 24.0424 71.0286 27.8165 16.9753 3.6574 -15.9262
# 3 42.0811 27.8165 91.8344 13.3244 26.4835 -2.0543
# 4 3.4975 16.9753 13.3244 22.3849 2.3760 4.6775
# 5 9.0226 3.6574 26.4835 2.3760 23.1889 1.4739
# 6 -19.6130 -15.9262 -2.0543 4.6775 1.4739 24.5913
#
#
#
# Elastic Compliance Matrix: (Units=1/GPa)
#
#
# Indices 1 2 3 4 5 6 
#
# 1 0.020302 0.000747 -0.009501 -0.001653 0.001981 0.016078
# 2 0.000747 0.025233 -0.005290 -0.020612 0.002595 0.020260
# 3 -0.009501 -0.005290 0.023589 -0.004839 -0.021480 -0.006825
# 4 -0.001653 -0.020612 -0.004839 0.068942 0.004164 -0.028434
# 5 0.001981 0.002595 -0.021480 0.004164 0.066258 -0.003296
# 6 0.016078 0.020260 -0.006825 -0.028434 -0.003296 0.071645
#
#
# Mechanical properties :
#
#
# Convention : Reuss Voigt Hill
#
# Bulk Modulus (GPa) = 24.36898 48.19374 36.28136
# Shear Modulus (GPa) = 15.73631 24.16126 19.94879
#
# Velocity S-wave (km/s) = 3.00222 3.72007 3.38025
# Velocity P-wave (km/s) = 5.09663 6.78645 6.00132
#
# Compressibility (1/GPa) = 0.04103577
#
# Stress axis : x y z
#
# Youngs Moduli (GPa) = 49.25525 39.63072 42.39273
#
# Poissons Ratio (x) = -0.02959 0.40278
# Poissons Ratio (y) = -0.03678 0.22425
# Poissons Ratio (z) = 0.46799 0.20964
#
# Static dielectric constant tensor:
#      x y z
#    x 3.198120 -0.212370 0.546780 
#    y -0.212370 3.418460 0.232010 
#    z 0.546780 0.232010 3.201870 
# 
# 
# High freq. dielectric constant tensor:
#      x y z
#    x 1.643380 -0.028710 0.054170 
#    y -0.028710 1.687860 0.021110 
#    z 0.054170 0.021110 1.645490 
# 
# From -- ./inp_files/285576.got.cif
#   From: 2010.06.25/outbox.cif.g09.slc.cpg/sg2_143_cif.got.tgz:285576.got - 2010.06.27 13:26:56.
