data_PCOD8002648
_publ_section_title
;
Structure prediction by ZEFSAII (Michael W. Deem and Ramdas Pophale) SiO2 
 PCOD8002648
Probable space group: P -1
;
_chemical_formula_sum "Si O2"
_cell_formula_units_Z 16
_cell_length_a 12.343635
_cell_length_b 8.573823
_cell_length_c 11.632400
_cell_angle_alpha 129.529034
_cell_angle_beta 55.186609
_cell_angle_gamma 125.965370
_cell_volume 729.213530
_symmetry_space_group_name_H-M "P -1"
_symmetry_group_IT_number 2
_symmetry_cell_setting 'triclinic'
loop_
_space_group_symop_operation_xyz
x,y,z
-x,-y,-z
loop_
_atom_site_type_symbol
_atom_site_label
_atom_site_fract_x
_atom_site_fract_y
_atom_site_fract_z
Si Si1 0.103939 0.279925 0.611746
Si Si2 0.692701 0.374635 0.186754
Si Si3 0.427771 0.277407 0.610131
Si Si4 0.157194 0.945874 0.590804
Si Si5 0.657947 0.338145 0.682005
Si Si6 0.193494 0.826781 0.161636
Si Si7 0.546214 0.991587 0.748953
Si Si8 0.145822 0.220420 0.293212
O O1 0.207530 0.494434 0.710803
O O2 0.118258 0.062000 0.555284
O O3 0.146693 0.300475 0.462217
O O4 0.944095 0.274067 0.722245
O O5 0.573951 0.480558 0.280363
O O6 0.606889 0.126075 0.157911
O O7 0.784046 0.367411 0.015638
O O8 0.273284 0.126439 0.683898
O O9 0.561593 0.271481 0.595981
O O10 0.430784 0.175303 0.435717
O O11 0.219520 0.762575 0.434362
O O12 0.009774 0.826356 0.689969
O O13 0.734671 0.595923 0.765829
O O14 0.554878 0.223405 0.797043
O O15 0.331679 0.960866 0.210405
O O16 0.173858 0.998044 0.162991
#
# Coordination Sequence:
#
# PCOD8002648 Si02
#       8
#     2   2   2   2   2   2   2   2
#     4  10  20  37  61  84 107 139 183 230 274 322
#     4  11  22  37  57  82 112 146 181 224 274 323
#     4  10  20  36  57  83 109 142 184 227 269 322
#     4   9  18  32  54  83 109 134 175 228 270 311
#     4  11  21  34  56  85 111 142 184 227 267 318
#     4  11  22  38  57  83 112 143 181 227 275 324
#     4  11  21  37  57  81 111 146 184 226 267 320
#     4  11  20  35  59  85 109 142 182 225 272 324
#
# _framework density 21.941447
#
# number of rings (size 3 to 8) (size 9 to 14) (size 15 to 20)
#    0.000    1.500    0.000    9.750    0.000    0.000 
#    0.000    2.500    0.000    0.000    0.000   15.750 
#    0.000    0.000    0.000    0.000    0.000    0.000 
#
# Total GULP energy -198280.517295 kJ/mol
# GULP energy per Si atom -12392.532331 kJ/mol
# Density = 2.189151 g / cm^3
# Si number density = 21.941447 Si / 1000 Ang^3
#
#
#
# Elastic Constant Matrix: (Units=GPa)
#
#
# Indices 1 2 3 4 5 6 
#
# 1 93.1050 20.6260 22.9493 2.0145 1.0905 21.3625
# 2 20.6260 104.6562 -3.2271 -3.4955 -3.3895 9.7207
# 3 22.9493 -3.2271 60.1544 -3.1625 -8.3236 -3.8742
# 4 2.0145 -3.4955 -3.1625 14.5241 2.2343 -3.0720
# 5 1.0905 -3.3895 -8.3236 2.2343 11.8728 6.4983
# 6 21.3625 9.7207 -3.8742 -3.0720 6.4983 32.3647
#
#
#
# Elastic Compliance Matrix: (Units=1/GPa)
#
#
# Indices 1 2 3 4 5 6 
#
# 1 0.015791 -0.002513 -0.007211 -0.006765 0.000186 -0.011211
# 2 -0.002513 0.010575 0.002276 0.002057 0.005654 -0.002185
# 3 -0.007211 0.002276 0.021890 0.005249 0.013181 0.004548
# 4 -0.006765 0.002057 0.005249 0.077497 -0.018168 0.015480
# 5 0.000186 0.005654 0.013181 -0.018168 0.111852 -0.024426
# 6 -0.011211 -0.002185 0.004548 0.015480 -0.024426 0.045872
#
#
# Mechanical properties :
#
#
# Convention : Reuss Voigt Hill
#
# Bulk Modulus (GPa) = 29.97650 37.62355 33.80002
# Shear Modulus (GPa) = 16.15540 26.25680 21.20610
#
# Velocity S-wave (km/s) = 2.71642 3.46305 3.11221
# Velocity P-wave (km/s) = 4.85080 5.75976 5.32471
#
# Compressibility (1/GPa) = 0.03335947
#
# Stress axis : x y z
#
# Youngs Moduli (GPa) = 63.32589 94.55932 45.68320
#
# Poissons Ratio (x) = 0.23765 0.32944
# Poissons Ratio (y) = 0.15915 -0.10397
# Poissons Ratio (z) = 0.45666 -0.21521
#
# Static dielectric constant tensor:
#      x y z
#    x 4.124300 0.300670 -0.191060 
#    y 0.300670 4.444670 -0.029860 
#    z -0.191060 -0.029860 3.594140 
# 
# 
# High freq. dielectric constant tensor:
#      x y z
#    x 1.872080 0.025530 -0.012350 
#    y 0.025530 1.866110 0.013300 
#    z -0.012350 0.013300 1.818330 
# 
# From -- ./inp_files/418388.got.cif
#   From: 2010.06.25/outbox.cif.g09.slc.cpg/sg2_210_cif.got.tgz:418388.got - 2010.06.27 13:26:56.
