data_PCOD8002297
_publ_section_title
;
Structure prediction by ZEFSAII (Michael W. Deem and Ramdas Pophale) SiO2 
 PCOD8002297
Probable space group: P -1
;
_chemical_formula_sum "Si O2"
_cell_formula_units_Z 14
_cell_length_a 8.846095
_cell_length_b 21.505819
_cell_length_c 8.683249
_cell_angle_alpha 60.894991
_cell_angle_beta 99.360404
_cell_angle_gamma 48.353451
_cell_volume 720.436429
_symmetry_space_group_name_H-M "P -1"
_symmetry_group_IT_number 2
_symmetry_cell_setting 'triclinic'
loop_
_space_group_symop_operation_xyz
x,y,z
-x,-y,-z
loop_
_atom_site_type_symbol
_atom_site_label
_atom_site_fract_x
_atom_site_fract_y
_atom_site_fract_z
Si Si1 0.493786 0.691791 0.004452
Si Si2 0.355634 0.167806 0.514521
Si Si3 0.883678 0.884110 0.512698
Si Si4 0.676104 0.096811 0.375207
Si Si5 0.941193 0.576090 0.756422
Si Si6 0.360169 0.792053 0.194871
Si Si7 0.202719 0.013465 0.936050
O O1 0.442915 0.712312 0.154566
O O2 0.790509 0.530197 0.197139
O O3 0.560088 0.747109 0.897305
O O4 0.207862 0.770574 0.778201
O O5 0.212937 0.157686 0.414191
O O6 0.624937 0.098592 0.544477
O O7 0.086399 0.332236 0.296752
O O8 0.498602 0.084804 0.799708
O O9 0.884390 0.894019 0.317689
O O10 0.631463 0.040181 0.347456
O O11 0.000000 0.000000 0.500000
O O12 0.633198 0.678178 0.497568
O O13 0.000000 0.500000 0.000000
O O14 0.075463 0.870906 0.133169
O O15 0.266447 0.910690 0.992515
#
# Coordination Sequence:
#
# PCOD8002297 Si02
#       7
#     2   2   2   2   2   2   2
#     4  11  21  38  59  85 118 156 195 233 283 343
#     4  11  23  38  57  90 120 152 188 237 300 342
#     4  11  22  36  61  87 121 151 185 244 295 345
#     4  10  20  35  59  85 112 149 191 236 285 339
#     4  11  22  38  61  84 115 155 200 236 278 346
#     4  10  21  35  61  88 112 151 198 247 280 333
#     4  10  20  35  59  88 117 147 195 244 292 335
#
# _framework density 19.432665
#
# number of rings (size 3 to 8) (size 9 to 14) (size 15 to 20)
#    0.000    1.429    2.857    3.857    8.000    0.571 
#    0.000    0.000    0.000    1.714    0.000    0.000 
#    0.000    0.000    0.000    0.000    0.000    0.000 
#
# Total GULP energy -173535.517825 kJ/mol
# GULP energy per Si atom -12395.394130 kJ/mol
# Density = 1.938844 g / cm^3
# Si number density = 19.432665 Si / 1000 Ang^3
#
#
#
# Elastic Constant Matrix: (Units=GPa)
#
#
# Indices 1 2 3 4 5 6 
#
# 1 82.1741 54.9979 37.3122 -10.7320 -2.0379 15.4187
# 2 54.9979 135.5054 34.3086 -9.2820 -2.6696 1.3513
# 3 37.3122 34.3086 92.0855 3.4507 -2.7403 4.7021
# 4 -10.7320 -9.2820 3.4507 31.3607 -3.8347 -1.3467
# 5 -2.0379 -2.6696 -2.7403 -3.8347 18.3935 2.2437
# 6 15.4187 1.3513 4.7021 -1.3467 2.2437 31.7302
#
#
#
# Elastic Compliance Matrix: (Units=1/GPa)
#
#
# Indices 1 2 3 4 5 6 
#
# 1 0.022231 -0.006902 -0.006091 0.006193 0.003011 -0.009556
# 2 -0.006902 0.010570 -0.001329 0.001098 0.000420 0.003118
# 3 -0.006091 -0.001329 0.013940 -0.003943 0.000294 0.000762
# 4 0.006193 0.001098 -0.003943 0.035663 0.007878 -0.001515
# 5 0.003011 0.000420 0.000294 0.007878 0.057085 -0.005227
# 6 -0.009556 0.003118 0.000762 -0.001515 -0.005227 0.036219
#
#
# Mechanical properties :
#
#
# Convention : Reuss Voigt Hill
#
# Bulk Modulus (GPa) = 55.25779 62.55583 58.90681
# Shear Modulus (GPa) = 23.76596 28.50663 26.13630
#
# Velocity S-wave (km/s) = 3.50092 3.83423 3.67136
# Velocity P-wave (km/s) = 6.69621 7.20157 6.95348
#
# Compressibility (1/GPa) = 0.01809700
#
# Stress axis : x y z
#
# Youngs Moduli (GPa) = 44.98283 94.60680 71.73477
#
# Poissons Ratio (x) = 0.65297 0.43692
# Poissons Ratio (y) = 0.31047 0.09536
# Poissons Ratio (z) = 0.27398 0.12577
#
# Static dielectric constant tensor:
#      x y z
#    x 3.384650 0.106320 -0.158930 
#    y 0.106320 3.861930 -0.142260 
#    z -0.158930 -0.142260 3.567060 
# 
# 
# High freq. dielectric constant tensor:
#      x y z
#    x 1.733290 -0.002700 -0.003250 
#    y -0.002700 1.773190 0.006690 
#    z -0.003250 0.006690 1.748160 
# 
# From -- ./inp_files/169713.got.cif
#   From: 2010.06.25/outbox.cif.g09.slc.cpg/sg2_85_cif.got.tgz:169713.got - 2010.06.27 13:26:56.
