data_PCOD8002864
_publ_section_title
;
Structure prediction by ZEFSAII (Michael W. Deem and Ramdas Pophale) SiO2 
 PCOD8002864
Probable space group: P -1
;
_chemical_formula_sum "Si O2"
_cell_formula_units_Z 14
_cell_length_a 16.279968
_cell_length_b 9.757692
_cell_length_c 14.490640
_cell_angle_alpha 137.293077
_cell_angle_beta 27.918168
_cell_angle_gamma 118.989514
_cell_volume 625.055363
_symmetry_space_group_name_H-M "P -1"
_symmetry_group_IT_number 2
_symmetry_cell_setting 'triclinic'
loop_
_space_group_symop_operation_xyz
x,y,z
-x,-y,-z
loop_
_atom_site_type_symbol
_atom_site_label
_atom_site_fract_x
_atom_site_fract_y
_atom_site_fract_z
Si Si1 0.945711 0.764291 0.200083
Si Si2 0.267820 0.935831 0.278225
Si Si3 0.580099 0.056656 0.590720
Si Si4 0.010854 0.706944 0.414735
Si Si5 0.359163 0.152124 0.043241
Si Si6 0.624298 0.642515 0.223134
Si Si7 0.635078 0.314704 0.198354
O O1 0.803590 0.850041 0.473162
O O2 0.814894 0.939849 0.332942
O O3 0.000000 0.500000 0.000000
O O4 0.134613 0.797710 0.049142
O O5 0.178231 0.056740 0.328331
O O6 0.181541 0.766400 0.308654
O O7 0.515134 0.796288 0.977056
O O8 0.562778 0.841642 0.459696
O O9 0.532309 0.247669 0.652915
O O10 0.414520 0.192684 0.904487
O O11 0.886350 0.671874 0.604515
O O12 0.138525 0.474638 0.107788
O O13 0.426344 0.878733 0.845465
O O14 0.606258 0.432184 0.183301
O O15 0.500000 0.500000 0.500000
#
# Coordination Sequence:
#
# PCOD8002864 Si02
#       7
#     2   2   2   2   2   2   2
#     4  11  18  37  62  92 119 164 208 254 305 365
#     4  10  20  36  59  95 127 159 206 264 306 356
#     4  10  23  41  63  89 128 164 202 257 321 363
#     4  11  20  37  63  91 128 164 205 257 313 366
#     4  11  22  38  65  95 123 161 218 256 296 377
#     4  11  22  40  63  90 128 167 197 260 323 365
#     4  12  20  36  66  94 119 159 216 253 303 366
#
# _framework density 22.398015999999998
#
# number of rings (size 3 to 8) (size 9 to 14) (size 15 to 20)
#    0.000    1.143    5.714    2.143    0.000    0.571 
#    0.000    3.571    6.286    0.000    0.000    0.000 
#    0.000    0.000    0.000    0.000    0.000    0.000 
#
# Total GULP energy -173495.520205 kJ/mol
# GULP energy per Si atom -12392.537157 kJ/mol
# Density = 2.234704 g / cm^3
# Si number density = 22.398016 Si / 1000 Ang^3
#
#
#
# Elastic Constant Matrix: (Units=GPa)
#
#
# Indices 1 2 3 4 5 6 
#
# 1 114.7001 41.4456 22.0275 -14.8852 -22.8162 -13.3852
# 2 41.4456 55.3969 14.4619 -15.8036 -18.2165 2.7430
# 3 22.0275 14.4619 91.0855 -16.7822 0.6401 -8.4402
# 4 -14.8852 -15.8036 -16.7822 29.5852 4.1160 -4.8058
# 5 -22.8162 -18.2165 0.6401 4.1160 40.9594 0.5785
# 6 -13.3852 2.7430 -8.4402 -4.8058 0.5785 38.4470
#
#
#
# Elastic Compliance Matrix: (Units=1/GPa)
#
#
# Indices 1 2 3 4 5 6 
#
# 1 0.013537 -0.008330 -0.001101 0.002097 0.003568 0.005274
# 2 -0.008330 0.030136 -0.001528 0.009231 0.007920 -0.004351
# 3 -0.001101 -0.001528 0.013108 0.006947 -0.002246 0.003505
# 4 0.002097 0.009231 0.006947 0.044818 0.000560 0.007190
# 5 0.003568 0.007920 -0.002246 0.000560 0.029906 -0.000196
# 6 0.005274 -0.004351 0.003505 0.007190 -0.000196 0.029828
#
#
# Mechanical properties :
#
#
# Convention : Reuss Voigt Hill
#
# Bulk Modulus (GPa) = 28.68423 46.33917 37.51170
# Shear Modulus (GPa) = 25.65775 34.01481 29.83628
#
# Velocity S-wave (km/s) = 3.38825 3.90122 3.65375
# Velocity P-wave (km/s) = 5.30484 6.40520 5.88081
#
# Compressibility (1/GPa) = 0.03486237
#
# Stress axis : x y z
#
# Youngs Moduli (GPa) = 73.87057 33.18274 76.28789
#
# Poissons Ratio (x) = 0.27642 0.08401
# Poissons Ratio (y) = 0.61535 0.11659
# Poissons Ratio (z) = 0.08135 0.05071
#
# Static dielectric constant tensor:
#      x y z
#    x 4.281820 0.044900 0.166190 
#    y 0.044900 3.681060 -0.038140 
#    z 0.166190 -0.038140 4.220730 
# 
# 
# High freq. dielectric constant tensor:
#      x y z
#    x 1.888990 0.008200 0.015230 
#    y 0.008200 1.844500 -0.000430 
#    z 0.015230 -0.000430 1.894260 
# 
# From -- ./inp_files/424481.got.cif
#   From: 2010.06.25/outbox.cif.g09.slc.cpg/sg2_213_cif.got.tgz:424481.got - 2010.06.27 13:26:56.
