data_PCOD8002289
_publ_section_title
;
Structure prediction by ZEFSAII (Michael W. Deem and Ramdas Pophale) SiO2 
 PCOD8002289
Probable space group: P -1
;
_chemical_formula_sum "Si O2"
_cell_formula_units_Z 16
_cell_length_a 12.111158
_cell_length_b 8.348537
_cell_length_c 10.392383
_cell_angle_alpha 102.002928
_cell_angle_beta 119.540064
_cell_angle_gamma 102.052690
_cell_volume 832.207123
_symmetry_space_group_name_H-M "P -1"
_symmetry_group_IT_number 2
_symmetry_cell_setting 'triclinic'
loop_
_space_group_symop_operation_xyz
x,y,z
-x,-y,-z
loop_
_atom_site_type_symbol
_atom_site_label
_atom_site_fract_x
_atom_site_fract_y
_atom_site_fract_z
Si Si1 0.131844 0.572826 0.177744
Si Si2 0.785477 0.713610 0.179603
Si Si3 0.382267 0.472469 0.719898
Si Si4 0.875252 0.615378 0.612670
Si Si5 0.146119 0.891454 0.729732
Si Si6 0.068992 0.713386 0.407640
Si Si7 0.393827 0.805416 0.930930
Si Si8 0.642876 0.404125 0.872336
O O1 0.137136 0.411816 0.243829
O O2 0.121802 0.728957 0.292260
O O3 0.273725 0.659048 0.197005
O O4 0.000000 0.500000 0.000000
O O5 0.661162 0.645409 0.196373
O O6 0.915761 0.705717 0.327233
O O7 0.803079 0.904894 0.170711
O O8 0.753785 0.585524 0.018493
O O9 0.270924 0.403603 0.532036
O O10 0.413039 0.675537 0.810662
O O11 0.518562 0.446344 0.744080
O O12 0.923929 0.464653 0.555349
O O13 0.990584 0.802228 0.674776
O O14 0.156626 0.874154 0.577132
O O15 0.240518 0.802855 0.838612
O O16 0.413804 0.742651 0.074398
O O17 0.500000 0.000000 0.000000
#
# Coordination Sequence:
#
# PCOD8002289 Si02
#       8
#     2   2   2   2   2   2   2   2
#     4  10  20  38  60  79 111 159 195 220 287 349
#     4  11  21  35  60  91 115 146 187 245 289 328
#     4  11  21  37  56  86 118 147 193 236 291 331
#     4  10  21  35  59  85 110 157 189 235 281 330
#     4  12  20  35  60  91 117 141 196 247 282 324
#     4  10  20  35  59  83 112 150 189 237 282 329
#     4  11  21  37  60  87 113 148 195 239 287 333
#     4  11  22  39  59  81 122 154 185 232 286 350
#
# _framework density 19.225981999999998
#
# number of rings (size 3 to 8) (size 9 to 14) (size 15 to 20)
#    0.750    0.500    3.750    6.000    0.000    0.500 
#    0.000    0.625    2.750    6.750    0.000    0.000 
#    0.000    0.000    0.000    0.000    0.000    0.000 
#
# Total GULP energy -198334.347362 kJ/mol
# GULP energy per Si atom -12395.896710 kJ/mol
# Density = 1.918222 g / cm^3
# Si number density = 19.225982 Si / 1000 Ang^3
#
#
#
# Elastic Constant Matrix: (Units=GPa)
#
#
# Indices 1 2 3 4 5 6 
#
# 1 90.6347 27.9688 29.7049 -4.3465 13.4954 6.6263
# 2 27.9688 94.1727 35.7973 9.2446 3.2486 1.7406
# 3 29.7049 35.7973 86.2947 -11.0759 9.4736 6.5989
# 4 -4.3465 9.2446 -11.0759 28.8860 -4.0785 3.5693
# 5 13.4954 3.2486 9.4736 -4.0785 35.5974 -10.9929
# 6 6.6263 1.7406 6.5989 3.5693 -10.9929 22.7377
#
#
#
# Elastic Compliance Matrix: (Units=1/GPa)
#
#
# Indices 1 2 3 4 5 6 
#
# 1 0.014294 -0.003380 -0.001985 0.002408 -0.006409 -0.006807
# 2 -0.003380 0.014720 -0.006474 -0.007910 0.001969 0.003931
# 3 -0.001985 -0.006474 0.017129 0.008622 -0.004524 -0.007438
# 4 0.002408 -0.007910 0.008622 0.041903 -0.000609 -0.009471
# 5 -0.006409 0.001969 -0.004524 -0.000609 0.038135 0.021562
# 6 -0.006807 0.003931 -0.007438 -0.009471 0.021562 0.059732
#
#
# Mechanical properties :
#
#
# Convention : Reuss Voigt Hill
#
# Bulk Modulus (GPa) = 44.51635 50.89380 47.70508
# Shear Modulus (GPa) = 23.03287 29.28630 26.15959
#
# Velocity S-wave (km/s) = 3.46498 3.90714 3.69268
# Velocity P-wave (km/s) = 6.26200 6.84713 6.56109
#
# Compressibility (1/GPa) = 0.02246366
#
# Stress axis : x y z
#
# Youngs Moduli (GPa) = 69.95740 67.93614 58.37927
#
# Poissons Ratio (x) = 0.22964 0.11589
# Poissons Ratio (y) = 0.23647 0.37798
# Poissons Ratio (z) = 0.13888 0.43985
#
# Static dielectric constant tensor:
#      x y z
#    x 3.380870 -0.103570 0.111220 
#    y -0.103570 3.277350 -0.077950 
#    z 0.111220 -0.077950 3.521710 
# 
# 
# High freq. dielectric constant tensor:
#      x y z
#    x 1.737230 -0.008130 0.019280 
#    y -0.008130 1.728200 -0.010630 
#    z 0.019280 -0.010630 1.749570 
# 
# From -- ./inp_files/417633.got.cif
#   From: 2010.06.25/outbox.cif.g09.slc.cpg/sg2_209_cif.got.tgz:417633.got - 2010.06.27 13:26:56.
