data_PCOD8002630
_publ_section_title
;
Structure prediction by ZEFSAII (Michael W. Deem and Ramdas Pophale) SiO2 
 PCOD8002630
Probable space group: P -1
;
_chemical_formula_sum "Si O2"
_cell_formula_units_Z 16
_cell_length_a 20.530794
_cell_length_b 8.985103
_cell_length_c 11.212781
_cell_angle_alpha 37.281499
_cell_angle_beta 42.798943
_cell_angle_gamma 69.923089
_cell_volume 690.736980
_symmetry_space_group_name_H-M "P -1"
_symmetry_group_IT_number 2
_symmetry_cell_setting 'triclinic'
loop_
_space_group_symop_operation_xyz
x,y,z
-x,-y,-z
loop_
_atom_site_type_symbol
_atom_site_label
_atom_site_fract_x
_atom_site_fract_y
_atom_site_fract_z
Si Si1 0.854081 0.583485 0.223914
Si Si2 0.672339 0.390855 0.244797
Si Si3 0.528351 0.187861 0.220656
Si Si4 0.067477 0.084654 0.733491
Si Si5 0.187872 0.757740 0.724467
Si Si6 0.341279 0.374341 0.641324
Si Si7 0.234068 0.690081 0.232624
Si Si8 0.411851 0.345928 0.986768
O O1 0.887033 0.448427 0.157190
O O2 0.732219 0.538050 0.389948
O O3 0.836586 0.413242 0.480869
O O4 0.968334 0.936887 0.856376
O O5 0.798038 0.436571 0.069112
O O6 0.649721 0.545923 0.283507
O O7 0.667851 0.552825 0.029848
O O8 0.574449 0.026150 0.599243
O O9 0.539976 0.490426 0.052755
O O10 0.500000 0.000000 0.500000
O O11 0.647858 0.292053 0.926566
O O12 0.156084 0.451533 0.381258
O O13 0.137798 0.931745 0.734744
O O14 0.000000 0.000000 0.000000
O O15 0.322606 0.986973 0.348619
O O16 0.476472 0.563145 0.299062
O O17 0.270144 0.017540 0.940865
#
# Coordination Sequence:
#
# PCOD8002630 Si02
#       8
#     2   2   2   2   2   2   2   2
#     4  10  25  41  64  91 119 164 212 250 301 357
#     4  10  23  37  59  94 130 159 198 241 302 373
#     4  10  20  36  56  90 126 162 194 241 299 367
#     4  10  23  45  64  88 118 162 213 257 301 352
#     4  11  23  41  66  90 123 162 200 255 311 357
#     4  11  23  38  63  95 127 161 200 244 305 373
#     4  11  21  41  63  86 127 160 202 254 303 348
#     4  11  22  37  60  96 128 161 198 240 310 373
#
# _framework density 23.163665000000002
#
# number of rings (size 3 to 8) (size 9 to 14) (size 15 to 20)
#    0.000    1.500    3.750    1.500    3.500    4.000 
#    0.000    2.500    0.000    9.000    0.000    0.000 
#    0.000    0.000    0.000    0.000    0.000    0.000 
#
# Total GULP energy -198264.125278 kJ/mol
# GULP energy per Si atom -12391.507830 kJ/mol
# Density = 2.311094 g / cm^3
# Si number density = 23.163665 Si / 1000 Ang^3
#
#
#
# Elastic Constant Matrix: (Units=GPa)
#
#
# Indices 1 2 3 4 5 6 
#
# 1 71.8149 18.8137 16.4846 0.7917 -21.0516 13.2236
# 2 18.8137 130.6408 22.0133 -11.8938 -15.1167 14.7209
# 3 16.4846 22.0133 61.4462 -8.4094 -18.6157 13.1699
# 4 0.7917 -11.8938 -8.4094 34.8043 7.6367 -14.5591
# 5 -21.0516 -15.1167 -18.6157 7.6367 21.8755 -8.6780
# 6 13.2236 14.7209 13.1699 -14.5591 -8.6780 33.7487
#
#
#
# Elastic Compliance Matrix: (Units=1/GPa)
#
#
# Indices 1 2 3 4 5 6 
#
# 1 0.021338 -0.000822 0.001321 -0.007796 0.021268 -0.006412
# 2 -0.000822 0.008651 -0.001507 0.001340 0.002818 -0.001561
# 3 0.001321 -0.001507 0.022801 -0.000893 0.018171 -0.004471
# 4 -0.007796 0.001340 -0.000893 0.039009 -0.014656 0.015879
# 5 0.021268 0.002818 0.018171 -0.014656 0.088634 -0.000185
# 6 -0.006412 -0.001561 -0.004471 0.015879 -0.000185 0.041371
#
#
# Mechanical properties :
#
#
# Convention : Reuss Voigt Hill
#
# Bulk Modulus (GPa) = 19.69528 42.05834 30.87681
# Shear Modulus (GPa) = 20.76885 31.85839 26.31362
#
# Velocity S-wave (km/s) = 2.99760 3.71261 3.37410
# Velocity P-wave (km/s) = 4.52790 6.04768 5.34211
#
# Compressibility (1/GPa) = 0.05077358
#
# Stress axis : x y z
#
# Youngs Moduli (GPa) = 46.86489 115.59670 43.85745
#
# Poissons Ratio (x) = 0.09498 -0.05792
# Poissons Ratio (y) = 0.03851 0.06610
# Poissons Ratio (z) = -0.06189 0.17422
#
# Static dielectric constant tensor:
#      x y z
#    x 4.082040 0.326980 -0.437400 
#    y 0.326980 4.482770 -0.443020 
#    z -0.437400 -0.443020 4.368100 
# 
# 
# High freq. dielectric constant tensor:
#      x y z
#    x 1.905760 0.013600 -0.019280 
#    y 0.013600 1.932890 -0.015940 
#    z -0.019280 -0.015940 1.903950 
# 
# From -- ./inp_files/469756.got.cif
#   From: 2010.06.25/outbox.cif.g09.slc.cpg/sg2_235_cif.got.tgz:469756.got - 2010.06.27 13:26:56.
