data_PCOD8002588
_publ_section_title
;
Structure prediction by ZEFSAII (Michael W. Deem and Ramdas Pophale) SiO2 
 PCOD8002588
Probable space group: P -1
;
_chemical_formula_sum "Si O2"
_cell_formula_units_Z 16
_cell_length_a 11.579058
_cell_length_b 12.024105
_cell_length_c 11.803206
_cell_angle_alpha 132.612060
_cell_angle_beta 142.140852
_cell_angle_gamma 54.808966
_cell_volume 739.066575
_symmetry_space_group_name_H-M "P -1"
_symmetry_group_IT_number 2
_symmetry_cell_setting 'triclinic'
loop_
_space_group_symop_operation_xyz
x,y,z
-x,-y,-z
loop_
_atom_site_type_symbol
_atom_site_label
_atom_site_fract_x
_atom_site_fract_y
_atom_site_fract_z
Si Si1 0.281448 0.365537 0.808879
Si Si2 0.058603 0.182667 0.895613
Si Si3 0.536856 0.748814 0.711143
Si Si4 0.985353 0.160942 0.364059
Si Si5 0.702312 0.383915 0.185441
Si Si6 0.983736 0.497017 0.119231
Si Si7 0.358331 0.508839 0.542104
Si Si8 0.132544 0.847140 0.492637
O O1 0.233774 0.511619 0.793499
O O2 0.189660 0.223060 0.583361
O O3 0.199281 0.413275 0.902836
O O4 0.504169 0.317325 0.957224
O O5 0.974679 0.244552 0.749916
O O6 0.984285 0.020661 0.758248
O O7 0.287301 0.159969 0.053164
O O8 0.990751 0.313785 0.024698
O O9 0.512395 0.621839 0.701291
O O10 0.570869 0.663666 0.557777
O O11 0.348513 0.865808 0.635606
O O12 0.865596 0.244796 0.227252
O O13 0.861305 0.212572 0.414675
O O14 0.678463 0.488749 0.351174
O O15 0.168149 0.564155 0.362150
O O16 0.000000 0.500000 0.000000
O O17 0.000000 0.000000 0.500000
#
# Coordination Sequence:
#
# PCOD8002588 Si02
#       8
#     2   2   2   2   2   2   2   2
#     4  11  25  41  68  88 122 163 218 269 296 378
#     4  10  24  36  58  95 127 163 200 249 330 366
#     4  10  20  36  55  90 127 155 196 259 302 370
#     4  11  22  40  60  87 126 162 205 260 310 375
#     4  11  24  42  64  91 116 171 220 250 318 360
#     4  11  22  39  65  98 127 161 207 259 312 371
#     4  10  21  35  62  90 120 163 203 253 314 357
#     4  10  21  34  53  89 122 163 196 235 313 373
#
# _framework density 21.648931000000001
#
# number of rings (size 3 to 8) (size 9 to 14) (size 15 to 20)
#    0.000    1.500    2.500    1.875    8.750    4.000 
#    0.000    0.625    0.000    1.500    0.000    0.000 
#    0.000    0.000    0.000    0.000    0.000    0.000 
#
# Total GULP energy -198304.320742 kJ/mol
# GULP energy per Si atom -12394.020046 kJ/mol
# Density = 2.159966 g / cm^3
# Si number density = 21.648931 Si / 1000 Ang^3
#
#
#
# Elastic Constant Matrix: (Units=GPa)
#
#
# Indices 1 2 3 4 5 6 
#
# 1 51.6679 8.6479 18.9126 2.1020 3.5475 5.4302
# 2 8.6479 72.7265 41.8949 0.8799 1.8561 -2.8136
# 3 18.9126 41.8949 132.5190 5.1338 22.6965 2.4548
# 4 2.1020 0.8799 5.1338 42.0366 1.9995 -1.1791
# 5 3.5475 1.8561 22.6965 1.9995 30.9567 -4.6014
# 6 5.4302 -2.8136 2.4548 -1.1791 -4.6014 32.4342
#
#
#
# Elastic Compliance Matrix: (Units=1/GPa)
#
#
# Indices 1 2 3 4 5 6 
#
# 1 0.020895 -0.001267 -0.002291 -0.000787 -0.001127 -0.003623
# 2 -0.001267 0.017390 -0.006053 0.000329 0.003928 0.002748
# 3 -0.002291 -0.006053 0.011203 -0.000813 -0.007852 -0.002133
# 4 -0.000787 0.000329 -0.000813 0.023983 -0.000735 0.000989
# 5 -0.001127 0.003928 -0.007852 -0.000735 0.038987 0.006628
# 6 -0.003623 0.002748 -0.002133 0.000989 0.006628 0.032814
#
#
# Mechanical properties :
#
#
# Convention : Reuss Voigt Hill
#
# Bulk Modulus (GPa) = 33.04084 43.98048 38.51066
# Shear Modulus (GPa) = 28.63971 33.58270 31.11121
#
# Velocity S-wave (km/s) = 3.64114 3.94285 3.79499
# Velocity P-wave (km/s) = 5.74216 6.40995 6.08523
#
# Compressibility (1/GPa) = 0.03026558
#
# Stress axis : x y z
#
# Youngs Moduli (GPa) = 47.85793 57.50456 89.26445
#
# Poissons Ratio (x) = 0.07284 0.20451
# Poissons Ratio (y) = 0.06062 0.54034
# Poissons Ratio (z) = 0.10965 0.34809
#
# Static dielectric constant tensor:
#      x y z
#    x 3.936450 -0.087240 -0.284480 
#    y -0.087240 3.962160 -0.024520 
#    z -0.284480 -0.024520 4.525540 
# 
# 
# High freq. dielectric constant tensor:
#      x y z
#    x 1.817390 -0.015190 0.002040 
#    y -0.015190 1.849640 -0.000440 
#    z 0.002040 -0.000440 1.868620 
# 
# From -- ./inp_files/428999.got.cif
#   From: 2010.06.25/outbox.cif.g09.slc.cpg/sg2_215_cif.got.tgz:428999.got - 2010.06.27 13:26:56.
