data_PCOD8002734
_publ_section_title
;
Structure prediction by ZEFSAII (Michael W. Deem and Ramdas Pophale) SiO2 
 PCOD8002734
Probable space group: P -1
;
_chemical_formula_sum "Si O2"
_cell_formula_units_Z 16
_cell_length_a 14.762414
_cell_length_b 9.715451
_cell_length_c 15.381656
_cell_angle_alpha 65.922670
_cell_angle_beta 33.113176
_cell_angle_gamma 89.961784
_cell_volume 802.890684
_symmetry_space_group_name_H-M "P -1"
_symmetry_group_IT_number 2
_symmetry_cell_setting 'triclinic'
loop_
_space_group_symop_operation_xyz
x,y,z
-x,-y,-z
loop_
_atom_site_type_symbol
_atom_site_label
_atom_site_fract_x
_atom_site_fract_y
_atom_site_fract_z
Si Si1 0.582570 0.002781 0.791794
Si Si2 0.196706 0.522721 0.793850
Si Si3 0.019999 0.170776 0.894165
Si Si4 0.466725 0.156765 0.699180
Si Si5 0.762850 0.287046 0.720462
Si Si6 0.765492 0.798342 0.703362
Si Si7 0.438204 0.522725 0.181941
Si Si8 0.486871 0.490384 0.345817
O O1 0.623482 0.855762 0.770864
O O2 0.582260 0.105548 0.680960
O O3 0.782121 0.185666 0.649317
O O4 0.345255 0.867418 0.070568
O O5 0.375024 0.734425 0.541384
O O6 0.341197 0.525804 0.749910
O O7 0.068609 0.327300 0.885440
O O8 0.000000 0.500000 0.000000
O O9 0.225799 0.291942 0.629230
O O10 0.783382 0.060995 0.065633
O O11 0.000000 0.000000 0.000000
O O12 0.443244 0.303543 0.726476
O O13 0.606045 0.328699 0.805355
O O14 0.000000 0.500000 0.500000
O O15 0.776983 0.696685 0.634998
O O16 0.647537 0.632876 0.919033
O O17 0.000000 0.000000 0.500000
O O18 0.507626 0.492360 0.225006
#
# Coordination Sequence:
#
# PCOD8002734 Si02
#       8
#     2   2   2   2   2   2   2   2
#     4  10  22  36  58  89 115 153 204 243 290 358
#     4  11  25  42  62  93 129 157 201 262 310 361
#     4  11  21  42  67  88 119 169 202 250 311 364
#     4  11  22  41  64  91 128 159 209 256 302 370
#     4  10  20  36  58  86 117 152 197 246 289 347
#     4  10  22  41  57  85 127 161 192 247 304 358
#     4  10  22  38  60  87 119 158 198 242 303 356
#     4  11  22  41  65  93 123 159 210 255 305 370
#
# _framework density 19.927993000000001
#
# number of rings (size 3 to 8) (size 9 to 14) (size 15 to 20)
#    0.000    1.500    3.750    1.500    1.750    3.500 
#    2.250    0.000    0.000    0.000    0.000    0.000 
#    0.000    0.000    0.000    0.000    0.000    0.000 
#
# Total GULP energy -198402.726884 kJ/mol
# GULP energy per Si atom -12400.170430 kJ/mol
# Density = 1.988264 g / cm^3
# Si number density = 19.927993 Si / 1000 Ang^3
#
#
#
# Elastic Constant Matrix: (Units=GPa)
#
#
# Indices 1 2 3 4 5 6 
#
# 1 135.8392 33.5459 63.6783 -3.6662 20.4135 -0.5114
# 2 33.5459 81.7940 40.0568 -4.0172 9.0566 4.5177
# 3 63.6783 40.0568 105.8261 -10.6054 -4.7533 9.6176
# 4 -3.6662 -4.0172 -10.6054 36.4028 6.1357 -4.7689
# 5 20.4135 9.0566 -4.7533 6.1357 31.0849 -7.3186
# 6 -0.5114 4.5177 9.6176 -4.7689 -7.3186 34.7385
#
#
#
# Elastic Compliance Matrix: (Units=1/GPa)
#
#
# Indices 1 2 3 4 5 6 
#
# 1 0.012526 -0.000259 -0.007846 0.000589 -0.009348 0.000502
# 2 -0.000259 0.016034 -0.005956 0.000803 -0.005943 -0.001582
# 3 -0.007846 -0.005956 0.017182 0.001831 0.008678 -0.002018
# 4 0.000589 0.000803 0.001831 0.029392 -0.005612 0.002250
# 5 -0.009348 -0.005943 0.008678 -0.005612 0.044064 0.006745
# 6 0.000502 -0.001582 -0.002018 0.002250 0.006745 0.031288
#
#
# Mechanical properties :
#
#
# Convention : Reuss Voigt Hill
#
# Bulk Modulus (GPa) = 56.75294 66.44680 61.59987
# Shear Modulus (GPa) = 27.10318 32.85714 29.98016
#
# Velocity S-wave (km/s) = 3.69189 4.06494 3.88290
# Velocity P-wave (km/s) = 6.83478 7.44631 7.14709
#
# Compressibility (1/GPa) = 0.01762023
#
# Stress axis : x y z
#
# Youngs Moduli (GPa) = 79.83322 62.36900 58.20149
#
# Poissons Ratio (x) = 0.01613 0.45664
# Poissons Ratio (y) = 0.02065 0.34665
# Poissons Ratio (z) = 0.62636 0.37147
#
# Static dielectric constant tensor:
#      x y z
#    x 3.636880 0.013790 -0.026430 
#    y 0.013790 4.031770 -0.201600 
#    z -0.026430 -0.201600 3.742550 
# 
# 
# High freq. dielectric constant tensor:
#      x y z
#    x 1.778130 0.002570 0.001100 
#    y 0.002570 1.784790 -0.016160 
#    z 0.001100 -0.016160 1.773640 
# 
# From -- ./inp_files/279747.got.cif
#   From: 2010.06.25/outbox.cif.g09.slc.cpg/sg2_140_cif.got.tgz:279747.got - 2010.06.27 13:26:56.
