data_PCOD8002883
_publ_section_title
;
Structure prediction by ZEFSAII (Michael W. Deem and Ramdas Pophale) SiO2 
 PCOD8002883
Probable space group: P -1
;
_chemical_formula_sum "Si O2"
_cell_formula_units_Z 16
_cell_length_a 8.951194
_cell_length_b 18.704091
_cell_length_c 12.786587
_cell_angle_alpha 27.467246
_cell_angle_beta 46.158005
_cell_angle_gamma 43.855100
_cell_volume 674.693647
_symmetry_space_group_name_H-M "P -1"
_symmetry_group_IT_number 2
_symmetry_cell_setting 'triclinic'
loop_
_space_group_symop_operation_xyz
x,y,z
-x,-y,-z
loop_
_atom_site_type_symbol
_atom_site_label
_atom_site_fract_x
_atom_site_fract_y
_atom_site_fract_z
Si Si1 0.708208 0.467341 0.140157
Si Si2 0.385958 0.155352 0.959907
Si Si3 0.858182 0.592354 0.599409
Si Si4 0.128937 0.423640 0.874331
Si Si5 0.670157 0.164013 0.630194
Si Si6 0.573464 0.776309 0.669844
Si Si7 0.156878 0.012515 0.646125
Si Si8 0.986551 0.265747 0.851577
O O1 0.780549 0.484133 0.201888
O O2 0.578100 0.335243 0.388320
O O3 0.566040 0.641511 0.936011
O O4 0.917800 0.384155 0.072868
O O5 0.323060 0.258283 0.963447
O O6 0.592329 0.184250 0.763704
O O7 0.185257 0.203708 0.914880
O O8 0.431328 0.963269 0.212503
O O9 0.631471 0.686809 0.646136
O O10 0.826766 0.438731 0.749980
O O11 0.054879 0.535418 0.662500
O O12 0.926207 0.713724 0.331717
O O13 0.933747 0.106205 0.573057
O O14 0.338782 0.916344 0.596938
O O15 0.762187 0.854910 0.504593
O O16 0.130909 0.873146 0.918932
#
# Coordination Sequence:
#
# PCOD8002883 Si02
#       8
#     2   2   2   2   2   2   2   2
#     4  10  20  36  60  84 111 148 191 232 277 333
#     4   9  20  37  56  83 115 146 186 234 279 331
#     4   9  18  35  59  85 115 147 188 233 277 335
#     4   9  18  35  57  85 115 146 187 235 278 329
#     4  10  20  38  60  83 115 150 187 232 280 332
#     4  10  22  39  58  84 116 148 188 233 278 334
#     4  10  21  39  58  82 118 151 184 233 284 331
#     4   9  19  36  58  83 113 148 187 232 281 332
#
# _framework density 23.714466999999999
#
# number of rings (size 3 to 8) (size 9 to 14) (size 15 to 20)
#    0.000    2.500    0.000    2.250    0.000    5.000 
#    0.000   18.750    0.000    0.000    0.000    0.000 
#    0.000    0.000    0.000    0.000    0.000    0.000 
#
# Total GULP energy -198344.323472 kJ/mol
# GULP energy per Si atom -12396.520217 kJ/mol
# Density = 2.366049 g / cm^3
# Si number density = 23.714467 Si / 1000 Ang^3
#
#
#
# Elastic Constant Matrix: (Units=GPa)
#
#
# Indices 1 2 3 4 5 6 
#
# 1 30.1131 9.2926 21.7433 2.7829 0.4532 -1.8554
# 2 9.2926 122.9327 23.7895 -4.2720 0.2746 -2.6220
# 3 21.7433 23.7895 169.0353 -13.3574 -8.5201 14.0146
# 4 2.7829 -4.2720 -13.3574 26.5977 1.3852 3.5310
# 5 0.4532 0.2746 -8.5201 1.3852 20.7416 9.5312
# 6 -1.8554 -2.6220 14.0146 3.5310 9.5312 26.8555
#
#
#
# Elastic Compliance Matrix: (Units=1/GPa)
#
#
# Indices 1 2 3 4 5 6 
#
# 1 0.040270 -0.001794 -0.006855 -0.008882 -0.007716 0.010090
# 2 -0.001794 0.008553 -0.001111 0.000854 -0.001349 0.001657
# 3 -0.006855 -0.001111 0.008421 0.005489 0.007020 -0.008190
# 4 -0.008882 0.000854 0.005489 0.042592 0.004453 -0.010575
# 5 -0.007716 -0.001349 0.007020 0.004453 0.063619 -0.027493
# 6 0.010090 0.001657 -0.008190 -0.010575 -0.027493 0.053517
#
#
# Mechanical properties :
#
#
# Convention : Reuss Voigt Hill
#
# Bulk Modulus (GPa) = 26.50789 47.97022 37.23905
# Shear Modulus (GPa) = 20.07501 32.65599 26.36550
#
# Velocity S-wave (km/s) = 2.91268 3.71489 3.33797
# Velocity P-wave (km/s) = 4.74487 6.21874 5.53111
#
# Compressibility (1/GPa) = 0.03772462
#
# Stress axis : x y z
#
# Youngs Moduli (GPa) = 24.83240 116.91606 118.75558
#
# Poissons Ratio (x) = 0.20971 0.81406
# Poissons Ratio (y) = 0.04454 0.13193
# Poissons Ratio (z) = 0.17022 0.12989
#
# Static dielectric constant tensor:
#      x y z
#    x 3.732030 -0.058470 -0.013140 
#    y -0.058470 4.638140 -0.186040 
#    z -0.013140 -0.186040 4.490040 
# 
# 
# High freq. dielectric constant tensor:
#      x y z
#    x 1.901280 -0.010450 0.000290 
#    y -0.010450 1.952670 -0.007840 
#    z 0.000290 -0.007840 1.947580 
# 
# From -- ./inp_files/402625.got.cif
#   From: 2010.06.25/outbox.cif.g09.slc.cpg/sg2_202_cif.got.tgz:402625.got - 2010.06.27 13:26:56.
