data_PCOD8002587
_publ_section_title
;
Structure prediction by ZEFSAII (Michael W. Deem and Ramdas Pophale) SiO2 
 PCOD8002587
Probable space group: P -1
;
_chemical_formula_sum "Si O2"
_cell_formula_units_Z 16
_cell_length_a 8.592674
_cell_length_b 6.612778
_cell_length_c 15.120644
_cell_angle_alpha 92.401901
_cell_angle_beta 137.422700
_cell_angle_gamma 85.708494
_cell_volume 579.564857
_symmetry_space_group_name_H-M "P -1"
_symmetry_group_IT_number 2
_symmetry_cell_setting 'triclinic'
loop_
_space_group_symop_operation_xyz
x,y,z
-x,-y,-z
loop_
_atom_site_type_symbol
_atom_site_label
_atom_site_fract_x
_atom_site_fract_y
_atom_site_fract_z
Si Si1 0.688105 0.839462 0.912998
Si Si2 0.154651 0.728715 0.041600
Si Si3 0.349405 0.306156 0.920314
Si Si4 0.638603 0.677312 0.268581
Si Si5 0.045652 0.332096 0.415170
Si Si6 0.539668 0.424702 0.416361
Si Si7 0.960233 0.601938 0.784014
Si Si8 0.277917 0.906095 0.624342
O O1 0.463942 0.781633 0.763685
O O2 0.773877 0.042309 0.908301
O O3 0.613449 0.849939 0.985464
O O4 0.918873 0.679493 0.995545
O O5 0.381363 0.589409 0.169744
O O6 0.119746 0.716499 0.920702
O O7 0.391025 0.208398 0.838854
O O8 0.078575 0.381884 0.807928
O O9 0.500000 0.500000 0.000000
O O10 0.848817 0.509387 0.354014
O O11 0.685773 0.856037 0.360926
O O12 0.974389 0.134580 0.437881
O O13 0.293598 0.413692 0.556608
O O14 0.068111 0.276724 0.319692
O O15 0.500000 0.500000 0.500000
O O16 0.283883 0.420888 0.269985
O O17 0.676274 0.202693 0.454836
#
# Coordination Sequence:
#
# PCOD8002587 Si02
#       8
#     2   2   2   2   2   2   2   2
#     4  10  22  34  57  90 129 160 195 244 305 375
#     4  10  20  36  55  89 128 156 200 242 305 373
#     4  11  21  37  57  92 132 163 196 243 305 369
#     4  10  23  38  60  96 127 155 203 250 304 373
#     4  10  23  40  64  85 119 161 210 256 305 350
#     4  10  22  43  64  83 116 162 207 259 303 359
#     4  10  20  37  62  85 121 161 200 244 305 363
#     4  11  22  38  64  92 116 162 206 252 309 361
#
# _framework density 27.606921
#
# number of rings (size 3 to 8) (size 9 to 14) (size 15 to 20)
#    0.000    1.750    2.500    1.875    1.750    3.000 
#    0.000    0.000    2.750    3.750    0.000    0.000 
#    0.000    0.000    0.000    0.000    0.000    0.000 
#
# Total GULP energy -198247.223905 kJ/mol
# GULP energy per Si atom -12390.451494 kJ/mol
# Density = 2.754409 g / cm^3
# Si number density = 27.606921 Si / 1000 Ang^3
#
#
#
# Elastic Constant Matrix: (Units=GPa)
#
#
# Indices 1 2 3 4 5 6 
#
# 1 151.8498 30.1936 44.7056 13.3954 7.7834 -1.9298
# 2 30.1936 47.3931 14.0804 11.5109 -1.4400 6.2582
# 3 44.7056 14.0804 163.5191 6.2105 36.0843 -6.7079
# 4 13.3954 11.5109 6.2105 34.8614 -11.9696 -9.3445
# 5 7.7834 -1.4400 36.0843 -11.9696 58.8325 1.1840
# 6 -1.9298 6.2582 -6.7079 -9.3445 1.1840 41.8461
#
#
#
# Elastic Compliance Matrix: (Units=1/GPa)
#
#
# Indices 1 2 3 4 5 6 
#
# 1 0.008103 -0.004405 -0.001664 -0.001392 -0.000452 0.000468
# 2 -0.004405 0.027214 -0.001139 -0.008703 0.000306 -0.006408
# 3 -0.001664 -0.001139 0.007896 -0.001830 -0.005045 0.001093
# 4 -0.001392 -0.008703 -0.001830 0.037826 0.008606 0.009147
# 5 -0.000452 0.000306 -0.005045 0.008606 0.021901 0.000427
# 6 0.000468 -0.006408 0.001093 0.009147 0.000427 0.027083
#
#
# Mechanical properties :
#
#
# Convention : Reuss Voigt Hill
#
# Bulk Modulus (GPa) = 34.72592 60.08013 47.40303
# Shear Modulus (GPa) = 32.45906 45.36015 38.90961
#
# Velocity S-wave (km/s) = 3.43265 4.05788 3.75829
# Velocity P-wave (km/s) = 5.32135 6.61552 6.00341
#
# Compressibility (1/GPa) = 0.02879693
#
# Stress axis : x y z
#
# Youngs Moduli (GPa) = 123.40615 36.74552 126.64198
#
# Poissons Ratio (x) = 0.16188 0.21077
# Poissons Ratio (y) = 0.54365 0.14421
# Poissons Ratio (z) = 0.20539 0.04184
#
# Static dielectric constant tensor:
#      x y z
#    x 5.827090 -0.313660 0.441720 
#    y -0.313660 4.608580 -0.329600 
#    z 0.441720 -0.329600 5.973090 
# 
# 
# High freq. dielectric constant tensor:
#      x y z
#    x 2.133110 -0.011310 0.012990 
#    y -0.011310 2.095350 -0.012530 
#    z 0.012990 -0.012530 2.150080 
# 
# From -- ./inp_files/557402.got.cif
#   From: 2010.06.25/outbox.cif.g09.slc.cpg/sg2_279_cif.got.tgz:557402.got - 2010.06.27 13:26:56.
