data_PCOD8002907
_publ_section_title
;
Structure prediction by ZEFSAII (Michael W. Deem and Ramdas Pophale) SiO2 
 PCOD8002907
Probable space group: P -1
;
_chemical_formula_sum "Si O2"
_cell_formula_units_Z 14
_cell_length_a 11.707311
_cell_length_b 23.637053
_cell_length_c 14.470499
_cell_angle_alpha 20.740836
_cell_angle_beta 32.423112
_cell_angle_gamma 30.457966
_cell_volume 702.581791
_symmetry_space_group_name_H-M "P -1"
_symmetry_group_IT_number 2
_symmetry_cell_setting 'triclinic'
loop_
_space_group_symop_operation_xyz
x,y,z
-x,-y,-z
loop_
_atom_site_type_symbol
_atom_site_label
_atom_site_fract_x
_atom_site_fract_y
_atom_site_fract_z
Si Si1 0.054694 0.009396 0.797926
Si Si2 0.079935 0.360849 0.236854
Si Si3 0.841070 0.305565 0.916618
Si Si4 0.332967 0.405031 0.735898
Si Si5 0.374286 0.309088 0.276718
Si Si6 0.367339 0.943042 0.860261
Si Si7 0.073755 0.463111 0.649249
O O1 0.066455 0.183629 0.481940
O O2 0.253458 0.928298 0.862862
O O3 0.805186 0.050507 0.949001
O O4 0.088290 0.888531 0.871385
O O5 0.320936 0.329296 0.171192
O O6 0.909254 0.443556 0.310694
O O7 0.000000 0.500000 0.000000
O O8 0.834597 0.423559 0.652735
O O9 0.029275 0.315423 0.846133
O O10 0.596989 0.359677 0.055123
O O11 0.500000 0.500000 0.500000
O O12 0.291585 0.366797 0.715696
O O13 0.403252 0.230908 0.015689
O O14 0.170067 0.422874 0.310178
O O15 0.436413 0.107992 0.566537
#
# Coordination Sequence:
#
# PCOD8002907 Si02
#       7
#     2   2   2   2   2   2   2
#     4  10  20  37  59  87 119 157 192 243 293 351
#     4  10  23  35  56  94 120 145 202 247 289 356
#     4  11  22  38  67  81 120 161 200 238 290 358
#     4  11  21  37  63  83 117 156 188 250 304 336
#     4  10  22  39  62  86 118 156 197 247 291 345
#     4  10  20  36  60  87 117 152 197 241 299 347
#     4  10  23  42  59  90 115 156 206 238 290 357
#
# _framework density 19.926507000000001
#
# number of rings (size 3 to 8) (size 9 to 14) (size 15 to 20)
#    0.000    1.714    2.857    1.286    6.000    1.143 
#    0.000    1.429    3.143    0.000    0.000    0.000 
#    0.000    0.000    0.000    0.000    0.000    0.000 
#
# Total GULP energy -173477.339138 kJ/mol
# GULP energy per Si atom -12391.238510 kJ/mol
# Density = 1.988115 g / cm^3
# Si number density = 19.926507 Si / 1000 Ang^3
#
#
#
# Elastic Constant Matrix: (Units=GPa)
#
#
# Indices 1 2 3 4 5 6 
#
# 1 124.1552 22.0278 67.6187 -16.9715 -5.0323 -2.2446
# 2 22.0278 56.1155 25.3439 -11.3834 -12.6293 5.8067
# 3 67.6187 25.3439 117.0075 -8.9821 -1.9516 -2.7871
# 4 -16.9715 -11.3834 -8.9821 39.7677 -6.7388 0.0981
# 5 -5.0323 -12.6293 -1.9516 -6.7388 23.4517 -2.9479
# 6 -2.2446 5.8067 -2.7871 0.0981 -2.9479 25.9616
#
#
#
# Elastic Compliance Matrix: (Units=1/GPa)
#
#
# Indices 1 2 3 4 5 6 
#
# 1 0.012531 -0.000342 -0.006766 0.004274 0.003269 0.000789
# 2 -0.000342 0.025724 -0.004551 0.008803 0.015357 -0.004561
# 3 -0.006766 -0.004551 0.013295 -0.001716 -0.003099 0.001515
# 4 0.004274 0.008803 -0.001716 0.031569 0.014555 -0.000250
# 5 0.003269 0.015357 -0.003099 0.014555 0.055889 0.002806
# 6 0.000789 -0.004561 0.001515 -0.000250 0.002806 0.040089
#
#
# Mechanical properties :
#
#
# Convention : Reuss Voigt Hill
#
# Bulk Modulus (GPa) = 35.42112 58.58434 47.00273
# Shear Modulus (GPa) = 23.60416 29.98873 26.79645
#
# Velocity S-wave (km/s) = 3.44548 3.88360 3.67108
# Velocity P-wave (km/s) = 5.80025 7.04087 6.45045
#
# Compressibility (1/GPa) = 0.02823174
#
# Stress axis : x y z
#
# Youngs Moduli (GPa) = 79.80068 38.87418 75.21575
#
# Poissons Ratio (x) = 0.01330 0.50893
# Poissons Ratio (y) = 0.02730 0.34230
# Poissons Ratio (z) = 0.53996 0.17691
#
# Static dielectric constant tensor:
#      x y z
#    x 3.703730 0.196270 -0.090710 
#    y 0.196270 3.546520 0.021920 
#    z -0.090710 0.021920 3.616910 
# 
# 
# High freq. dielectric constant tensor:
#      x y z
#    x 1.769330 0.004640 -0.004790 
#    y 0.004640 1.773960 0.004120 
#    z -0.004790 0.004120 1.781020 
# 
# From -- ./inp_files/165679.got.cif
#   From: 2010.06.25/outbox.cif.g09.slc.cpg/sg2_83_cif.got.tgz:165679.got - 2010.06.27 13:26:56.
