data_PCOD8002158
_publ_section_title
;
Structure prediction by ZEFSAII (Michael W. Deem and Ramdas Pophale) SiO2 
 PCOD8002158
Probable space group: P -1
;
_chemical_formula_sum "Si O2"
_cell_formula_units_Z 12
_cell_length_a 5.435896
_cell_length_b 14.366442
_cell_length_c 15.113505
_cell_angle_alpha 31.345498
_cell_angle_beta 62.246523
_cell_angle_gamma 48.976680
_cell_volume 449.466224
_symmetry_space_group_name_H-M "P -1"
_symmetry_group_IT_number 2
_symmetry_cell_setting 'triclinic'
loop_
_space_group_symop_operation_xyz
x,y,z
-x,-y,-z
loop_
_atom_site_type_symbol
_atom_site_label
_atom_site_fract_x
_atom_site_fract_y
_atom_site_fract_z
Si Si1 0.594238 0.809319 0.760024
Si Si2 0.337662 0.456242 0.882584
Si Si3 0.105627 0.601233 0.476904
Si Si4 0.389000 0.820186 0.590248
Si Si5 0.831870 0.668220 0.169175
Si Si6 0.109326 0.966956 0.108298
O O1 0.481505 0.767732 0.720012
O O2 0.998662 0.654615 0.822726
O O3 0.448140 0.066445 0.579222
O O4 0.459559 0.740100 0.921082
O O5 0.522452 0.578800 0.725933
O O6 0.277650 0.356088 0.888901
O O7 0.500000 0.500000 0.500000
O O8 0.974460 0.563907 0.623037
O O9 0.946090 0.856467 0.277400
O O10 0.000000 0.500000 0.500000
O O11 0.000000 0.000000 0.500000
O O12 0.514063 0.817701 0.166020
O O13 0.026323 0.790418 0.029028
O O14 0.000000 0.000000 0.000000
#
# Coordination Sequence:
#
# PCOD8002158 Si02
#       6
#     2   2   2   2   2   2
#     4   9  19  36  57  81 115 150 183 238 288 344
#     4  10  20  35  56  85 113 147 195 232 290 346
#     4  10  20  38  62  82 114 155 198 247 304 353
#     4   9  18  35  57  76 110 150 186 231 290 344
#     4  10  22  36  56  87 112 154 198 243 295 356
#     4  10  20  38  58  78 116 152 194 246 298 348
#
# _framework density 26.698336999999999
#
# number of rings (size 3 to 8) (size 9 to 14) (size 15 to 20)
#    0.000    2.333    1.667    0.500    0.000    2.667 
#    0.000    5.000    0.000    0.000    0.000    0.000 
#    0.000    0.000    0.000    0.000    0.000    0.000 
#
# Total GULP energy -148657.186492 kJ/mol
# GULP energy per Si atom -12388.098874 kJ/mol
# Density = 2.663757 g / cm^3
# Si number density = 26.698337 Si / 1000 Ang^3
#
#
#
# Elastic Constant Matrix: (Units=GPa)
#
#
# Indices 1 2 3 4 5 6 
#
# 1 121.6489 23.4703 94.9777 6.8699 -24.2432 42.3088
# 2 23.4703 47.5580 91.1112 -15.6398 -24.3739 15.8715
# 3 94.9777 91.1112 300.6643 -4.7083 -25.7318 41.0395
# 4 6.8699 -15.6398 -4.7083 64.8079 11.9047 -1.6158
# 5 -24.2432 -24.3739 -25.7318 11.9047 54.5246 -7.7388
# 6 42.3088 15.8715 41.0395 -1.6158 -7.7388 56.0105
#
#
#
# Elastic Compliance Matrix: (Units=1/GPa)
#
#
# Indices 1 2 3 4 5 6 
#
# 1 0.016247 0.012127 -0.006802 -0.001054 0.008301 -0.009609
# 2 0.012127 0.087092 -0.026230 0.012470 0.027743 -0.010428
# 3 -0.006802 -0.026230 0.012382 -0.003205 -0.007877 0.002317
# 4 -0.001054 0.012470 -0.003205 0.018396 -0.000411 0.000085
# 5 0.008301 0.027743 -0.007877 -0.000411 0.030210 -0.004198
# 6 -0.009609 -0.010428 0.002317 0.000085 -0.004198 0.025792
#
#
# Mechanical properties :
#
#
# Convention : Reuss Voigt Hill
#
# Bulk Modulus (GPa) = 13.52939 98.77663 56.15301
# Shear Modulus (GPa) = 19.48822 52.42276 35.95549
#
# Velocity S-wave (km/s) = 2.70467 4.43597 3.67377
# Velocity P-wave (km/s) = 3.85126 7.95706 6.25088
#
# Compressibility (1/GPa) = 0.07391317
#
# Stress axis : x y z
#
# Youngs Moduli (GPa) = 61.55061 11.48205 80.75927
#
# Poissons Ratio (x) = -0.13925 0.54930
# Poissons Ratio (y) = -0.74644 2.11830
# Poissons Ratio (z) = 0.41865 0.30117
#
# Static dielectric constant tensor:
#      x y z
#    x 5.012040 -0.324920 -0.575990 
#    y -0.324920 4.669510 -0.314320 
#    z -0.575990 -0.314320 5.785040 
# 
# 
# High freq. dielectric constant tensor:
#      x y z
#    x 2.081920 -0.021250 -0.012790 
#    y -0.021250 2.060140 -0.020180 
#    z -0.012790 -0.020180 2.121940 
# 
# From -- ./inp_files/24514.got.cif
#   From: 2010.06.25/outbox.cif.g09.slc.cpg/sg2_13_cif.got.tgz:24514.got - 2010.06.27 13:26:56.
