data_PCOD8002709
_publ_section_title
;
Structure prediction by ZEFSAII (Michael W. Deem and Ramdas Pophale) SiO2 
 PCOD8002709
Probable space group: P -1
;
_chemical_formula_sum "Si O2"
_cell_formula_units_Z 16
_cell_length_a 6.559061
_cell_length_b 19.770665
_cell_length_c 9.441767
_cell_angle_alpha 128.108133
_cell_angle_beta 54.289145
_cell_angle_gamma 101.968298
_cell_volume 759.537006
_symmetry_space_group_name_H-M "P -1"
_symmetry_group_IT_number 2
_symmetry_cell_setting 'triclinic'
loop_
_space_group_symop_operation_xyz
x,y,z
-x,-y,-z
loop_
_atom_site_type_symbol
_atom_site_label
_atom_site_fract_x
_atom_site_fract_y
_atom_site_fract_z
Si Si1 0.894058 0.577659 0.490133
Si Si2 0.672593 0.618426 0.335514
Si Si3 0.607713 0.013203 0.626390
Si Si4 0.854658 0.312157 0.776832
Si Si5 0.594083 0.530741 0.798277
Si Si6 0.970626 0.884032 0.492537
Si Si7 0.860314 0.274398 0.397798
Si Si8 0.879125 0.918450 0.905910
O O1 0.705585 0.611603 0.481230
O O2 0.735652 0.524037 0.581113
O O3 0.168178 0.509457 0.241300
O O4 0.970022 0.660265 0.652281
O O5 0.613092 0.529201 0.182763
O O6 0.432940 0.701307 0.507606
O O7 0.935036 0.635741 0.183508
O O8 0.813645 0.068999 0.586037
O O9 0.500000 0.000000 0.500000
O O10 0.403035 0.065469 0.890651
O O11 0.729140 0.918349 0.528892
O O12 0.909036 0.219543 0.717683
O O13 0.890545 0.293074 0.573797
O O14 0.559630 0.368044 0.986814
O O15 0.878512 0.906441 0.720988
O O16 0.962461 0.170271 0.193803
O O17 0.000000 0.000000 0.000000
#
# Coordination Sequence:
#
# PCOD8002709 Si02
#       8
#     2   2   2   2   2   2   2   2
#     4   9  20  38  57  81 118 151 192 240 289 354
#     4  10  20  37  57  83 116 149 194 240 288 357
#     4  11  23  43  65  92 126 159 211 254 304 369
#     4  10  22  37  59  85 116 151 194 242 295 353
#     4  10  20  36  58  83 114 153 191 238 294 347
#     4  10  24  43  62  94 126 162 206 254 306 367
#     4   9  22  39  56  86 116 150 198 241 291 359
#     4  11  22  41  67  89 124 171 200 252 314 361
#
# _framework density 21.065467000000002
#
# number of rings (size 3 to 8) (size 9 to 14) (size 15 to 20)
#    0.000    2.000    1.250    1.125    3.500    5.500 
#    4.500    0.000    0.000    0.000    0.000    0.000 
#    0.000    0.000    0.000    0.000    0.000    0.000 
#
# Total GULP energy -198260.127045 kJ/mol
# GULP energy per Si atom -12391.257940 kJ/mol
# Density = 2.101752 g / cm^3
# Si number density = 21.065467 Si / 1000 Ang^3
#
#
#
# Elastic Constant Matrix: (Units=GPa)
#
#
# Indices 1 2 3 4 5 6 
#
# 1 94.4042 39.3550 31.8072 9.5308 -18.5962 -21.0220
# 2 39.3550 117.7646 51.0518 19.6005 -17.3094 -19.1902
# 3 31.8072 51.0518 96.7611 15.8453 -24.3377 -3.8419
# 4 9.5308 19.6005 15.8453 40.9441 -7.5836 -10.1224
# 5 -18.5962 -17.3094 -24.3377 -7.5836 28.4276 5.0352
# 6 -21.0220 -19.1902 -3.8419 -10.1224 5.0352 30.9361
#
#
#
# Elastic Compliance Matrix: (Units=1/GPa)
#
#
# Indices 1 2 3 4 5 6 
#
# 1 0.015019 -0.002095 -0.002374 0.001464 0.005455 0.008203
# 2 -0.002095 0.012775 -0.005414 -0.002231 0.000282 0.005052
# 3 -0.002374 -0.005414 0.016636 -0.002853 0.009589 -0.005400
# 4 0.001464 -0.002231 -0.002853 0.028906 0.003423 0.008157
# 5 0.005455 0.000282 0.009589 0.003423 0.048336 -0.001675
# 6 0.008203 0.005052 -0.005400 0.008157 -0.001675 0.043304
#
#
# Mechanical properties :
#
#
# Convention : Reuss Voigt Hill
#
# Bulk Modulus (GPa) = 40.54562 61.48421 51.01492
# Shear Modulus (GPa) = 25.91156 32.50929 29.21043
#
# Velocity S-wave (km/s) = 3.51101 3.93268 3.72781
# Velocity P-wave (km/s) = 5.97708 7.06200 6.54207
#
# Compressibility (1/GPa) = 0.02466358
#
# Stress axis : x y z
#
# Youngs Moduli (GPa) = 66.58102 78.27721 60.10999
#
# Poissons Ratio (x) = 0.16403 0.14268
# Poissons Ratio (y) = 0.13952 0.32546
# Poissons Ratio (z) = 0.15804 0.42383
#
# Static dielectric constant tensor:
#      x y z
#    x 3.641390 -0.112530 -0.394370 
#    y -0.112530 4.352610 0.188300 
#    z -0.394370 0.188300 3.594360 
# 
# 
# High freq. dielectric constant tensor:
#      x y z
#    x 1.831350 -0.007710 -0.022680 
#    y -0.007710 1.846200 0.004680 
#    z -0.022680 0.004680 1.798800 
# 
# From -- ./inp_files/52088.got.cif
#   From: 2010.06.25/outbox.cif.g09.slc.cpg/sg2_27_cif.got.tgz:52088.got - 2010.06.27 13:26:56.
