data_PCOD8002026
_publ_section_title
;
Structure prediction by ZEFSAII (Michael W. Deem and Ramdas Pophale) SiO2 
 PCOD8002026
Probable space group: P -1
;
_chemical_formula_sum "Si O2"
_cell_formula_units_Z 14
_cell_length_a 12.594759
_cell_length_b 15.702226
_cell_length_c 15.213546
_cell_angle_alpha 161.820868
_cell_angle_beta 128.632754
_cell_angle_gamma 49.493047
_cell_volume 713.379517
_symmetry_space_group_name_H-M "P -1"
_symmetry_group_IT_number 2
_symmetry_cell_setting 'triclinic'
loop_
_space_group_symop_operation_xyz
x,y,z
-x,-y,-z
loop_
_atom_site_type_symbol
_atom_site_label
_atom_site_fract_x
_atom_site_fract_y
_atom_site_fract_z
Si Si1 0.622104 0.286908 0.517575
Si Si2 0.071136 0.708604 0.291555
Si Si3 0.554258 0.130507 0.970420
Si Si4 0.061995 0.698720 0.839748
Si Si5 0.902114 0.509027 0.719122
Si Si6 0.278852 0.888486 0.789355
Si Si7 0.817078 0.848036 0.725331
O O1 0.763763 0.327324 0.675353
O O2 0.495858 0.534444 0.729581
O O3 0.635475 0.286465 0.418139
O O4 0.580866 0.998628 0.239910
O O5 0.041255 0.675706 0.347100
O O6 0.000000 0.000000 0.500000
O O7 0.000000 0.500000 0.000000
O O8 0.622582 0.050392 0.022486
O O9 0.662017 0.007741 0.828612
O O10 0.173276 0.458777 0.610309
O O11 0.031336 0.581014 0.803222
O O12 0.913007 0.805266 0.819624
O O13 0.130395 0.966200 0.140841
O O14 0.824187 0.309594 0.424888
O O15 0.802444 0.805756 0.988094
#
# Coordination Sequence:
#
# PCOD8002026 Si02
#       7
#     2   2   2   2   2   2   2
#     4  11  23  36  55  81 113 149 190 224 279 345
#     4  11  23  42  61  83 107 138 190 248 289 329
#     4  12  21  35  53  83 119 159 182 214 273 331
#     4  10  20  35  51  80 113 154 192 224 263 315
#     4  11  21  36  59  83 113 150 189 231 282 330
#     4  11  21  34  52  83 119 155 183 217 264 344
#     4  10  21  32  53  78 117 156 189 221 255 320
#
# _framework density 19.624898999999999
#
# number of rings (size 3 to 8) (size 9 to 14) (size 15 to 20)
#    0.000    1.143    1.429    7.714    4.000    0.000 
#    0.000    0.000    0.000    0.000    0.000   20.000 
#    0.000    0.000    0.000    0.000    0.000    0.000 
#
# Total GULP energy -173553.274145 kJ/mol
# GULP energy per Si atom -12396.662439 kJ/mol
# Density = 1.958023 g / cm^3
# Si number density = 19.624899 Si / 1000 Ang^3
#
#
#
# Elastic Constant Matrix: (Units=GPa)
#
#
# Indices 1 2 3 4 5 6 
#
# 1 90.5281 34.1329 22.1074 2.8677 3.1845 -5.3495
# 2 34.1329 75.8989 31.4658 7.7811 3.6587 -0.2608
# 3 22.1074 31.4658 108.5205 5.1589 12.9042 -4.5853
# 4 2.8677 7.7811 5.1589 36.4959 -5.7176 6.2075
# 5 3.1845 3.6587 12.9042 -5.7176 35.1312 9.3337
# 6 -5.3495 -0.2608 -4.5853 6.2075 9.3337 20.6502
#
#
#
# Elastic Compliance Matrix: (Units=1/GPa)
#
#
# Indices 1 2 3 4 5 6 
#
# 1 0.013704 -0.005690 -0.000731 -0.000746 -0.001640 0.004282
# 2 -0.005690 0.017596 -0.003892 -0.002505 0.000077 -0.001398
# 3 -0.000731 -0.003892 0.011533 -0.002602 -0.005697 0.005680
# 4 -0.000746 -0.002505 -0.002602 0.032669 0.010709 -0.015463
# 5 -0.001640 0.000077 -0.005697 0.010709 0.038350 -0.022242
# 6 0.004282 -0.001398 0.005680 -0.015463 -0.022242 0.065480
#
#
# Mechanical properties :
#
#
# Convention : Reuss Voigt Hill
#
# Bulk Modulus (GPa) = 45.02745 50.03995 47.53370
# Shear Modulus (GPa) = 24.11260 30.93822 27.52541
#
# Velocity S-wave (km/s) = 3.50905 3.97480 3.74916
# Velocity P-wave (km/s) = 6.27788 6.82780 6.55861
#
# Compressibility (1/GPa) = 0.02220867
#
# Stress axis : x y z
#
# Youngs Moduli (GPa) = 72.96927 56.83086 86.70555
#
# Poissons Ratio (x) = 0.32337 0.06335
# Poissons Ratio (y) = 0.41519 0.33746
# Poissons Ratio (z) = 0.05331 0.22118
#
# Static dielectric constant tensor:
#      x y z
#    x 3.520630 -0.142950 0.167820 
#    y -0.142950 3.501780 -0.025050 
#    z 0.167820 -0.025050 3.930740 
# 
# 
# High freq. dielectric constant tensor:
#      x y z
#    x 1.762010 -0.005480 0.007340 
#    y -0.005480 1.710580 0.022670 
#    z 0.007340 0.022670 1.791880 
# 
# From -- ./inp_files/432950.got.cif
#   From: 2010.06.25/outbox.cif.g09.slc.cpg/sg2_217_cif.got.tgz:432950.got - 2010.06.27 13:26:56.
