data_PCOD8002775
_publ_section_title
;
Structure prediction by ZEFSAII (Michael W. Deem and Ramdas Pophale) SiO2 
 PCOD8002775
Probable space group: P -1
;
_chemical_formula_sum "Si O2"
_cell_formula_units_Z 16
_cell_length_a 13.823167
_cell_length_b 22.041361
_cell_length_c 18.266670
_cell_angle_alpha 162.623676
_cell_angle_beta 29.826040
_cell_angle_gamma 142.764712
_cell_volume 807.530326
_symmetry_space_group_name_H-M "P -1"
_symmetry_group_IT_number 2
_symmetry_cell_setting 'triclinic'
loop_
_space_group_symop_operation_xyz
x,y,z
-x,-y,-z
loop_
_atom_site_type_symbol
_atom_site_label
_atom_site_fract_x
_atom_site_fract_y
_atom_site_fract_z
Si Si1 0.128628 0.290867 0.416252
Si Si2 0.396969 0.751968 0.416529
Si Si3 0.094367 0.378874 0.702027
Si Si4 0.800057 0.594653 0.899817
Si Si5 0.520165 0.992642 0.216502
Si Si6 0.723347 0.222382 0.767563
Si Si7 0.799371 0.037004 0.353089
Si Si8 0.284600 0.349512 0.689954
O O1 0.182001 0.366049 0.548016
O O2 0.004538 0.490784 0.685800
O O3 0.008552 0.105926 0.286288
O O4 0.332553 0.207692 0.143653
O O5 0.271031 0.572253 0.298781
O O6 0.356659 0.884275 0.669579
O O7 0.334995 0.899514 0.556868
O O8 0.632874 0.654650 0.142083
O O9 0.275176 0.343671 0.600715
O O10 0.962354 0.201928 0.595364
O O11 0.943726 0.603997 0.075121
O O12 0.838040 0.788873 0.051918
O O13 0.416627 0.133313 0.380117
O O14 0.345869 0.927512 0.301867
O O15 0.676635 0.155103 0.638687
O O16 0.613286 0.462962 0.132577
#
# Coordination Sequence:
#
# PCOD8002775 Si02
#       8
#     2   2   2   2   2   2   2   2
#     4  10  23  38  54  84 118 144 181 224 280 334
#     4  10  22  34  58  85 109 141 196 232 263 318
#     4   8  18  42  60  79 112 140 186 233 267 329
#     4  10  20  36  59  80 107 151 186 229 268 315
#     4  12  23  35  56  85 117 146 178 230 280 326
#     4   9  20  35  59  86 105 142 190 225 269 333
#     4  10  20  37  60  81 107 151 191 221 270 327
#     4   9  20  38  62  82 110 141 186 234 271 317
#
# _framework density 19.813496000000001
#
# number of rings (size 3 to 8) (size 9 to 14) (size 15 to 20)
#    0.750    1.500    1.250    1.125    3.500    4.000 
#    0.000    1.875    0.000    0.000    0.000    0.000 
#    0.000    0.000    0.000    0.000    0.000    0.000 
#
# Total GULP energy -198330.474005 kJ/mol
# GULP energy per Si atom -12395.654625 kJ/mol
# Density = 1.976840 g / cm^3
# Si number density = 19.813496 Si / 1000 Ang^3
#
#
#
# Elastic Constant Matrix: (Units=GPa)
#
#
# Indices 1 2 3 4 5 6 
#
# 1 110.8409 15.3593 57.8182 -5.6850 -6.9582 -21.7468
# 2 15.3593 53.1534 23.2499 18.3948 -7.0599 -3.2355
# 3 57.8182 23.2499 90.2998 6.2686 -7.3280 -17.2655
# 4 -5.6850 18.3948 6.2686 28.8702 -9.8884 1.4272
# 5 -6.9582 -7.0599 -7.3280 -9.8884 28.3828 3.7304
# 6 -21.7468 -3.2355 -17.2655 1.4272 3.7304 15.7047
#
#
#
# Elastic Compliance Matrix: (Units=1/GPa)
#
#
# Indices 1 2 3 4 5 6 
#
# 1 0.016310 -0.002618 -0.007668 0.006619 0.002026 0.012533
# 2 -0.002618 0.027269 -0.004437 -0.017156 -0.000833 -0.001128
# 3 -0.007668 -0.004437 0.019258 -0.003562 -0.000580 0.010101
# 4 0.006619 -0.017156 -0.003562 0.053459 0.015972 -0.006937
# 5 0.002026 -0.000833 -0.000580 0.015972 0.042182 -0.009474
# 6 0.012533 -0.001128 0.010101 -0.006937 -0.009474 0.094784
#
#
# Mechanical properties :
#
#
# Convention : Reuss Voigt Hill
#
# Bulk Modulus (GPa) = 29.94811 49.68320 39.81566
# Shear Modulus (GPa) = 17.01617 25.11599 21.06608
#
# Velocity S-wave (km/s) = 2.93374 3.56423 3.26424
# Velocity P-wave (km/s) = 5.15980 6.48600 5.86054
#
# Compressibility (1/GPa) = 0.03339109
#
# Stress axis : x y z
#
# Youngs Moduli (GPa) = 61.31146 36.67224 51.92619
#
# Poissons Ratio (x) = 0.09599 0.39817
# Poissons Ratio (y) = 0.16049 0.23041
# Poissons Ratio (z) = 0.47014 0.16273
#
# Static dielectric constant tensor:
#      x y z
#    x 3.574800 0.013330 0.180490 
#    y 0.013330 3.327340 0.154580 
#    z 0.180490 0.154580 3.410760 
# 
# 
# High freq. dielectric constant tensor:
#      x y z
#    x 1.774170 -0.006120 0.011320 
#    y -0.006120 1.745750 0.014810 
#    z 0.011320 0.014810 1.753360 
# 
# From -- ./inp_files/574333.got.cif
#   From: 2010.06.25/outbox.cif.g09.slc.cpg/sg2_288_cif.got.tgz:574333.got - 2010.06.27 13:26:56.
