data_PCOD8002768
_publ_section_title
;
Structure prediction by ZEFSAII (Michael W. Deem and Ramdas Pophale) SiO2 
 PCOD8002768
Probable space group: P -1
;
_chemical_formula_sum "Si O2"
_cell_formula_units_Z 16
_cell_length_a 13.082652
_cell_length_b 11.149647
_cell_length_c 13.211416
_cell_angle_alpha 21.826406
_cell_angle_beta 86.138951
_cell_angle_gamma 84.187263
_cell_volume 710.950038
_symmetry_space_group_name_H-M "P -1"
_symmetry_group_IT_number 2
_symmetry_cell_setting 'triclinic'
loop_
_space_group_symop_operation_xyz
x,y,z
-x,-y,-z
loop_
_atom_site_type_symbol
_atom_site_label
_atom_site_fract_x
_atom_site_fract_y
_atom_site_fract_z
Si Si1 0.899351 0.380586 0.295545
Si Si2 0.905225 0.680361 0.781831
Si Si3 0.532347 0.247436 0.888979
Si Si4 0.762757 0.249509 0.668968
Si Si5 0.835311 0.023639 0.312936
Si Si6 0.666254 0.784303 0.386487
Si Si7 0.690012 0.608149 0.196990
Si Si8 0.980011 0.285116 0.573847
O O1 0.779906 0.520764 0.175263
O O2 0.943004 0.497620 0.309328
O O3 0.972972 0.462880 0.131385
O O4 0.902030 0.987619 0.615337
O O5 0.864018 0.798984 0.582041
O O6 0.836961 0.403777 0.043152
O O7 0.578132 0.562456 0.596020
O O8 0.425456 0.389898 0.840657
O O9 0.500000 0.000000 0.000000
O O10 0.613869 0.074831 0.095334
O O11 0.757360 0.565023 0.493607
O O12 0.703793 0.356346 0.485476
O O13 0.880795 0.099866 0.757161
O O14 0.704016 0.977078 0.942512
O O15 0.721202 0.951981 0.343582
O O16 0.918325 0.954649 0.270129
O O17 0.000000 0.500000 0.500000
#
# Coordination Sequence:
#
# PCOD8002768 Si02
#       8
#     2   2   2   2   2   2   2   2
#     4   9  22  40  63  92 119 158 202 251 294 357
#     4  10  22  42  65  87 118 158 209 246 293 352
#     4  12  22  36  58  83 122 163 196 241 295 363
#     4  11  20  35  54  84 121 157 186 231 291 370
#     4  11  23  40  62  87 121 164 199 248 298 354
#     4  12  22  37  56  85 120 158 201 237 294 359
#     4  11  22  36  58  85 118 151 197 244 296 345
#     4  10  20  36  58  93 129 156 185 237 305 369
#
# _framework density 22.505098
#
# number of rings (size 3 to 8) (size 9 to 14) (size 15 to 20)
#    0.000    1.250    3.750    2.625    0.000    6.500 
#    0.000    2.500    0.000    4.500    0.000    0.000 
#    0.000    0.000    0.000    0.000    0.000    0.000 
#
# Total GULP energy -198320.470549 kJ/mol
# GULP energy per Si atom -12395.029409 kJ/mol
# Density = 2.245388 g / cm^3
# Si number density = 22.505098 Si / 1000 Ang^3
#
#
#
# Elastic Constant Matrix: (Units=GPa)
#
#
# Indices 1 2 3 4 5 6 
#
# 1 109.7591 20.0855 12.3041 -3.6883 -1.5545 2.6708
# 2 20.0855 51.2858 -6.1196 -9.0777 5.8248 6.8393
# 3 12.3041 -6.1196 67.1372 1.7394 -4.5204 5.8088
# 4 -3.6883 -9.0777 1.7394 19.0145 1.4399 -2.1240
# 5 -1.5545 5.8248 -4.5204 1.4399 37.6160 -1.3667
# 6 2.6708 6.8393 5.8088 -2.1240 -1.3667 32.0636
#
#
#
# Elastic Compliance Matrix: (Units=1/GPa)
#
#
# Indices 1 2 3 4 5 6 
#
# 1 0.010172 -0.004409 -0.002258 0.000071 0.000849 0.000543
# 2 -0.004409 0.024538 0.002916 0.010365 -0.004206 -0.004888
# 3 -0.002258 0.002916 0.015976 -0.000978 0.001291 -0.003338
# 4 0.000071 0.010365 -0.000978 0.058121 -0.003885 0.001645
# 5 0.000849 -0.004206 0.001291 -0.003885 0.027630 0.001513
# 6 0.000543 -0.004888 -0.003338 0.001645 0.001513 0.032963
#
#
# Mechanical properties :
#
#
# Convention : Reuss Voigt Hill
#
# Bulk Modulus (GPa) = 23.15764 31.19135 27.17449
# Shear Modulus (GPa) = 26.13753 31.19964 28.66859
#
# Velocity S-wave (km/s) = 3.41164 3.72739 3.57300
# Velocity P-wave (km/s) = 5.08245 5.69336 5.39656
#
# Compressibility (1/GPa) = 0.04318229
#
# Stress axis : x y z
#
# Youngs Moduli (GPa) = 98.30839 40.75392 62.59584
#
# Poissons Ratio (x) = 0.17970 0.14133
# Poissons Ratio (y) = 0.43349 -0.18252
# Poissons Ratio (z) = 0.22196 -0.11883
#
# Static dielectric constant tensor:
#      x y z
#    x 4.436010 -0.173020 0.068100 
#    y -0.173020 3.893410 -0.074360 
#    z 0.068100 -0.074360 3.959680 
# 
# 
# High freq. dielectric constant tensor:
#      x y z
#    x 1.888800 -0.002560 -0.000180 
#    y -0.002560 1.860840 0.006430 
#    z -0.000180 0.006430 1.892310 
# 
# From -- ./inp_files/56923.got.cif
#   From: 2010.06.25/outbox.cif.g09.slc.cpg/sg2_29_cif.got.tgz:56923.got - 2010.06.27 13:26:56.
