data_PCOD8002336
_publ_section_title
;
Structure prediction by ZEFSAII (Michael W. Deem and Ramdas Pophale) SiO2 
 PCOD8002336
Probable space group: P -1
;
_chemical_formula_sum "Si O2"
_cell_formula_units_Z 16
_cell_length_a 11.700003
_cell_length_b 11.517401
_cell_length_c 9.098504
_cell_angle_alpha 65.226809
_cell_angle_beta 129.606306
_cell_angle_gamma 129.659934
_cell_volume 727.049117
_symmetry_space_group_name_H-M "P -1"
_symmetry_group_IT_number 2
_symmetry_cell_setting 'triclinic'
loop_
_space_group_symop_operation_xyz
x,y,z
-x,-y,-z
loop_
_atom_site_type_symbol
_atom_site_label
_atom_site_fract_x
_atom_site_fract_y
_atom_site_fract_z
Si Si1 0.655534 0.004930 0.717276
Si Si2 0.898350 0.756801 0.729874
Si Si3 0.391310 0.271001 0.330083
Si Si4 0.353711 0.487201 0.992112
Si Si5 0.019641 0.690281 0.167573
Si Si6 0.241226 0.562081 0.321396
Si Si7 0.722238 0.036112 0.101730
Si Si8 0.398287 0.749478 0.058828
O O1 0.666527 0.859035 0.769601
O O2 0.500000 0.000000 0.500000
O O3 0.831507 0.152808 0.722682
O O4 0.649049 0.018907 0.881708
O O5 0.746516 0.794264 0.611730
O O6 0.824069 0.614229 0.634288
O O7 0.074657 0.910296 0.738496
O O8 0.963267 0.716988 0.950395
O O9 0.372735 0.409221 0.192864
O O10 0.591238 0.336592 0.494441
O O11 0.388748 0.652332 0.962227
O O12 0.500000 0.500000 0.000000
O O13 0.150849 0.386006 0.823835
O O14 0.086480 0.576939 0.253257
O O15 0.304851 0.632445 0.175624
O O16 0.605042 0.878773 0.177051
O O17 0.703206 0.164783 0.097327
#
# Coordination Sequence:
#
# PCOD8002336 Si02
#       8
#     2   2   2   2   2   2   2   2
#     4  11  20  38  59  87 125 158 205 248 296 363
#     4  10  20  35  59  92 116 153 208 245 289 363
#     4  11  23  35  62  89 120 162 199 249 304 357
#     4  11  24  40  60  90 124 161 199 253 305 356
#     4  10  20  36  65  85 115 162 206 241 290 367
#     4  12  19  39  65  91 120 157 207 246 299 357
#     4  10  22  36  61  93 117 162 204 248 302 355
#     4  11  20  37  63  88 124 155 202 248 304 353
#
# _framework density 22.006765999999999
#
# number of rings (size 3 to 8) (size 9 to 14) (size 15 to 20)
#    0.000    1.250    6.250    2.250    0.000    5.500 
#    0.000    1.250    8.250    0.000    0.000    0.000 
#    0.000    0.000    0.000    0.000    0.000    0.000 
#
# Total GULP energy -198223.669163 kJ/mol
# GULP energy per Si atom -12388.979323 kJ/mol
# Density = 2.195668 g / cm^3
# Si number density = 22.006766 Si / 1000 Ang^3
#
#
#
# Elastic Constant Matrix: (Units=GPa)
#
#
# Indices 1 2 3 4 5 6 
#
# 1 148.7151 41.8460 24.6956 23.2957 28.7650 12.7650
# 2 41.8460 93.3476 9.0516 28.7980 6.5485 0.3581
# 3 24.6956 9.0516 37.4930 17.6050 13.4779 -0.4494
# 4 23.2957 28.7980 17.6050 28.8152 2.4514 3.6998
# 5 28.7650 6.5485 13.4779 2.4514 23.1379 10.7090
# 6 12.7650 0.3581 -0.4494 3.6998 10.7090 47.8367
#
#
#
# Elastic Compliance Matrix: (Units=1/GPa)
#
#
# Indices 1 2 3 4 5 6 
#
# 1 0.010476 -0.002064 0.000931 -0.005971 -0.012585 0.000508
# 2 -0.002064 0.018265 0.010835 -0.023027 -0.008410 0.004179
# 3 0.000931 0.010835 0.059725 -0.046307 -0.040020 0.012772
# 4 -0.005971 -0.023027 -0.046307 0.089414 0.037958 -0.014082
# 5 -0.012585 -0.008410 -0.040020 0.037958 0.089787 -0.019991
# 6 0.000508 0.004179 0.012772 -0.014082 -0.019991 0.026422
#
#
# Mechanical properties :
#
#
# Convention : Reuss Voigt Hill
#
# Bulk Modulus (GPa) = 9.27024 47.86024 28.56524
# Shear Modulus (GPa) = 16.09576 33.55547 24.82561
#
# Velocity S-wave (km/s) = 2.70738 3.90908 3.36235
# Velocity P-wave (km/s) = 3.74096 6.49382 5.29927
#
# Compressibility (1/GPa) = 0.10787213
#
# Stress axis : x y z
#
# Youngs Moduli (GPa) = 95.45432 54.74990 16.74343
#
# Poissons Ratio (x) = 0.11299 -0.01560
# Poissons Ratio (y) = 0.19699 -0.18142
# Poissons Ratio (z) = -0.08891 -0.59324
#
# Static dielectric constant tensor:
#      x y z
#    x 5.022960 0.873310 0.521630 
#    y 0.873310 4.866600 0.424510 
#    z 0.521630 0.424510 3.649510 
# 
# 
# High freq. dielectric constant tensor:
#      x y z
#    x 1.877400 0.002230 0.028690 
#    y 0.002230 1.880240 0.023070 
#    z 0.028690 0.023070 1.817060 
# 
# From -- ./inp_files/257125.got.cif
#   From: 2010.06.25/outbox.cif.g09.slc.cpg/sg2_129_cif.got.tgz:257125.got - 2010.06.27 13:26:56.
