data_PCOD8002194
_publ_section_title
;
Structure prediction by ZEFSAII (Michael W. Deem and Ramdas Pophale) SiO2 
 PCOD8002194
Probable space group: P -1
;
_chemical_formula_sum "Si O2"
_cell_formula_units_Z 16
_cell_length_a 7.841148
_cell_length_b 12.506992
_cell_length_c 8.620813
_cell_angle_alpha 84.889384
_cell_angle_beta 104.722689
_cell_angle_gamma 105.178026
_cell_volume 788.924791
_symmetry_space_group_name_H-M "P -1"
_symmetry_group_IT_number 2
_symmetry_cell_setting 'triclinic'
loop_
_space_group_symop_operation_xyz
x,y,z
-x,-y,-z
loop_
_atom_site_type_symbol
_atom_site_label
_atom_site_fract_x
_atom_site_fract_y
_atom_site_fract_z
Si Si1 0.930490 0.960563 0.738463
Si Si2 0.395103 0.443991 0.335021
Si Si3 0.534123 0.833399 0.109436
Si Si4 0.757206 0.427827 0.303971
Si Si5 0.393257 0.583411 0.035403
Si Si6 0.227581 0.955573 0.031747
Si Si7 0.089269 0.354504 0.497974
Si Si8 0.808498 0.859312 0.421257
O O1 0.797477 0.872891 0.604602
O O2 0.815890 0.030833 0.798883
O O3 0.076878 0.031605 0.647452
O O4 0.042674 0.906009 0.897017
O O5 0.500000 0.500000 0.500000
O O6 0.538936 0.382050 0.296440
O O7 0.337135 0.536322 0.200746
O O8 0.206478 0.365524 0.363451
O O9 0.510588 0.710482 0.052099
O O10 0.341853 0.864443 0.061184
O O11 0.607126 0.833710 0.303095
O O12 0.671886 0.922186 0.023095
O O13 0.827024 0.552303 0.368161
O O14 0.879223 0.352029 0.414851
O O15 0.776821 0.425059 0.121006
O O16 0.500000 0.500000 0.000000
O O17 0.093778 0.237715 0.587750
#
# Coordination Sequence:
#
# PCOD8002194 Si02
#       8
#     2   2   2   2   2   2   2   2
#     4   9  20  38  57  81 114 142 188 240 288 340
#     4   9  18  35  54  75 114 147 183 232 278 337
#     4  10  20  36  60  83 114 148 189 237 282 344
#     4   9  20  36  54  81 113 151 192 232 282 340
#     4  10  20  35  57  84 115 149 187 236 283 341
#     4   9  20  39  58  83 110 148 191 234 288 342
#     4  10  20  37  56  80 117 154 187 236 285 344
#     4  10  20  36  57  82 112 149 183 239 288 338
#
# _framework density 20.280767999999998
#
# number of rings (size 3 to 8) (size 9 to 14) (size 15 to 20)
#    0.000    2.500    0.000    2.250    1.750    3.000 
#    9.000    1.250    0.000    0.000    0.000    0.000 
#    0.000    0.000    0.000    0.000    0.000    0.000 
#
# Total GULP energy -198216.472964 kJ/mol
# GULP energy per Si atom -12388.529560 kJ/mol
# Density = 2.023461 g / cm^3
# Si number density = 20.280768 Si / 1000 Ang^3
#
#
#
# Elastic Constant Matrix: (Units=GPa)
#
#
# Indices 1 2 3 4 5 6 
#
# 1 76.6396 11.4195 28.9139 6.2981 9.2708 -11.1302
# 2 11.4195 73.5945 33.9150 9.3365 11.3412 -18.2334
# 3 28.9139 33.9150 143.5782 19.5946 10.2242 -7.8393
# 4 6.2981 9.3365 19.5946 22.9820 -3.2675 1.8409
# 5 9.2708 11.3412 10.2242 -3.2675 26.0970 -2.8562
# 6 -11.1302 -18.2334 -7.8393 1.8409 -2.8562 21.3683
#
#
#
# Elastic Compliance Matrix: (Units=1/GPa)
#
#
# Indices 1 2 3 4 5 6 
#
# 1 0.015916 0.002248 -0.002185 -0.004908 -0.005392 0.009109
# 2 0.002248 0.021495 -0.002603 -0.009780 -0.008343 0.018285
# 3 -0.002185 -0.002603 0.009085 -0.006453 -0.002438 0.000204
# 4 -0.004908 -0.009780 -0.006453 0.057626 0.013945 -0.016370
# 5 -0.005392 -0.008343 -0.002438 0.013945 0.045917 -0.005886
# 6 0.009109 0.018285 0.000204 -0.016370 -0.005886 0.067843
#
#
# Mechanical properties :
#
#
# Convention : Reuss Voigt Hill
#
# Bulk Modulus (GPa) = 24.14532 49.14546 36.64539
# Shear Modulus (GPa) = 21.11770 28.72707 24.92239
#
# Velocity S-wave (km/s) = 3.23037 3.76768 3.50932
# Velocity P-wave (km/s) = 5.08381 6.57361 5.87612
#
# Compressibility (1/GPa) = 0.04141590
#
# Stress axis : x y z
#
# Youngs Moduli (GPa) = 62.83000 46.52163 110.07146
#
# Poissons Ratio (x) = -0.10456 0.24050
# Poissons Ratio (y) = -0.14122 0.28651
# Poissons Ratio (z) = 0.13728 0.12109
#
# Static dielectric constant tensor:
#      x y z
#    x 3.843000 0.005860 -0.010270 
#    y 0.005860 3.455380 0.028180 
#    z -0.010270 0.028180 4.526660 
# 
# 
# High freq. dielectric constant tensor:
#      x y z
#    x 1.771430 -0.010550 0.011930 
#    y -0.010550 1.768640 0.004250 
#    z 0.011930 0.004250 1.814050 
# 
# From -- ./inp_files/178096.got.cif
#   From: 2010.06.25/outbox.cif.g09.slc.cpg/sg2_90_cif.got.tgz:178096.got - 2010.06.27 13:26:56.
