data_PCOD8002992
_publ_section_title
;
Structure prediction by ZEFSAII (Michael W. Deem and Ramdas Pophale) SiO2 
 PCOD8002992
Probable space group: P -1
;
_chemical_formula_sum "Si O2"
_cell_formula_units_Z 16
_cell_length_a 22.801470
_cell_length_b 9.214491
_cell_length_c 17.103907
_cell_angle_alpha 142.707683
_cell_angle_beta 159.709757
_cell_angle_gamma 38.821315
_cell_volume 745.710544
_symmetry_space_group_name_H-M "P -1"
_symmetry_group_IT_number 2
_symmetry_cell_setting 'triclinic'
loop_
_space_group_symop_operation_xyz
x,y,z
-x,-y,-z
loop_
_atom_site_type_symbol
_atom_site_label
_atom_site_fract_x
_atom_site_fract_y
_atom_site_fract_z
Si Si1 0.993744 0.146542 0.675234
Si Si2 0.823842 0.118179 0.083941
Si Si3 0.803361 0.989785 0.733975
Si Si4 0.575178 0.550691 0.033169
Si Si5 0.931317 0.658942 0.312284
Si Si6 0.654077 0.322872 0.817053
Si Si7 0.674697 0.520956 0.441149
Si Si8 0.836935 0.793266 0.531159
O O1 0.830601 0.324529 0.581214
O O2 0.072008 0.261741 0.747939
O O3 0.936398 0.887804 0.472651
O O4 0.141525 0.113949 0.913902
O O5 0.015649 0.155019 0.319484
O O6 0.720071 0.332863 0.095863
O O7 0.719137 0.098547 0.863705
O O8 0.742736 0.755659 0.594747
O O9 0.780161 0.996309 0.613957
O O10 0.689645 0.225956 0.732007
O O11 0.000000 0.000000 0.000000
O O12 0.425071 0.602175 0.804301
O O13 0.500000 0.500000 0.000000
O O14 0.671723 0.782179 0.265459
O O15 0.099873 0.460189 0.452278
O O16 0.760877 0.539564 0.064650
O O17 0.452968 0.411455 0.616083
#
# Coordination Sequence:
#
# PCOD8002992 Si02
#       8
#     2   2   2   2   2   2   2   2
#     4  11  21  37  59  91 130 158 198 243 319 370
#     4  10  22  35  62  90 119 160 205 251 286 364
#     4  12  20  40  68  86 119 164 218 244 292 364
#     4  11  20  36  57  92 125 152 198 255 304 350
#     4  10  20  36  61  87 123 165 198 239 304 375
#     4  10  23  41  63  89 118 162 214 254 288 355
#     4  11  24  38  61  96 123 157 197 262 313 353
#     4  11  20  39  62  92 117 163 213 244 291 368
#
# _framework density 21.456047000000002
#
# number of rings (size 3 to 8) (size 9 to 14) (size 15 to 20)
#    0.000    1.250    6.250    0.750    5.250    0.500 
#    0.000    0.625    0.000    0.750    0.000    0.000 
#    0.000    0.000    0.000    0.000    0.000    0.000 
#
# Total GULP energy -198301.270323 kJ/mol
# GULP energy per Si atom -12393.829395 kJ/mol
# Density = 2.140721 g / cm^3
# Si number density = 21.456047 Si / 1000 Ang^3
#
#
#
# Elastic Constant Matrix: (Units=GPa)
#
#
# Indices 1 2 3 4 5 6 
#
# 1 112.0212 21.7798 17.5771 -10.4187 12.9607 -21.2111
# 2 21.7798 47.1578 6.2208 -9.5404 -3.4794 1.5033
# 3 17.5771 6.2208 67.3504 3.0809 3.9810 -10.6849
# 4 -10.4187 -9.5404 3.0809 27.0144 1.9243 -1.5570
# 5 12.9607 -3.4794 3.9810 1.9243 28.5387 -6.1384
# 6 -21.2111 1.5033 -10.6849 -1.5570 -6.1384 37.3326
#
#
#
# Elastic Compliance Matrix: (Units=1/GPa)
#
#
# Indices 1 2 3 4 5 6 
#
# 1 0.012273 -0.005247 -0.001637 0.003768 -0.004935 0.006062
# 2 -0.005247 0.025739 -0.002160 0.006778 0.004592 -0.003598
# 3 -0.001637 -0.002160 0.016221 -0.002982 -0.000820 0.003540
# 4 0.003768 0.006778 -0.002982 0.041534 -0.002777 0.002290
# 5 -0.004935 0.004592 -0.000820 -0.002777 0.038797 0.003040
# 6 0.006062 -0.003598 0.003540 0.002290 0.003040 0.031984
#
#
# Mechanical properties :
#
#
# Convention : Reuss Voigt Hill
#
# Bulk Modulus (GPa) = 27.66801 35.29831 31.48316
# Shear Modulus (GPa) = 25.42134 30.64058 28.03096
#
# Velocity S-wave (km/s) = 3.44584 3.78307 3.61839
# Velocity P-wave (km/s) = 5.36237 5.96400 5.67117
#
# Compressibility (1/GPa) = 0.03614283
#
# Stress axis : x y z
#
# Youngs Moduli (GPa) = 81.47795 38.85208 61.64826
#
# Poissons Ratio (x) = 0.20388 0.10094
# Poissons Ratio (y) = 0.42756 0.13317
# Poissons Ratio (z) = 0.13341 0.08393
#
# Static dielectric constant tensor:
#      x y z
#    x 4.151330 -0.198760 -0.022590 
#    y -0.198760 3.638790 -0.004940 
#    z -0.022590 -0.004940 3.998470 
# 
# 
# High freq. dielectric constant tensor:
#      x y z
#    x 1.865070 -0.012930 0.011050 
#    y -0.012930 1.800210 0.000180 
#    z 0.011050 0.000180 1.834610 
# 
# From -- ./inp_files/187395.got.cif
#   From: 2010.06.25/outbox.cif.g09.slc.cpg/sg2_94_cif.got.tgz:187395.got - 2010.06.27 13:26:56.
