data_PCOD8002503
_publ_section_title
;
Structure prediction by ZEFSAII (Michael W. Deem and Ramdas Pophale) SiO2 
 PCOD8002503
Probable space group: P -1
;
_chemical_formula_sum "Si O2"
_cell_formula_units_Z 16
_cell_length_a 11.261305
_cell_length_b 17.889765
_cell_length_c 7.593601
_cell_angle_alpha 65.512530
_cell_angle_beta 112.647978
_cell_angle_gamma 146.810199
_cell_volume 759.876970
_symmetry_space_group_name_H-M "P -1"
_symmetry_group_IT_number 2
_symmetry_cell_setting 'triclinic'
loop_
_space_group_symop_operation_xyz
x,y,z
-x,-y,-z
loop_
_atom_site_type_symbol
_atom_site_label
_atom_site_fract_x
_atom_site_fract_y
_atom_site_fract_z
Si Si1 0.092771 0.413155 0.143721
Si Si2 0.986177 0.888720 0.966633
Si Si3 0.005388 0.819150 0.700969
Si Si4 0.435469 0.383634 0.799747
Si Si5 0.189292 0.030516 0.300620
Si Si6 0.647189 0.323377 0.404567
Si Si7 0.529146 0.612676 0.575562
Si Si8 0.086428 0.555715 0.238673
O O1 0.324790 0.512802 0.081983
O O2 0.976059 0.266490 0.262889
O O3 0.151809 0.497247 0.269277
O O4 0.910680 0.372097 0.977245
O O5 0.954722 0.960737 0.782569
O O6 0.094970 0.884112 0.886919
O O7 0.749421 0.742467 0.051581
O O8 0.160769 0.980129 0.136145
O O9 0.759638 0.719056 0.693343
O O10 0.110987 0.926206 0.503059
O O11 0.394004 0.458339 0.661269
O O12 0.427835 0.335462 0.651514
O O13 0.442787 0.173321 0.347952
O O14 0.595476 0.387517 0.376077
O O15 0.832972 0.422388 0.270396
O O16 0.750278 0.329775 0.627362
#
# Coordination Sequence:
#
# PCOD8002503 Si02
#       8
#     2   2   2   2   2   2   2   2
#     4  10  22  41  63  92 124 161 206 269 304 363
#     4  11  23  37  64  96 131 167 199 245 318 399
#     4  11  23  41  64  95 131 164 199 259 321 372
#     4  10  20  36  62  98 127 154 197 260 328 363
#     4  11  24  41  58  95 131 167 204 251 310 379
#     4  11  22  40  65  87 121 169 206 259 306 371
#     4  10  20  35  63  96 126 158 193 264 324 372
#     4  10  23  42  63  90 118 163 220 255 307 358
#
# _framework density 21.056038999999998
#
# number of rings (size 3 to 8) (size 9 to 14) (size 15 to 20)
#    0.000    1.500    3.750    1.125    1.750    1.000 
#    6.750    1.250    0.000    0.000    0.000    0.000 
#    0.000    0.000    0.000    0.000    0.000    0.000 
#
# Total GULP energy -198273.466491 kJ/mol
# GULP energy per Si atom -12392.091656 kJ/mol
# Density = 2.100811 g / cm^3
# Si number density = 21.056039 Si / 1000 Ang^3
#
#
#
# Elastic Constant Matrix: (Units=GPa)
#
#
# Indices 1 2 3 4 5 6 
#
# 1 80.6951 36.5574 43.6949 -8.2284 5.0819 -3.4600
# 2 36.5574 116.6902 59.0950 9.5754 1.7664 -4.0007
# 3 43.6949 59.0950 113.0912 1.0012 -8.0386 -12.4818
# 4 -8.2284 9.5754 1.0012 35.7311 -5.1350 1.4542
# 5 5.0819 1.7664 -8.0386 -5.1350 19.3214 4.0052
# 6 -3.4600 -4.0007 -12.4818 1.4542 4.0052 18.6811
#
#
#
# Elastic Compliance Matrix: (Units=1/GPa)
#
#
# Indices 1 2 3 4 5 6 
#
# 1 0.017573 -0.002854 -0.005769 0.004186 -0.005578 -0.000341
# 2 -0.002854 0.012876 -0.005927 -0.004492 -0.003976 -0.000529
# 3 -0.005769 -0.005927 0.015381 0.000622 0.007313 0.006322
# 4 0.004186 -0.004492 0.000622 0.031571 0.008813 -0.004118
# 5 -0.005578 -0.003976 0.007313 0.008813 0.061212 -0.010808
# 6 -0.000341 -0.000529 0.006322 -0.004118 -0.010808 0.060216
#
#
# Mechanical properties :
#
#
# Convention : Reuss Voigt Hill
#
# Bulk Modulus (GPa) = 59.77724 65.46345 62.62035
# Shear Modulus (GPa) = 21.41281 26.15533 23.78407
#
# Velocity S-wave (km/s) = 3.19242 3.52828 3.36454
# Velocity P-wave (km/s) = 6.48382 6.91057 6.70059
#
# Compressibility (1/GPa) = 0.01672877
#
# Stress axis : x y z
#
# Youngs Moduli (GPa) = 56.90582 77.66390 65.01713
#
# Poissons Ratio (x) = 0.22168 0.37510
# Poissons Ratio (y) = 0.16243 0.38534
# Poissons Ratio (z) = 0.32831 0.46029
#
# Static dielectric constant tensor:
#      x y z
#    x 3.726700 -0.235580 0.092880 
#    y -0.235580 3.877630 0.171740 
#    z 0.092880 0.171740 4.051080 
# 
# 
# High freq. dielectric constant tensor:
#      x y z
#    x 1.808870 -0.012290 -0.005600 
#    y -0.012290 1.813210 0.014560 
#    z -0.005600 0.014560 1.834930 
# 
# From -- ./inp_files/277633.got.cif
#   From: 2010.06.25/outbox.cif.g09.slc.cpg/sg2_139_cif.got.tgz:277633.got - 2010.06.27 13:26:56.
