data_PCOD8002193
_publ_section_title
;
Structure prediction by ZEFSAII (Michael W. Deem and Ramdas Pophale) SiO2 
 PCOD8002193
Probable space group: P -1
;
_chemical_formula_sum "Si O2"
_cell_formula_units_Z 16
_cell_length_a 11.005571
_cell_length_b 6.680559
_cell_length_c 14.432352
_cell_angle_alpha 68.939709
_cell_angle_beta 93.493643
_cell_angle_gamma 54.277612
_cell_volume 750.841227
_symmetry_space_group_name_H-M "P -1"
_symmetry_group_IT_number 2
_symmetry_cell_setting 'triclinic'
loop_
_space_group_symop_operation_xyz
x,y,z
-x,-y,-z
loop_
_atom_site_type_symbol
_atom_site_label
_atom_site_fract_x
_atom_site_fract_y
_atom_site_fract_z
Si Si1 0.186744 0.213620 0.161987
Si Si2 0.100461 0.369353 0.334142
Si Si3 0.516036 0.631950 0.253975
Si Si4 0.224917 0.827144 0.539119
Si Si5 0.952658 0.311285 0.556671
Si Si6 0.836727 0.489260 0.063098
Si Si7 0.621709 0.349095 0.114286
Si Si8 0.252200 0.256219 0.792449
O O1 0.164272 0.351521 0.237786
O O2 0.029196 0.263002 0.115633
O O3 0.332210 0.880432 0.230414
O O4 0.223194 0.356234 0.064732
O O5 0.103279 0.591553 0.355196
O O6 0.919094 0.485980 0.302661
O O7 0.207205 0.056281 0.435147
O O8 0.594693 0.388184 0.376577
O O9 0.522002 0.525086 0.170645
O O10 0.615869 0.736708 0.242599
O O11 0.190061 0.643879 0.513153
O O12 0.108122 0.983585 0.598541
O O13 0.000000 0.500000 0.500000
O O14 0.773909 0.323096 0.103826
O O15 0.759628 0.728890 0.098737
O O16 0.696391 0.034662 0.189202
O O17 0.500000 0.500000 0.000000
#
# Coordination Sequence:
#
# PCOD8002193 Si02
#       8
#     2   2   2   2   2   2   2   2
#     4  10  21  40  59  82 121 160 187 231 294 346
#     4  10  21  37  58  84 116 154 195 233 279 344
#     4  11  22  37  59  88 121 151 188 240 291 340
#     4  10  20  35  57  84 114 150 191 238 285 331
#     4   9  17  33  57  81 107 145 193 239 278 325
#     4   9  21  42  61  81 118 156 191 236 287 348
#     4  11  22  38  64  92 113 145 195 245 290 338
#     4  10  20  37  62  88 113 150 198 243 284 336
#
# _framework density 21.309431
#
# number of rings (size 3 to 8) (size 9 to 14) (size 15 to 20)
#    0.000    2.000    0.000    4.500    0.000    5.500 
#    0.000   16.875    0.000    0.000    0.000    0.000 
#    0.000    0.000    0.000    0.000    0.000    0.000 
#
# Total GULP energy -198353.383782 kJ/mol
# GULP energy per Si atom -12397.086486 kJ/mol
# Density = 2.126093 g / cm^3
# Si number density = 21.309431 Si / 1000 Ang^3
#
#
#
# Elastic Constant Matrix: (Units=GPa)
#
#
# Indices 1 2 3 4 5 6 
#
# 1 40.3585 38.2466 12.3228 4.8930 8.7482 1.6174
# 2 38.2466 120.8353 55.1201 10.9917 11.0388 6.9941
# 3 12.3228 55.1201 119.0321 8.3007 14.0129 -2.4095
# 4 4.8930 10.9917 8.3007 41.7622 -3.2505 7.8770
# 5 8.7482 11.0388 14.0129 -3.2505 26.9993 -3.3360
# 6 1.6174 6.9941 -2.4095 7.8770 -3.3360 36.4459
#
#
#
# Elastic Compliance Matrix: (Units=1/GPa)
#
#
# Indices 1 2 3 4 5 6 
#
# 1 0.037770 -0.012322 0.003053 -0.002610 -0.009021 0.000629
# 2 -0.012322 0.014954 -0.005689 -0.000862 0.000422 -0.002474
# 3 0.003053 -0.005689 0.011421 -0.001805 -0.004601 0.001680
# 4 -0.002610 -0.000862 -0.001805 0.026154 0.004658 -0.005064
# 5 -0.009021 0.000422 -0.004601 0.004658 0.043102 0.002954
# 6 0.000629 -0.002474 0.001680 -0.005064 0.002954 0.029361
#
#
# Mechanical properties :
#
#
# Convention : Reuss Voigt Hill
#
# Bulk Modulus (GPa) = 29.21581 54.62278 41.91929
# Shear Modulus (GPa) = 24.49925 32.67725 28.58825
#
# Velocity S-wave (km/s) = 3.39439 3.92020 3.66673
# Velocity P-wave (km/s) = 5.39467 6.79554 6.13522
#
# Compressibility (1/GPa) = 0.03422805
#
# Stress axis : x y z
#
# Youngs Moduli (GPa) = 26.47611 66.87173 87.55923
#
# Poissons Ratio (x) = 0.82401 -0.26729
# Poissons Ratio (y) = 0.32625 0.49810
# Poissons Ratio (z) = -0.08082 0.38041
#
# Static dielectric constant tensor:
#      x y z
#    x 3.580090 0.009800 0.159910 
#    y 0.009800 4.184730 0.345700 
#    z 0.159910 0.345700 4.083500 
# 
# 
# High freq. dielectric constant tensor:
#      x y z
#    x 1.809110 0.002620 0.009760 
#    y 0.002620 1.837320 0.008380 
#    z 0.009760 0.008380 1.847200 
# 
# From -- ./inp_files/49360.got.cif
#   From: 2010.06.25/outbox.cif.g09.slc.cpg/sg2_25_cif.got.tgz:49360.got - 2010.06.27 13:26:56.
