data_PCOD8002205
_publ_section_title
;
Structure prediction by ZEFSAII (Michael W. Deem and Ramdas Pophale) SiO2 
 PCOD8002205
Probable space group: P -1
;
_chemical_formula_sum "Si O2"
_cell_formula_units_Z 16
_cell_length_a 5.114524
_cell_length_b 14.597736
_cell_length_c 16.390399
_cell_angle_alpha 48.094786
_cell_angle_beta 101.711581
_cell_angle_gamma 77.342563
_cell_volume 779.034351
_symmetry_space_group_name_H-M "P -1"
_symmetry_group_IT_number 2
_symmetry_cell_setting 'triclinic'
loop_
_space_group_symop_operation_xyz
x,y,z
-x,-y,-z
loop_
_atom_site_type_symbol
_atom_site_label
_atom_site_fract_x
_atom_site_fract_y
_atom_site_fract_z
Si Si1 0.173356 0.340689 0.080118
Si Si2 0.839987 0.144246 0.954113
Si Si3 0.827714 0.945512 0.332050
Si Si4 0.462476 0.361634 0.665905
Si Si5 0.145149 0.795747 0.766749
Si Si6 0.069872 0.670063 0.419121
Si Si7 0.817624 0.916219 0.528614
Si Si8 0.609826 0.837997 0.945809
O O1 0.495529 0.269497 0.189535
O O2 0.948698 0.279763 0.125489
O O3 0.254966 0.310517 0.006607
O O4 0.000000 0.500000 0.000000
O O5 0.587672 0.275001 0.808614
O O6 0.672515 0.132902 0.031015
O O7 0.116808 0.170157 0.979495
O O8 0.000000 0.000000 0.000000
O O9 0.765418 0.889094 0.447718
O O10 0.057988 0.803415 0.384473
O O11 0.980327 0.043826 0.303230
O O12 0.519598 0.036329 0.204941
O O13 0.242090 0.528719 0.569590
O O14 0.751239 0.346080 0.643401
O O15 0.270712 0.301529 0.640235
O O16 0.005934 0.780660 0.679995
O O17 0.500000 0.000000 0.500000
O O18 0.000000 0.000000 0.500000
#
# Coordination Sequence:
#
# PCOD8002205 Si02
#       8
#     2   2   2   2   2   2   2   2
#     4  11  23  43  62  87 124 174 204 255 308 367
#     4  12  23  39  62  91 123 159 199 257 305 353
#     4  10  21  38  62  91 119 153 209 247 305 356
#     4  10  22  40  59  83 126 153 201 242 306 361
#     4  10  21  38  62  88 123 155 209 258 305 365
#     4  10  21  39  62  86 114 164 191 249 304 363
#     4  10  20  35  57  86 121 151 187 257 307 346
#     4  11  23  38  61  90 120 157 208 248 295 376
#
# _framework density 20.538249
#
# number of rings (size 3 to 8) (size 9 to 14) (size 15 to 20)
#    0.000    1.500    0.000    6.750    0.000    5.000 
#    4.500    0.000    0.000    0.000    0.000    0.000 
#    0.000    0.000    0.000    0.000    0.000    0.000 
#
# Total GULP energy -198265.760530 kJ/mol
# GULP energy per Si atom -12391.610033 kJ/mol
# Density = 2.049150 g / cm^3
# Si number density = 20.538249 Si / 1000 Ang^3
#
#
#
# Elastic Constant Matrix: (Units=GPa)
#
#
# Indices 1 2 3 4 5 6 
#
# 1 94.9038 23.4912 15.6489 -2.8779 -0.1191 0.8858
# 2 23.4912 136.1996 54.2932 -16.1582 -2.9022 -10.6647
# 3 15.6489 54.2932 113.3678 8.1641 10.8498 5.1861
# 4 -2.8779 -16.1582 8.1641 30.1081 1.5046 -2.7751
# 5 -0.1191 -2.9022 10.8498 1.5046 30.2512 3.8347
# 6 0.8858 -10.6647 5.1861 -2.7751 3.8347 23.9040
#
#
#
# Elastic Compliance Matrix: (Units=1/GPa)
#
#
# Indices 1 2 3 4 5 6 
#
# 1 0.011087 -0.001663 -0.000732 0.000260 0.000261 -0.001006
# 2 -0.001663 0.011941 -0.006660 0.008638 0.002148 0.007492
# 3 -0.000732 -0.006660 0.013345 -0.007605 -0.004285 -0.006035
# 4 0.000260 0.008638 -0.007605 0.040865 0.000232 0.010201
# 5 0.000261 0.002148 -0.004285 0.000232 0.035265 -0.003752
# 6 -0.001006 0.007492 -0.006035 0.010201 -0.003752 0.048309
#
#
# Mechanical properties :
#
#
# Convention : Reuss Voigt Hill
#
# Bulk Modulus (GPa) = 54.75106 59.03752 56.89429
# Shear Modulus (GPa) = 27.02583 33.58851 30.30717
#
# Velocity S-wave (km/s) = 3.63144 4.04841 3.84558
# Velocity P-wave (km/s) = 6.65576 7.11761 6.89056
#
# Compressibility (1/GPa) = 0.01826449
#
# Stress axis : x y z
#
# Youngs Moduli (GPa) = 90.19697 83.74584 74.93461
#
# Poissons Ratio (x) = 0.13926 0.05483
# Poissons Ratio (y) = 0.14998 0.49903
# Poissons Ratio (z) = 0.06600 0.55771
#
# Static dielectric constant tensor:
#      x y z
#    x 3.866670 -0.162480 -0.021580 
#    y -0.162480 3.779530 0.179230 
#    z -0.021580 0.179230 4.185780 
# 
# 
# High freq. dielectric constant tensor:
#      x y z
#    x 1.815950 -0.003570 0.005910 
#    y -0.003570 1.787260 0.009740 
#    z 0.005910 0.009740 1.805630 
# 
# From -- ./inp_files/459585.got.cif
#   From: 2010.06.25/outbox.cif.g09.slc.cpg/sg2_230_cif.got.tgz:459585.got - 2010.06.27 13:26:56.
