data_PCOD8002008
_publ_section_title
;
Structure prediction by ZEFSAII (Michael W. Deem and Ramdas Pophale) SiO2 
 PCOD8002008
Probable space group: P -1
;
_chemical_formula_sum "Si O2"
_cell_formula_units_Z 16
_cell_length_a 11.455663
_cell_length_b 15.837123
_cell_length_c 10.250107
_cell_angle_alpha 59.967325
_cell_angle_beta 69.672703
_cell_angle_gamma 122.133315
_cell_volume 746.103397
_symmetry_space_group_name_H-M "P -1"
_symmetry_group_IT_number 2
_symmetry_cell_setting 'triclinic'
loop_
_space_group_symop_operation_xyz
x,y,z
-x,-y,-z
loop_
_atom_site_type_symbol
_atom_site_label
_atom_site_fract_x
_atom_site_fract_y
_atom_site_fract_z
Si Si1 0.645012 0.177316 0.390588
Si Si2 0.820242 0.296792 0.669462
Si Si3 0.013467 0.109317 0.742059
Si Si4 0.794058 0.575468 0.702487
Si Si5 0.462296 0.578557 0.591998
Si Si6 0.412814 0.322496 0.819308
Si Si7 0.629682 0.985404 0.115423
Si Si8 0.199445 0.510343 0.971577
O O1 0.468718 0.094732 0.639230
O O2 0.897666 0.298968 0.251454
O O3 0.500000 0.000000 0.500000
O O4 0.712767 0.318698 0.168950
O O5 0.584676 0.187034 0.774365
O O6 0.000000 0.500000 0.500000
O O7 0.965347 0.330264 0.481411
O O8 0.721099 0.159378 0.929726
O O9 0.123683 0.255751 0.473808
O O10 0.241603 0.214164 0.649036
O O11 0.847263 0.913682 0.888595
O O12 0.858239 0.066247 0.941740
O O13 0.585186 0.405031 0.808213
O O14 0.693394 0.485936 0.957049
O O15 0.349906 0.394163 0.799301
O O16 0.437342 0.594901 0.438325
O O17 0.303519 0.544791 0.766120
#
# Coordination Sequence:
#
# PCOD8002008 Si02
#       8
#     2   2   2   2   2   2   2   2
#     4  11  26  41  64  89 125 175 211 251 315 384
#     4  10  20  34  64  88 122 162 198 260 315 360
#     4  10  21  38  64  93 126 157 209 267 307 364
#     4  10  22  39  60  93 126 164 202 258 317 369
#     4  10  23  41  65  92 124 167 206 260 314 371
#     4  10  21  39  66  94 118 160 219 257 311 372
#     4  10  21  38  58  95 122 152 213 257 301 372
#     4  11  25  45  61  88 137 165 208 260 317 378
#
# _framework density 21.444745999999999
#
# number of rings (size 3 to 8) (size 9 to 14) (size 15 to 20)
#    0.000    1.750    1.250    1.875    1.750    8.000 
#    0.000    1.250    0.000    0.000    0.000    0.000 
#    0.000    0.000    0.000    0.000    0.000    0.000 
#
# Total GULP energy -198471.564541 kJ/mol
# GULP energy per Si atom -12404.472784 kJ/mol
# Density = 2.139594 g / cm^3
# Si number density = 21.444746 Si / 1000 Ang^3
#
#
#
# Elastic Constant Matrix: (Units=GPa)
#
#
# Indices 1 2 3 4 5 6 
#
# 1 65.3078 38.9914 29.1797 -3.0974 11.0579 7.5266
# 2 38.9914 121.8271 65.4705 -24.1985 22.5590 3.5088
# 3 29.1797 65.4705 87.1769 -20.5343 10.6246 2.6605
# 4 -3.0974 -24.1985 -20.5343 45.1811 -7.0540 4.0242
# 5 11.0579 22.5590 10.6246 -7.0540 28.6992 4.1319
# 6 7.5266 3.5088 2.6605 4.0242 4.1319 26.6255
#
#
#
# Elastic Compliance Matrix: (Units=1/GPa)
#
#
# Indices 1 2 3 4 5 6 
#
# 1 0.020450 -0.004427 -0.003671 -0.002782 -0.003160 -0.003920
# 2 -0.004427 0.016613 -0.009398 0.003143 -0.007194 0.000642
# 3 -0.003671 -0.009398 0.020549 0.004507 0.002422 -0.000834
# 4 -0.002782 0.003143 0.004507 0.026754 0.004196 -0.004773
# 5 -0.003160 -0.007194 0.002422 0.004196 0.042666 -0.005656
# 6 -0.003920 0.000642 -0.000834 -0.004773 -0.005656 0.040264
#
#
# Mechanical properties :
#
#
# Convention : Reuss Voigt Hill
#
# Bulk Modulus (GPa) = 44.20438 60.17722 52.19080
# Shear Modulus (GPa) = 23.82899 29.47916 26.65408
#
# Velocity S-wave (km/s) = 3.33705 3.71166 3.52933
# Velocity P-wave (km/s) = 5.95867 6.81843 6.40300
#
# Compressibility (1/GPa) = 0.02262219
#
# Stress axis : x y z
#
# Youngs Moduli (GPa) = 48.89927 60.19209 48.66369
#
# Poissons Ratio (x) = 0.26646 0.17864
# Poissons Ratio (y) = 0.21647 0.45732
# Poissons Ratio (z) = 0.17950 0.56566
#
# Static dielectric constant tensor:
#      x y z
#    x 3.851420 0.001750 0.117410 
#    y 0.001750 3.730350 -0.166770 
#    z 0.117410 -0.166770 3.955370 
# 
# 
# High freq. dielectric constant tensor:
#      x y z
#    x 1.844900 -0.000540 0.009040 
#    y -0.000540 1.831120 -0.014490 
#    z 0.009040 -0.014490 1.843250 
# 
# From -- ./inp_files/272478.got.cif
#   From: 2010.06.25/outbox.cif.g09.slc.cpg/sg2_137_cif.got.tgz:272478.got - 2010.06.27 13:26:56.
