data_PCOD8002763
_publ_section_title
;
Structure prediction by ZEFSAII (Michael W. Deem and Ramdas Pophale) SiO2 
 PCOD8002763
Probable space group: P -1
;
_chemical_formula_sum "Si O2"
_cell_formula_units_Z 14
_cell_length_a 11.458839
_cell_length_b 12.283407
_cell_length_c 6.032697
_cell_angle_alpha 61.617242
_cell_angle_beta 99.125358
_cell_angle_gamma 116.626577
_cell_volume 666.222149
_symmetry_space_group_name_H-M "P -1"
_symmetry_group_IT_number 2
_symmetry_cell_setting 'triclinic'
loop_
_space_group_symop_operation_xyz
x,y,z
-x,-y,-z
loop_
_atom_site_type_symbol
_atom_site_label
_atom_site_fract_x
_atom_site_fract_y
_atom_site_fract_z
Si Si1 0.042975 0.927666 0.387609
Si Si2 0.877364 0.490599 0.741606
Si Si3 0.859341 0.292132 0.294023
Si Si4 0.571798 0.654959 0.458334
Si Si5 0.740801 0.606768 0.912337
Si Si6 0.323989 0.635986 0.575946
Si Si7 0.816723 0.816591 0.099280
O O1 0.120049 0.844878 0.589524
O O2 0.913249 0.823178 0.322522
O O3 0.000000 0.000000 0.500000
O O4 0.141472 0.033709 0.137756
O O5 0.843670 0.587162 0.803571
O O6 0.787100 0.461202 0.530726
O O7 0.030264 0.585568 0.643801
O O8 0.856718 0.348254 0.991494
O O9 0.722903 0.260121 0.413879
O O10 0.500000 0.500000 0.500000
O O11 0.648457 0.659765 0.702025
O O12 0.463172 0.713030 0.418590
O O13 0.668356 0.754618 0.205909
O O14 0.652757 0.463428 0.143956
O O15 0.828652 0.720152 0.004903
#
# Coordination Sequence:
#
# PCOD8002763 Si02
#       7
#     2   2   2   2   2   2   2
#     4  11  24  45  64  89 119 160 212 256 303 360
#     4  10  20  36  58  91 123 158 197 252 310 358
#     4  10  22  36  58  86 122 158 200 255 304 362
#     4  12  22  37  61  95 129 159 203 248 298 365
#     4  11  20  37  61  94 124 158 201 252 304 358
#     4  11  22  35  58  90 127 160 196 248 308 359
#     4  11  24  38  66  91 121 162 207 253 304 354
#
# _framework density 21.014012999999998
#
# number of rings (size 3 to 8) (size 9 to 14) (size 15 to 20)
#    0.000    1.143    2.857    4.286    0.000    4.571 
#    0.000    0.714    0.000    4.286    0.000    0.000 
#    0.000    0.000    0.000    0.000    0.000    0.000 
#
# Total GULP energy -173603.796139 kJ/mol
# GULP energy per Si atom -12400.271153 kJ/mol
# Density = 2.096618 g / cm^3
# Si number density = 21.014013 Si / 1000 Ang^3
#
#
#
# Elastic Constant Matrix: (Units=GPa)
#
#
# Indices 1 2 3 4 5 6 
#
# 1 135.1632 38.2382 48.7011 -15.2169 -9.7608 -14.8774
# 2 38.2382 79.9939 25.2819 6.5989 -0.4363 -11.7161
# 3 48.7011 25.2819 87.2024 -5.4692 -0.9623 -4.3848
# 4 -15.2169 6.5989 -5.4692 34.2918 6.4856 0.7300
# 5 -9.7608 -0.4363 -0.9623 6.4856 35.0199 -6.9596
# 6 -14.8774 -11.7161 -4.3848 0.7300 -6.9596 36.0934
#
#
#
# Elastic Compliance Matrix: (Units=1/GPa)
#
#
# Indices 1 2 3 4 5 6 
#
# 1 0.011201 -0.003728 -0.004707 0.004338 0.002796 0.003286
# 2 -0.003728 0.016135 -0.002745 -0.005428 0.000814 0.003634
# 3 -0.004707 -0.002745 0.014880 0.001106 -0.001404 -0.001316
# 4 0.004338 -0.005428 0.001106 0.033344 -0.005309 -0.001537
# 5 0.002796 0.000814 -0.001404 -0.005309 0.031776 0.007481
# 6 0.003286 0.003634 -0.001316 -0.001537 0.007481 0.031554
#
#
# Mechanical properties :
#
#
# Convention : Reuss Voigt Hill
#
# Bulk Modulus (GPa) = 50.35964 58.53355 54.44660
# Shear Modulus (GPa) = 29.78550 33.75692 31.77121
#
# Velocity S-wave (km/s) = 3.76894 4.01234 3.89254
# Velocity P-wave (km/s) = 6.55413 7.02710 6.79473
#
# Compressibility (1/GPa) = 0.01985717
#
# Stress axis : x y z
#
# Youngs Moduli (GPa) = 89.27739 61.97738 67.20653
#
# Poissons Ratio (x) = 0.23106 0.31631
# Poissons Ratio (y) = 0.33283 0.18445
# Poissons Ratio (z) = 0.42019 0.17010
#
# Static dielectric constant tensor:
#      x y z
#    x 4.002730 0.020670 -0.092380 
#    y 0.020670 3.493020 0.113380 
#    z -0.092380 0.113380 4.003550 
# 
# 
# High freq. dielectric constant tensor:
#      x y z
#    x 1.828290 -0.002520 -0.007990 
#    y -0.002520 1.789510 0.015290 
#    z -0.007990 0.015290 1.832460 
# 
# From -- ./inp_files/63828.got.cif
#   From: 2010.06.25/outbox.cif.g09.slc.cpg/sg2_32_cif.got.tgz:63828.got - 2010.06.27 13:26:56.
