data_PCOD8002911
_publ_section_title
;
Structure prediction by ZEFSAII (Michael W. Deem and Ramdas Pophale) SiO2 
 PCOD8002911
Probable space group: P -1
;
_chemical_formula_sum "Si O2"
_cell_formula_units_Z 16
_cell_length_a 19.318136
_cell_length_b 27.564381
_cell_length_c 8.768159
_cell_angle_alpha 151.803605
_cell_angle_beta 39.419351
_cell_angle_gamma 158.433156
_cell_volume 780.519497
_symmetry_space_group_name_H-M "P -1"
_symmetry_group_IT_number 2
_symmetry_cell_setting 'triclinic'
loop_
_space_group_symop_operation_xyz
x,y,z
-x,-y,-z
loop_
_atom_site_type_symbol
_atom_site_label
_atom_site_fract_x
_atom_site_fract_y
_atom_site_fract_z
Si Si1 0.358553 0.293230 0.096048
Si Si2 0.998668 0.077713 0.515615
Si Si3 0.255808 0.104205 0.280978
Si Si4 0.048598 0.422931 0.250582
Si Si5 0.848107 0.686935 0.375119
Si Si6 0.559298 0.321192 0.605124
Si Si7 0.643579 0.018229 0.813388
Si Si8 0.749848 0.964307 0.217210
O O1 0.345698 0.405822 0.480597
O O2 0.552301 0.411795 0.992805
O O3 0.346631 0.216596 0.057578
O O4 0.174547 0.120956 0.823462
O O5 0.178581 0.147551 0.454444
O O6 0.093112 0.236814 0.687321
O O7 0.904379 0.058156 0.771743
O O8 0.467768 0.286667 0.505879
O O9 0.292646 0.052690 0.937542
O O10 0.221087 0.550699 0.438446
O O11 0.000000 0.500000 0.500000
O O12 0.143203 0.431724 0.970105
O O13 0.851095 0.217281 0.078380
O O14 0.016908 0.862610 0.683841
O O15 0.425181 0.125420 0.357448
O O16 0.666287 0.995906 0.539876
O O17 0.500000 0.000000 0.000000
#
# Coordination Sequence:
#
# PCOD8002911 Si02
#       8
#     2   2   2   2   2   2   2   2
#     4   9  15  30  52  81 115 140 187 224 275 325
#     4   9  16  27  51  84 117 152 176 220 274 343
#     4  10  16  28  51  83 123 143 176 221 285 338
#     4  11  22  37  58  81 109 143 195 241 264 322
#     4  10  17  31  54  81 110 147 190 227 275 318
#     4  10  22  35  56  89 113 146 179 231 281 336
#     4  10  20  39  64  79 101 147 193 231 281 313
#     4   9  16  28  55  85 108 143 184 230 268 335
#
# _framework density 20.499168999999998
#
# number of rings (size 3 to 8) (size 9 to 14) (size 15 to 20)
#    0.000    2.250    3.750    3.000    0.000    0.500 
#    0.000    1.250    0.000    9.750    0.000    0.000 
#    0.000    0.000    0.000    0.000    0.000    0.000 
#
# Total GULP energy -198241.857829 kJ/mol
# GULP energy per Si atom -12390.116114 kJ/mol
# Density = 2.045251 g / cm^3
# Si number density = 20.499169 Si / 1000 Ang^3
#
#
#
# Elastic Constant Matrix: (Units=GPa)
#
#
# Indices 1 2 3 4 5 6 
#
# 1 102.3151 48.3158 55.6880 -13.6716 14.9303 21.3075
# 2 48.3158 109.6405 47.6716 -8.9675 4.5007 27.9108
# 3 55.6880 47.6716 92.5442 -17.8798 -7.8336 2.4749
# 4 -13.6716 -8.9675 -17.8798 34.1534 2.2709 -1.2379
# 5 14.9303 4.5007 -7.8336 2.2709 36.7546 -8.4751
# 6 21.3075 27.9108 2.4749 -1.2379 -8.4751 40.3952
#
#
#
# Elastic Compliance Matrix: (Units=1/GPa)
#
#
# Indices 1 2 3 4 5 6 
#
# 1 0.023645 0.001170 -0.015395 0.002258 -0.016811 -0.015795
# 2 0.001170 0.016242 -0.009384 -0.000152 -0.007412 -0.012824
# 3 -0.015395 -0.009384 0.026816 0.004907 0.016643 0.016604
# 4 0.002258 -0.000152 0.004907 0.032821 -0.002068 -0.000815
# 5 -0.016811 -0.007412 0.016643 -0.002068 0.043709 0.022075
# 6 -0.015795 -0.012824 0.016604 -0.000815 0.022075 0.045536
#
#
# Mechanical properties :
#
#
# Convention : Reuss Voigt Hill
#
# Bulk Modulus (GPa) = 51.32420 67.53897 59.43159
# Shear Modulus (GPa) = 20.62006 32.44894 26.53450
#
# Velocity S-wave (km/s) = 3.17503 3.98293 3.60171
# Velocity P-wave (km/s) = 6.20747 7.36005 6.80819
#
# Compressibility (1/GPa) = 0.01948399
#
# Stress axis : x y z
#
# Youngs Moduli (GPa) = 42.29300 61.56941 37.29076
#
# Poissons Ratio (x) = -0.07201 0.57409
# Poissons Ratio (y) = -0.04947 0.34994
# Poissons Ratio (z) = 0.65109 0.57777
#
# Static dielectric constant tensor:
#      x y z
#    x 3.692630 0.312740 0.015790 
#    y 0.312740 3.969040 -0.053040 
#    z 0.015790 -0.053040 3.949620 
# 
# 
# High freq. dielectric constant tensor:
#      x y z
#    x 1.773540 0.032880 0.004660 
#    y 0.032880 1.812950 0.004780 
#    z 0.004660 0.004780 1.802620 
# 
# From -- ./inp_files/350315.got.cif
#   From: 2010.06.25/outbox.cif.g09.slc.cpg/sg2_176_cif.got.tgz:350315.got - 2010.06.27 13:26:56.
