data_PCOD8002371
_publ_section_title
;
Structure prediction by ZEFSAII (Michael W. Deem and Ramdas Pophale) SiO2 
 PCOD8002371
Probable space group: P -1
;
_chemical_formula_sum "Si O2"
_cell_formula_units_Z 16
_cell_length_a 14.862492
_cell_length_b 15.157163
_cell_length_c 12.242295
_cell_angle_alpha 41.333602
_cell_angle_beta 37.429210
_cell_angle_gamma 27.405161
_cell_volume 761.057697
_symmetry_space_group_name_H-M "P -1"
_symmetry_group_IT_number 2
_symmetry_cell_setting 'triclinic'
loop_
_space_group_symop_operation_xyz
x,y,z
-x,-y,-z
loop_
_atom_site_type_symbol
_atom_site_label
_atom_site_fract_x
_atom_site_fract_y
_atom_site_fract_z
Si Si1 0.888100 0.495225 0.267303
Si Si2 0.958472 0.232702 0.772779
Si Si3 0.433112 0.169613 0.334507
Si Si4 0.334123 0.222007 0.983934
Si Si5 0.515119 0.721261 0.019670
Si Si6 0.679391 0.204774 0.197609
Si Si7 0.056480 0.538333 0.259100
Si Si8 0.336653 0.555246 0.333836
O O1 0.883325 0.590240 0.293608
O O2 0.760789 0.441333 0.463976
O O3 0.133077 0.300469 0.177311
O O4 0.757387 0.655038 0.151616
O O5 0.826445 0.383391 0.661332
O O6 0.050197 0.280478 0.727833
O O7 0.796913 0.239784 0.982868
O O8 0.160102 0.022880 0.719921
O O9 0.554647 0.110999 0.153063
O O10 0.481893 0.275262 0.252311
O O11 0.173227 0.342936 0.401086
O O12 0.500000 0.000000 0.500000
O O13 0.471586 0.237678 0.906950
O O14 0.500000 0.000000 0.000000
O O15 0.752479 0.515354 0.944836
O O16 0.347725 0.708461 0.189843
O O17 0.573551 0.336744 0.286076
#
# Coordination Sequence:
#
# PCOD8002371 Si02
#       8
#     2   2   2   2   2   2   2   2
#     4  10  25  41  67  95 116 166 211 267 321 368
#     4  11  21  36  60  88 134 172 211 239 303 376
#     4  10  20  35  60  89 130 170 220 241 299 377
#     4  10  23  49  68  88 121 156 215 272 322 374
#     4   9  20  39  68  85 123 175 199 262 322 363
#     4  11  22  35  57  90 128 178 203 248 297 367
#     4   9  19  41  60  87 131 174 205 251 303 368
#     4  12  21  41  61  92 135 158 211 258 311 372
#
# _framework density 21.023374
#
# number of rings (size 3 to 8) (size 9 to 14) (size 15 to 20)
#    0.750    1.000    3.750    0.375    1.750    5.000 
#    0.000    0.625    0.000    0.000    0.000    0.000 
#    0.000    0.000    0.000    0.000    0.000    0.000 
#
# Total GULP energy -198251.126980 kJ/mol
# GULP energy per Si atom -12390.695436 kJ/mol
# Density = 2.097552 g / cm^3
# Si number density = 21.023374 Si / 1000 Ang^3
#
#
#
# Elastic Constant Matrix: (Units=GPa)
#
#
# Indices 1 2 3 4 5 6 
#
# 1 125.5454 45.3529 47.2462 -11.9079 4.9785 4.6935
# 2 45.3529 109.9776 46.7850 -0.1228 18.8495 7.3686
# 3 47.2462 46.7850 116.1302 -8.0006 2.0330 -0.5568
# 4 -11.9079 -0.1228 -8.0006 26.4700 -3.5583 1.7380
# 5 4.9785 18.8495 2.0330 -3.5583 12.8910 -1.5221
# 6 4.6935 7.3686 -0.5568 1.7380 -1.5221 23.5172
#
#
#
# Elastic Compliance Matrix: (Units=1/GPa)
#
#
# Indices 1 2 3 4 5 6 
#
# 1 0.010619 -0.003662 -0.002594 0.004422 0.002743 -0.001183
# 2 -0.003662 0.018033 -0.005786 -0.006471 -0.026572 -0.006298
# 3 -0.002594 -0.005786 0.012095 0.003460 0.008857 0.002935
# 4 0.004422 -0.006471 0.003460 0.043400 0.019100 -0.000744
# 5 0.002743 -0.026572 0.008857 0.019100 0.120944 0.014404
# 6 -0.001183 -0.006298 0.002935 -0.000744 0.014404 0.045788
#
#
# Mechanical properties :
#
#
# Convention : Reuss Voigt Hill
#
# Bulk Modulus (GPa) = 60.01153 70.04681 65.02917
# Shear Modulus (GPa) = 17.82414 26.72690 22.27552
#
# Velocity S-wave (km/s) = 2.91490 3.56939 3.25862
# Velocity P-wave (km/s) = 6.31949 7.09776 6.71991
#
# Compressibility (1/GPa) = 0.01666346
#
# Stress axis : x y z
#
# Youngs Moduli (GPa) = 94.16966 55.45331 82.67976
#
# Poissons Ratio (x) = 0.20304 0.21448
# Poissons Ratio (y) = 0.34481 0.47840
# Poissons Ratio (z) = 0.24429 0.32086
#
# Static dielectric constant tensor:
#      x y z
#    x 3.841120 -0.069240 -0.048910 
#    y -0.069240 3.596630 0.067410 
#    z -0.048910 0.067410 3.827710 
# 
# 
# High freq. dielectric constant tensor:
#      x y z
#    x 1.815970 -0.005880 -0.011760 
#    y -0.005880 1.805440 0.001960 
#    z -0.011760 0.001960 1.825010 
# 
# From -- ./inp_files/455535.got.cif
#   From: 2010.06.25/outbox.cif.g09.slc.cpg/sg2_228_cif.got.tgz:455535.got - 2010.06.27 13:26:56.
