data_PCOD8002164
_publ_section_title
;
Structure prediction by ZEFSAII (Michael W. Deem and Ramdas Pophale) SiO2 
 PCOD8002164
Probable space group: P -1
;
_chemical_formula_sum "Si O2"
_cell_formula_units_Z 16
_cell_length_a 13.416691
_cell_length_b 9.105347
_cell_length_c 10.821334
_cell_angle_alpha 72.294014
_cell_angle_beta 78.987635
_cell_angle_gamma 44.623981
_cell_volume 883.992976
_symmetry_space_group_name_H-M "P -1"
_symmetry_group_IT_number 2
_symmetry_cell_setting 'triclinic'
loop_
_space_group_symop_operation_xyz
x,y,z
-x,-y,-z
loop_
_atom_site_type_symbol
_atom_site_label
_atom_site_fract_x
_atom_site_fract_y
_atom_site_fract_z
Si Si1 0.642502 0.287832 0.460476
Si Si2 0.535631 0.114399 0.389015
Si Si3 0.180671 0.655749 0.703666
Si Si4 0.878952 0.087520 0.655308
Si Si5 0.027595 0.550263 0.177661
Si Si6 0.032594 0.240715 0.105028
Si Si7 0.778946 0.521531 0.652330
Si Si8 0.217819 0.316285 0.637232
O O1 0.500000 0.500000 0.500000
O O2 0.617710 0.146709 0.448128
O O3 0.697158 0.343281 0.322334
O O4 0.762620 0.151897 0.570880
O O5 0.387349 0.342609 0.316930
O O6 0.500000 0.000000 0.500000
O O7 0.647508 0.939970 0.302234
O O8 0.245612 0.452542 0.655908
O O9 0.131571 0.635763 0.852270
O O10 0.038017 0.882263 0.616534
O O11 0.860974 0.284854 0.643259
O O12 0.861904 0.005415 0.808213
O O13 0.918878 0.622843 0.292422
O O14 0.075767 0.350615 0.139592
O O15 0.161092 0.487114 0.228169
O O16 0.957650 0.746502 0.047546
O O17 0.799199 0.637084 0.517859
#
# Coordination Sequence:
#
# PCOD8002164 Si02
#       8
#     2   2   2   2   2   2   2   2
#     4  12  20  35  57  82 120 151 173 232 281 338
#     4  10  23  35  50  84 120 145 180 217 294 336
#     4   9  20  36  57  81 112 142 190 226 275 331
#     4  10  21  35  57  84 112 142 190 222 282 332
#     4  10  20  37  61  78 116 143 195 229 277 320
#     4   8  21  38  57  84 106 154 187 232 268 333
#     4  11  21  35  53  89 114 145 178 239 279 331
#     4  10  20  35  56  87 112 143 184 234 282 327
#
# _framework density 18.099691
#
# number of rings (size 3 to 8) (size 9 to 14) (size 15 to 20)
#    0.750    1.250    2.500    1.500    5.250    0.500 
#    0.000    0.000    2.750    3.750    0.000    0.000 
#    0.000    0.000    0.000    0.000    0.000    0.000 
#
# Total GULP energy -198233.901897 kJ/mol
# GULP energy per Si atom -12389.618869 kJ/mol
# Density = 1.805849 g / cm^3
# Si number density = 18.099691 Si / 1000 Ang^3
#
#
#
# Elastic Constant Matrix: (Units=GPa)
#
#
# Indices 1 2 3 4 5 6 
#
# 1 123.9541 40.1400 40.8666 -0.2220 9.6649 7.3634
# 2 40.1400 117.2516 19.3390 4.7435 7.5275 -1.6190
# 3 40.8666 19.3390 80.4311 -2.6278 4.8748 3.0880
# 4 -0.2220 4.7435 -2.6278 12.1949 6.9119 0.4266
# 5 9.6649 7.5275 4.8748 6.9119 18.9284 -5.1729
# 6 7.3634 -1.6190 3.0880 0.4266 -5.1729 25.5451
#
#
#
# Elastic Compliance Matrix: (Units=1/GPa)
#
#
# Indices 1 2 3 4 5 6 
#
# 1 0.011165 -0.002944 -0.004311 0.003971 -0.006009 -0.004167
# 2 -0.002944 0.009915 -0.001069 -0.004064 -0.000236 0.001626
# 3 -0.004311 -0.001069 0.015373 0.005933 -0.003931 -0.001578
# 4 0.003971 -0.004064 0.005933 0.111687 -0.046379 -0.013376
# 5 -0.006009 -0.000236 -0.003931 -0.046379 0.079130 0.018990
# 6 -0.004167 0.001626 -0.001578 -0.013376 0.018990 0.044710
#
#
# Mechanical properties :
#
#
# Convention : Reuss Voigt Hill
#
# Bulk Modulus (GPa) = 50.49213 58.03644 54.26429
# Shear Modulus (GPa) = 16.93586 26.08642 21.51114
#
# Velocity S-wave (km/s) = 3.06224 3.80052 3.45118
# Velocity P-wave (km/s) = 6.36084 7.16890 6.77692
#
# Compressibility (1/GPa) = 0.01980507
#
# Stress axis : x y z
#
# Youngs Moduli (GPa) = 89.56310 100.85973 65.04768
#
# Poissons Ratio (x) = 0.29690 0.28045
# Poissons Ratio (y) = 0.26364 0.06955
# Poissons Ratio (z) = 0.38614 0.10783
#
# Static dielectric constant tensor:
#      x y z
#    x 3.526990 -0.175490 -0.192450 
#    y -0.175490 3.797560 -0.034930 
#    z -0.192450 -0.034930 3.186290 
# 
# 
# High freq. dielectric constant tensor:
#      x y z
#    x 1.702110 0.008350 -0.012640 
#    y 0.008350 1.704930 -0.001740 
#    z -0.012640 -0.001740 1.668420 
# 
# From -- ./inp_files/417135.got.cif
#   From: 2010.06.25/outbox.cif.g09.slc.cpg/sg2_209_cif.got.tgz:417135.got - 2010.06.27 13:26:56.
