data_PCOD8002104
_publ_section_title
;
Structure prediction by ZEFSAII (Michael W. Deem and Ramdas Pophale) SiO2 
 PCOD8002104
Probable space group: P -1
;
_chemical_formula_sum "Si O2"
_cell_formula_units_Z 14
_cell_length_a 8.057789
_cell_length_b 12.599261
_cell_length_c 8.803885
_cell_angle_alpha 101.680906
_cell_angle_beta 130.878177
_cell_angle_gamma 91.383795
_cell_volume 646.821036
_symmetry_space_group_name_H-M "P -1"
_symmetry_group_IT_number 2
_symmetry_cell_setting 'triclinic'
loop_
_space_group_symop_operation_xyz
x,y,z
-x,-y,-z
loop_
_atom_site_type_symbol
_atom_site_label
_atom_site_fract_x
_atom_site_fract_y
_atom_site_fract_z
Si Si1 0.680503 0.419800 0.407264
Si Si2 0.241750 0.649141 0.245715
Si Si3 0.507715 0.882893 0.539601
Si Si4 0.661159 0.033210 0.246843
Si Si5 0.842456 0.863356 0.511633
Si Si6 0.869859 0.624593 0.413168
Si Si7 0.259371 0.448786 0.005410
O O1 0.635529 0.394382 0.549919
O O2 0.795486 0.550909 0.497060
O O3 0.447890 0.387935 0.167582
O O4 0.859346 0.349193 0.432971
O O5 0.332963 0.781746 0.323244
O O6 0.301783 0.578047 0.118970
O O7 0.974242 0.625344 0.096675
O O8 0.448954 0.886175 0.684750
O O9 0.759911 0.870139 0.640140
O O10 0.500000 0.000000 0.500000
O O11 0.893153 0.095488 0.330581
O O12 0.704178 0.927395 0.334818
O O13 0.500000 0.000000 0.000000
O O14 0.777843 0.735624 0.390533
O O15 0.742381 0.550097 0.177240
#
# Coordination Sequence:
#
# PCOD8002104 Si02
#       7
#     2   2   2   2   2   2   2
#     4  10  20  35  55  82 123 164 204 249 300 363
#     4  10  21  38  59  88 122 159 207 254 307 371
#     4  10  22  43  65  88 124 163 203 258 316 367
#     4  10  22  42  66  93 120 160 215 259 310 372
#     4  10  22  41  64  89 129 166 198 261 318 362
#     4  10  21  36  56  89 124 161 206 248 305 374
#     4  10  20  35  59  88 122 163 202 251 308 366
#
# _framework density 21.644316
#
# number of rings (size 3 to 8) (size 9 to 14) (size 15 to 20)
#    0.000    2.000    0.000    3.429    0.000    2.857 
#    0.000   14.286    0.000    0.000    0.000    0.000 
#    0.000    0.000    0.000    0.000    0.000    0.000 
#
# Total GULP energy -173508.729395 kJ/mol
# GULP energy per Si atom -12393.480671 kJ/mol
# Density = 2.159505 g / cm^3
# Si number density = 21.644316 Si / 1000 Ang^3
#
#
#
# Elastic Constant Matrix: (Units=GPa)
#
#
# Indices 1 2 3 4 5 6 
#
# 1 143.0474 46.4822 60.3144 12.9552 -5.9717 -11.7632
# 2 46.4822 120.5665 41.1363 23.4358 -5.8835 -3.9812
# 3 60.3144 41.1363 117.8008 -0.0145 8.6544 -15.7739
# 4 12.9552 23.4358 -0.0145 31.5818 -10.2552 1.5678
# 5 -5.9717 -5.8835 8.6544 -10.2552 25.8635 3.6653
# 6 -11.7632 -3.9812 -15.7739 1.5678 3.6653 31.4662
#
#
#
# Elastic Compliance Matrix: (Units=1/GPa)
#
#
# Indices 1 2 3 4 5 6 
#
# 1 0.009794 -0.001711 -0.004457 -0.002015 0.002419 0.001029
# 2 -0.001711 0.011572 -0.003249 -0.007763 0.000311 -0.000454
# 3 -0.004457 -0.003249 0.013026 0.002034 -0.006037 0.005054
# 4 -0.002015 -0.007763 0.002034 0.043326 0.014921 -0.004613
# 5 0.002419 0.000311 -0.006037 0.014921 0.048430 -0.008468
# 6 0.001029 -0.000454 0.005054 -0.004613 -0.008468 0.035857
#
#
# Mechanical properties :
#
#
# Convention : Reuss Voigt Hill
#
# Bulk Modulus (GPa) = 64.28146 75.25341 69.76744
# Shear Modulus (GPa) = 26.87780 33.34774 30.11277
#
# Velocity S-wave (km/s) = 3.52773 3.92945 3.73400
# Velocity P-wave (km/s) = 6.80857 7.44521 7.13400
#
# Compressibility (1/GPa) = 0.01555658
#
# Stress axis : x y z
#
# Youngs Moduli (GPa) = 102.10050 86.41741 76.76864
#
# Poissons Ratio (x) = 0.14790 0.34217
# Poissons Ratio (y) = 0.17474 0.24943
# Poissons Ratio (z) = 0.45508 0.28078
#
# Static dielectric constant tensor:
#      x y z
#    x 4.662130 -0.111090 -0.054240 
#    y -0.111090 3.855030 0.045590 
#    z -0.054240 0.045590 3.708110 
# 
# 
# High freq. dielectric constant tensor:
#      x y z
#    x 1.879850 -0.000880 0.005210 
#    y -0.000880 1.844910 0.004040 
#    z 0.005210 0.004040 1.819800 
# 
# From -- ./inp_files/188909.got.cif
#   From: 2010.06.25/outbox.cif.g09.slc.cpg/sg2_95_cif.got.tgz:188909.got - 2010.06.27 13:26:56.
