data_PCOD8002331
_publ_section_title
;
Structure prediction by ZEFSAII (Michael W. Deem and Ramdas Pophale) SiO2 
 PCOD8002331
Probable space group: P -1
;
_chemical_formula_sum "Si O2"
_cell_formula_units_Z 14
_cell_length_a 14.689413
_cell_length_b 9.958297
_cell_length_c 11.610824
_cell_angle_alpha 139.022659
_cell_angle_beta 50.629659
_cell_angle_gamma 139.797741
_cell_volume 712.216272
_symmetry_space_group_name_H-M "P -1"
_symmetry_group_IT_number 2
_symmetry_cell_setting 'triclinic'
loop_
_space_group_symop_operation_xyz
x,y,z
-x,-y,-z
loop_
_atom_site_type_symbol
_atom_site_label
_atom_site_fract_x
_atom_site_fract_y
_atom_site_fract_z
Si Si1 0.759156 0.430856 0.942024
Si Si2 0.305845 0.778761 0.616195
Si Si3 0.067100 0.688626 0.900147
Si Si4 0.297111 0.353201 0.469504
Si Si5 0.870541 0.178978 0.813720
Si Si6 0.628376 0.092252 0.607952
Si Si7 0.611089 0.592713 0.323290
O O1 0.751290 0.235293 0.913720
O O2 0.699698 0.297692 0.781881
O O3 0.925691 0.660537 0.943845
O O4 0.669418 0.537273 0.127065
O O5 0.191145 0.820076 0.791084
O O6 0.265089 0.514191 0.519794
O O7 0.291136 0.773963 0.487798
O O8 0.463414 0.996492 0.671007
O O9 0.023500 0.411191 0.793325
O O10 0.123641 0.857445 0.078195
O O11 0.442681 0.387368 0.331662
O O12 0.313212 0.431815 0.641349
O O13 0.166752 0.069363 0.378613
O O14 0.644456 0.866888 0.472069
#
# Coordination Sequence:
#
# PCOD8002331 Si02
#       7
#     2   2   2   2   2   2   2
#     4  10  20  38  60  83 117 154 188 241 285 344
#     4  10  22  40  59  82 122 151 193 244 278 354
#     4   9  20  38  55  87 119 151 194 233 297 338
#     4  10  20  35  59  91 111 153 196 236 296 333
#     4   9  19  36  55  90 117 145 194 236 291 340
#     4  10  22  42  59  85 117 157 193 236 293 333
#     4  10  20  37  60  89 116 145 200 242 281 348
#
# _framework density 19.656949000000001
#
# number of rings (size 3 to 8) (size 9 to 14) (size 15 to 20)
#    0.857    1.429    1.429    0.857    2.000    1.714 
#    5.143    2.857    0.000    0.000    0.000    0.000 
#    0.000    0.000    0.000    0.000    0.000    0.000 
#
# Total GULP energy -173542.697300 kJ/mol
# GULP energy per Si atom -12395.906950 kJ/mol
# Density = 1.961221 g / cm^3
# Si number density = 19.656949 Si / 1000 Ang^3
#
#
#
# Elastic Constant Matrix: (Units=GPa)
#
#
# Indices 1 2 3 4 5 6 
#
# 1 75.4571 21.5174 41.1217 -11.4835 25.4164 3.4716
# 2 21.5174 55.6872 29.2021 -19.0795 7.4159 -5.1030
# 3 41.1217 29.2021 98.2772 -24.2151 24.6184 7.0205
# 4 -11.4835 -19.0795 -24.2151 31.9110 -0.4100 -1.3733
# 5 25.4164 7.4159 24.6184 -0.4100 25.5470 2.4010
# 6 3.4716 -5.1030 7.0205 -1.3733 2.4010 24.8417
#
#
#
# Elastic Compliance Matrix: (Units=1/GPa)
#
#
# Indices 1 2 3 4 5 6 
#
# 1 0.022706 -0.003727 -0.002750 0.003566 -0.018692 -0.001158
# 2 -0.003727 0.026195 -0.003598 0.011908 -0.000959 0.007669
# 3 -0.002750 -0.003598 0.018764 0.010761 -0.013779 -0.003731
# 4 0.003566 0.011908 0.010761 0.047826 -0.016907 0.003185
# 5 -0.018692 -0.000959 -0.013779 -0.016907 0.071167 -0.001504
# 6 -0.001158 0.007669 -0.003731 0.003185 -0.001504 0.043368
#
#
# Mechanical properties :
#
#
# Convention : Reuss Voigt Hill
#
# Bulk Modulus (GPa) = 21.04487 45.90043 33.47265
# Shear Modulus (GPa) = 18.79610 25.63195 22.21402
#
# Velocity S-wave (km/s) = 3.09561 3.61496 3.36532
# Velocity P-wave (km/s) = 4.84834 6.38947 5.67150
#
# Compressibility (1/GPa) = 0.04751753
#
# Stress axis : x y z
#
# Youngs Moduli (GPa) = 44.04145 38.17592 53.29236
#
# Poissons Ratio (x) = 0.14226 0.14653
# Poissons Ratio (y) = 0.16412 0.19172
# Poissons Ratio (z) = 0.12109 0.13734
#
# Static dielectric constant tensor:
#      x y z
#    x 3.521190 0.086300 0.072420 
#    y 0.086300 3.445110 -0.108610 
#    z 0.072420 -0.108610 3.274990 
# 
# 
# High freq. dielectric constant tensor:
#      x y z
#    x 1.761950 0.010910 0.010940 
#    y 0.010910 1.749860 -0.006810 
#    z 0.010940 -0.006810 1.753300 
# 
# From -- ./inp_files/422755.got.cif
#   From: 2010.06.25/outbox.cif.g09.slc.cpg/sg2_212_cif.got.tgz:422755.got - 2010.06.27 13:26:56.
