data_PCOD8002576
_publ_section_title
;
Structure prediction by ZEFSAII (Michael W. Deem and Ramdas Pophale) SiO2 
 PCOD8002576
Probable space group: P -1
;
_chemical_formula_sum "Si O2"
_cell_formula_units_Z 14
_cell_length_a 11.740487
_cell_length_b 14.547872
_cell_length_c 12.130673
_cell_angle_alpha 149.594338
_cell_angle_beta 138.884840
_cell_angle_gamma 51.852367
_cell_volume 686.342691
_symmetry_space_group_name_H-M "P -1"
_symmetry_group_IT_number 2
_symmetry_cell_setting 'triclinic'
loop_
_space_group_symop_operation_xyz
x,y,z
-x,-y,-z
loop_
_atom_site_type_symbol
_atom_site_label
_atom_site_fract_x
_atom_site_fract_y
_atom_site_fract_z
Si Si1 0.899625 0.640943 0.506480
Si Si2 0.016861 0.229589 0.626145
Si Si3 0.854271 0.137966 0.635045
Si Si4 0.266987 0.519886 0.996997
Si Si5 0.216824 0.732997 0.699768
Si Si6 0.634676 0.622593 0.467618
Si Si7 0.492379 0.042858 0.166938
O O1 0.773962 0.728607 0.593686
O O2 0.000000 0.500000 0.500000
O O3 0.049296 0.777977 0.698902
O O4 0.771816 0.542398 0.219899
O O5 0.979147 0.239347 0.738687
O O6 0.847909 0.278957 0.486288
O O7 0.053261 0.022988 0.405002
O O8 0.181418 0.373058 0.869876
O O9 0.811888 0.285805 0.846941
O O10 0.683272 0.040431 0.351846
O O11 0.471422 0.540539 0.191197
O O12 0.281386 0.539276 0.576589
O O13 0.371547 0.891232 0.989498
O O14 0.580149 0.761531 0.664332
O O15 0.500000 0.000000 0.000000
#
# Coordination Sequence:
#
# PCOD8002576 Si02
#       7
#     2   2   2   2   2   2   2
#     4   9  20  39  60  87 114 149 196 237 285 342
#     4  10  20  36  55  84 118 152 193 232 281 344
#     4  10  21  37  55  83 118 155 189 234 283 338
#     4  10  20  37  60  83 114 150 193 234 290 337
#     4  10  21  38  60  87 118 150 195 234 286 342
#     4  10  22  39  61  85 116 156 189 240 286 336
#     4  11  22  39  57  86 118 152 192 234 286 343
#
# _framework density 20.397973
#
# number of rings (size 3 to 8) (size 9 to 14) (size 15 to 20)
#    0.000    2.000    1.429    1.714    0.000    4.571 
#    2.571    4.286    0.000   15.429    0.000    0.000 
#    0.000    0.000    0.000    0.000    0.000    0.000 
#
# Total GULP energy -173566.109788 kJ/mol
# GULP energy per Si atom -12397.579271 kJ/mol
# Density = 2.035155 g / cm^3
# Si number density = 20.397973 Si / 1000 Ang^3
#
#
#
# Elastic Constant Matrix: (Units=GPa)
#
#
# Indices 1 2 3 4 5 6 
#
# 1 106.3584 36.2620 49.7490 -2.3636 9.2872 -5.6832
# 2 36.2620 102.3615 27.3515 -1.1537 -8.8398 -3.4717
# 3 49.7490 27.3515 66.1611 0.8143 2.9197 7.1704
# 4 -2.3636 -1.1537 0.8143 20.7173 3.8702 0.6686
# 5 9.2872 -8.8398 2.9197 3.8702 31.7784 3.0274
# 6 -5.6832 -3.4717 7.1704 0.6686 3.0274 25.0707
#
#
#
# Elastic Compliance Matrix: (Units=1/GPa)
#
#
# Indices 1 2 3 4 5 6 
#
# 1 0.017141 -0.003010 -0.012249 0.003112 -0.005824 0.007592
# 2 -0.003010 0.012080 -0.003067 -0.000424 0.004445 0.001342
# 3 -0.012249 -0.003067 0.026743 -0.002569 0.001628 -0.010978
# 4 0.003112 -0.000424 -0.002569 0.049973 -0.006962 0.000890
# 5 -0.005824 0.004445 0.001628 -0.006962 0.035608 -0.005284
# 6 0.007592 0.001342 -0.010978 0.000890 -0.005284 0.045548
#
#
# Mechanical properties :
#
#
# Convention : Reuss Voigt Hill
#
# Bulk Modulus (GPa) = 51.78188 55.73400 53.75794
# Shear Modulus (GPa) = 21.72194 26.28119 24.00156
#
# Velocity S-wave (km/s) = 3.26683 3.59335 3.43398
# Velocity P-wave (km/s) = 6.29845 6.67824 6.49112
#
# Compressibility (1/GPa) = 0.01931177
#
# Stress axis : x y z
#
# Youngs Moduli (GPa) = 58.33933 82.78353 37.39349
#
# Poissons Ratio (x) = 0.24915 0.45803
# Poissons Ratio (y) = 0.17558 0.11469
# Poissons Ratio (z) = 0.71460 0.25391
#
# Static dielectric constant tensor:
#      x y z
#    x 4.216980 -0.019040 0.302570 
#    y -0.019040 3.642770 -0.066200 
#    z 0.302570 -0.066200 3.639290 
# 
# 
# High freq. dielectric constant tensor:
#      x y z
#    x 1.808570 -0.003520 0.016440 
#    y -0.003520 1.796470 -0.009640 
#    z 0.016440 -0.009640 1.785720 
# 
# From -- ./inp_files/40283.got.cif
#   From: 2010.06.25/outbox.cif.g09.slc.cpg/sg2_21_cif.got.tgz:40283.got - 2010.06.27 13:26:56.
