data_PCOD8002375
_publ_section_title
;
Structure prediction by ZEFSAII (Michael W. Deem and Ramdas Pophale) SiO2 
 PCOD8002375
Probable space group: P -1
;
_chemical_formula_sum "Si O2"
_cell_formula_units_Z 16
_cell_length_a 11.520249
_cell_length_b 14.826079
_cell_length_c 9.143005
_cell_angle_alpha 118.631483
_cell_angle_beta 141.522524
_cell_angle_gamma 79.146495
_cell_volume 801.385772
_symmetry_space_group_name_H-M "P -1"
_symmetry_group_IT_number 2
_symmetry_cell_setting 'triclinic'
loop_
_space_group_symop_operation_xyz
x,y,z
-x,-y,-z
loop_
_atom_site_type_symbol
_atom_site_label
_atom_site_fract_x
_atom_site_fract_y
_atom_site_fract_z
Si Si1 0.982144 0.231135 0.989668
Si Si2 0.212170 0.848312 0.787152
Si Si3 0.940905 0.624796 0.440275
Si Si4 0.866467 0.055630 0.496439
Si Si5 0.342207 0.311285 0.603705
Si Si6 0.611964 0.878619 0.332771
Si Si7 0.184541 0.961513 0.123186
Si Si8 0.803300 0.390800 0.051390
O O1 0.980793 0.163084 0.788646
O O2 0.852628 0.156150 0.932943
O O3 0.879821 0.325577 0.950059
O O4 0.211076 0.278150 0.301519
O O5 0.253628 0.899131 0.705489
O O6 0.017460 0.738268 0.512088
O O7 0.395241 0.817440 0.006796
O O8 0.197942 0.947769 0.952136
O O9 0.737438 0.606331 0.317974
O O10 0.891547 0.520777 0.202034
O O11 0.116263 0.628293 0.726725
O O12 0.731764 0.960154 0.390065
O O13 0.000000 0.000000 0.500000
O O14 0.296631 0.211789 0.597445
O O15 0.565909 0.354945 0.800997
O O16 0.617320 0.950499 0.541170
O O17 0.000000 0.000000 0.000000
#
# Coordination Sequence:
#
# PCOD8002375 Si02
#       8
#     2   2   2   2   2   2   2   2
#     4  10  21  39  58  86 117 154 195 237 288 343
#     4  12  21  39  55  86 117 153 191 242 285 348
#     4  10  20  35  60  90 118 147 189 247 299 329
#     4  11  25  40  56  81 122 159 192 232 289 350
#     4  11  18  36  62  90 118 147 195 239 291 339
#     4  11  22  35  58  87 113 154 193 233 289 351
#     4  11  18  34  56  81 113 151 190 232 286 338
#     4  10  20  36  60  90 116 146 195 248 289 338
#
# _framework density 19.965415
#
# number of rings (size 3 to 8) (size 9 to 14) (size 15 to 20)
#    0.000    1.250    5.000    3.375    0.000    1.000 
#    2.250    0.625    0.000    0.750    0.000    0.000 
#    0.000    0.000    0.000    0.000    0.000    0.000 
#
# Total GULP energy -198240.436796 kJ/mol
# GULP energy per Si atom -12390.027300 kJ/mol
# Density = 1.991997 g / cm^3
# Si number density = 19.965415 Si / 1000 Ang^3
#
#
#
# Elastic Constant Matrix: (Units=GPa)
#
#
# Indices 1 2 3 4 5 6 
#
# 1 85.1898 40.4538 53.3029 3.7684 -10.2371 -16.6944
# 2 40.4538 79.9265 49.9135 9.5531 -8.9289 -9.9923
# 3 53.3029 49.9135 102.6625 6.7554 -1.4705 -12.2967
# 4 3.7684 9.5531 6.7554 31.7334 -6.8900 -2.0055
# 5 -10.2371 -8.9289 -1.4705 -6.8900 34.9781 -0.5919
# 6 -16.6944 -9.9923 -12.2967 -2.0055 -0.5919 35.9261
#
#
#
# Elastic Compliance Matrix: (Units=1/GPa)
#
#
# Indices 1 2 3 4 5 6 
#
# 1 0.020342 -0.004387 -0.007800 0.002015 0.005000 0.005758
# 2 -0.004387 0.019980 -0.007062 -0.003303 0.002885 0.000964
# 3 -0.007800 -0.007062 0.017287 -0.001405 -0.003632 0.000190
# 4 0.002015 -0.003303 -0.001405 0.034059 0.006423 0.001544
# 5 0.005000 0.002885 -0.003632 0.006423 0.031948 0.002768
# 6 0.005758 0.000964 0.000190 0.001544 0.002768 0.030975
#
#
# Mechanical properties :
#
#
# Convention : Reuss Voigt Hill
#
# Bulk Modulus (GPa) = 52.32700 61.67990 57.00345
# Shear Modulus (GPa) = 25.06756 28.80143 26.93449
#
# Velocity S-wave (km/s) = 3.54722 3.80223 3.67694
# Velocity P-wave (km/s) = 6.56069 7.08776 6.82932
#
# Compressibility (1/GPa) = 0.01911059
#
# Stress axis : x y z
#
# Youngs Moduli (GPa) = 49.15824 50.05036 57.84669
#
# Poissons Ratio (x) = 0.21959 0.45121
# Poissons Ratio (y) = 0.21568 0.40851
# Poissons Ratio (z) = 0.38344 0.35345
#
# Static dielectric constant tensor:
#      x y z
#    x 3.537750 -0.135630 -0.087520 
#    y -0.135630 3.858290 0.082110 
#    z -0.087520 0.082110 3.821540 
# 
# 
# High freq. dielectric constant tensor:
#      x y z
#    x 1.754240 -0.025610 0.007080 
#    y -0.025610 1.777810 0.005750 
#    z 0.007080 0.005750 1.780490 
# 
# From -- ./inp_files/271011.got.cif
#   From: 2010.06.25/outbox.cif.g09.slc.cpg/sg2_136_cif.got.tgz:271011.got - 2010.06.27 13:26:56.
