data_PCOD8002142
_publ_section_title
;
Structure prediction by ZEFSAII (Michael W. Deem and Ramdas Pophale) SiO2 
 PCOD8002142
Probable space group: P -1
;
_chemical_formula_sum "Si O2"
_cell_formula_units_Z 16
_cell_length_a 12.069309
_cell_length_b 14.502870
_cell_length_c 14.779878
_cell_angle_alpha 53.123092
_cell_angle_beta 27.826873
_cell_angle_gamma 70.448957
_cell_volume 822.158421
_symmetry_space_group_name_H-M "P -1"
_symmetry_group_IT_number 2
_symmetry_cell_setting 'triclinic'
loop_
_space_group_symop_operation_xyz
x,y,z
-x,-y,-z
loop_
_atom_site_type_symbol
_atom_site_label
_atom_site_fract_x
_atom_site_fract_y
_atom_site_fract_z
Si Si1 0.921216 0.707948 0.707850
Si Si2 0.353760 0.485059 0.297571
Si Si3 0.704601 0.134497 0.326992
Si Si4 0.873663 0.487266 0.743403
Si Si5 0.945850 0.980279 0.830139
Si Si6 0.414277 0.921377 0.353069
Si Si7 0.495908 0.273055 0.282395
Si Si8 0.103502 0.061855 0.485467
O O1 0.984425 0.609526 0.662844
O O2 0.841467 0.787744 0.646230
O O3 0.185862 0.804628 0.521778
O O4 0.653566 0.621540 0.016728
O O5 0.262558 0.484175 0.260457
O O6 0.385510 0.356840 0.366170
O O7 0.136924 0.478193 0.530009
O O8 0.597139 0.134971 0.505542
O O9 0.720104 0.261018 0.189962
O O10 0.000202 0.140743 0.112766
O O11 0.500000 0.000000 0.500000
O O12 0.646584 0.346604 0.036955
O O13 0.719046 0.976727 0.060931
O O14 0.233220 0.125562 0.538973
O O15 0.866697 0.971133 0.785931
O O16 0.374530 0.049920 0.315161
O O17 0.000000 0.000000 0.500000
#
# Coordination Sequence:
#
# PCOD8002142 Si02
#       8
#     2   2   2   2   2   2   2   2
#     4  10  20  36  54  79 115 143 177 221 265 325
#     4  10  21  36  58  80 108 145 180 222 269 316
#     4   9  21  38  56  79 109 142 182 229 272 322
#     4  10  21  36  56  82 107 143 183 222 267 316
#     4  10  20  35  56  82 111 142 178 224 273 324
#     4  10  22  36  55  83 112 145 179 220 277 328
#     4  10  20  36  56  79 106 137 183 229 267 318
#     4   9  19  33  51  79 113 143 174 212 262 326
#
# _framework density 19.46097
#
# number of rings (size 3 to 8) (size 9 to 14) (size 15 to 20)
#    0.000    2.250    0.000    3.000    0.000   14.000 
#    0.000    2.500    0.000    4.500    0.000    0.000 
#    0.000    0.000    0.000    0.000    0.000    0.000 
#
# Total GULP energy -198287.661368 kJ/mol
# GULP energy per Si atom -12392.978835 kJ/mol
# Density = 1.941668 g / cm^3
# Si number density = 19.460970 Si / 1000 Ang^3
#
#
#
# Elastic Constant Matrix: (Units=GPa)
#
#
# Indices 1 2 3 4 5 6 
#
# 1 87.6967 44.6716 29.1259 -0.2098 11.1114 -5.2948
# 2 44.6716 122.3518 58.8384 14.6030 12.2064 -15.3619
# 3 29.1259 58.8384 93.4588 20.1225 3.2735 0.6980
# 4 -0.2098 14.6030 20.1225 34.7776 6.3964 4.0893
# 5 11.1114 12.2064 3.2735 6.3964 20.5829 -3.6344
# 6 -5.2948 -15.3619 0.6980 4.0893 -3.6344 35.3826
#
#
#
# Elastic Compliance Matrix: (Units=1/GPa)
#
#
# Indices 1 2 3 4 5 6 
#
# 1 0.015370 -0.004158 -0.002985 0.004945 -0.007023 -0.000739
# 2 -0.004158 0.014530 -0.007365 -0.001866 -0.003618 0.005675
# 3 -0.002985 -0.007365 0.017800 -0.007870 0.005142 -0.002558
# 4 0.004945 -0.001866 -0.007870 0.037129 -0.012825 -0.005524
# 5 -0.007023 -0.003618 0.005142 -0.012825 0.058531 0.004771
# 6 -0.000739 0.005675 -0.002558 -0.005524 0.004771 0.031795
#
#
# Mechanical properties :
#
#
# Convention : Reuss Voigt Hill
#
# Bulk Modulus (GPa) = 53.52598 63.19769 58.36184
# Shear Modulus (GPa) = 23.76430 29.54006 26.65218
#
# Velocity S-wave (km/s) = 3.49825 3.90027 3.70472
# Velocity P-wave (km/s) = 6.62427 7.26824 6.95372
#
# Compressibility (1/GPa) = 0.01868252
#
# Stress axis : x y z
#
# Youngs Moduli (GPa) = 65.06341 68.82499 56.17835
#
# Poissons Ratio (x) = 0.28620 0.16769
# Poissons Ratio (y) = 0.27056 0.41377
# Poissons Ratio (z) = 0.19421 0.50691
#
# Static dielectric constant tensor:
#      x y z
#    x 2.401730 0.726190 -1.186710 
#    y 0.726190 3.177170 0.982370 
#    z -1.186710 0.982370 2.024700 
# 
# 
# High freq. dielectric constant tensor:
#      x y z
#    x 1.756870 -0.004170 0.010130 
#    y -0.004170 1.774720 0.007790 
#    z 0.010130 0.007790 1.731560 
# 
# From -- ./inp_files/438676.got.cif
#   From: 2010.06.25/outbox.cif.g09.slc.cpg/sg2_220_cif.got.tgz:438676.got - 2010.06.27 13:26:56.
