data_PCOD8002787
_publ_section_title
;
Structure prediction by ZEFSAII (Michael W. Deem and Ramdas Pophale) SiO2 
 PCOD8002787
Probable space group: P -1
;
_chemical_formula_sum "Si O2"
_cell_formula_units_Z 14
_cell_length_a 24.903624
_cell_length_b 10.281986
_cell_length_c 17.970825
_cell_angle_alpha 35.533201
_cell_angle_beta 160.759381
_cell_angle_gamma 152.418120
_cell_volume 694.045305
_symmetry_space_group_name_H-M "P -1"
_symmetry_group_IT_number 2
_symmetry_cell_setting 'triclinic'
loop_
_space_group_symop_operation_xyz
x,y,z
-x,-y,-z
loop_
_atom_site_type_symbol
_atom_site_label
_atom_site_fract_x
_atom_site_fract_y
_atom_site_fract_z
Si Si1 0.943574 0.175184 0.801544
Si Si2 0.160890 0.328486 0.339413
Si Si3 0.563400 0.726178 0.177075
Si Si4 0.633680 0.710891 0.508703
Si Si5 0.305555 0.090565 0.130914
Si Si6 0.312391 0.867512 0.383911
Si Si7 0.350309 0.760270 0.016772
O O1 0.795656 0.199597 0.647729
O O2 0.125110 0.494248 0.869805
O O3 0.837052 0.008285 0.664217
O O4 0.000000 0.000000 0.000000
O O5 0.232663 0.184448 0.553194
O O6 0.293978 0.420951 0.393431
O O7 0.202042 0.592290 0.313912
O O8 0.915427 0.110289 0.104347
O O9 0.434035 0.411211 0.119259
O O10 0.399405 0.711041 0.022241
O O11 0.637153 0.957737 0.100866
O O12 0.500000 0.500000 0.500000
O O13 0.507072 0.800462 0.263485
O O14 0.449118 0.991910 0.350739
O O15 0.292784 0.083316 0.209223
#
# Coordination Sequence:
#
# PCOD8002787 Si02
#       7
#     2   2   2   2   2   2   2
#     4  12  23  38  60  91 123 154 187 253 307 350
#     4  10  21  39  61  89 117 159 203 242 293 361
#     4   9  20  38  60  87 116 162 197 245 287 364
#     4  11  23  35  61  94 121 149 197 250 304 349
#     4  10  20  36  59  83 120 154 203 242 288 353
#     4  10  23  36  60  90 120 158 199 242 303 354
#     4  10  21  38  59  86 125 153 198 243 304 350
#
# _framework density 20.171593999999999
#
# number of rings (size 3 to 8) (size 9 to 14) (size 15 to 20)
#    0.000    1.714    1.429    3.000    6.000    2.286 
#    0.000    7.143    0.000    5.143    0.000    0.000 
#    0.000    0.000    0.000    0.000    0.000    0.000 
#
# Total GULP energy -173507.852223 kJ/mol
# GULP energy per Si atom -12393.418016 kJ/mol
# Density = 2.012568 g / cm^3
# Si number density = 20.171594 Si / 1000 Ang^3
#
#
#
# Elastic Constant Matrix: (Units=GPa)
#
#
# Indices 1 2 3 4 5 6 
#
# 1 61.9733 19.1002 20.0042 -5.8531 -2.2339 4.1650
# 2 19.1002 92.8095 27.4242 -10.4304 -4.6852 21.3465
# 3 20.0042 27.4242 119.9739 10.8083 0.3896 9.0375
# 4 -5.8531 -10.4304 10.8083 25.5162 4.8841 -3.2662
# 5 -2.2339 -4.6852 0.3896 4.8841 21.3893 1.3297
# 6 4.1650 21.3465 9.0375 -3.2662 1.3297 39.4574
#
#
#
# Elastic Compliance Matrix: (Units=1/GPa)
#
#
# Indices 1 2 3 4 5 6 
#
# 1 0.018236 -0.002484 -0.002901 0.004378 0.000387 0.000433
# 2 -0.002484 0.014313 -0.002851 0.005253 0.002130 -0.006465
# 3 -0.002901 -0.002851 0.010114 -0.006319 0.000394 -0.001004
# 4 0.004378 0.005253 -0.006319 0.047075 -0.009172 0.002349
# 5 0.000387 0.002130 0.000394 -0.009172 0.049577 -0.003713
# 6 0.000433 -0.006465 -0.001004 0.002349 -0.003713 0.029346
#
#
# Mechanical properties :
#
#
# Convention : Reuss Voigt Hill
#
# Bulk Modulus (GPa) = 38.17918 45.31264 41.74591
# Shear Modulus (GPa) = 25.79123 31.15445 28.47284
#
# Velocity S-wave (km/s) = 3.57962 3.93424 3.76111
# Velocity P-wave (km/s) = 6.00443 6.56887 6.29298
#
# Compressibility (1/GPa) = 0.02619229
#
# Stress axis : x y z
#
# Youngs Moduli (GPa) = 54.83570 69.86519 98.87086
#
# Poissons Ratio (x) = 0.17352 0.28685
# Poissons Ratio (y) = 0.13619 0.28187
# Poissons Ratio (z) = 0.15909 0.19917
#
# Static dielectric constant tensor:
#      x y z
#    x 3.683600 0.073860 0.015940 
#    y 0.073860 3.781960 -0.030040 
#    z 0.015940 -0.030040 3.842320 
# 
# 
# High freq. dielectric constant tensor:
#      x y z
#    x 1.767290 0.001360 0.005150 
#    y 0.001360 1.787530 0.004330 
#    z 0.005150 0.004330 1.798670 
# 
# From -- ./inp_files/431749.got.cif
#   From: 2010.06.25/outbox.cif.g09.slc.cpg/sg2_216_cif.got.tgz:431749.got - 2010.06.27 13:26:56.
