data_PCOD8002179
_publ_section_title
;
Structure prediction by ZEFSAII (Michael W. Deem and Ramdas Pophale) SiO2 
 PCOD8002179
Probable space group: P -1
;
_chemical_formula_sum "Si O2"
_cell_formula_units_Z 16
_cell_length_a 21.291856
_cell_length_b 7.015281
_cell_length_c 16.832089
_cell_angle_alpha 96.404020
_cell_angle_beta 23.892139
_cell_angle_gamma 81.446706
_cell_volume 791.634750
_symmetry_space_group_name_H-M "P -1"
_symmetry_group_IT_number 2
_symmetry_cell_setting 'triclinic'
loop_
_space_group_symop_operation_xyz
x,y,z
-x,-y,-z
loop_
_atom_site_type_symbol
_atom_site_label
_atom_site_fract_x
_atom_site_fract_y
_atom_site_fract_z
Si Si1 0.578695 0.758288 0.052143
Si Si2 0.055557 0.005953 0.062146
Si Si3 0.541470 0.369702 0.362894
Si Si4 0.261148 0.621585 0.011243
Si Si5 0.219115 0.690730 0.305774
Si Si6 0.156863 0.954975 0.542321
Si Si7 0.228382 0.986505 0.182704
Si Si8 0.891521 0.384629 0.133481
O O1 0.679118 0.594960 0.008381
O O2 0.341881 0.952069 0.343445
O O3 0.630435 0.592829 0.906422
O O4 0.646704 0.919841 0.966967
O O5 0.261679 0.910507 0.862926
O O6 0.077605 0.782915 0.983422
O O7 0.886937 0.117242 0.328068
O O8 0.993634 0.220595 0.085342
O O9 0.500000 0.500000 0.500000
O O10 0.593823 0.485017 0.238407
O O11 0.344736 0.401110 0.568168
O O12 0.280067 0.812476 0.040319
O O13 0.030462 0.774866 0.259155
O O14 0.221588 0.733137 0.398134
O O15 0.003248 0.784359 0.533103
O O16 0.283669 0.836512 0.193227
O O17 0.000000 0.500000 0.000000
#
# Coordination Sequence:
#
# PCOD8002179 Si02
#       8
#     2   2   2   2   2   2   2   2
#     4  11  20  34  58  78 100 141 178 213 262 306
#     4   9  20  38  54  75 110 140 168 216 263 306
#     4   9  18  36  57  76 107 143 170 210 266 310
#     4   9  20  38  54  76 109 138 172 217 258 310
#     4   9  19  36  52  75 109 138 172 216 259 311
#     4  10  20  36  55  78 107 137 174 217 261 308
#     4   9  19  35  55  77 104 139 176 214 260 309
#     4  10  20  35  57  81 104 137 178 214 255 310
#
# _framework density 20.211338999999999
#
# number of rings (size 3 to 8) (size 9 to 14) (size 15 to 20)
#    0.000    2.500    0.000    2.250    0.000    2.000 
#    0.000   17.500    0.000    0.000    0.000    0.000 
#    0.000    0.000    0.000    0.000    0.000    0.000 
#
# Total GULP energy -198336.831563 kJ/mol
# GULP energy per Si atom -12396.051973 kJ/mol
# Density = 2.016534 g / cm^3
# Si number density = 20.211339 Si / 1000 Ang^3
#
#
#
# Elastic Constant Matrix: (Units=GPa)
#
#
# Indices 1 2 3 4 5 6 
#
# 1 76.6880 51.3239 49.6227 -11.3538 5.2268 -18.2860
# 2 51.3239 111.4395 64.4495 -25.9947 -13.5464 6.2094
# 3 49.6227 64.4495 141.0249 -22.7754 -12.2869 1.6282
# 4 -11.3538 -25.9947 -22.7754 23.8630 -2.5210 -1.5279
# 5 5.2268 -13.5464 -12.2869 -2.5210 46.0754 -6.4156
# 6 -18.2860 6.2094 1.6282 -1.5279 -6.4156 14.6456
#
#
#
# Elastic Compliance Matrix: (Units=1/GPa)
#
#
# Indices 1 2 3 4 5 6 
#
# 1 0.054754 -0.026379 -0.009925 -0.007890 -0.006315 0.077062
# 2 -0.026379 0.027765 0.000207 0.016002 0.006486 -0.040220
# 3 -0.009925 0.000207 0.011938 0.006469 0.003084 -0.011781
# 4 -0.007890 0.016002 0.006469 0.062376 0.009826 -0.006542
# 5 -0.006315 0.006486 0.003084 0.009826 0.025880 0.001384
# 6 0.077062 -0.040220 -0.011781 -0.006542 0.001384 0.182782
#
#
# Mechanical properties :
#
#
# Convention : Reuss Voigt Hill
#
# Bulk Modulus (GPa) = 44.91834 73.32718 59.12276
# Shear Modulus (GPa) = 11.23320 27.83391 19.53355
#
# Velocity S-wave (km/s) = 2.36007 3.71501 3.11217
# Velocity P-wave (km/s) = 5.44969 7.40005 6.49846
#
# Compressibility (1/GPa) = 0.02226262
#
# Stress axis : x y z
#
# Youngs Moduli (GPa) = 18.26357 36.01698 83.76564
#
# Poissons Ratio (x) = 0.95009 0.83138
# Poissons Ratio (y) = 0.48177 -0.01734
# Poissons Ratio (z) = 0.18127 -0.00746
#
# Static dielectric constant tensor:
#      x y z
#    x 3.819930 -0.250030 -0.038910 
#    y -0.250030 3.228300 0.051830 
#    z -0.038910 0.051830 4.120870 
# 
# 
# High freq. dielectric constant tensor:
#      x y z
#    x 1.794260 -0.022950 -0.000180 
#    y -0.022950 1.749190 -0.003630 
#    z -0.000180 -0.003630 1.811510 
# 
# From -- ./inp_files/52168.got.cif
#   From: 2010.06.25/outbox.cif.g09.slc.cpg/sg2_27_cif.got.tgz:52168.got - 2010.06.27 13:26:56.
