data_PCOD8002919
_publ_section_title
;
Structure prediction by ZEFSAII (Michael W. Deem and Ramdas Pophale) SiO2 
 PCOD8002919
Probable space group: P -1
;
_chemical_formula_sum "Si O2"
_cell_formula_units_Z 14
_cell_length_a 11.993775
_cell_length_b 8.702950
_cell_length_c 15.988063
_cell_angle_alpha 68.282857
_cell_angle_beta 39.105414
_cell_angle_gamma 100.060008
_cell_volume 601.945729
_symmetry_space_group_name_H-M "P -1"
_symmetry_group_IT_number 2
_symmetry_cell_setting 'triclinic'
loop_
_space_group_symop_operation_xyz
x,y,z
-x,-y,-z
loop_
_atom_site_type_symbol
_atom_site_label
_atom_site_fract_x
_atom_site_fract_y
_atom_site_fract_z
Si Si1 0.245186 0.817067 0.295656
Si Si2 0.815274 0.057290 0.860089
Si Si3 0.720331 0.044173 0.234474
Si Si4 0.104155 0.473114 0.735637
Si Si5 0.699350 0.673245 0.266215
Si Si6 0.429210 0.782896 0.837784
Si Si7 0.729920 0.639531 0.071091
O O1 0.000000 0.500000 0.500000
O O2 0.177092 0.912683 0.250053
O O3 0.284612 0.937382 0.338416
O O4 0.534719 0.934094 0.085832
O O5 0.810090 0.861600 0.927166
O O6 0.088799 0.357108 0.680215
O O7 0.410825 0.782691 0.508572
O O8 0.825298 0.952292 0.142712
O O9 0.663819 0.169159 0.192995
O O10 0.973763 0.249554 0.113835
O O11 0.067613 0.306505 0.864173
O O12 0.846202 0.416190 0.898848
O O13 0.500000 0.500000 0.500000
O O14 0.571798 0.560243 0.268514
O O15 0.481626 0.634444 0.804777
#
# Coordination Sequence:
#
# PCOD8002919 Si02
#       7
#     2   2   2   2   2   2   2
#     4  10  22  45  69  88 115 168 223 266 318 371
#     4  10  22  40  67  91 122 162 220 269 305 376
#     4  11  21  37  63  89 133 170 212 248 304 392
#     4  10  20  38  60  93 121 171 215 251 309 368
#     4  10  20  36  60  88 125 166 218 249 299 378
#     4  11  24  40  60  91 138 166 206 266 316 377
#     4  12  23  39  60  98 135 168 204 263 324 374
#
# _framework density 23.257909999999999
#
# number of rings (size 3 to 8) (size 9 to 14) (size 15 to 20)
#    0.000    1.429    2.857    3.429    0.000    2.286 
#    2.571    0.714    0.000    0.000    0.000    0.000 
#    0.000    0.000    0.000    0.000    0.000    0.000 
#
# Total GULP energy -173449.554208 kJ/mol
# GULP energy per Si atom -12389.253872 kJ/mol
# Density = 2.320497 g / cm^3
# Si number density = 23.257910 Si / 1000 Ang^3
#
#
#
# Elastic Constant Matrix: (Units=GPa)
#
#
# Indices 1 2 3 4 5 6 
#
# 1 125.4458 31.0372 19.2465 -12.4157 22.8845 11.8358
# 2 31.0372 121.1243 26.8567 -23.4182 12.5556 17.2610
# 3 19.2465 26.8567 81.6468 -16.8795 11.9421 8.9854
# 4 -12.4157 -23.4182 -16.8795 29.2568 0.6157 -7.7852
# 5 22.8845 12.5556 11.9421 0.6157 27.6087 -9.9118
# 6 11.8358 17.2610 8.9854 -7.7852 -9.9118 25.4414
#
#
#
# Elastic Compliance Matrix: (Units=1/GPa)
#
#
# Indices 1 2 3 4 5 6 
#
# 1 0.011608 0.000402 0.001044 0.003350 -0.014105 -0.010512
# 2 0.000402 0.011929 -0.000077 0.007299 -0.009357 -0.009664
# 3 0.001044 -0.000077 0.016093 0.007777 -0.010819 -0.007952
# 4 0.003350 0.007299 0.007777 0.046409 -0.010138 0.000994
# 5 -0.014105 -0.009357 -0.010819 -0.010138 0.072042 0.041696
# 6 -0.010512 -0.009664 -0.007952 0.000994 0.041696 0.070110
#
#
# Mechanical properties :
#
#
# Convention : Reuss Voigt Hill
#
# Bulk Modulus (GPa) = 23.60378 53.61086 38.60732
# Shear Modulus (GPa) = 20.87017 33.19982 27.03500
#
# Velocity S-wave (km/s) = 2.99881 3.78228 3.41310
# Velocity P-wave (km/s) = 4.70757 6.49421 5.67168
#
# Compressibility (1/GPa) = 0.04236609
#
# Stress axis : x y z
#
# Youngs Moduli (GPa) = 86.14451 83.83259 62.13983
#
# Poissons Ratio (x) = -0.03367 -0.06486
# Poissons Ratio (y) = -0.03460 0.00480
# Poissons Ratio (z) = -0.08992 0.00648
#
# Static dielectric constant tensor:
#      x y z
#    x 4.530580 0.105830 -0.122630 
#    y 0.105830 4.088490 -0.099850 
#    z -0.122630 -0.099850 4.275740 
# 
# 
# High freq. dielectric constant tensor:
#      x y z
#    x 1.916860 -0.004650 0.008720 
#    y -0.004650 1.904480 -0.011010 
#    z 0.008720 -0.011010 1.927090 
# 
# From -- ./inp_files/515336.got.cif
#   From: 2010.06.25/outbox.cif.g09.slc.cpg/sg2_258_cif.got.tgz:515336.got - 2010.06.27 13:26:56.
