data_PCOD8002453
_publ_section_title
;
Structure prediction by ZEFSAII (Michael W. Deem and Ramdas Pophale) SiO2 
 PCOD8002453
Probable space group: P -1
;
_chemical_formula_sum "Si O2"
_cell_formula_units_Z 16
_cell_length_a 8.989829
_cell_length_b 21.682001
_cell_length_c 9.514689
_cell_angle_alpha 58.588088
_cell_angle_beta 58.339600
_cell_angle_gamma 29.815805
_cell_volume 775.346250
_symmetry_space_group_name_H-M "P -1"
_symmetry_group_IT_number 2
_symmetry_cell_setting 'triclinic'
loop_
_space_group_symop_operation_xyz
x,y,z
-x,-y,-z
loop_
_atom_site_type_symbol
_atom_site_label
_atom_site_fract_x
_atom_site_fract_y
_atom_site_fract_z
Si Si1 0.183821 0.177938 0.721125
Si Si2 0.820874 0.255083 0.082550
Si Si3 0.119541 0.040550 0.388425
Si Si4 0.706387 0.385433 0.240642
Si Si5 0.727662 0.623792 0.310645
Si Si6 0.833272 0.499639 0.988142
Si Si7 0.935530 0.189779 0.564523
Si Si8 0.942734 0.413821 0.575481
O O1 0.138378 0.137515 0.662888
O O2 0.027904 0.306420 0.602622
O O3 0.536155 0.071826 0.702049
O O4 0.041554 0.193538 0.914902
O O5 0.837151 0.318623 0.102921
O O6 0.476806 0.359279 0.079570
O O7 0.914169 0.152818 0.245216
O O8 0.108116 0.077402 0.507436
O O9 0.000000 0.000000 0.500000
O O10 0.863217 0.288506 0.402957
O O11 0.345480 0.493712 0.286759
O O12 0.763121 0.450251 0.165925
O O13 0.372480 0.744658 0.306666
O O14 0.851339 0.498906 0.393661
O O15 0.925214 0.603313 0.129224
O O16 0.772424 0.645929 0.414353
O O17 0.000000 0.500000 0.000000
#
# Coordination Sequence:
#
# PCOD8002453 Si02
#       8
#     2   2   2   2   2   2   2   2
#     4  12  23  40  66  88 124 164 212 256 309 354
#     4  11  23  43  64  91 125 165 210 247 304 382
#     4  11  26  45  66  88 117 168 219 258 301 362
#     4  10  21  40  61  91 129 169 199 243 312 384
#     4  10  21  35  57  93 126 156 201 247 309 366
#     4  12  23  34  59  97 132 155 196 254 314 363
#     4  10  24  42  63  93 128 158 208 260 312 368
#     4  10  20  35  62  87 120 168 203 247 299 374
#
# _framework density 20.635940999999999
#
# number of rings (size 3 to 8) (size 9 to 14) (size 15 to 20)
#    0.000    1.250    2.500    3.375    5.250    1.000 
#    0.000    0.625    0.000    0.000    0.000    0.000 
#    0.000    0.000    0.000    0.000    0.000    0.000 
#
# Total GULP energy -198415.919824 kJ/mol
# GULP energy per Si atom -12400.994989 kJ/mol
# Density = 2.058897 g / cm^3
# Si number density = 20.635941 Si / 1000 Ang^3
#
#
#
# Elastic Constant Matrix: (Units=GPa)
#
#
# Indices 1 2 3 4 5 6 
#
# 1 124.7758 37.3045 46.4722 -1.6867 -5.6424 -1.7938
# 2 37.3045 89.1643 36.7662 7.1660 -3.9205 -2.3716
# 3 46.4722 36.7662 80.3125 10.9226 -7.3991 -2.2074
# 4 -1.6867 7.1660 10.9226 30.4365 3.7415 -8.3734
# 5 -5.6424 -3.9205 -7.3991 3.7415 31.8403 1.8630
# 6 -1.7938 -2.3716 -2.2074 -8.3734 1.8630 38.2071
#
#
#
# Elastic Compliance Matrix: (Units=1/GPa)
#
#
# Indices 1 2 3 4 5 6 
#
# 1 0.010911 -0.002507 -0.005625 0.003449 -0.000134 0.000794
# 2 -0.002507 0.014440 -0.004872 -0.001819 0.000411 0.000078
# 3 -0.005625 -0.004872 0.019176 -0.006816 0.003727 -0.001134
# 4 0.003449 -0.001819 -0.006816 0.039036 -0.006282 0.008517
# 5 -0.000134 0.000411 0.003727 -0.006282 0.033199 -0.002761
# 6 0.000794 0.000078 -0.001134 0.008517 -0.002761 0.028151
#
#
# Mechanical properties :
#
#
# Convention : Reuss Voigt Hill
#
# Bulk Modulus (GPa) = 54.00378 59.48203 56.74291
# Shear Modulus (GPa) = 28.23346 31.67742 29.95544
#
# Velocity S-wave (km/s) = 3.70289 3.92224 3.81414
# Velocity P-wave (km/s) = 6.67146 7.02844 6.85228
#
# Compressibility (1/GPa) = 0.01851722
#
# Stress axis : x y z
#
# Youngs Moduli (GPa) = 91.64967 69.25416 52.14852
#
# Poissons Ratio (x) = 0.17365 0.29335
# Poissons Ratio (y) = 0.22980 0.25407
# Poissons Ratio (z) = 0.51556 0.33741
#
# Static dielectric constant tensor:
#      x y z
#    x 3.597440 -0.034780 -0.150560 
#    y -0.034780 3.679550 -0.030130 
#    z -0.150560 -0.030130 3.386210 
# 
# 
# High freq. dielectric constant tensor:
#      x y z
#    x 1.810650 -0.004140 -0.008480 
#    y -0.004140 1.799520 0.011800 
#    z -0.008480 0.011800 1.805200 
# 
# From -- ./inp_files/206827.got.cif
#   From: 2010.06.25/outbox.cif.g09.slc.cpg/sg2_104_cif.got.tgz:206827.got - 2010.06.27 13:26:56.
