data_PCOD8002796
_publ_section_title
;
Structure prediction by ZEFSAII (Michael W. Deem and Ramdas Pophale) SiO2 
 PCOD8002796
Probable space group: P -1
;
_chemical_formula_sum "Si O2"
_cell_formula_units_Z 16
_cell_length_a 13.487252
_cell_length_b 19.512173
_cell_length_c 8.408969
_cell_angle_alpha 74.094847
_cell_angle_beta 98.339961
_cell_angle_gamma 159.770269
_cell_volume 692.843013
_symmetry_space_group_name_H-M "P -1"
_symmetry_group_IT_number 2
_symmetry_cell_setting 'triclinic'
loop_
_space_group_symop_operation_xyz
x,y,z
-x,-y,-z
loop_
_atom_site_type_symbol
_atom_site_label
_atom_site_fract_x
_atom_site_fract_y
_atom_site_fract_z
Si Si1 0.392193 0.029502 0.771507
Si Si2 0.489917 0.510035 0.254772
Si Si3 0.384284 0.665881 0.366504
Si Si4 0.230506 0.414459 0.950722
Si Si5 0.396410 0.213973 0.308443
Si Si6 0.239617 0.821665 0.422394
Si Si7 0.848243 0.877087 0.204961
Si Si8 0.886022 0.117588 0.535363
O O1 0.567602 0.219295 0.741316
O O2 0.626342 0.119758 0.750138
O O3 0.249425 0.943611 0.620237
O O4 0.134676 0.838530 0.963690
O O5 0.378488 0.483570 0.100142
O O6 0.751761 0.729140 0.269579
O O7 0.221972 0.313466 0.443703
O O8 0.633850 0.533782 0.206667
O O9 0.539078 0.746837 0.515897
O O10 0.553224 0.729229 0.239810
O O11 0.025465 0.410440 0.437042
O O12 0.319025 0.557341 0.859844
O O13 0.333314 0.090951 0.310385
O O14 0.087188 0.050266 0.295793
O O15 0.100610 0.808309 0.380454
O O16 0.500000 0.000000 0.500000
O O17 0.000000 0.000000 0.000000
#
# Coordination Sequence:
#
# PCOD8002796 Si02
#       8
#     2   2   2   2   2   2   2   2
#     4   9  20  38  64  87 120 166 212 251 309 370
#     4  10  20  36  59  84 127 163 210 250 305 376
#     4  11  23  40  63  97 125 161 213 263 310 368
#     4  10  21  38  59  89 126 168 202 253 312 373
#     4  11  25  38  61  93 136 165 202 260 319 370
#     4  10  20  40  67  90 119 163 216 264 302 365
#     4  12  23  37  61  94 130 169 205 248 315 384
#     4   9  20  37  58  93 121 159 210 262 305 365
#
# _framework density 23.093254999999999
#
# number of rings (size 3 to 8) (size 9 to 14) (size 15 to 20)
#    0.000    1.750    2.500    1.500    7.000    1.500 
#    0.000    1.250    0.000    1.500    0.000    0.000 
#    0.000    0.000    0.000    0.000    0.000    0.000 
#
# Total GULP energy -198314.278567 kJ/mol
# GULP energy per Si atom -12394.642410 kJ/mol
# Density = 2.304069 g / cm^3
# Si number density = 23.093255 Si / 1000 Ang^3
#
#
#
# Elastic Constant Matrix: (Units=GPa)
#
#
# Indices 1 2 3 4 5 6 
#
# 1 123.7114 44.2154 78.8407 -36.6663 -18.2974 -30.4349
# 2 44.2154 129.9220 49.3906 -35.7263 -6.7040 -19.7204
# 3 78.8407 49.3906 102.5898 -42.2528 -5.5833 -11.2185
# 4 -36.6663 -35.7263 -42.2528 47.3372 1.3024 13.4123
# 5 -18.2974 -6.7040 -5.5833 1.3024 38.8393 -11.6048
# 6 -30.4349 -19.7204 -11.2185 13.4123 -11.6048 38.3611
#
#
#
# Elastic Compliance Matrix: (Units=1/GPa)
#
#
# Indices 1 2 3 4 5 6 
#
# 1 0.027265 0.001929 -0.018986 -0.001295 0.017290 0.022754
# 2 0.001929 0.010816 -0.004102 0.004340 0.003680 0.005486
# 3 -0.018986 -0.004102 0.029471 0.013487 -0.010810 -0.016538
# 4 -0.001295 0.004340 0.013487 0.037937 -0.001780 -0.008655
# 5 0.017290 0.003680 -0.010810 -0.001780 0.040610 0.025356
# 6 0.022754 0.005486 -0.016538 -0.008655 0.025356 0.052801
#
#
# Mechanical properties :
#
#
# Convention : Reuss Voigt Hill
#
# Bulk Modulus (GPa) = 39.62890 77.90184 58.76537
# Shear Modulus (GPa) = 20.02974 37.15925 28.59450
#
# Velocity S-wave (km/s) = 2.94826 4.01570 3.52265
# Velocity P-wave (km/s) = 5.36538 7.43694 6.48442
#
# Compressibility (1/GPa) = 0.02523411
#
# Stress axis : x y z
#
# Youngs Moduli (GPa) = 36.67717 92.45638 33.93165
#
# Poissons Ratio (x) = -0.17830 0.64422
# Poissons Ratio (y) = -0.07073 0.13917
# Poissons Ratio (z) = 0.69635 0.37922
#
# Static dielectric constant tensor:
#      x y z
#    x 3.528240 2.907120 -1.593030 
#    y 2.907120 -4.562340 3.841870 
#    z -1.593030 3.841870 2.104790 
# 
# 
# High freq. dielectric constant tensor:
#      x y z
#    x 1.905660 -0.012910 0.002050 
#    y -0.012910 1.919510 -0.013500 
#    z 0.002050 -0.013500 1.896830 
# 
# From -- ./inp_files/319352.got.cif
#   From: 2010.06.25/outbox.cif.g09.slc.cpg/sg2_160_cif.got.tgz:319352.got - 2010.06.27 13:26:56.
