data_PCOD8002150
_publ_section_title
;
Structure prediction by ZEFSAII (Michael W. Deem and Ramdas Pophale) SiO2 
 PCOD8002150
Probable space group: P -1
;
_chemical_formula_sum "Si O2"
_cell_formula_units_Z 16
_cell_length_a 5.336816
_cell_length_b 14.831583
_cell_length_c 12.030247
_cell_angle_alpha 106.446387
_cell_angle_beta 59.413863
_cell_angle_gamma 84.268725
_cell_volume 751.112658
_symmetry_space_group_name_H-M "P -1"
_symmetry_group_IT_number 2
_symmetry_cell_setting 'triclinic'
loop_
_space_group_symop_operation_xyz
x,y,z
-x,-y,-z
loop_
_atom_site_type_symbol
_atom_site_label
_atom_site_fract_x
_atom_site_fract_y
_atom_site_fract_z
Si Si1 0.479635 0.500428 0.840391
Si Si2 0.146830 0.415545 0.069386
Si Si3 0.354389 0.958806 0.384425
Si Si4 0.537327 0.210855 0.872348
Si Si5 0.107620 0.713040 0.347322
Si Si6 0.427686 0.810940 0.492437
Si Si7 0.676318 0.080692 0.999806
Si Si8 0.279213 0.923850 0.763837
O O1 0.673642 0.575927 0.853585
O O2 0.726752 0.401346 0.708877
O O3 0.222144 0.546241 0.820045
O O4 0.270090 0.484529 0.983364
O O5 0.230003 0.302655 0.968366
O O6 0.471724 0.880342 0.232046
O O7 0.502219 0.904665 0.446754
O O8 0.439907 0.053836 0.355290
O O9 0.000000 0.000000 0.500000
O O10 0.807991 0.252488 0.781111
O O11 0.565250 0.175593 0.981042
O O12 0.228493 0.769408 0.437220
O O13 0.743749 0.732835 0.433466
O O14 0.215686 0.845007 0.663262
O O15 0.646129 0.122298 0.146826
O O16 0.500000 0.000000 0.000000
O O17 0.019659 0.026721 0.867705
#
# Coordination Sequence:
#
# PCOD8002150 Si02
#       8
#     2   2   2   2   2   2   2   2
#     4   9  17  33  51  82 113 144 172 223 306 352
#     4   9  18  30  53  78 114 145 179 228 281 359
#     4  11  21  37  59  83 120 156 194 245 292 344
#     4  10  20  35  56  83 114 151 196 234 282 342
#     4  10  21  35  59  87 119 144 182 240 296 361
#     4  11  22  35  57  86 112 150 192 236 288 346
#     4  11  23  39  56  77 116 161 201 246 277 327
#     4  11  23  37  57  79 112 160 202 240 289 334
#
# _framework density 21.301729999999999
#
# number of rings (size 3 to 8) (size 9 to 14) (size 15 to 20)
#    0.000    1.750    1.250    4.125    1.750    7.000 
#    0.000    0.000    0.000    0.000    0.000    5.250 
#    0.000    0.000    0.000    0.000    0.000    0.000 
#
# Total GULP energy -198245.009197 kJ/mol
# GULP energy per Si atom -12390.313075 kJ/mol
# Density = 2.125325 g / cm^3
# Si number density = 21.301730 Si / 1000 Ang^3
#
#
#
# Elastic Constant Matrix: (Units=GPa)
#
#
# Indices 1 2 3 4 5 6 
#
# 1 132.6128 31.3019 49.5237 4.1140 -2.9061 -16.8646
# 2 31.3019 56.5786 37.3165 11.7775 6.5894 -11.2447
# 3 49.5237 37.3165 107.8449 4.5957 14.2570 -12.5516
# 4 4.1140 11.7775 4.5957 24.3982 -4.0639 -2.4500
# 5 -2.9061 6.5894 14.2570 -4.0639 30.5257 2.6338
# 6 -16.8646 -11.2447 -12.5516 -2.4500 2.6338 24.8689
#
#
#
# Elastic Compliance Matrix: (Units=1/GPa)
#
#
# Indices 1 2 3 4 5 6 
#
# 1 0.010108 -0.003196 -0.003632 0.001402 0.003244 0.003371
# 2 -0.003196 0.028051 -0.006181 -0.012099 -0.005670 0.006805
# 3 -0.003632 -0.006181 0.014128 0.000221 -0.005797 0.002508
# 4 0.001402 -0.012099 0.000221 0.047998 0.009087 -0.000642
# 5 0.003244 -0.005670 -0.005797 0.009087 0.038770 -0.006500
# 6 0.003371 0.006805 0.002508 -0.000642 -0.006500 0.047465
#
#
# Mechanical properties :
#
#
# Convention : Reuss Voigt Hill
#
# Bulk Modulus (GPa) = 38.06927 59.25786 48.66356
# Shear Modulus (GPa) = 22.59423 27.88483 25.23953
#
# Velocity S-wave (km/s) = 3.26034 3.62199 3.44591
# Velocity P-wave (km/s) = 5.66421 6.73576 6.22309
#
# Compressibility (1/GPa) = 0.02626791
#
# Stress axis : x y z
#
# Youngs Moduli (GPa) = 98.93324 35.64921 70.78081
#
# Poissons Ratio (x) = 0.11395 0.25707
# Poissons Ratio (y) = 0.31623 0.43751
# Poissons Ratio (z) = 0.35932 0.22036
#
# Static dielectric constant tensor:
#      x y z
#    x 4.111140 -0.125280 0.103200 
#    y -0.125280 3.637500 0.210290 
#    z 0.103200 0.210290 3.899760 
# 
# 
# High freq. dielectric constant tensor:
#      x y z
#    x 1.840940 -0.008250 0.005260 
#    y -0.008250 1.799370 0.029600 
#    z 0.005260 0.029600 1.823710 
# 
# From -- ./inp_files/367842.got.cif
#   From: 2010.06.25/outbox.cif.g09.slc.cpg/sg2_184_cif.got.tgz:367842.got - 2010.06.27 13:26:56.
