data_PCOD8002458
_publ_section_title
;
Structure prediction by ZEFSAII (Michael W. Deem and Ramdas Pophale) SiO2 
 PCOD8002458
Probable space group: P -1
;
_chemical_formula_sum "Si O2"
_cell_formula_units_Z 16
_cell_length_a 18.022680
_cell_length_b 9.376785
_cell_length_c 8.978229
_cell_angle_alpha 133.094666
_cell_angle_beta 130.746657
_cell_angle_gamma 41.893364
_cell_volume 706.765657
_symmetry_space_group_name_H-M "P -1"
_symmetry_group_IT_number 2
_symmetry_cell_setting 'triclinic'
loop_
_space_group_symop_operation_xyz
x,y,z
-x,-y,-z
loop_
_atom_site_type_symbol
_atom_site_label
_atom_site_fract_x
_atom_site_fract_y
_atom_site_fract_z
Si Si1 0.026934 0.127706 0.254270
Si Si2 0.204783 0.857911 0.523317
Si Si3 0.155288 0.321568 0.870851
Si Si4 0.643595 0.675316 0.010541
Si Si5 0.510149 0.921424 0.709572
Si Si6 0.903162 0.572327 0.580462
Si Si7 0.611163 0.313571 0.601448
Si Si8 0.253875 0.380459 0.333543
O O1 0.117642 0.200210 0.370676
O O2 0.915049 0.371236 0.342029
O O3 0.084108 0.948587 0.339577
O O4 0.000000 0.000000 0.000000
O O5 0.294910 0.836337 0.505533
O O6 0.250016 0.621301 0.504206
O O7 0.189793 0.057984 0.756577
O O8 0.234438 0.341002 0.860329
O O9 0.021700 0.477221 0.760232
O O10 0.170176 0.412672 0.111679
O O11 0.573828 0.806374 0.164192
O O12 0.568728 0.793151 0.848878
O O13 0.661559 0.421250 0.859608
O O14 0.426348 0.844432 0.475698
O O15 0.615001 0.846742 0.676793
O O16 0.793067 0.654353 0.599215
O O17 0.500000 0.500000 0.500000
#
# Coordination Sequence:
#
# PCOD8002458 Si02
#       8
#     2   2   2   2   2   2   2   2
#     4  10  23  41  60  74 107 151 198 225 264 325
#     4  11  20  32  56  87 108 143 184 228 274 323
#     4  10  19  31  53  82 117 139 179 228 278 327
#     4   9  16  26  46  75 112 142 172 212 271 323
#     4   9  17  27  46  77 112 143 170 213 274 324
#     4  10  23  40  55  82 110 148 185 227 276 333
#     4  10  16  28  48  78 114 136 176 224 266 322
#     4  11  21  33  55  85 121 140 172 229 290 326
#
# _framework density 22.638338999999998
#
# number of rings (size 3 to 8) (size 9 to 14) (size 15 to 20)
#    0.000    2.000    5.000    1.125    1.750    3.000 
#    0.000    0.000    0.000    0.750    0.000    1.750 
#    0.000    0.000    0.000    0.000    0.000    0.000 
#
# Total GULP energy -198226.520893 kJ/mol
# GULP energy per Si atom -12389.157556 kJ/mol
# Density = 2.258681 g / cm^3
# Si number density = 22.638339 Si / 1000 Ang^3
#
#
#
# Elastic Constant Matrix: (Units=GPa)
#
#
# Indices 1 2 3 4 5 6 
#
# 1 143.9164 8.3104 32.5392 17.1624 -18.2464 -5.9910
# 2 8.3104 22.0926 -3.4644 8.3901 -3.8483 3.7976
# 3 32.5392 -3.4644 85.4267 23.8785 13.6504 -0.1170
# 4 17.1624 8.3901 23.8785 16.3780 -4.5411 1.8141
# 5 -18.2464 -3.8483 13.6504 -4.5411 30.1653 0.7650
# 6 -5.9910 3.7976 -0.1170 1.8141 0.7650 14.5833
#
#
#
# Elastic Compliance Matrix: (Units=1/GPa)
#
#
# Indices 1 2 3 4 5 6 
#
# 1 0.009419 -0.005016 -0.005978 0.003193 0.008134 0.004304
# 2 -0.005016 0.088288 0.036693 -0.098575 -0.022928 -0.011292
# 3 -0.005978 0.036693 0.045104 -0.087416 -0.032529 0.000931
# 4 0.003193 -0.098575 -0.087416 0.255399 0.067590 -0.009035
# 5 0.008134 -0.022928 -0.032529 0.067590 0.060104 -0.002509
# 6 0.004304 -0.011292 0.000931 -0.009035 -0.002509 0.074543
#
#
# Mechanical properties :
#
#
# Convention : Reuss Voigt Hill
#
# Bulk Modulus (GPa) = 5.14906 36.24513 20.69710
# Shear Modulus (GPa) = 9.15422 26.49536 17.82479
#
# Velocity S-wave (km/s) = 2.01307 3.42479 2.80906
# Velocity P-wave (km/s) = 2.77177 5.62887 4.43660
#
# Compressibility (1/GPa) = 0.19421008
#
# Stress axis : x y z
#
# Youngs Moduli (GPa) = 106.16424 11.32659 22.17077
#
# Poissons Ratio (x) = 0.05682 0.13253
# Poissons Ratio (y) = 0.53254 -0.81351
# Poissons Ratio (z) = 0.63462 -0.41561
#
# Static dielectric constant tensor:
#      x y z
#    x 4.136070 -0.122050 0.268280 
#    y -0.122050 3.869870 0.586370 
#    z 0.268280 0.586370 4.467820 
# 
# 
# High freq. dielectric constant tensor:
#      x y z
#    x 1.871780 -0.027790 0.014910 
#    y -0.027790 1.871220 0.025810 
#    z 0.014910 0.025810 1.895270 
# 
# From -- ./inp_files/329643.got.cif
#   From: 2010.06.25/outbox.cif.g09.slc.cpg/sg2_165_cif.got.tgz:329643.got - 2010.06.27 13:26:56.
