data_PCOD8002473
_publ_section_title
;
Structure prediction by ZEFSAII (Michael W. Deem and Ramdas Pophale) SiO2 
 PCOD8002473
Probable space group: P -1
;
_chemical_formula_sum "Si O2"
_cell_formula_units_Z 16
_cell_length_a 23.126629
_cell_length_b 17.101234
_cell_length_c 8.181589
_cell_angle_alpha 140.113775
_cell_angle_beta 44.081306
_cell_angle_gamma 158.476677
_cell_volume 761.128814
_symmetry_space_group_name_H-M "P -1"
_symmetry_group_IT_number 2
_symmetry_cell_setting 'triclinic'
loop_
_space_group_symop_operation_xyz
x,y,z
-x,-y,-z
loop_
_atom_site_type_symbol
_atom_site_label
_atom_site_fract_x
_atom_site_fract_y
_atom_site_fract_z
Si Si1 0.640955 0.245051 0.783861
Si Si2 0.868792 0.253075 0.783124
Si Si3 0.544395 0.868223 0.276626
Si Si4 0.801886 0.413028 0.049983
Si Si5 0.054699 0.296561 0.263900
Si Si6 0.110718 0.060587 0.257230
Si Si7 0.166085 0.900065 0.061394
Si Si8 0.751486 0.565003 0.637186
O O1 0.525990 0.207350 0.886615
O O2 0.797825 0.436958 0.662323
O O3 0.548484 0.003739 0.571729
O O4 0.684920 0.322335 0.006592
O O5 0.787301 0.070018 0.796756
O O6 0.929646 0.234988 0.494758
O O7 0.755118 0.213119 0.865637
O O8 0.000000 0.500000 0.000000
O O9 0.424092 0.637891 0.259603
O O10 0.719965 0.034054 0.183442
O O11 0.780706 0.470474 0.342474
O O12 0.982674 0.641130 0.983532
O O13 0.115087 0.269208 0.226126
O O14 0.983203 0.137138 0.999855
O O15 0.229341 0.298413 0.305254
O O16 0.201693 0.084813 0.237339
O O17 0.000000 0.000000 0.500000
#
# Coordination Sequence:
#
# PCOD8002473 Si02
#       8
#     2   2   2   2   2   2   2   2
#     4  10  21  39  63  93 133 170 210 257 339 396
#     4  10  20  35  62  99 133 150 209 282 326 362
#     4  10  25  39  60  94 141 170 204 266 341 389
#     4  11  21  39  69  95 129 166 224 270 316 391
#     4  11  20  38  66 100 125 168 219 276 323 373
#     4  12  23  41  69  94 127 172 233 269 303 387
#     4  11  22  41  62  95 124 170 212 275 320 367
#     4  11  23  42  61  96 131 178 213 262 325 389
#
# _framework density 21.021408999999998
#
# number of rings (size 3 to 8) (size 9 to 14) (size 15 to 20)
#    0.000    1.250    5.000    1.875    5.250    2.000 
#    0.000    0.000    0.000    7.500    0.000    0.000 
#    0.000    0.000    0.000    0.000    0.000    0.000 
#
# Total GULP energy -198311.574911 kJ/mol
# GULP energy per Si atom -12394.473432 kJ/mol
# Density = 2.097356 g / cm^3
# Si number density = 21.021409 Si / 1000 Ang^3
#
#
#
# Elastic Constant Matrix: (Units=GPa)
#
#
# Indices 1 2 3 4 5 6 
#
# 1 128.6809 43.5975 35.5228 0.7426 -6.7198 -29.6752
# 2 43.5975 72.5474 34.2476 -6.7190 -3.4842 -9.4011
# 3 35.5228 34.2476 103.6413 -5.0678 2.5115 -2.5827
# 4 0.7426 -6.7190 -5.0678 20.4380 -0.9552 -4.7864
# 5 -6.7198 -3.4842 2.5115 -0.9552 32.2228 7.2239
# 6 -29.6752 -9.4011 -2.5827 -4.7864 7.2239 36.2787
#
#
#
# Elastic Compliance Matrix: (Units=1/GPa)
#
#
# Indices 1 2 3 4 5 6 
#
# 1 0.012060 -0.005173 -0.002264 -0.000765 0.000269 0.008209
# 2 -0.005173 0.019754 -0.004472 0.005888 0.001338 0.001079
# 3 -0.002264 -0.004472 0.011949 0.001103 -0.001468 -0.001722
# 4 -0.000765 0.005888 0.001103 0.053033 0.000183 0.007939
# 5 0.000269 0.001338 -0.001468 0.000183 0.032705 -0.006026
# 6 0.008209 0.001079 -0.001722 0.007939 -0.006026 0.036683
#
#
# Mechanical properties :
#
#
# Convention : Reuss Voigt Hill
#
# Bulk Modulus (GPa) = 50.13749 59.06728 54.60238
# Shear Modulus (GPa) = 25.42581 30.55468 27.99025
#
# Velocity S-wave (km/s) = 3.48159 3.81662 3.65295
# Velocity P-wave (km/s) = 6.32964 6.89795 6.61990
#
# Compressibility (1/GPa) = 0.01994516
#
# Stress axis : x y z
#
# Youngs Moduli (GPa) = 82.91712 50.62386 83.69038
#
# Poissons Ratio (x) = 0.26189 0.18943
# Poissons Ratio (y) = 0.42895 0.37426
# Poissons Ratio (z) = 0.18768 0.22639
#
# Static dielectric constant tensor:
#      x y z
#    x 5.014660 -0.344730 -0.156500 
#    y -0.344730 3.688290 -0.023690 
#    z -0.156500 -0.023690 3.538380 
# 
# 
# High freq. dielectric constant tensor:
#      x y z
#    x 1.842480 -0.018360 0.003500 
#    y -0.018360 1.801030 -0.014160 
#    z 0.003500 -0.014160 1.802430 
# 
# From -- ./inp_files/338688.got.cif
#   From: 2010.06.25/outbox.cif.g09.slc.cpg/sg2_170_cif.got.tgz:338688.got - 2010.06.27 13:26:56.
