data_PCOD8002803
_publ_section_title
;
Structure prediction by ZEFSAII (Michael W. Deem and Ramdas Pophale) SiO2 
 PCOD8002803
Probable space group: P -1
;
_chemical_formula_sum "Si O2"
_cell_formula_units_Z 14
_cell_length_a 16.370310
_cell_length_b 6.761690
_cell_length_c 8.988210
_cell_angle_alpha 50.967260
_cell_angle_beta 66.948572
_cell_angle_gamma 60.269559
_cell_volume 666.458245
_symmetry_space_group_name_H-M "P -1"
_symmetry_group_IT_number 2
_symmetry_cell_setting 'triclinic'
loop_
_space_group_symop_operation_xyz
x,y,z
-x,-y,-z
loop_
_atom_site_type_symbol
_atom_site_label
_atom_site_fract_x
_atom_site_fract_y
_atom_site_fract_z
Si Si1 0.259693 0.226293 0.815201
Si Si2 0.651799 0.030199 0.407979
Si Si3 0.453329 0.352397 0.279157
Si Si4 0.955383 0.168641 0.097912
Si Si5 0.116272 0.204278 0.166625
Si Si6 0.445964 0.907714 0.959355
Si Si7 0.196618 0.854947 0.566989
O O1 0.215364 0.543367 0.655104
O O2 0.277703 0.020293 0.759773
O O3 0.195886 0.129172 0.018907
O O4 0.361058 0.174969 0.843630
O O5 0.549397 0.268569 0.350307
O O6 0.706448 0.094740 0.479458
O O7 0.629738 0.749798 0.558880
O O8 0.406599 0.677440 0.157272
O O9 0.479112 0.224165 0.159530
O O10 0.873867 0.073231 0.274223
O O11 0.030204 0.127915 0.197457
O O12 0.915246 0.478015 0.923546
O O13 0.000000 0.000000 0.000000
O O14 0.152301 0.040854 0.369725
O O15 0.500000 0.000000 0.000000
#
# Coordination Sequence:
#
# PCOD8002803 Si02
#       7
#     2   2   2   2   2   2   2
#     4  10  23  38  57  90 121 158 198 249 298 350
#     4  10  21  39  57  86 126 159 205 248 297 349
#     4   9  21  37  56  85 121 163 204 251 288 352
#     4  10  22  43  65  88 121 157 190 245 303 359
#     4  10  23  40  61  93 122 148 203 244 294 366
#     4  10  20  36  59  85 117 162 206 247 299 344
#     4  11  23  39  63  93 119 157 200 246 296 363
#
# _framework density 21.006568999999999
#
# number of rings (size 3 to 8) (size 9 to 14) (size 15 to 20)
#    0.000    2.000    0.000    2.143    4.000    1.714 
#    5.143    4.286    0.000    0.000    0.000    0.000 
#    0.000    0.000    0.000    0.000    0.000    0.000 
#
# Total GULP energy -173555.913455 kJ/mol
# GULP energy per Si atom -12396.850961 kJ/mol
# Density = 2.095876 g / cm^3
# Si number density = 21.006569 Si / 1000 Ang^3
#
#
#
# Elastic Constant Matrix: (Units=GPa)
#
#
# Indices 1 2 3 4 5 6 
#
# 1 108.3154 24.9059 45.4991 -5.5004 14.3271 10.7966
# 2 24.9059 49.5493 31.4234 -7.4500 -0.2547 -16.3287
# 3 45.4991 31.4234 112.1327 -13.1230 12.3545 -1.7881
# 4 -5.5004 -7.4500 -13.1230 17.3445 -9.5793 -1.9512
# 5 14.3271 -0.2547 12.3545 -9.5793 38.2481 1.4785
# 6 10.7966 -16.3287 -1.7881 -1.9512 1.4785 19.6916
#
#
#
# Elastic Compliance Matrix: (Units=1/GPa)
#
#
# Indices 1 2 3 4 5 6 
#
# 1 0.016884 -0.015542 -0.003287 -0.010285 -0.007055 -0.022932
# 2 -0.015542 0.053940 -0.006225 0.026704 0.012778 0.054371
# 3 -0.003287 -0.006225 0.012716 0.004813 -0.001650 -0.001604
# 4 -0.010285 0.026704 0.004813 0.085956 0.022649 0.035037
# 5 -0.007055 0.012778 -0.001650 0.022649 0.034539 0.013966
# 6 -0.022932 0.054371 -0.001604 0.035037 0.013966 0.110719
#
#
# Mechanical properties :
#
#
# Convention : Reuss Voigt Hill
#
# Bulk Modulus (GPa) = 29.91230 52.62824 41.27027
# Shear Modulus (GPa) = 13.29763 26.26811 19.78287
#
# Velocity S-wave (km/s) = 2.51872 3.54004 3.07212
# Velocity P-wave (km/s) = 4.76750 6.46659 5.68092
#
# Compressibility (1/GPa) = 0.03343106
#
# Stress axis : x y z
#
# Youngs Moduli (GPa) = 59.22889 18.53897 78.64149
#
# Poissons Ratio (x) = 0.28813 0.25853
# Poissons Ratio (y) = 0.92051 0.48957
# Poissons Ratio (z) = 0.19471 0.11541
#
# Static dielectric constant tensor:
#      x y z
#    x 3.984870 -0.179510 -0.142870 
#    y -0.179510 3.743140 -0.065010 
#    z -0.142870 -0.065010 4.095220 
# 
# 
# High freq. dielectric constant tensor:
#      x y z
#    x 1.825160 -0.005380 -0.001440 
#    y -0.005380 1.817920 0.002960 
#    z -0.001440 0.002960 1.828880 
# 
# From -- ./inp_files/37714.got.cif
#   From: 2010.06.25/outbox.cif.g09.slc.cpg/sg2_19_cif.got.tgz:37714.got - 2010.06.27 13:26:56.
