data_PCOD8002368
_publ_section_title
;
Structure prediction by ZEFSAII (Michael W. Deem and Ramdas Pophale) SiO2 
 PCOD8002368
Probable space group: P -1
;
_chemical_formula_sum "Si O2"
_cell_formula_units_Z 16
_cell_length_a 9.054726
_cell_length_b 8.718551
_cell_length_c 16.833083
_cell_angle_alpha 135.665250
_cell_angle_beta 75.322094
_cell_angle_gamma 127.117494
_cell_volume 701.626740
_symmetry_space_group_name_H-M "P -1"
_symmetry_group_IT_number 2
_symmetry_cell_setting 'triclinic'
loop_
_space_group_symop_operation_xyz
x,y,z
-x,-y,-z
loop_
_atom_site_type_symbol
_atom_site_label
_atom_site_fract_x
_atom_site_fract_y
_atom_site_fract_z
Si Si1 0.963344 0.902258 0.732517
Si Si2 0.386291 0.909614 0.329587
Si Si3 0.412601 0.319591 0.831476
Si Si4 0.674009 0.761066 0.440460
Si Si5 0.007436 0.599892 0.742143
Si Si6 0.587241 0.888516 0.074784
Si Si7 0.047448 0.238794 0.488203
Si Si8 0.612786 0.884829 0.764977
O O1 0.908524 0.699951 0.588939
O O2 0.922005 0.731011 0.754956
O O3 0.836595 0.011521 0.792177
O O4 0.187456 0.177333 0.797850
O O5 0.511897 0.799338 0.284239
O O6 0.155332 0.645226 0.268573
O O7 0.441949 0.123656 0.473435
O O8 0.432889 0.075686 0.303100
O O9 0.453719 0.252522 0.886473
O O10 0.537058 0.657338 0.930314
O O11 0.522741 0.443366 0.314979
O O12 0.801172 0.804168 0.515640
O O13 0.824964 0.950595 0.419445
O O14 0.082959 0.496131 0.626488
O O15 0.188316 0.831451 0.859149
O O16 0.441482 0.965713 0.112327
#
# Coordination Sequence:
#
# PCOD8002368 Si02
#       8
#     2   2   2   2   2   2   2   2
#     4  11  23  35  57  88 124 148 187 246 291 331
#     4  10  21  37  60  85 116 155 196 228 282 356
#     4   9  21  39  57  83 116 156 195 237 284 338
#     4  10  20  35  60  89 115 150 195 232 285 351
#     4  10  21  38  59  88 118 153 191 237 289 343
#     4   9  19  39  62  79 112 159 200 231 279 350
#     4  10  20  36  58  88 120 150 185 240 290 346
#     4  11  21  35  62  87 114 152 195 240 282 344
#
# _framework density 22.80415
#
# number of rings (size 3 to 8) (size 9 to 14) (size 15 to 20)
#    0.000    2.000    2.500    0.750    0.000    3.000 
#    0.000    2.500    0.000    3.750    0.000    0.000 
#    0.000    0.000    0.000    0.000    0.000    0.000 
#
# Total GULP energy -198384.973834 kJ/mol
# GULP energy per Si atom -12399.060865 kJ/mol
# Density = 2.275225 g / cm^3
# Si number density = 22.804150 Si / 1000 Ang^3
#
#
#
# Elastic Constant Matrix: (Units=GPa)
#
#
# Indices 1 2 3 4 5 6 
#
# 1 134.0227 8.1704 48.1122 9.7950 -26.9078 12.8460
# 2 8.1704 41.8454 13.5322 17.6472 -2.8084 7.7638
# 3 48.1122 13.5322 93.2773 29.1240 -26.6418 5.2040
# 4 9.7950 17.6472 29.1240 31.0581 0.6484 4.9781
# 5 -26.9078 -2.8084 -26.6418 0.6484 31.1775 -1.6285
# 6 12.8460 7.7638 5.2040 4.9781 -1.6285 19.8297
#
#
#
# Elastic Compliance Matrix: (Units=1/GPa)
#
#
# Indices 1 2 3 4 5 6 
#
# 1 0.010371 0.000190 -0.003850 0.001016 0.005365 -0.005597
# 2 0.000190 0.033825 0.004388 -0.022198 0.006984 -0.008372
# 3 -0.003850 0.004388 0.025776 -0.026217 0.019760 0.002216
# 4 0.001016 -0.022198 -0.026217 0.070375 -0.025241 -0.004827
# 5 0.005365 0.006984 0.019760 -0.025241 0.054714 -0.000566
# 6 -0.005597 -0.008372 0.002216 -0.004827 -0.000566 0.057917
#
#
# Mechanical properties :
#
#
# Convention : Reuss Voigt Hill
#
# Bulk Modulus (GPa) = 14.00027 45.41944 29.70985
# Shear Modulus (GPa) = 18.15991 29.70177 23.93084
#
# Velocity S-wave (km/s) = 2.82502 3.61289 3.24297
# Velocity P-wave (km/s) = 4.09800 6.11264 5.20375
#
# Compressibility (1/GPa) = 0.07142718
#
# Stress axis : x y z
#
# Youngs Moduli (GPa) = 96.42133 29.56416 38.79593
#
# Poissons Ratio (x) = -0.00561 0.14936
# Poissons Ratio (y) = -0.01830 -0.17022
# Poissons Ratio (z) = 0.37120 -0.12972
#
# Static dielectric constant tensor:
#      x y z
#    x 4.180020 0.053770 -0.344520 
#    y 0.053770 3.885200 0.211150 
#    z -0.344520 0.211150 4.043460 
# 
# 
# High freq. dielectric constant tensor:
#      x y z
#    x 1.903680 0.008720 -0.017410 
#    y 0.008720 1.884550 0.018200 
#    z -0.017410 0.018200 1.878840 
# 
# From -- ./inp_files/177436.got.cif
#   From: 2010.06.25/outbox.cif.g09.slc.cpg/sg2_89_cif.got.tgz:177436.got - 2010.06.27 13:26:56.
