data_PCOD8002829
_publ_section_title
;
Structure prediction by ZEFSAII (Michael W. Deem and Ramdas Pophale) SiO2 
 PCOD8002829
Probable space group: P -1
;
_chemical_formula_sum "Si O2"
_cell_formula_units_Z 16
_cell_length_a 9.352453
_cell_length_b 7.976793
_cell_length_c 11.121567
_cell_angle_alpha 95.154961
_cell_angle_beta 98.592656
_cell_angle_gamma 112.055094
_cell_volume 750.646535
_symmetry_space_group_name_H-M "P -1"
_symmetry_group_IT_number 2
_symmetry_cell_setting 'triclinic'
loop_
_space_group_symop_operation_xyz
x,y,z
-x,-y,-z
loop_
_atom_site_type_symbol
_atom_site_label
_atom_site_fract_x
_atom_site_fract_y
_atom_site_fract_z
Si Si1 0.086928 0.634824 0.126852
Si Si2 0.307015 0.315833 0.228059
Si Si3 0.384541 0.633526 0.082705
Si Si4 0.319337 0.046394 0.793745
Si Si5 0.821714 0.271817 0.397511
Si Si6 0.604059 0.274062 0.178992
Si Si7 0.847956 0.505703 0.630299
Si Si8 0.999248 0.029615 0.863362
O O1 0.269124 0.733052 0.113698
O O2 0.072999 0.522053 0.239034
O O3 0.013329 0.780440 0.156108
O O4 0.000000 0.500000 0.000000
O O5 0.312850 0.426067 0.111419
O O6 0.455280 0.259728 0.241439
O O7 0.299035 0.439801 0.349821
O O8 0.148876 0.138127 0.217236
O O9 0.554335 0.744458 0.174505
O O10 0.392477 0.618313 0.937733
O O11 0.160764 0.032476 0.834390
O O12 0.268233 0.949882 0.648621
O O13 0.400873 0.927712 0.868889
O O14 0.757052 0.370842 0.290823
O O15 0.779545 0.323500 0.527460
O O16 0.010638 0.336965 0.414212
O O17 0.000000 0.000000 0.000000
#
# Coordination Sequence:
#
# PCOD8002829 Si02
#       8
#     2   2   2   2   2   2   2   2
#     4  11  24  39  65  93 122 155 201 249 309 359
#     4  11  22  36  62  92 122 157 203 250 304 357
#     4  11  21  37  59  93 127 155 198 255 306 362
#     4  10  22  39  58  91 122 164 202 246 307 354
#     4   9  21  38  65  80 127 163 205 244 307 353
#     4  10  20  36  59  87 124 159 199 249 304 360
#     4  10  20  42  61  88 120 164 204 251 295 367
#     4  12  22  38  61  91 123 158 197 252 300 368
#
# _framework density 21.314958000000001
#
# number of rings (size 3 to 8) (size 9 to 14) (size 15 to 20)
#    0.750    0.750    1.250    5.250    0.000    2.500 
#    0.000    3.125    2.750    0.000    0.000    0.000 
#    0.000    0.000    0.000    0.000    0.000    0.000 
#
# Total GULP energy -198216.760781 kJ/mol
# GULP energy per Si atom -12388.547549 kJ/mol
# Density = 2.126644 g / cm^3
# Si number density = 21.314958 Si / 1000 Ang^3
#
#
#
# Elastic Constant Matrix: (Units=GPa)
#
#
# Indices 1 2 3 4 5 6 
#
# 1 164.5535 32.5144 27.7998 14.2152 -32.1206 -2.0196
# 2 32.5144 70.0936 18.6762 14.4800 -7.4410 -0.7965
# 3 27.7998 18.6762 111.1289 21.7559 -12.5914 4.1851
# 4 14.2152 14.4800 21.7559 20.9124 -1.1606 -1.9458
# 5 -32.1206 -7.4410 -12.5914 -1.1606 35.3595 7.5887
# 6 -2.0196 -0.7965 4.1851 -1.9458 7.5887 32.3401
#
#
#
# Elastic Compliance Matrix: (Units=1/GPa)
#
#
# Indices 1 2 3 4 5 6 
#
# 1 0.008242 -0.002301 -0.000097 -0.003644 0.007155 -0.001428
# 2 -0.002301 0.017683 -0.000163 -0.010494 0.001365 -0.000639
# 3 -0.000097 -0.000163 0.012140 -0.012516 0.004518 -0.003394
# 4 -0.003644 -0.010494 -0.012516 0.070772 -0.009277 0.007569
# 5 0.007155 0.001365 0.004518 -0.009277 0.038451 -0.009685
# 6 -0.001428 -0.000639 -0.003394 0.007569 -0.009685 0.033984
#
#
# Mechanical properties :
#
#
# Convention : Reuss Voigt Hill
#
# Bulk Modulus (GPa) = 30.35604 55.97298 43.16451
# Shear Modulus (GPa) = 25.33241 35.50810 30.42025
#
# Velocity S-wave (km/s) = 3.45117 4.08594 3.78190
# Velocity P-wave (km/s) = 5.49121 6.96971 6.27416
#
# Compressibility (1/GPa) = 0.03294237
#
# Stress axis : x y z
#
# Youngs Moduli (GPa) = 121.32854 56.55128 82.36984
#
# Poissons Ratio (x) = 0.13014 0.00801
# Poissons Ratio (y) = 0.27921 0.01342
# Poissons Ratio (z) = 0.01181 0.00922
#
# Static dielectric constant tensor:
#      x y z
#    x 4.176240 -0.079970 -0.169940 
#    y -0.079970 3.354490 0.224990 
#    z -0.169940 0.224990 3.722370 
# 
# 
# High freq. dielectric constant tensor:
#      x y z
#    x 1.856010 0.001450 -0.017700 
#    y 0.001450 1.806150 0.021750 
#    z -0.017700 0.021750 1.819100 
# 
# From -- ./inp_files/379973.got.cif
#   From: 2010.06.25/outbox.cif.g09.slc.cpg/sg2_190_cif.got.tgz:379973.got - 2010.06.27 13:26:56.
