data_PCOD8002402
_publ_section_title
;
Structure prediction by ZEFSAII (Michael W. Deem and Ramdas Pophale) SiO2 
 PCOD8002402
Probable space group: P -1
;
_chemical_formula_sum "Si O2"
_cell_formula_units_Z 14
_cell_length_a 8.635470
_cell_length_b 16.734195
_cell_length_c 9.093724
_cell_angle_alpha 136.880939
_cell_angle_beta 112.007319
_cell_angle_gamma 94.366932
_cell_volume 694.523095
_symmetry_space_group_name_H-M "P -1"
_symmetry_group_IT_number 2
_symmetry_cell_setting 'triclinic'
loop_
_space_group_symop_operation_xyz
x,y,z
-x,-y,-z
loop_
_atom_site_type_symbol
_atom_site_label
_atom_site_fract_x
_atom_site_fract_y
_atom_site_fract_z
Si Si1 0.660406 0.343536 0.155678
Si Si2 0.278381 0.832957 0.556515
Si Si3 0.562715 0.861145 0.946034
Si Si4 0.968171 0.641774 0.610842
Si Si5 0.542170 0.308355 0.741998
Si Si6 0.077720 0.427137 0.827873
Si Si7 0.836110 0.846525 0.788399
O O1 0.506068 0.257249 0.114977
O O2 0.775641 0.511185 0.449809
O O3 0.829060 0.306676 0.157992
O O4 0.533107 0.301205 0.904501
O O5 0.374511 0.834262 0.749358
O O6 0.364116 0.779143 0.392002
O O7 0.035015 0.730253 0.355044
O O8 0.331469 0.985546 0.735573
O O9 0.722224 0.854734 0.897021
O O10 0.985920 0.585381 0.382130
O O11 0.949312 0.772868 0.773277
O O12 0.318390 0.242052 0.516493
O O13 0.679115 0.470313 0.946384
O O14 0.000000 0.500000 0.000000
O O15 0.000000 0.000000 0.000000
#
# Coordination Sequence:
#
# PCOD8002402 Si02
#       7
#     2   2   2   2   2   2   2
#     4  10  21  38  63  88 118 153 204 241 297 349
#     4   9  17  33  58  88 115 153 203 243 278 349
#     4  10  20  35  61  85 117 162 198 235 293 360
#     4  10  21  38  62  87 123 159 188 249 298 351
#     4   9  21  36  60  90 114 156 198 249 291 351
#     4   9  16  32  58  87 113 141 204 242 276 336
#     4  11  24  41  61  86 122 159 199 240 304 351
#
# _framework density 20.157717999999999
#
# number of rings (size 3 to 8) (size 9 to 14) (size 15 to 20)
#    0.000    2.286    1.429    0.857    4.000    3.429 
#    0.000    0.714   12.571    0.000    0.000    0.000 
#    0.000    0.000    0.000    0.000    0.000    0.000 
#
# Total GULP energy -173501.963497 kJ/mol
# GULP energy per Si atom -12392.997393 kJ/mol
# Density = 2.011184 g / cm^3
# Si number density = 20.157718 Si / 1000 Ang^3
#
#
#
# Elastic Constant Matrix: (Units=GPa)
#
#
# Indices 1 2 3 4 5 6 
#
# 1 61.8742 42.3433 28.8163 16.6427 9.6382 9.0061
# 2 42.3433 105.1303 30.4782 34.7456 9.0982 14.9418
# 3 28.8163 30.4782 74.0847 26.1589 17.2560 8.8297
# 4 16.6427 34.7456 26.1589 34.3200 2.1324 4.9729
# 5 9.6382 9.0982 17.2560 2.1324 30.6457 5.8869
# 6 9.0061 14.9418 8.8297 4.9729 5.8869 40.0693
#
#
#
# Elastic Compliance Matrix: (Units=1/GPa)
#
#
# Indices 1 2 3 4 5 6 
#
# 1 0.024807 -0.008372 -0.006176 0.001408 -0.001743 -0.001012
# 2 -0.008372 0.017879 0.002101 -0.015062 -0.002224 -0.003052
# 3 -0.006176 0.002101 0.023269 -0.016074 -0.010476 -0.000989
# 4 0.001408 -0.015062 -0.016074 0.055296 0.009109 0.000641
# 5 -0.001743 -0.002224 -0.010476 0.009109 0.039765 -0.003443
# 6 -0.001012 -0.003052 -0.000989 0.000641 -0.003443 0.026967
#
#
# Mechanical properties :
#
#
# Convention : Reuss Voigt Hill
#
# Bulk Modulus (GPa) = 24.35307 49.37387 36.86347
# Shear Modulus (GPa) = 22.06870 30.30377 26.18623
#
# Velocity S-wave (km/s) = 3.31237 3.88149 3.60817
# Velocity P-wave (km/s) = 5.17074 6.68094 5.97375
#
# Compressibility (1/GPa) = 0.04106259
#
# Stress axis : x y z
#
# Youngs Moduli (GPa) = 40.31069 55.93098 42.97488
#
# Poissons Ratio (x) = 0.46826 0.26540
# Poissons Ratio (y) = 0.33748 -0.09029
# Poissons Ratio (z) = 0.24895 -0.11751
#
# Static dielectric constant tensor:
#      x y z
#    x 3.470650 0.247280 0.112410 
#    y 0.247280 3.564930 0.275900 
#    z 0.112410 0.275900 3.992710 
# 
# 
# High freq. dielectric constant tensor:
#      x y z
#    x 1.771400 0.022570 0.003490 
#    y 0.022570 1.770320 0.021450 
#    z 0.003490 0.021450 1.795300 
# 
# From -- ./inp_files/185474.got.cif
#   From: 2010.06.25/outbox.cif.g09.slc.cpg/sg2_93_cif.got.tgz:185474.got - 2010.06.27 13:26:56.
