data_PCOD8002298
_publ_section_title
;
Structure prediction by ZEFSAII (Michael W. Deem and Ramdas Pophale) SiO2 
 PCOD8002298
Probable space group: P -1
;
_chemical_formula_sum "Si O2"
_cell_formula_units_Z 16
_cell_length_a 9.138819
_cell_length_b 12.031255
_cell_length_c 15.202536
_cell_angle_alpha 37.894483
_cell_angle_beta 80.275282
_cell_angle_gamma 55.971187
_cell_volume 718.465740
_symmetry_space_group_name_H-M "P -1"
_symmetry_group_IT_number 2
_symmetry_cell_setting 'triclinic'
loop_
_space_group_symop_operation_xyz
x,y,z
-x,-y,-z
loop_
_atom_site_type_symbol
_atom_site_label
_atom_site_fract_x
_atom_site_fract_y
_atom_site_fract_z
Si Si1 0.738551 0.397916 0.238492
Si Si2 0.106073 0.976572 0.187602
Si Si3 0.336102 0.291975 0.349262
Si Si4 0.071629 0.872714 0.435659
Si Si5 0.135563 0.340454 0.876244
Si Si6 0.620474 0.405608 0.955556
Si Si7 0.855199 0.571653 0.360331
Si Si8 0.768742 0.503154 0.585310
O O1 0.758367 0.301739 0.395270
O O2 0.817667 0.537846 0.136473
O O3 0.500086 0.610316 0.095927
O O4 0.866522 0.152828 0.315268
O O5 0.859783 0.140296 0.105356
O O6 0.174418 0.907800 0.326172
O O7 0.221922 0.722883 0.278352
O O8 0.171482 0.115050 0.056613
O O9 0.385228 0.386829 0.207709
O O10 0.376718 0.330430 0.420299
O O11 0.100597 0.425749 0.279377
O O12 0.500000 0.000000 0.500000
O O13 0.014649 0.725119 0.491838
O O14 0.267030 0.254249 0.824771
O O15 0.500000 0.500000 0.000000
O O16 0.693418 0.655323 0.403849
O O17 0.001298 0.609564 0.353807
#
# Coordination Sequence:
#
# PCOD8002298 Si02
#       8
#     2   2   2   2   2   2   2   2
#     4  10  20  35  59  85 118 165 196 231 297 346
#     4  10  20  38  59  88 123 151 199 246 288 348
#     4  10  23  37  57  88 122 146 199 254 290 344
#     4   9  18  32  58  83 114 160 196 236 275 362
#     4   9  20  35  56  90 116 156 195 242 289 356
#     4  11  23  37  56  90 125 152 192 251 296 338
#     4   8  16  31  56  86 109 147 200 235 272 353
#     4   9  18  34  60  83 112 162 195 238 297 347
#
# _framework density 22.269677000000001
#
# number of rings (size 3 to 8) (size 9 to 14) (size 15 to 20)
#    0.000    2.500    1.250    0.000    7.000    6.000 
#    0.000    0.000    0.000   18.750    0.000    0.000 
#    0.000    0.000    0.000    0.000    0.000    0.000 
#
# Total GULP energy -198227.372568 kJ/mol
# GULP energy per Si atom -12389.210785 kJ/mol
# Density = 2.221899 g / cm^3
# Si number density = 22.269677 Si / 1000 Ang^3
#
#
#
# Elastic Constant Matrix: (Units=GPa)
#
#
# Indices 1 2 3 4 5 6 
#
# 1 65.4929 11.3013 31.0702 3.5144 -4.7187 17.7409
# 2 11.3013 109.2894 57.4708 11.7291 -2.6794 10.7954
# 3 31.0702 57.4708 119.0585 24.6225 -26.5577 4.6679
# 4 3.5144 11.7291 24.6225 30.2150 5.6685 -7.8441
# 5 -4.7187 -2.6794 -26.5577 5.6685 26.0550 3.6826
# 6 17.7409 10.7954 4.6679 -7.8441 3.6826 27.3153
#
#
#
# Elastic Compliance Matrix: (Units=1/GPa)
#
#
# Indices 1 2 3 4 5 6 
#
# 1 0.021812 0.002337 -0.004851 -0.004015 0.002343 -0.015730
# 2 0.002337 0.013709 -0.009338 0.002541 -0.007734 -0.003568
# 3 -0.004851 -0.009338 0.027924 -0.027691 0.034130 -0.010484
# 4 -0.004015 0.002541 -0.027691 0.073253 -0.049439 0.034037
# 5 0.002343 -0.007734 0.034130 -0.049439 0.087842 -0.030338
# 6 -0.015730 -0.003568 -0.010484 0.034037 -0.030338 0.063892
#
#
# Mechanical properties :
#
#
# Convention : Reuss Voigt Hill
#
# Bulk Modulus (GPa) = 25.16256 54.83617 39.99936
# Shear Modulus (GPa) = 15.36654 29.65030 22.50842
#
# Velocity S-wave (km/s) = 2.62967 3.65282 3.18263
# Velocity P-wave (km/s) = 4.53253 6.51674 5.61301
#
# Compressibility (1/GPa) = 0.03974158
#
# Stress axis : x y z
#
# Youngs Moduli (GPa) = 45.84619 72.94473 35.81188
#
# Poissons Ratio (x) = -0.17051 0.17372
# Poissons Ratio (y) = -0.10716 0.33442
# Poissons Ratio (z) = 0.22240 0.68117
#
# Static dielectric constant tensor:
#      x y z
#    x 3.830070 0.158670 -0.118900 
#    y 0.158670 4.197370 0.454450 
#    z -0.118900 0.454450 4.082450 
# 
# 
# High freq. dielectric constant tensor:
#      x y z
#    x 1.856550 0.019000 -0.021210 
#    y 0.019000 1.874390 0.027710 
#    z -0.021210 0.027710 1.880570 
# 
# From -- ./inp_files/434325.got.cif
#   From: 2010.06.25/outbox.cif.g09.slc.cpg/sg2_218_cif.got.tgz:434325.got - 2010.06.27 13:26:56.
