data_PCOD8002017
_publ_section_title
;
Structure prediction by ZEFSAII (Michael W. Deem and Ramdas Pophale) SiO2 
 PCOD8002017
Probable space group: P -1
;
_chemical_formula_sum "Si O2"
_cell_formula_units_Z 14
_cell_length_a 13.550046
_cell_length_b 7.528811
_cell_length_c 11.290997
_cell_angle_alpha 98.031092
_cell_angle_beta 107.009473
_cell_angle_gamma 29.094923
_cell_volume 518.693460
_symmetry_space_group_name_H-M "P -1"
_symmetry_group_IT_number 2
_symmetry_cell_setting 'triclinic'
loop_
_space_group_symop_operation_xyz
x,y,z
-x,-y,-z
loop_
_atom_site_type_symbol
_atom_site_label
_atom_site_fract_x
_atom_site_fract_y
_atom_site_fract_z
Si Si1 0.546383 0.786977 0.840868
Si Si2 0.053085 0.623220 0.168417
Si Si3 0.728502 0.078865 0.892425
Si Si4 0.654967 0.525209 0.103651
Si Si5 0.888814 0.042857 0.729726
Si Si6 0.856154 0.346639 0.563098
Si Si7 0.832561 0.635832 0.386451
O O1 0.769752 0.501283 0.828626
O O2 0.418266 0.158978 0.872370
O O3 0.373640 0.952395 0.707992
O O4 0.596644 0.576392 0.949378
O O5 0.130790 0.302578 0.141420
O O6 0.025904 0.690659 0.308184
O O7 0.827215 0.991752 0.047039
O O8 0.742839 0.212612 0.807944
O O9 0.479618 0.400870 0.851283
O O10 0.913936 0.115954 0.182736
O O11 0.012749 0.685004 0.688754
O O12 0.737946 0.379352 0.610521
O O13 0.723654 0.662705 0.447844
O O14 0.000000 0.000000 0.500000
O O15 0.000000 0.500000 0.500000
#
# Coordination Sequence:
#
# PCOD8002017 Si02
#       7
#     2   2   2   2   2   2   2
#     4   9  18  34  59  89 123 147 195 263 301 342
#     4  10  20  36  62  92 120 150 206 252 298 354
#     4  10  20  34  65  99 116 147 199 260 308 350
#     4   9  18  34  59  94 123 148 189 252 317 353
#     4  10  20  40  60  85 129 159 192 244 309 366
#     4  10  23  40  57  82 124 174 198 231 300 368
#     4  10  21  36  62  87 114 164 210 247 288 347
#
# _framework density 26.990893
#
# number of rings (size 3 to 8) (size 9 to 14) (size 15 to 20)
#    0.000    2.286    1.429    0.857    8.000    1.143 
#    0.000    5.000    0.000   16.286    0.000    0.000 
#    0.000    0.000    0.000    0.000    0.000    0.000 
#
# Total GULP energy -173450.599908 kJ/mol
# GULP energy per Si atom -12389.328565 kJ/mol
# Density = 2.692946 g / cm^3
# Si number density = 26.990893 Si / 1000 Ang^3
#
#
#
# Elastic Constant Matrix: (Units=GPa)
#
#
# Indices 1 2 3 4 5 6 
#
# 1 123.5109 20.4163 42.0804 -1.3772 -10.2531 -21.5558
# 2 20.4163 100.3935 56.4230 0.8866 -3.6951 -13.0108
# 3 42.0804 56.4230 158.0858 12.5717 -3.4680 -9.8552
# 4 -1.3772 0.8866 12.5717 56.8381 5.6827 5.7375
# 5 -10.2531 -3.6951 -3.4680 5.6827 62.7225 5.7233
# 6 -21.5558 -13.0108 -9.8552 5.7375 5.7233 37.1665
#
#
#
# Elastic Compliance Matrix: (Units=1/GPa)
#
#
# Indices 1 2 3 4 5 6 
#
# 1 0.009822 -0.000044 -0.002283 0.000148 0.001017 0.004897
# 2 -0.000044 0.012868 -0.004411 0.000432 0.000174 0.003216
# 3 -0.002283 -0.004411 0.008639 -0.001872 0.000041 -0.000295
# 4 0.000148 0.000432 -0.001872 0.018442 -0.001462 -0.002881
# 5 0.001017 0.000174 0.000041 -0.001462 0.016404 -0.001639
# 6 0.004897 0.003216 -0.000295 -0.002881 -0.001639 0.031491
#
#
# Mechanical properties :
#
#
# Convention : Reuss Voigt Hill
#
# Bulk Modulus (GPa) = 56.01097 68.86996 62.44047
# Shear Modulus (GPa) = 42.70097 48.88345 45.79221
#
# Velocity S-wave (km/s) = 3.98182 4.26033 4.12342
# Velocity P-wave (km/s) = 6.47585 7.05492 6.77158
#
# Compressibility (1/GPa) = 0.01785364
#
# Stress axis : x y z
#
# Youngs Moduli (GPa) = 101.81062 77.71026 115.75105
#
# Poissons Ratio (x) = 0.00339 0.26428
# Poissons Ratio (y) = 0.00444 0.51061
# Poissons Ratio (z) = 0.23245 0.34280
#
# Static dielectric constant tensor:
#      x y z
#    x 5.210730 0.577180 -0.248590 
#    y 0.577180 5.247320 0.226830 
#    z -0.248590 0.226830 6.171340 
# 
# 
# High freq. dielectric constant tensor:
#      x y z
#    x 2.090510 0.050200 -0.008930 
#    y 0.050200 2.121860 0.032020 
#    z -0.008930 0.032020 2.100810 
# 
# From -- ./inp_files/447515.got.cif
#   From: 2010.06.25/outbox.cif.g09.slc.cpg/sg2_224_cif.got.tgz:447515.got - 2010.06.27 13:26:56.
