data_PCOD8002343
_publ_section_title
;
Structure prediction by ZEFSAII (Michael W. Deem and Ramdas Pophale) SiO2 
 PCOD8002343
Probable space group: P -1
;
_chemical_formula_sum "Si O2"
_cell_formula_units_Z 16
_cell_length_a 9.662597
_cell_length_b 10.708838
_cell_length_c 10.682925
_cell_angle_alpha 126.079796
_cell_angle_beta 55.574779
_cell_angle_gamma 109.615887
_cell_volume 736.924334
_symmetry_space_group_name_H-M "P -1"
_symmetry_group_IT_number 2
_symmetry_cell_setting 'triclinic'
loop_
_space_group_symop_operation_xyz
x,y,z
-x,-y,-z
loop_
_atom_site_type_symbol
_atom_site_label
_atom_site_fract_x
_atom_site_fract_y
_atom_site_fract_z
Si Si1 0.588402 0.534223 0.130984
Si Si2 0.770804 0.766072 0.002394
Si Si3 0.527359 0.195114 0.998482
Si Si4 0.662239 0.576624 0.398217
Si Si5 0.455486 0.129173 0.276685
Si Si6 0.655124 0.055463 0.368931
Si Si7 0.050871 0.547022 0.680313
Si Si8 0.222431 0.641467 0.405446
O O1 0.697328 0.615054 0.018013
O O2 0.621695 0.350156 0.998976
O O3 0.636923 0.600441 0.279244
O O4 0.395730 0.574017 0.224539
O O5 0.770623 0.910549 0.183558
O O6 0.665174 0.804631 0.953616
O O7 0.958392 0.714100 0.837515
O O8 0.539614 0.179852 0.132444
O O9 0.616793 0.045897 0.801049
O O10 0.500000 0.500000 0.500000
O O11 0.689130 0.748079 0.544918
O O12 0.832451 0.480715 0.275002
O O13 0.592210 0.140631 0.325267
O O14 0.764954 0.174871 0.465839
O O15 0.500000 0.000000 0.500000
O O16 0.177635 0.548911 0.499975
O O17 0.921906 0.402436 0.646487
#
# Coordination Sequence:
#
# PCOD8002343 Si02
#       8
#     2   2   2   2   2   2   2   2
#     4  12  21  40  69  93 124 176 222 258 323 393
#     4  11  24  39  65 100 131 164 221 270 326 376
#     4  10  21  35  59  94 130 160 213 269 313 382
#     4  12  21  40  65  88 127 175 219 259 319 398
#     4  10  20  35  59  95 122 165 216 258 316 378
#     4  11  21  41  69  98 129 172 219 268 317 397
#     4  11  25  39  62 100 135 167 216 272 326 382
#     4  11  22  40  64  97 128 172 217 258 326 390
#
# _framework density 21.711863000000001
#
# number of rings (size 3 to 8) (size 9 to 14) (size 15 to 20)
#    0.000    1.000    6.250    0.375    1.750    1.000 
#    0.000    1.250    0.000    3.750    0.000    0.000 
#    0.000    0.000    0.000    0.000    0.000    0.000 
#
# Total GULP energy -198347.024649 kJ/mol
# GULP energy per Si atom -12396.689041 kJ/mol
# Density = 2.166245 g / cm^3
# Si number density = 21.711863 Si / 1000 Ang^3
#
#
#
# Elastic Constant Matrix: (Units=GPa)
#
#
# Indices 1 2 3 4 5 6 
#
# 1 92.4055 20.8668 14.8657 2.1775 5.0956 -9.1163
# 2 20.8668 85.0546 15.7445 26.0925 4.2990 -2.1988
# 3 14.8657 15.7445 66.8238 38.5808 5.7985 -3.6897
# 4 2.1775 26.0925 38.5808 48.6493 -1.9849 8.0804
# 5 5.0956 4.2990 5.7985 -1.9849 32.0203 2.4403
# 6 -9.1163 -2.1988 -3.6897 8.0804 2.4403 31.3824
#
#
#
# Elastic Compliance Matrix: (Units=1/GPa)
#
#
# Indices 1 2 3 4 5 6 
#
# 1 0.012425 -0.003551 -0.004399 0.004528 -0.000554 0.001721
# 2 -0.003551 0.016156 0.005557 -0.013836 -0.003820 0.004613
# 3 -0.004399 0.005557 0.035397 -0.033334 -0.009482 0.012594
# 4 0.004528 -0.013836 -0.033334 0.057937 0.012247 -0.019443
# 5 -0.000554 -0.003820 -0.009482 0.012247 0.034872 -0.007409
# 6 0.001721 0.004613 0.012594 -0.019443 -0.007409 0.039751
#
#
# Mechanical properties :
#
#
# Convention : Reuss Voigt Hill
#
# Bulk Modulus (GPa) = 16.89333 38.58200 27.73766
# Shear Modulus (GPa) = 22.61888 35.26421 28.94154
#
# Velocity S-wave (km/s) = 3.23116 4.03450 3.65496
# Velocity P-wave (km/s) = 4.66027 6.28582 5.53306
#
# Compressibility (1/GPa) = 0.05919496
#
# Stress axis : x y z
#
# Youngs Moduli (GPa) = 80.48353 61.89563 28.25067
#
# Poissons Ratio (x) = 0.21977 0.12427
# Poissons Ratio (y) = 0.28577 -0.15700
# Poissons Ratio (z) = 0.35402 -0.34398
#
# Static dielectric constant tensor:
#      x y z
#    x 3.842320 -0.097070 0.223430 
#    y -0.097070 4.007410 0.346140 
#    z 0.223430 0.346140 4.271650 
# 
# 
# High freq. dielectric constant tensor:
#      x y z
#    x 1.827460 -0.015130 0.025350 
#    y -0.015130 1.845340 0.020350 
#    z 0.025350 0.020350 1.866710 
# 
# From -- ./inp_files/393010.got.cif
#   From: 2010.06.25/outbox.cif.g09.slc.cpg/sg2_197_cif.got.tgz:393010.got - 2010.06.27 13:26:56.
