data_PCOD8002020
_publ_section_title
;
Structure prediction by ZEFSAII (Michael W. Deem and Ramdas Pophale) SiO2 
 PCOD8002020
Probable space group: P -1
;
_chemical_formula_sum "Si O2"
_cell_formula_units_Z 16
_cell_length_a 14.645871
_cell_length_b 15.028020
_cell_length_c 16.976273
_cell_angle_alpha 116.381859
_cell_angle_beta 53.712808
_cell_angle_gamma 160.146762
_cell_volume 932.805702
_symmetry_space_group_name_H-M "P -1"
_symmetry_group_IT_number 2
_symmetry_cell_setting 'triclinic'
loop_
_space_group_symop_operation_xyz
x,y,z
-x,-y,-z
loop_
_atom_site_type_symbol
_atom_site_label
_atom_site_fract_x
_atom_site_fract_y
_atom_site_fract_z
Si Si1 0.596726 0.993325 0.171139
Si Si2 0.383088 0.744737 0.469247
Si Si3 0.175027 0.996425 0.764226
Si Si4 0.773892 0.861488 0.912314
Si Si5 0.231485 0.783734 0.985305
Si Si6 0.347559 0.880920 0.407479
Si Si7 0.853604 0.640225 0.055276
Si Si8 0.622457 0.394039 0.842772
O O1 0.560755 0.038199 0.132472
O O2 0.566414 0.032786 0.280332
O O3 0.335020 0.686134 0.181656
O O4 0.954864 0.233575 0.074398
O O5 0.366680 0.808754 0.431597
O O6 0.027302 0.409585 0.540575
O O7 0.618092 0.849316 0.361038
O O8 0.520533 0.907730 0.542033
O O9 0.915661 0.869317 0.830593
O O10 0.981069 0.734625 0.779048
O O11 0.421272 0.227687 0.798752
O O12 0.531551 0.686658 0.893968
O O13 0.573762 0.699242 0.032103
O O14 0.066449 0.181629 0.890425
O O15 0.000000 0.500000 0.000000
O O16 0.985185 0.676485 0.072452
O O17 0.500000 0.000000 0.000000
#
# Coordination Sequence:
#
# PCOD8002020 Si02
#       8
#     2   2   2   2   2   2   2   2
#     4   9  21  34  56  72 107 136 169 206 261 308
#     4  10  22  32  47  71  97 139 185 219 231 285
#     4  12  22  33  48  71 106 140 190 213 240 273
#     4  11  20  34  48  73 102 142 177 209 242 299
#     4  10  21  36  56  79 106 128 160 211 265 325
#     4  10  20  35  49  67 100 138 179 209 260 279
#     4   9  21  34  53  76 103 134 165 199 264 313
#     4  11  21  32  49  72 102 145 175 210 240 306
#
# _framework density 17.152553999999999
#
# number of rings (size 3 to 8) (size 9 to 14) (size 15 to 20)
#    0.750    1.000    1.250    4.500    3.500    2.000 
#    0.000    0.000    0.000    0.000    0.000    0.000 
#    0.000   20.000    0.000    0.000    0.000    0.000 
#
# Total GULP energy -198317.848481 kJ/mol
# GULP energy per Si atom -12394.865530 kJ/mol
# Density = 1.711351 g / cm^3
# Si number density = 17.152554 Si / 1000 Ang^3
#
#
#
# Elastic Constant Matrix: (Units=GPa)
#
#
# Indices 1 2 3 4 5 6 
#
# 1 67.7219 36.9170 37.4333 4.6168 1.8680 -2.4403
# 2 36.9170 112.2634 40.9983 6.2846 -4.2096 9.0953
# 3 37.4333 40.9983 84.9659 12.8956 -12.6576 2.0858
# 4 4.6168 6.2846 12.8956 18.8974 1.0883 1.2326
# 5 1.8680 -4.2096 -12.6576 1.0883 15.6704 -0.1446
# 6 -2.4403 9.0953 2.0858 1.2326 -0.1446 24.0004
#
#
#
# Elastic Compliance Matrix: (Units=1/GPa)
#
#
# Indices 1 2 3 4 5 6 
#
# 1 0.023629 -0.004988 -0.010583 0.003528 -0.012904 0.004954
# 2 -0.004988 0.012229 -0.003371 -0.000299 0.001133 -0.004826
# 3 -0.010583 -0.003371 0.023027 -0.013085 0.019855 -0.001008
# 4 0.003528 -0.000299 -0.013085 0.062080 -0.015396 -0.001672
# 5 -0.012904 0.001133 0.019855 -0.015396 0.082744 -0.002178
# 6 0.004954 -0.004826 -0.001008 -0.001672 -0.002178 0.044159
#
#
# Mechanical properties :
#
#
# Convention : Reuss Voigt Hill
#
# Bulk Modulus (GPa) = 47.61438 55.07207 51.34323
# Shear Modulus (GPa) = 17.07936 21.68714 19.38325
#
# Velocity S-wave (km/s) = 3.15895 3.55965 3.36527
# Velocity P-wave (km/s) = 6.41287 7.00512 6.71553
#
# Compressibility (1/GPa) = 0.02100206
#
# Stress axis : x y z
#
# Youngs Moduli (GPa) = 42.32091 81.77202 43.42781
#
# Poissons Ratio (x) = 0.40789 0.45958
# Poissons Ratio (y) = 0.21110 0.14638
# Poissons Ratio (z) = 0.44787 0.27562
#
# Static dielectric constant tensor:
#      x y z
#    x 2.949390 0.003980 -0.090770 
#    y 0.003980 3.305570 0.024050 
#    z -0.090770 0.024050 3.115440 
# 
# 
# High freq. dielectric constant tensor:
#      x y z
#    x 1.620180 0.009070 -0.014730 
#    y 0.009070 1.682510 0.004790 
#    z -0.014730 0.004790 1.638770 
# 
# From -- ./inp_files/573969.got.cif
#   From: 2010.06.25/outbox.cif.g09.slc.cpg/sg2_287_cif.got.tgz:573969.got - 2010.06.27 13:26:56.
