data_PCOD8002093
_publ_section_title
;
Structure prediction by ZEFSAII (Michael W. Deem and Ramdas Pophale) SiO2 
 PCOD8002093
Probable space group: P -1
;
_chemical_formula_sum "Si O2"
_cell_formula_units_Z 16
_cell_length_a 8.796847
_cell_length_b 13.957091
_cell_length_c 14.473520
_cell_angle_alpha 114.784785
_cell_angle_beta 79.050622
_cell_angle_gamma 149.054640
_cell_volume 772.939072
_symmetry_space_group_name_H-M "P -1"
_symmetry_group_IT_number 2
_symmetry_cell_setting 'triclinic'
loop_
_space_group_symop_operation_xyz
x,y,z
-x,-y,-z
loop_
_atom_site_type_symbol
_atom_site_label
_atom_site_fract_x
_atom_site_fract_y
_atom_site_fract_z
Si Si1 0.301275 0.330660 0.037131
Si Si2 0.957745 0.661613 0.127012
Si Si3 0.383237 0.331039 0.543387
Si Si4 0.371993 0.561441 0.632341
Si Si5 0.103624 0.609998 0.259061
Si Si6 0.286715 0.130693 0.642121
Si Si7 0.954420 0.050145 0.804014
Si Si8 0.136444 0.745215 0.937200
O O1 0.578233 0.440897 0.110826
O O2 0.085030 0.292166 0.095259
O O3 0.500000 0.500000 0.000000
O O4 0.070441 0.110531 0.922115
O O5 0.127061 0.693899 0.198169
O O6 0.115908 0.871663 0.187899
O O7 0.017761 0.643948 0.013021
O O8 0.441760 0.485430 0.631012
O O9 0.632019 0.443190 0.480901
O O10 0.438403 0.289426 0.606940
O O11 0.028711 0.114650 0.455435
O O12 0.045333 0.412095 0.648830
O O13 0.640393 0.796467 0.735256
O O14 0.462517 0.806339 0.329023
O O15 0.910155 0.386054 0.173540
O O16 0.222795 0.167088 0.751535
O O17 0.500000 0.000000 0.000000
#
# Coordination Sequence:
#
# PCOD8002093 Si02
#       8
#     2   2   2   2   2   2   2   2
#     4   8  16  33  55  75 109 151 181 208 254 315
#     4  10  20  35  55  80 117 151 182 214 260 323
#     4   9  21  42  58  77 104 143 178 230 285 329
#     4  10  21  37  58  81 110 134 179 232 281 329
#     4  12  22  34  56  86 109 143 186 225 265 323
#     4  10  20  37  62  79 105 141 186 225 272 330
#     4   9  17  36  58  80 106 149 184 214 261 328
#     4  10  20  36  54  81 118 146 179 228 270 302
#
# _framework density 20.700208
#
# number of rings (size 3 to 8) (size 9 to 14) (size 15 to 20)
#    0.000    2.500    0.000    4.875    0.000    1.000 
#    0.000   13.750    0.000    0.000    0.000    0.000 
#    0.000    0.000    0.000    0.000    0.000    0.000 
#
# Total GULP energy -198323.955505 kJ/mol
# GULP energy per Si atom -12395.247219 kJ/mol
# Density = 2.065309 g / cm^3
# Si number density = 20.700208 Si / 1000 Ang^3
#
#
#
# Elastic Constant Matrix: (Units=GPa)
#
#
# Indices 1 2 3 4 5 6 
#
# 1 103.5547 27.3939 46.8137 -4.6354 15.3285 6.4593
# 2 27.3939 47.8821 14.5011 -8.3693 1.5847 3.4954
# 3 46.8137 14.5011 74.1160 -2.4473 -12.5500 -2.8864
# 4 -4.6354 -8.3693 -2.4473 37.1984 1.1170 -9.4836
# 5 15.3285 1.5847 -12.5500 1.1170 39.3487 0.6232
# 6 6.4593 3.4954 -2.8864 -9.4836 0.6232 29.6991
#
#
#
# Elastic Compliance Matrix: (Units=1/GPa)
#
#
# Indices 1 2 3 4 5 6 
#
# 1 0.019121 -0.006449 -0.012921 -0.000771 -0.011214 -0.004666
# 2 -0.006449 0.025567 -0.000578 0.004840 0.001163 -0.000142
# 3 -0.012921 -0.000578 0.024138 0.000797 0.012650 0.005213
# 4 -0.000771 0.004840 0.000797 0.030338 -0.000650 0.009377
# 5 -0.011214 0.001163 0.012650 -0.000650 0.033747 0.002616
# 6 -0.004666 -0.000142 0.005213 0.009377 0.002616 0.038149
#
#
# Mechanical properties :
#
#
# Convention : Reuss Voigt Hill
#
# Bulk Modulus (GPa) = 34.56654 44.77448 39.67051
# Shear Modulus (GPa) = 22.66557 30.37218 26.51888
#
# Velocity S-wave (km/s) = 3.31258 3.83461 3.58312
# Velocity P-wave (km/s) = 5.60052 6.42515 6.02696
#
# Compressibility (1/GPa) = 0.02892971
#
# Stress axis : x y z
#
# Youngs Moduli (GPa) = 52.29988 39.11320 41.42789
#
# Poissons Ratio (x) = 0.25223 0.53530
# Poissons Ratio (y) = 0.33727 0.02394
# Poissons Ratio (z) = 0.67579 0.02260
#
# Static dielectric constant tensor:
#      x y z
#    x 3.929860 0.306610 0.066950 
#    y 0.306610 3.768590 0.129000 
#    z 0.066950 0.129000 4.167150 
# 
# 
# High freq. dielectric constant tensor:
#      x y z
#    x 1.798180 0.007380 -0.017210 
#    y 0.007380 1.803450 0.001410 
#    z -0.017210 0.001410 1.811130 
# 
# From -- ./inp_files/504186.got.cif
#   From: 2010.06.25/outbox.cif.g09.slc.cpg/sg2_253_cif.got.tgz:504186.got - 2010.06.27 13:26:56.
