data_PCOD8002554
_publ_section_title
;
Structure prediction by ZEFSAII (Michael W. Deem and Ramdas Pophale) SiO2 
 PCOD8002554
Probable space group: P -1
;
_chemical_formula_sum "Si O2"
_cell_formula_units_Z 16
_cell_length_a 12.148124
_cell_length_b 13.956531
_cell_length_c 14.056081
_cell_angle_alpha 29.957823
_cell_angle_beta 111.641674
_cell_angle_gamma 92.494354
_cell_volume 889.354501
_symmetry_space_group_name_H-M "P -1"
_symmetry_group_IT_number 2
_symmetry_cell_setting 'triclinic'
loop_
_space_group_symop_operation_xyz
x,y,z
-x,-y,-z
loop_
_atom_site_type_symbol
_atom_site_label
_atom_site_fract_x
_atom_site_fract_y
_atom_site_fract_z
Si Si1 0.693283 0.328998 0.789178
Si Si2 0.367972 0.112542 0.161571
Si Si3 0.296857 0.164740 0.455688
Si Si4 0.763148 0.977880 0.633648
Si Si5 0.711484 0.144874 0.142483
Si Si6 0.108813 0.692823 0.983967
Si Si7 0.385870 0.522663 0.751436
Si Si8 0.369411 0.745766 0.362659
O O1 0.538705 0.590806 0.515931
O O2 0.730880 0.217465 0.791511
O O3 0.684102 0.157887 0.008004
O O4 0.819843 0.352870 0.847631
O O5 0.275844 0.153236 0.191828
O O6 0.538986 0.912635 0.413331
O O7 0.323510 0.002947 0.160134
O O8 0.330133 0.362532 0.898101
O O9 0.291804 0.029109 0.481244
O O10 0.246889 0.099626 0.590859
O O11 0.178511 0.445812 0.163633
O O12 0.936381 0.842447 0.807748
O O13 0.684847 0.254898 0.391920
O O14 0.843916 0.167941 0.184307
O O15 0.561783 0.364581 0.956076
O O16 0.340369 0.619182 0.545860
#
# Coordination Sequence:
#
# PCOD8002554 Si02
#       8
#     2   2   2   2   2   2   2   2
#     4   8  16  34  55  79 106 132 165 222 264 300
#     4  10  20  36  54  79 108 132 182 218 244 314
#     4  11  20  36  55  77 103 142 178 216 253 301
#     4  11  23  33  54  76 109 145 170 208 267 309
#     4   8  19  35  54  76 106 130 177 221 247 307
#     4  10  20  37  51  78 111 134 171 219 258 312
#     4   9  19  36  52  79 104 138 175 217 251 307
#     4   9  15  34  58  79 102 132 175 213 264 304
#
# _framework density 17.990576000000001
#
# number of rings (size 3 to 8) (size 9 to 14) (size 15 to 20)
#    0.750    1.750    1.250    1.500    0.000    4.500 
#    2.250    5.000    0.000    1.500    0.000    0.000 
#    0.000    0.000    0.000    0.000    0.000    0.000 
#
# Total GULP energy -198289.328037 kJ/mol
# GULP energy per Si atom -12393.083002 kJ/mol
# Density = 1.794963 g / cm^3
# Si number density = 17.990576 Si / 1000 Ang^3
#
#
#
# Elastic Constant Matrix: (Units=GPa)
#
#
# Indices 1 2 3 4 5 6 
#
# 1 120.4937 4.1497 41.7581 13.3827 -2.9413 9.6961
# 2 4.1497 100.0415 10.1620 -3.5146 -9.4089 -4.5396
# 3 41.7581 10.1620 39.6490 6.9080 0.5406 11.3509
# 4 13.3827 -3.5146 6.9080 39.7935 9.4862 9.6663
# 5 -2.9413 -9.4089 0.5406 9.4862 33.7339 3.8072
# 6 9.6961 -4.5396 11.3509 9.6663 3.8072 25.5172
#
#
#
# Elastic Compliance Matrix: (Units=1/GPa)
#
#
# Indices 1 2 3 4 5 6 
#
# 1 0.013591 0.001163 -0.014811 -0.003044 0.002328 0.002437
# 2 0.001163 0.010871 -0.004987 -0.000048 0.002854 0.003303
# 3 -0.014811 -0.004987 0.046566 0.000781 -0.001843 -0.015995
# 4 -0.003044 -0.000048 0.000781 0.030150 -0.007701 -0.009472
# 5 0.002328 0.002854 -0.001843 -0.007701 0.033015 -0.001566
# 6 0.002437 0.003303 -0.015995 -0.009472 -0.001566 0.049788
#
#
# Mechanical properties :
#
#
# Convention : Reuss Voigt Hill
#
# Bulk Modulus (GPa) = 29.62282 41.36933 35.49607
# Shear Modulus (GPa) = 21.50514 33.41655 27.46085
#
# Velocity S-wave (km/s) = 3.46114 4.31449 3.91116
# Velocity P-wave (km/s) = 5.69861 6.91843 6.33793
#
# Compressibility (1/GPa) = 0.03375776
#
# Stress axis : x y z
#
# Youngs Moduli (GPa) = 73.57960 91.98937 21.47477
#
# Poissons Ratio (x) = -0.10701 0.31806
# Poissons Ratio (y) = -0.08559 0.10710
# Poissons Ratio (z) = 1.08978 0.45879
#
# Static dielectric constant tensor:
#      x y z
#    x 3.286070 -0.046560 -0.134670 
#    y -0.046560 3.369030 0.048470 
#    z -0.134670 0.048470 3.120530 
# 
# 
# High freq. dielectric constant tensor:
#      x y z
#    x 1.689870 -0.001840 -0.009520 
#    y -0.001840 1.690840 -0.000790 
#    z -0.009520 -0.000790 1.677730 
# 
# From -- ./inp_files/469663.got.cif
#   From: 2010.06.25/outbox.cif.g09.slc.cpg/sg2_235_cif.got.tgz:469663.got - 2010.06.27 13:26:56.
