data_PCOD8002030
_publ_section_title
;
Structure prediction by ZEFSAII (Michael W. Deem and Ramdas Pophale) SiO2 
 PCOD8002030
Probable space group: P -1
;
_chemical_formula_sum "Si O2"
_cell_formula_units_Z 16
_cell_length_a 9.179326
_cell_length_b 21.990555
_cell_length_c 27.680792
_cell_angle_alpha 161.176906
_cell_angle_beta 28.615925
_cell_angle_gamma 151.170456
_cell_volume 825.748681
_symmetry_space_group_name_H-M "P -1"
_symmetry_group_IT_number 2
_symmetry_cell_setting 'triclinic'
loop_
_space_group_symop_operation_xyz
x,y,z
-x,-y,-z
loop_
_atom_site_type_symbol
_atom_site_label
_atom_site_fract_x
_atom_site_fract_y
_atom_site_fract_z
Si Si1 0.199659 0.776560 0.674852
Si Si2 0.090614 0.206249 0.499889
Si Si3 0.740416 0.416915 0.691619
Si Si4 0.389284 0.229549 0.966073
Si Si5 0.913861 0.764456 0.203570
Si Si6 0.760499 0.410117 0.572515
Si Si7 0.038410 0.214695 0.629898
Si Si8 0.634660 0.447893 0.970720
O O1 0.528691 0.733452 0.560710
O O2 0.122838 0.726599 0.602801
O O3 0.922756 0.639524 0.685274
O O4 0.204400 0.000190 0.851105
O O5 0.925044 0.196325 0.593248
O O6 0.986447 0.365283 0.618037
O O7 0.968846 0.994683 0.350240
O O8 0.373992 0.303245 0.725250
O O9 0.839550 0.363830 0.569546
O O10 0.769726 0.651233 0.860719
O O11 0.355360 0.322377 0.993113
O O12 0.769113 0.274250 0.896430
O O13 0.833261 0.650227 0.090593
O O14 0.386415 0.365468 0.643571
O O15 0.839699 0.303884 0.790801
O O16 0.000000 0.000000 0.500000
O O17 0.500000 0.500000 0.000000
#
# Coordination Sequence:
#
# PCOD8002030 Si02
#       8
#     2   2   2   2   2   2   2   2
#     4   9  21  39  55  73 102 144 183 216 259 314
#     4  10  21  35  53  78 110 139 174 221 266 315
#     4  11  20  32  54  81 106 134 173 225 270 306
#     4  10  20  36  54  75 108 143 175 214 262 319
#     4  10  20  35  52  77 110 142 172 209 265 323
#     4  10  20  35  58  78 101 138 184 220 254 315
#     4  11  20  35  58  82 105 140 180 213 259 319
#     4  11  21  33  53  82 113 137 168 219 272 314
#
# _framework density 19.376356000000001
#
# number of rings (size 3 to 8) (size 9 to 14) (size 15 to 20)
#    0.000    1.750    0.000    7.875    0.000    3.000 
#    0.000    0.000    0.000   13.500    0.000    0.000 
#    0.000    0.000    0.000    0.000    0.000    0.000 
#
# Total GULP energy -198359.881147 kJ/mol
# GULP energy per Si atom -12397.492572 kJ/mol
# Density = 1.933225 g / cm^3
# Si number density = 19.376356 Si / 1000 Ang^3
#
#
#
# Elastic Constant Matrix: (Units=GPa)
#
#
# Indices 1 2 3 4 5 6 
#
# 1 124.5703 41.4781 46.4990 9.8545 10.5947 -18.7870
# 2 41.4781 93.4932 44.9976 20.4784 6.9978 1.0419
# 3 46.4990 44.9976 108.8644 14.8276 9.5742 2.2714
# 4 9.8545 20.4784 14.8276 27.7507 -0.8730 9.2958
# 5 10.5947 6.9978 9.5742 -0.8730 29.0697 0.8020
# 6 -18.7870 1.0419 2.2714 9.2958 0.8020 20.0105
#
#
#
# Elastic Compliance Matrix: (Units=1/GPa)
#
#
# Indices 1 2 3 4 5 6 
#
# 1 0.013709 -0.002703 -0.003874 -0.006485 -0.003723 0.016613
# 2 -0.002703 0.015993 -0.004070 -0.009208 -0.001841 0.001443
# 3 -0.003874 -0.004070 0.012925 -0.001147 -0.001781 -0.004288
# 4 -0.006485 -0.009208 -0.001147 0.056751 0.007549 -0.032145
# 5 -0.003723 -0.001841 -0.001781 0.007549 0.037240 -0.008197
# 6 0.016613 0.001443 -0.004288 -0.032145 -0.008197 0.081245
#
#
# Mechanical properties :
#
#
# Convention : Reuss Voigt Hill
#
# Bulk Modulus (GPa) = 46.87697 65.87527 56.37612
# Shear Modulus (GPa) = 20.30317 28.29640 24.29979
#
# Velocity S-wave (km/s) = 3.24054 3.82561 3.54516
# Velocity P-wave (km/s) = 6.18440 7.32020 6.77614
#
# Compressibility (1/GPa) = 0.02133244
#
# Stress axis : x y z
#
# Youngs Moduli (GPa) = 72.94473 62.52860 77.37008
#
# Poissons Ratio (x) = 0.16904 0.29973
# Poissons Ratio (y) = 0.19720 0.31487
# Poissons Ratio (z) = 0.28259 0.25447
#
# Static dielectric constant tensor:
#      x y z
#    x 3.613390 -0.107440 0.398980 
#    y -0.107440 3.687220 -0.505610 
#    z 0.398980 -0.505610 4.803110 
# 
# 
# High freq. dielectric constant tensor:
#      x y z
#    x 1.753480 -0.006580 0.017970 
#    y -0.006580 1.735390 0.009380 
#    z 0.017970 0.009380 1.760460 
# 
# From -- ./inp_files/200956.got.cif
#   From: 2010.06.25/outbox.cif.g09.slc.cpg/sg2_101_cif.got.tgz:200956.got - 2010.06.27 13:26:56.
