data_PCOD8002455
_publ_section_title
;
Structure prediction by ZEFSAII (Michael W. Deem and Ramdas Pophale) SiO2 
 PCOD8002455
Probable space group: P -1
;
_chemical_formula_sum "Si O2"
_cell_formula_units_Z 16
_cell_length_a 9.986798
_cell_length_b 10.132964
_cell_length_c 15.469116
_cell_angle_alpha 143.526509
_cell_angle_beta 113.968484
_cell_angle_gamma 60.381607
_cell_volume 808.851528
_symmetry_space_group_name_H-M "P -1"
_symmetry_group_IT_number 2
_symmetry_cell_setting 'triclinic'
loop_
_space_group_symop_operation_xyz
x,y,z
-x,-y,-z
loop_
_atom_site_type_symbol
_atom_site_label
_atom_site_fract_x
_atom_site_fract_y
_atom_site_fract_z
Si Si1 0.205856 0.264833 0.858581
Si Si2 0.832498 0.493682 0.428197
Si Si3 0.658222 0.706838 0.829110
Si Si4 0.700217 0.097675 0.158507
Si Si5 0.612150 0.649780 0.598315
Si Si6 0.697092 0.994086 0.579176
Si Si7 0.418859 0.071879 0.659729
Si Si8 0.853837 0.348382 0.813877
O O1 0.302761 0.261101 0.792995
O O2 0.029311 0.300896 0.807677
O O3 0.274265 0.025646 0.805266
O O4 0.206073 0.487948 0.032502
O O5 0.814051 0.256106 0.254382
O O6 0.753197 0.494116 0.498928
O O7 0.000000 0.500000 0.500000
O O8 0.745275 0.718345 0.466465
O O9 0.476976 0.748710 0.818590
O O10 0.688183 0.705189 0.734667
O O11 0.747186 0.457742 0.761961
O O12 0.731207 0.897067 0.988429
O O13 0.500000 0.500000 0.500000
O O14 0.522965 0.885615 0.652970
O O15 0.541112 0.147278 0.669953
O O16 0.831499 0.099131 0.698348
O O17 0.678038 0.025267 0.486485
#
# Coordination Sequence:
#
# PCOD8002455 Si02
#       8
#     2   2   2   2   2   2   2   2
#     4  10  20  39  59  84 112 148 190 236 283 332
#     4  11  23  38  58  83 118 155 185 233 291 341
#     4  10  20  35  62  90 108 145 194 245 277 324
#     4  10  20  37  61  86 114 146 194 236 283 333
#     4  11  19  35  59  86 110 147 198 236 274 338
#     4  10  23  37  53  83 117 151 185 228 284 343
#     4  10  21  36  54  80 114 150 188 227 281 340
#     4  10  22  36  59  86 116 145 185 238 288 334
#
# _framework density 19.781134999999999
#
# number of rings (size 3 to 8) (size 9 to 14) (size 15 to 20)
#    0.000    1.750    2.500    1.500    3.500    2.000 
#    0.000    3.125    0.000    0.000    0.000    0.000 
#    0.000    0.000    0.000    0.000    0.000    0.000 
#
# Total GULP energy -198259.250097 kJ/mol
# GULP energy per Si atom -12391.203131 kJ/mol
# Density = 1.973611 g / cm^3
# Si number density = 19.781135 Si / 1000 Ang^3
#
#
#
# Elastic Constant Matrix: (Units=GPa)
#
#
# Indices 1 2 3 4 5 6 
#
# 1 91.4382 30.9442 42.1632 -12.5216 -1.7224 -3.6898
# 2 30.9442 86.3275 39.8552 -17.9637 -0.3346 -2.2001
# 3 42.1632 39.8552 109.6356 -8.5202 13.1980 13.3747
# 4 -12.5216 -17.9637 -8.5202 31.2852 8.1289 -1.4914
# 5 -1.7224 -0.3346 13.1980 8.1289 40.2135 -5.4058
# 6 -3.6898 -2.2001 13.3747 -1.4914 -5.4058 28.3816
#
#
#
# Elastic Compliance Matrix: (Units=1/GPa)
#
#
# Indices 1 2 3 4 5 6 
#
# 1 0.014889 -0.001957 -0.005736 0.002837 0.002621 0.005135
# 2 -0.001957 0.016271 -0.005200 0.007110 0.000858 0.003994
# 3 -0.005736 -0.005200 0.015182 0.000107 -0.006577 -0.009551
# 4 0.002837 0.007110 0.000107 0.039254 -0.007590 0.001487
# 5 0.002621 0.000858 -0.006577 -0.007590 0.029862 0.008796
# 6 0.005135 0.003994 -0.009551 0.001487 0.008796 0.042465
#
#
# Mechanical properties :
#
#
# Convention : Reuss Voigt Hill
#
# Bulk Modulus (GPa) = 48.64842 57.03627 52.84235
# Shear Modulus (GPa) = 26.23823 31.60531 28.92177
#
# Velocity S-wave (km/s) = 3.64597 4.00152 3.82787
# Velocity P-wave (km/s) = 6.50929 7.08843 6.80502
#
# Compressibility (1/GPa) = 0.02055565
#
# Stress axis : x y z
#
# Youngs Moduli (GPa) = 67.16534 61.45946 65.86558
#
# Poissons Ratio (x) = 0.12031 0.37778
# Poissons Ratio (y) = 0.13148 0.34250
# Poissons Ratio (z) = 0.38524 0.31959
#
# Static dielectric constant tensor:
#      x y z
#    x 3.518940 -0.136100 -0.030070 
#    y -0.136100 3.513180 -0.091070 
#    z -0.030070 -0.091070 3.727430 
# 
# 
# High freq. dielectric constant tensor:
#      x y z
#    x 1.759240 -0.011570 0.002160 
#    y -0.011570 1.772890 -0.009410 
#    z 0.002160 -0.009410 1.772250 
# 
# From -- ./inp_files/495909.got.cif
#   From: 2010.06.25/outbox.cif.g09.slc.cpg/sg2_248_cif.got.tgz:495909.got - 2010.06.27 13:26:56.
