data_PCOD8002599
_publ_section_title
;
Structure prediction by ZEFSAII (Michael W. Deem and Ramdas Pophale) SiO2 
 PCOD8002599
Probable space group: P -1
;
_chemical_formula_sum "Si O2"
_cell_formula_units_Z 14
_cell_length_a 18.175308
_cell_length_b 21.685160
_cell_length_c 18.091703
_cell_angle_alpha 19.143970
_cell_angle_beta 27.304545
_cell_angle_gamma 17.705664
_cell_volume 706.542186
_symmetry_space_group_name_H-M "P -1"
_symmetry_group_IT_number 2
_symmetry_cell_setting 'triclinic'
loop_
_space_group_symop_operation_xyz
x,y,z
-x,-y,-z
loop_
_atom_site_type_symbol
_atom_site_label
_atom_site_fract_x
_atom_site_fract_y
_atom_site_fract_z
Si Si1 0.806213 0.237899 0.057897
Si Si2 0.241051 0.614741 0.393561
Si Si3 0.687666 0.220968 0.341975
Si Si4 0.074480 0.733662 0.801956
Si Si5 0.827793 0.752438 0.668557
Si Si6 0.391640 0.652995 0.501321
Si Si7 0.501235 0.165206 0.371658
O O1 0.683855 0.335906 0.137895
O O2 0.689233 0.176802 0.178776
O O3 0.759306 0.492509 0.781186
O O4 0.094473 0.941520 0.143410
O O5 0.411557 0.436495 0.372393
O O6 0.389540 0.487904 0.480589
O O7 0.049211 0.611988 0.574562
O O8 0.850775 0.175283 0.309260
O O9 0.816710 0.905455 0.573623
O O10 0.231127 0.623631 0.711942
O O11 0.137040 0.481921 0.066234
O O12 0.786915 0.008523 0.731216
O O13 0.571742 0.999057 0.573339
O O14 0.500000 0.500000 0.500000
O O15 0.500000 0.000000 0.500000
#
# Coordination Sequence:
#
# PCOD8002599 Si02
#       7
#     2   2   2   2   2   2   2
#     4   9  18  33  53  76 106 142 175 213 260 309
#     4   9  19  35  55  79 108 141 176 217 263 310
#     4   9  18  36  55  76 110 144 175 214 260 311
#     4  10  21  36  56  79 107 142 176 216 264 313
#     4  10  21  36  55  80 107 139 178 218 263 313
#     4  10  20  36  56  80 107 139 178 217 264 316
#     4   9  17  32  54  77 104 139 175 214 262 310
#
# _framework density 19.814810999999999
#
# number of rings (size 3 to 8) (size 9 to 14) (size 15 to 20)
#    0.000    2.857    0.000    2.571    0.000    1.714 
#    0.000   25.714    0.000   18.000    0.000    0.000 
#    0.000    0.000    0.000    0.000    0.000    0.000 
#
# Total GULP energy -173449.491149 kJ/mol
# GULP energy per Si atom -12389.249368 kJ/mol
# Density = 1.976971 g / cm^3
# Si number density = 19.814811 Si / 1000 Ang^3
#
#
#
# Elastic Constant Matrix: (Units=GPa)
#
#
# Indices 1 2 3 4 5 6 
#
# 1 61.6348 43.5494 49.5800 -21.8125 2.6139 -26.4818
# 2 43.5494 96.0127 26.8978 -3.8876 6.3444 19.5763
# 3 49.5800 26.8978 135.6447 -26.0144 5.0916 1.6994
# 4 -21.8125 -3.8876 -26.0144 21.2110 -0.1943 2.5088
# 5 2.6139 6.3444 5.0916 -0.1943 31.1554 -4.3572
# 6 -26.4818 19.5763 1.6994 2.5088 -4.3572 8.4271
#
#
#
# Elastic Compliance Matrix: (Units=1/GPa)
#
#
# Indices 1 2 3 4 5 6 
#
# 1 -0.002907 0.008352 0.000654 0.003164 -0.006128 -0.032780
# 2 0.008352 0.004132 -0.003583 0.002923 0.001476 0.017263
# 3 0.000654 -0.003583 0.010054 0.011785 -0.000234 0.004722
# 4 0.003164 0.002923 0.011785 0.067976 -0.005481 -0.022294
# 5 -0.006128 0.001476 -0.000234 -0.005481 0.031667 -0.004635
# 6 -0.032780 0.017263 0.004722 -0.022294 -0.004635 -0.021158
#
#
# Mechanical properties :
#
#
# Convention : Reuss Voigt Hill
#
# Bulk Modulus (GPa) = 45.19968 59.26071 52.23020
# Shear Modulus (GPa) = 57.94246 23.70970 40.82608
#
# Velocity S-wave (km/s) = 5.41345 3.46289 4.54407
# Velocity P-wave (km/s) = 7.86985 6.77946 7.34492
#
# Compressibility (1/GPa) = 0.02212405
#
# Stress axis : x y z
#
# Youngs Moduli (GPa) = -343.99802 242.02240 99.46681
#
# Poissons Ratio (x) = -2.02137 -0.06505
# Poissons Ratio (y) = 2.87306 0.35640
# Poissons Ratio (z) = 0.22496 0.86720
#
# Static dielectric constant tensor:
#      x y z
#    x 3.743390 -0.107610 0.178350 
#    y -0.107610 3.670760 -0.255350 
#    z 0.178350 -0.255350 3.618900 
# 
# 
# High freq. dielectric constant tensor:
#      x y z
#    x 1.776430 -0.007250 0.018550 
#    y -0.007250 1.760200 -0.025000 
#    z 0.018550 -0.025000 1.762740 
# 
# From -- ./inp_files/505723.got.cif
#   From: 2010.06.25/outbox.cif.g09.slc.cpg/sg2_253_cif.got.tgz:505723.got - 2010.06.27 13:26:56.
