data_PCOD8002374
_publ_section_title
;
Structure prediction by ZEFSAII (Michael W. Deem and Ramdas Pophale) SiO2 
 PCOD8002374
Probable space group: P -1
;
_chemical_formula_sum "Si O2"
_cell_formula_units_Z 14
_cell_length_a 9.070411
_cell_length_b 17.794054
_cell_length_c 11.637870
_cell_angle_alpha 28.400499
_cell_angle_beta 91.178974
_cell_angle_gamma 110.127631
_cell_volume 650.257914
_symmetry_space_group_name_H-M "P -1"
_symmetry_group_IT_number 2
_symmetry_cell_setting 'triclinic'
loop_
_space_group_symop_operation_xyz
x,y,z
-x,-y,-z
loop_
_atom_site_type_symbol
_atom_site_label
_atom_site_fract_x
_atom_site_fract_y
_atom_site_fract_z
Si Si1 0.595511 0.752113 0.042426
Si Si2 0.644886 0.321147 0.494523
Si Si3 0.162654 0.842184 0.367997
Si Si4 0.362142 0.342343 0.068300
Si Si5 0.777331 0.576215 0.381545
Si Si6 0.796436 0.723862 0.617256
Si Si7 0.812846 0.033189 0.045282
O O1 0.739975 0.727315 0.136413
O O2 0.357444 0.544732 0.341830
O O3 0.652288 0.792907 0.853845
O O4 0.648895 0.959612 0.819171
O O5 0.806268 0.316496 0.452951
O O6 0.702380 0.394689 0.529803
O O7 0.420861 0.077385 0.804542
O O8 0.663062 0.496885 0.190643
O O9 0.966176 0.715025 0.616648
O O10 0.132619 0.931696 0.135411
O O11 0.194927 0.186984 0.374891
O O12 0.583938 0.476901 0.943526
O O13 0.017815 0.732839 0.202488
O O14 0.817261 0.863138 0.327445
#
# Coordination Sequence:
#
# PCOD8002374 Si02
#       7
#     2   2   2   2   2   2   2
#     4  10  20  35  60  90 116 148 203 244 281 348
#     4  10  23  40  57  89 127 151 188 244 299 349
#     4  12  22  36  60  93 120 150 190 249 301 339
#     4   9  21  42  61  82 116 158 203 239 281 353
#     4  10  20  37  59  88 118 157 192 238 294 345
#     4  10  21  38  64  85 112 159 204 239 284 343
#     4  11  21  38  62  87 122 153 194 242 291 351
#
# _framework density 21.529919
#
# number of rings (size 3 to 8) (size 9 to 14) (size 15 to 20)
#    0.000    1.714    2.857    1.714    2.000    1.714 
#    2.571    0.000    0.000    2.571    0.000    0.000 
#    0.000    0.000    0.000    0.000    0.000    0.000 
#
# Total GULP energy -173504.732050 kJ/mol
# GULP energy per Si atom -12393.195146 kJ/mol
# Density = 2.148092 g / cm^3
# Si number density = 21.529919 Si / 1000 Ang^3
#
#
#
# Elastic Constant Matrix: (Units=GPa)
#
#
# Indices 1 2 3 4 5 6 
#
# 1 85.1548 40.6600 27.6287 -9.6763 -22.6906 -13.1024
# 2 40.6600 106.7103 22.5683 -7.9971 -3.1883 -9.1528
# 3 27.6287 22.5683 40.7470 -5.8181 -14.0616 2.7545
# 4 -9.6763 -7.9971 -5.8181 33.7026 0.1779 -5.6426
# 5 -22.6906 -3.1883 -14.0616 0.1779 25.8302 -7.1887
# 6 -13.1024 -9.1528 2.7545 -5.6426 -7.1887 32.2012
#
#
#
# Elastic Compliance Matrix: (Units=1/GPa)
#
#
# Indices 1 2 3 4 5 6 
#
# 1 0.026176 -0.005981 -0.006455 0.007537 0.023140 0.015990
# 2 -0.005981 0.012587 -0.005074 0.000466 -0.006402 0.000230
# 3 -0.006455 -0.005074 0.036695 0.002548 0.012560 -0.003957
# 4 0.007537 0.000466 0.002548 0.034243 0.011014 0.011440
# 5 0.023140 -0.006402 0.012560 0.011014 0.071828 0.024487
# 6 0.015990 0.000230 -0.003957 0.011440 0.024487 0.045436
#
#
# Mechanical properties :
#
#
# Convention : Reuss Voigt Hill
#
# Bulk Modulus (GPa) = 24.72987 46.03622 35.38304
# Shear Modulus (GPa) = 18.15108 27.79715 22.97411
#
# Velocity S-wave (km/s) = 2.90670 3.59708 3.27016
# Velocity P-wave (km/s) = 4.77247 6.21939 5.54334
#
# Compressibility (1/GPa) = 0.04043693
#
# Stress axis : x y z
#
# Youngs Moduli (GPa) = 38.20234 79.44904 27.25158
#
# Poissons Ratio (x) = 0.47519 0.17592
# Poissons Ratio (y) = 0.22849 0.13828
# Poissons Ratio (z) = 0.24661 0.40314
#
# Static dielectric constant tensor:
#      x y z
#    x 3.667530 0.048510 -0.361200 
#    y 0.048510 4.107770 0.093960 
#    z -0.361200 0.093960 3.678970 
# 
# 
# High freq. dielectric constant tensor:
#      x y z
#    x 1.826840 -0.003850 -0.029260 
#    y -0.003850 1.853630 0.001610 
#    z -0.029260 0.001610 1.819550 
# 
# From -- ./inp_files/170167.got.cif
#   From: 2010.06.25/outbox.cif.g09.slc.cpg/sg2_86_cif.got.tgz:170167.got - 2010.06.27 13:26:56.
