data_PCOD8002418
_publ_section_title
;
Structure prediction by ZEFSAII (Michael W. Deem and Ramdas Pophale) SiO2 
 PCOD8002418
Probable space group: P -1
;
_chemical_formula_sum "Si O2"
_cell_formula_units_Z 16
_cell_length_a 11.579718
_cell_length_b 24.478100
_cell_length_c 18.330354
_cell_angle_alpha 160.001501
_cell_angle_beta 152.982875
_cell_angle_gamma 27.631031
_cell_volume 766.319487
_symmetry_space_group_name_H-M "P -1"
_symmetry_group_IT_number 2
_symmetry_cell_setting 'triclinic'
loop_
_space_group_symop_operation_xyz
x,y,z
-x,-y,-z
loop_
_atom_site_type_symbol
_atom_site_label
_atom_site_fract_x
_atom_site_fract_y
_atom_site_fract_z
Si Si1 0.305154 0.913723 0.090987
Si Si2 0.099845 0.500562 0.327868
Si Si3 0.506532 0.293844 0.195391
Si Si4 0.650066 0.000341 0.010905
Si Si5 0.442716 0.231217 0.601256
Si Si6 0.636197 0.722820 0.550928
Si Si7 0.744263 0.376183 0.208215
Si Si8 0.887591 0.262131 0.995160
O O1 0.498317 0.839377 0.037364
O O2 0.371386 0.757506 0.987271
O O3 0.393960 0.052828 0.358697
O O4 0.000000 0.000000 0.000000
O O5 0.212550 0.420841 0.211439
O O6 0.299541 0.602303 0.594255
O O7 0.796031 0.624906 0.312417
O O8 0.102779 0.347649 0.191867
O O9 0.624563 0.185447 0.198692
O O10 0.535815 0.897337 0.757326
O O11 0.960556 0.907330 0.087155
O O12 0.500000 0.000000 0.000000
O O13 0.490202 0.260087 0.579212
O O14 0.715761 0.224877 0.786348
O O15 0.579461 0.572938 0.378977
O O16 0.954759 0.668238 0.648496
O O17 0.710333 0.378808 0.104290
#
# Coordination Sequence:
#
# PCOD8002418 Si02
#       8
#     2   2   2   2   2   2   2   2
#     4  12  21  39  64  92 127 168 221 266 303 384
#     4  11  23  39  63  94 132 164 208 269 318 382
#     4  11  23  40  66  97 122 169 218 264 320 369
#     4  11  22  41  63  93 128 167 218 265 311 379
#     4  12  23  41  65  96 130 170 212 261 328 382
#     4  10  20  35  61  89 119 162 219 255 304 379
#     4  10  21  36  61  91 123 161 218 265 303 361
#     4  11  24  40  64  97 128 169 212 264 324 380
#
# _framework density 20.879021000000002
#
# number of rings (size 3 to 8) (size 9 to 14) (size 15 to 20)
#    0.000    1.000    6.250    1.125    3.500    0.500 
#    0.000    2.500    0.000    0.750    0.000    0.000 
#    0.000    0.000    0.000    0.000    0.000    0.000 
#
# Total GULP energy -198251.015259 kJ/mol
# GULP energy per Si atom -12390.688454 kJ/mol
# Density = 2.083150 g / cm^3
# Si number density = 20.879021 Si / 1000 Ang^3
#
#
#
# Elastic Constant Matrix: (Units=GPa)
#
#
# Indices 1 2 3 4 5 6 
#
# 1 98.7541 32.3347 37.6107 4.6406 -2.6971 7.4198
# 2 32.3347 63.9281 53.0303 1.7447 -0.9674 13.7379
# 3 37.6107 53.0303 105.0618 8.7365 3.3978 16.5025
# 4 4.6406 1.7447 8.7365 35.6154 12.2052 -5.5451
# 5 -2.6971 -0.9674 3.3978 12.2052 42.9092 13.7977
# 6 7.4198 13.7379 16.5025 -5.5451 13.7977 34.8714
#
#
#
# Elastic Compliance Matrix: (Units=1/GPa)
#
#
# Indices 1 2 3 4 5 6 
#
# 1 0.012525 -0.004378 -0.002062 -0.001580 0.001571 -0.000837
# 2 -0.004378 0.029617 -0.012541 0.000111 0.003314 -0.006095
# 3 -0.002062 -0.012541 0.017520 -0.004231 0.000637 -0.003837
# 4 -0.001580 0.000111 -0.004231 0.036478 -0.014598 0.013871
# 5 0.001571 0.003314 0.000637 -0.014598 0.033171 -0.017388
# 6 -0.000837 -0.006095 -0.003837 0.013871 -0.017388 0.042158
#
#
# Mechanical properties :
#
#
# Convention : Reuss Voigt Hill
#
# Bulk Modulus (GPa) = 46.08180 57.07726 51.57953
# Shear Modulus (GPa) = 23.07709 32.33042 27.70376
#
# Velocity S-wave (km/s) = 3.32818 3.93932 3.64658
# Velocity P-wave (km/s) = 6.07353 6.93451 6.51825
#
# Compressibility (1/GPa) = 0.02170054
#
# Stress axis : x y z
#
# Youngs Moduli (GPa) = 79.84080 33.76431 57.07635
#
# Poissons Ratio (x) = 0.14782 0.11768
# Poissons Ratio (y) = 0.34953 0.71581
# Poissons Ratio (z) = 0.16462 0.42344
#
# Static dielectric constant tensor:
#      x y z
#    x 3.851350 0.005250 -0.181430 
#    y 0.005250 3.920470 0.788180 
#    z -0.181430 0.788180 4.150640 
# 
# 
# High freq. dielectric constant tensor:
#      x y z
#    x 1.817640 0.019210 -0.011170 
#    y 0.019210 1.785250 0.043960 
#    z -0.011170 0.043960 1.818790 
# 
# From -- ./inp_files/571070.got.cif
#   From: 2010.06.25/outbox.cif.g09.slc.cpg/sg2_286_cif.got.tgz:571070.got - 2010.06.27 13:26:56.
