data_PCOD8002707
_publ_section_title
;
Structure prediction by ZEFSAII (Michael W. Deem and Ramdas Pophale) SiO2 
 PCOD8002707
Probable space group: P -1
;
_chemical_formula_sum "Si O2"
_cell_formula_units_Z 16
_cell_length_a 23.002293
_cell_length_b 9.968600
_cell_length_c 8.530174
_cell_angle_alpha 149.943924
_cell_angle_beta 123.866604
_cell_angle_gamma 57.368879
_cell_volume 805.786036
_symmetry_space_group_name_H-M "P -1"
_symmetry_group_IT_number 2
_symmetry_cell_setting 'triclinic'
loop_
_space_group_symop_operation_xyz
x,y,z
-x,-y,-z
loop_
_atom_site_type_symbol
_atom_site_label
_atom_site_fract_x
_atom_site_fract_y
_atom_site_fract_z
Si Si1 0.919226 0.452262 0.506129
Si Si2 0.851722 0.162633 0.622222
Si Si3 0.081912 0.374667 0.669547
Si Si4 0.292086 0.097931 0.139334
Si Si5 0.447578 0.001495 0.279321
Si Si6 0.552445 0.517298 0.454654
Si Si7 0.291971 0.585620 0.415859
Si Si8 0.852456 0.983805 0.082840
O O1 0.898216 0.553688 0.403655
O O2 0.000882 0.325989 0.513833
O O3 0.872629 0.217519 0.237304
O O4 0.904810 0.706315 0.858366
O O5 0.772071 0.308343 0.692100
O O6 0.869279 0.902075 0.494067
O O7 0.857038 0.075059 0.361136
O O8 0.905637 0.377804 0.949032
O O9 0.265806 0.349900 0.242164
O O10 0.369138 0.117828 0.349637
O O11 0.227701 0.072060 0.137017
O O12 0.306765 0.827898 0.790905
O O13 0.500000 0.000000 0.500000
O O14 0.468551 0.197031 0.372546
O O15 0.452844 0.707025 0.912657
O O16 0.500000 0.500000 0.500000
O O17 0.631372 0.509858 0.642936
#
# Coordination Sequence:
#
# PCOD8002707 Si02
#       8
#     2   2   2   2   2   2   2   2
#     4  11  24  40  56  79 115 150 176 219 288 341
#     4  11  21  37  61  84 106 141 192 234 264 319
#     4  11  24  40  56  79 115 150 176 219 288 341
#     4   9  18  34  56  81 111 146 179 223 280 325
#     4  10  20  36  58  83 114 149 185 224 272 326
#     4  10  20  36  58  83 114 149 185 224 272 326
#     4   9  18  34  56  81 111 146 179 223 280 325
#     4  11  21  37  61  84 106 141 192 234 264 319
#
# _framework density 19.856387000000002
#
# number of rings (size 3 to 8) (size 9 to 14) (size 15 to 20)
#    0.000    1.750    0.000    6.000    0.000    5.000 
#    0.000    3.750    0.000    0.000    0.000    0.000 
#    0.000    0.000    0.000    0.000    0.000    0.000 
#
# Total GULP energy -198339.547700 kJ/mol
# GULP energy per Si atom -12396.221731 kJ/mol
# Density = 1.981119 g / cm^3
# Si number density = 19.856387 Si / 1000 Ang^3
#
#
#
# Elastic Constant Matrix: (Units=GPa)
#
#
# Indices 1 2 3 4 5 6 
#
# 1 131.0860 60.7909 27.1274 0.6209 25.5526 -2.0392
# 2 60.7909 128.4138 32.3181 8.1962 18.9389 -19.5115
# 3 27.1274 32.3181 87.2452 15.5513 16.0897 -2.6111
# 4 0.6209 8.1962 15.5513 35.1952 3.6336 2.7691
# 5 25.5526 18.9389 16.0897 3.6336 33.0726 4.9539
# 6 -2.0392 -19.5115 -2.6111 2.7691 4.9539 18.9691
#
#
#
# Elastic Compliance Matrix: (Units=1/GPa)
#
#
# Indices 1 2 3 4 5 6 
#
# 1 0.010998 -0.004739 -0.001218 0.002190 -0.005001 -0.002873
# 2 -0.004739 0.013743 -0.001629 -0.003043 -0.005366 0.015248
# 3 -0.001218 -0.001629 0.014414 -0.005645 -0.004858 0.002270
# 4 0.002190 -0.003043 -0.005645 0.032192 0.000535 -0.008510
# 5 -0.005001 -0.005366 -0.004858 0.000535 0.042146 -0.017810
# 6 -0.002873 0.015248 0.002270 -0.008510 -0.017810 0.074299
#
#
# Mechanical properties :
#
#
# Convention : Reuss Voigt Hill
#
# Bulk Modulus (GPa) = 41.69586 65.24643 53.47115
# Shear Modulus (GPa) = 23.70138 32.54795 28.12466
#
# Velocity S-wave (km/s) = 3.45866 4.05306 3.76760
# Velocity P-wave (km/s) = 6.08227 7.40497 6.77597
#
# Compressibility (1/GPa) = 0.02398319
#
# Stress axis : x y z
#
# Youngs Moduli (GPa) = 90.92518 72.76484 69.37500
#
# Poissons Ratio (x) = 0.34480 0.08453
# Poissons Ratio (y) = 0.43085 0.11302
# Poissons Ratio (z) = 0.11078 0.11854
#
# Static dielectric constant tensor:
#      x y z
#    x 3.817300 -0.338470 0.181620 
#    y -0.338470 3.607650 0.143660 
#    z 0.181620 0.143660 3.776790 
# 
# 
# High freq. dielectric constant tensor:
#      x y z
#    x 1.771390 -0.021360 0.017380 
#    y -0.021360 1.764120 0.023260 
#    z 0.017380 0.023260 1.788070 
# 
# From -- ./inp_files/142265.got.cif
#   From: 2010.06.25/outbox.cif.g09.slc.cpg/sg2_72_cif.got.tgz:142265.got - 2010.06.27 13:26:56.
