data_PCOD8002539
_publ_section_title
;
Structure prediction by ZEFSAII (Michael W. Deem and Ramdas Pophale) SiO2 
 PCOD8002539
Probable space group: P -1
;
_chemical_formula_sum "Si O2"
_cell_formula_units_Z 14
_cell_length_a 8.477023
_cell_length_b 9.100268
_cell_length_c 12.205848
_cell_angle_alpha 119.306135
_cell_angle_beta 129.885836
_cell_angle_gamma 70.032687
_cell_volume 629.504954
_symmetry_space_group_name_H-M "P -1"
_symmetry_group_IT_number 2
_symmetry_cell_setting 'triclinic'
loop_
_space_group_symop_operation_xyz
x,y,z
-x,-y,-z
loop_
_atom_site_type_symbol
_atom_site_label
_atom_site_fract_x
_atom_site_fract_y
_atom_site_fract_z
Si Si1 0.210121 0.596226 0.109390
Si Si2 0.153497 0.259162 0.343547
Si Si3 0.170838 0.526448 0.829035
Si Si4 0.386271 0.933981 0.319242
Si Si5 0.631776 0.474729 0.319208
Si Si6 0.762212 0.842238 0.306837
Si Si7 0.872458 0.154387 0.359099
O O1 0.219697 0.792461 0.225368
O O2 0.385007 0.487872 0.214529
O O3 0.261206 0.612366 0.008233
O O4 0.000000 0.500000 0.000000
O O5 0.281609 0.354207 0.529008
O O6 0.061966 0.395525 0.265263
O O7 0.962985 0.168568 0.283104
O O8 0.280630 0.106319 0.284177
O O9 0.299940 0.549642 0.784966
O O10 0.179174 0.330025 0.792851
O O11 0.544018 0.844417 0.272125
O O12 0.500000 0.000000 0.500000
O O13 0.718437 0.316999 0.372499
O O14 0.940353 0.862592 0.480712
O O15 0.746829 0.986582 0.259417
#
# Coordination Sequence:
#
# PCOD8002539 Si02
#       7
#     2   2   2   2   2   2   2
#     4  12  28  42  67  99 141 175 221 277 343 388
#     4  11  21  42  71  99 133 176 223 273 331 398
#     4  11  22  43  68  96 132 178 219 274 334 400
#     4  12  23  43  67  97 135 177 219 273 333 393
#     4  11  20  45  67  98 133 181 225 263 337 403
#     4  11  21  37  68 101 130 168 225 272 334 382
#     4  10  20  35  67 104 125 164 231 278 307 394
#
# _framework density 22.239698000000001
#
# number of rings (size 3 to 8) (size 9 to 14) (size 15 to 20)
#    0.000    0.857    7.143    1.286    2.000    1.714 
#    0.000    2.143    0.000    0.000    0.000    0.000 
#    0.000    0.000    0.000    0.000    0.000    0.000 
#
# Total GULP energy -173467.887334 kJ/mol
# GULP energy per Si atom -12390.563381 kJ/mol
# Density = 2.218908 g / cm^3
# Si number density = 22.239698 Si / 1000 Ang^3
#
#
#
# Elastic Constant Matrix: (Units=GPa)
#
#
# Indices 1 2 3 4 5 6 
#
# 1 61.7681 58.7461 35.7511 3.7422 21.3896 -6.6600
# 2 58.7461 191.5966 46.6075 13.6599 18.0364 -19.4997
# 3 35.7511 46.6075 65.5414 17.7620 10.4943 0.4829
# 4 3.7422 13.6599 17.7620 30.8413 -1.6897 6.9460
# 5 21.3896 18.0364 10.4943 -1.6897 31.1688 0.1512
# 6 -6.6600 -19.4997 0.4829 6.9460 0.1512 42.0854
#
#
#
# Elastic Compliance Matrix: (Units=1/GPa)
#
#
# Indices 1 2 3 4 5 6 
#
# 1 0.035451 -0.006162 -0.013793 0.005020 -0.015857 0.002142
# 2 -0.006162 0.008022 -0.001673 -0.002559 -0.000005 0.003184
# 3 -0.013793 -0.001673 0.027458 -0.013123 0.000483 -0.001109
# 4 0.005020 -0.002559 -0.013123 0.042403 0.004788 -0.007256
# 5 -0.015857 -0.000005 0.000483 0.004788 0.043082 -0.003462
# 6 0.002142 0.003184 -0.001109 -0.007256 -0.003462 0.026798
#
#
# Mechanical properties :
#
#
# Convention : Reuss Voigt Hill
#
# Bulk Modulus (GPa) = 36.13215 66.79060 51.46138
# Shear Modulus (GPa) = 21.21373 32.67251 26.94312
#
# Velocity S-wave (km/s) = 3.09183 3.83705 3.48442
# Velocity P-wave (km/s) = 5.38775 7.05181 6.27518
#
# Compressibility (1/GPa) = 0.02767618
#
# Stress axis : x y z
#
# Youngs Moduli (GPa) = 28.20775 124.65039 36.41873
#
# Poissons Ratio (x) = 0.76805 0.50234
# Poissons Ratio (y) = 0.17381 0.06093
# Poissons Ratio (z) = 0.38908 0.20853
#
# Static dielectric constant tensor:
#      x y z
#    x 3.855280 -0.198740 0.117110 
#    y -0.198740 4.800430 0.023970 
#    z 0.117110 0.023970 3.871670 
# 
# 
# High freq. dielectric constant tensor:
#      x y z
#    x 1.847450 -0.015140 0.008430 
#    y -0.015140 1.902020 0.000140 
#    z 0.008430 0.000140 1.854960 
# 
# From -- ./inp_files/205354.got.cif
#   From: 2010.06.25/outbox.cif.g09.slc.cpg/sg2_103_cif.got.tgz:205354.got - 2010.06.27 13:26:56.
