data_PCOD8002879
_publ_section_title
;
Structure prediction by ZEFSAII (Michael W. Deem and Ramdas Pophale) SiO2 
 PCOD8002879
Probable space group: P -1
;
_chemical_formula_sum "Si O2"
_cell_formula_units_Z 14
_cell_length_a 12.066877
_cell_length_b 12.726240
_cell_length_c 15.558182
_cell_angle_alpha 27.258549
_cell_angle_beta 46.057446
_cell_angle_gamma 40.035569
_cell_volume 703.185663
_symmetry_space_group_name_H-M "P -1"
_symmetry_group_IT_number 2
_symmetry_cell_setting 'triclinic'
loop_
_space_group_symop_operation_xyz
x,y,z
-x,-y,-z
loop_
_atom_site_type_symbol
_atom_site_label
_atom_site_fract_x
_atom_site_fract_y
_atom_site_fract_z
Si Si1 0.992464 0.869860 0.009788
Si Si2 0.250495 0.395630 0.647842
Si Si3 0.977073 0.312369 0.584145
Si Si4 0.896295 0.054549 0.601272
Si Si5 0.623270 0.003880 0.687883
Si Si6 0.783151 0.085158 0.368212
Si Si7 0.353143 0.522764 0.995807
O O1 0.847301 0.773692 0.152755
O O2 0.176199 0.630182 0.065898
O O3 0.948456 0.083888 0.805986
O O4 0.000000 0.000000 0.000000
O O5 0.198360 0.509925 0.498187
O O6 0.201744 0.635221 0.563565
O O7 0.452851 0.223503 0.661170
O O8 0.000000 0.500000 0.500000
O O9 0.145383 0.191610 0.517986
O O10 0.759385 0.943694 0.736991
O O11 0.000000 0.000000 0.500000
O O12 0.034618 0.907355 0.709973
O O13 0.675367 0.095246 0.503987
O O14 0.594249 0.758625 0.863372
O O15 0.664994 0.304245 0.205050
O O16 0.500000 0.500000 0.000000
#
# Coordination Sequence:
#
# PCOD8002879 Si02
#       7
#     2   2   2   2   2   2   2
#     4  11  21  36  59  83 120 161 197 244 295 357
#     4  11  22  38  59  91 121 155 199 245 305 358
#     4  10  20  36  60  83 115 161 202 238 295 358
#     4   9  19  41  67  85 115 160 207 249 298 350
#     4  11  23  39  62  90 123 160 198 254 299 358
#     4   9  22  41  60  88 118 160 203 249 302 351
#     4  11  24  39  59  91 123 156 204 248 304 358
#
# _framework density 19.909393999999999
#
# number of rings (size 3 to 8) (size 9 to 14) (size 15 to 20)
#    0.000    1.714    1.429    3.857    2.000    3.429 
#    0.000    4.286    0.000   12.857    0.000    0.000 
#    0.000    0.000    0.000    0.000    0.000    0.000 
#
# Total GULP energy -173455.775696 kJ/mol
# GULP energy per Si atom -12389.698264 kJ/mol
# Density = 1.986408 g / cm^3
# Si number density = 19.909394 Si / 1000 Ang^3
#
#
#
# Elastic Constant Matrix: (Units=GPa)
#
#
# Indices 1 2 3 4 5 6 
#
# 1 143.2255 47.8532 52.5495 -12.0927 -4.5838 -0.7359
# 2 47.8532 113.4345 18.8832 -6.0563 -2.2553 2.7558
# 3 52.5495 18.8832 84.2005 -5.5021 3.7169 -4.7733
# 4 -12.0927 -6.0563 -5.5021 30.5143 1.9996 -4.4346
# 5 -4.5838 -2.2553 3.7169 1.9996 35.4366 -6.7575
# 6 -0.7359 2.7558 -4.7733 -4.4346 -6.7575 39.9448
#
#
#
# Elastic Compliance Matrix: (Units=1/GPa)
#
#
# Indices 1 2 3 4 5 6 
#
# 1 0.010418 -0.003299 -0.005662 0.002386 0.001652 0.000287
# 2 -0.003299 0.010301 -0.000258 0.000580 0.000085 -0.000723
# 3 -0.005662 -0.000258 0.015709 0.000900 -0.002156 0.001526
# 4 0.002386 0.000580 0.000900 0.034609 -0.000979 0.003788
# 5 0.001652 0.000085 -0.002156 -0.000979 0.029610 0.004667
# 6 0.000287 -0.000723 0.001526 0.003788 0.004667 0.026482
#
#
# Mechanical properties :
#
#
# Convention : Reuss Voigt Hill
#
# Bulk Modulus (GPa) = 55.59283 64.38138 59.98710
# Shear Modulus (GPa) = 32.98957 35.95078 34.47018
#
# Velocity S-wave (km/s) = 4.07502 4.25399 4.16547
# Velocity P-wave (km/s) = 7.07987 7.51904 7.30276
#
# Compressibility (1/GPa) = 0.01798793
#
# Stress axis : x y z
#
# Youngs Moduli (GPa) = 95.99194 97.08264 63.65868
#
# Poissons Ratio (x) = 0.32026 0.36047
# Poissons Ratio (y) = 0.31666 0.01643
# Poissons Ratio (z) = 0.54355 0.02506
#
# Static dielectric constant tensor:
#      x y z
#    x 2.020500 0.245160 0.755640 
#    y 0.245160 3.934200 0.046200 
#    z 0.755640 0.046200 3.624270 
# 
# 
# High freq. dielectric constant tensor:
#      x y z
#    x 1.785490 0.012040 0.002950 
#    y 0.012040 1.792600 -0.011580 
#    z 0.002950 -0.011580 1.760920 
# 
# From -- ./inp_files/253289.got.cif
#   From: 2010.06.25/outbox.cif.g09.slc.cpg/sg2_127_cif.got.tgz:253289.got - 2010.06.27 13:26:56.
