data_PCOD8002841
_publ_section_title
;
Structure prediction by ZEFSAII (Michael W. Deem and Ramdas Pophale) SiO2 
 PCOD8002841
Probable space group: P -1
;
_chemical_formula_sum "Si O2"
_cell_formula_units_Z 16
_cell_length_a 16.358910
_cell_length_b 10.242344
_cell_length_c 13.114899
_cell_angle_alpha 81.419616
_cell_angle_beta 155.127049
_cell_angle_gamma 110.975352
_cell_volume 771.983832
_symmetry_space_group_name_H-M "P -1"
_symmetry_group_IT_number 2
_symmetry_cell_setting 'triclinic'
loop_
_space_group_symop_operation_xyz
x,y,z
-x,-y,-z
loop_
_atom_site_type_symbol
_atom_site_label
_atom_site_fract_x
_atom_site_fract_y
_atom_site_fract_z
Si Si1 0.857858 0.324890 0.403234
Si Si2 0.916813 0.445639 0.055446
Si Si3 0.355633 0.954812 0.446095
Si Si4 0.438374 0.256147 0.618935
Si Si5 0.466737 0.309686 0.870840
Si Si6 0.639949 0.286673 0.378244
Si Si7 0.922850 0.691629 0.894862
Si Si8 0.725138 0.680343 0.144788
O O1 0.779906 0.307396 0.432844
O O2 0.000000 0.500000 0.500000
O O3 0.001959 0.240964 0.572583
O O4 0.627528 0.240049 0.083483
O O5 0.179303 0.555029 0.376737
O O6 0.916630 0.302555 0.017306
O O7 0.716331 0.376450 0.922033
O O8 0.842187 0.534142 0.883906
O O9 0.429821 0.863214 0.615212
O O10 0.500000 0.000000 0.500000
O O11 0.384171 0.097059 0.526201
O O12 0.083762 0.845770 0.126153
O O13 0.350796 0.241100 0.638086
O O14 0.307829 0.318411 0.398223
O O15 0.280388 0.257839 0.755746
O O16 0.609928 0.496487 0.020478
O O17 0.397866 0.270667 0.082982
#
# Coordination Sequence:
#
# PCOD8002841 Si02
#       8
#     2   2   2   2   2   2   2   2
#     4   9  17  34  59  90 122 148 184 244 306 356
#     4  10  20  36  59  89 119 143 203 259 296 342
#     4  11  24  46  57  81 126 170 200 250 295 348
#     4  12  22  38  62  86 118 163 203 239 305 361
#     4   9  19  31  57  91 117 147 189 245 299 359
#     4  10  21  37  62  90 120 158 200 241 299 358
#     4  10  22  39  59  84 114 157 203 254 296 349
#     4   9  17  36  58  89 123 148 187 243 306 355
#
# _framework density 20.725823999999999
#
# number of rings (size 3 to 8) (size 9 to 14) (size 15 to 20)
#    0.000    2.000    1.250    3.750    0.000    1.000 
#    9.000    2.500    0.000    1.500    0.000    0.000 
#    0.000    0.000    0.000    0.000    0.000    0.000 
#
# Total GULP energy -198231.837296 kJ/mol
# GULP energy per Si atom -12389.489831 kJ/mol
# Density = 2.067865 g / cm^3
# Si number density = 20.725824 Si / 1000 Ang^3
#
#
#
# Elastic Constant Matrix: (Units=GPa)
#
#
# Indices 1 2 3 4 5 6 
#
# 1 105.1506 47.7384 53.2347 -17.7995 -12.8236 -5.5273
# 2 47.7384 81.8221 45.9671 -14.9019 -1.6053 -7.6327
# 3 53.2347 45.9671 93.6234 -30.4900 2.3005 -17.4758
# 4 -17.7995 -14.9019 -30.4900 29.2368 -5.9094 -4.6028
# 5 -12.8236 -1.6053 2.3005 -5.9094 35.5251 -1.5151
# 6 -5.5273 -7.6327 -17.4758 -4.6028 -1.5151 32.1768
#
#
#
# Elastic Compliance Matrix: (Units=1/GPa)
#
#
# Indices 1 2 3 4 5 6 
#
# 1 0.016239 -0.005611 -0.006552 0.001180 0.006159 -0.001641
# 2 -0.005611 0.018883 -0.006174 -0.000388 -0.000834 0.000067
# 3 -0.006552 -0.006174 0.029002 0.025869 0.000501 0.016886
# 4 0.001180 -0.000388 0.025869 0.067772 0.011046 0.024375
# 5 0.006159 -0.000834 0.000501 0.011046 0.032320 0.004234
# 6 -0.001641 0.000067 0.016886 0.024375 0.004234 0.043670
#
#
# Mechanical properties :
#
#
# Convention : Reuss Voigt Hill
#
# Bulk Modulus (GPa) = 36.42955 63.83071 50.13013
# Shear Modulus (GPa) = 19.70737 28.29812 24.00274
#
# Velocity S-wave (km/s) = 3.08695 3.69908 3.40679
# Velocity P-wave (km/s) = 5.50642 7.00777 6.30196
#
# Compressibility (1/GPa) = 0.02745025
#
# Stress axis : x y z
#
# Youngs Moduli (GPa) = 61.57852 52.95717 34.47989
#
# Poissons Ratio (x) = 0.29715 0.22592
# Poissons Ratio (y) = 0.34552 0.21288
# Poissons Ratio (z) = 0.40348 0.32696
#
# Static dielectric constant tensor:
#      x y z
#    x 3.879490 -0.086740 0.052930 
#    y -0.086740 3.530830 -0.363010 
#    z 0.052930 -0.363010 3.975670 
# 
# 
# High freq. dielectric constant tensor:
#      x y z
#    x 1.816380 -0.006590 -0.004090 
#    y -0.006590 1.782990 -0.023930 
#    z -0.004090 -0.023930 1.814520 
# 
# From -- ./inp_files/447426.got.cif
#   From: 2010.06.25/outbox.cif.g09.slc.cpg/sg2_224_cif.got.tgz:447426.got - 2010.06.27 13:26:56.
