data_PCOD8002125
_publ_section_title
;
Structure prediction by ZEFSAII (Michael W. Deem and Ramdas Pophale) SiO2 
 PCOD8002125
Probable space group: P -1
;
_chemical_formula_sum "Si O2"
_cell_formula_units_Z 16
_cell_length_a 9.920313
_cell_length_b 5.189876
_cell_length_c 16.229902
_cell_angle_alpha 80.586797
_cell_angle_beta 113.892048
_cell_angle_gamma 96.424810
_cell_volume 752.743458
_symmetry_space_group_name_H-M "P -1"
_symmetry_group_IT_number 2
_symmetry_cell_setting 'triclinic'
loop_
_space_group_symop_operation_xyz
x,y,z
-x,-y,-z
loop_
_atom_site_type_symbol
_atom_site_label
_atom_site_fract_x
_atom_site_fract_y
_atom_site_fract_z
Si Si1 0.605597 0.220042 0.615336
Si Si2 0.414357 0.691540 0.574161
Si Si3 0.172489 0.142240 0.765271
Si Si4 0.375971 0.194426 0.954115
Si Si5 0.115435 0.493187 0.102972
Si Si6 0.581182 0.579533 0.883444
Si Si7 0.888827 0.079249 0.788924
Si Si8 0.305239 0.697981 0.718085
O O1 0.515256 0.444621 0.624439
O O2 0.663589 0.324517 0.534366
O O3 0.732964 0.153587 0.712193
O O4 0.506835 0.961150 0.590343
O O5 0.292266 0.687177 0.616346
O O6 0.238655 0.069051 0.875295
O O7 0.213618 0.443571 0.741097
O O8 0.998185 0.090894 0.736795
O O9 0.231474 0.956581 0.718894
O O10 0.448439 0.434785 0.908302
O O11 0.329134 0.246402 0.034342
O O12 0.500000 0.000000 0.000000
O O13 0.286582 0.578302 0.115753
O O14 0.059746 0.701142 0.143530
O O15 0.118395 0.204944 0.157071
O O16 0.000000 0.500000 0.000000
O O17 0.482185 0.723404 0.783463
#
# Coordination Sequence:
#
# PCOD8002125 Si02
#       8
#     2   2   2   2   2   2   2   2
#     4  10  21  40  65  95 122 164 190 253 312 373
#     4  10  21  39  67  95 125 147 208 253 310 362
#     4  11  24  38  58  84 120 160 203 243 303 357
#     4  10  20  35  56  78 113 153 195 249 289 349
#     4  12  27  41  62  90 124 164 205 256 296 363
#     4  10  22  35  57  85 111 151 203 243 305 347
#     4  12  25  43  62  86 128 166 203 245 312 368
#     4  11  21  38  59  89 114 154 200 258 293 350
#
# _framework density 21.255582
#
# number of rings (size 3 to 8) (size 9 to 14) (size 15 to 20)
#    0.000    1.250    1.250    4.875    3.500    1.000 
#    0.000    1.250    0.000    0.000    0.000    0.000 
#    0.000    0.000    0.000    0.000    0.000    0.000 
#
# Total GULP energy -198300.131720 kJ/mol
# GULP energy per Si atom -12393.758232 kJ/mol
# Density = 2.120720 g / cm^3
# Si number density = 21.255582 Si / 1000 Ang^3
#
#
#
# Elastic Constant Matrix: (Units=GPa)
#
#
# Indices 1 2 3 4 5 6 
#
# 1 78.1082 15.9321 15.3161 2.2298 -10.2684 -12.1983
# 2 15.9321 113.4649 25.1825 1.8103 -0.0581 -15.1965
# 3 15.3161 25.1825 83.5585 0.7909 -10.7326 -1.4562
# 4 2.2298 1.8103 0.7909 31.3121 -7.7742 -7.0452
# 5 -10.2684 -0.0581 -10.7326 -7.7742 29.2171 5.5728
# 6 -12.1983 -15.1965 -1.4562 -7.0452 5.5728 29.9090
#
#
#
# Elastic Compliance Matrix: (Units=1/GPa)
#
#
# Indices 1 2 3 4 5 6 
#
# 1 0.014600 -0.001008 -0.001806 0.001118 0.003828 0.004904
# 2 -0.001008 0.010346 -0.003159 0.000109 -0.002452 0.005174
# 3 -0.001806 -0.003159 0.013856 0.000674 0.005097 -0.002458
# 4 0.001118 0.000109 0.000674 0.035647 0.008731 0.007314
# 5 0.003828 -0.002452 0.005097 0.008731 0.040709 -0.004965
# 6 0.004904 0.005174 -0.002458 0.007314 -0.004965 0.040592
#
#
# Mechanical properties :
#
#
# Convention : Reuss Voigt Hill
#
# Bulk Modulus (GPa) = 37.23578 43.11032 40.17305
# Shear Modulus (GPa) = 28.30476 32.66769 30.48623
#
# Velocity S-wave (km/s) = 3.65312 3.92458 3.79128
# Velocity P-wave (km/s) = 5.94558 6.39237 6.17302
#
# Compressibility (1/GPa) = 0.02685589
#
# Stress axis : x y z
#
# Youngs Moduli (GPa) = 68.49443 96.65575 72.16993
#
# Poissons Ratio (x) = 0.09746 0.13032
# Poissons Ratio (y) = 0.06906 0.22799
# Poissons Ratio (z) = 0.12368 0.30534
#
# Static dielectric constant tensor:
#      x y z
#    x 3.575490 -0.140980 -0.031950 
#    y -0.140980 3.853530 0.099650 
#    z -0.031950 0.099650 4.134060 
# 
# 
# High freq. dielectric constant tensor:
#      x y z
#    x 1.821130 -0.011990 -0.015350 
#    y -0.011990 1.839660 0.000980 
#    z -0.015350 0.000980 1.836860 
# 
# From -- ./inp_files/45044.got.cif
#   From: 2010.06.25/outbox.cif.g09.slc.cpg/sg2_23_cif.got.tgz:45044.got - 2010.06.27 13:26:56.
