data_PCOD8002723
_publ_section_title
;
Structure prediction by ZEFSAII (Michael W. Deem and Ramdas Pophale) SiO2 
 PCOD8002723
Probable space group: P -1
;
_chemical_formula_sum "Si O2"
_cell_formula_units_Z 16
_cell_length_a 7.003436
_cell_length_b 13.374389
_cell_length_c 13.921732
_cell_angle_alpha 112.423386
_cell_angle_beta 99.824464
_cell_angle_gamma 39.795656
_cell_volume 754.819084
_symmetry_space_group_name_H-M "P -1"
_symmetry_group_IT_number 2
_symmetry_cell_setting 'triclinic'
loop_
_space_group_symop_operation_xyz
x,y,z
-x,-y,-z
loop_
_atom_site_type_symbol
_atom_site_label
_atom_site_fract_x
_atom_site_fract_y
_atom_site_fract_z
Si Si1 0.535186 0.056449 0.896052
Si Si2 0.614539 0.790532 0.863405
Si Si3 0.789615 0.247718 0.186140
Si Si4 0.343342 0.363249 0.514384
Si Si5 0.259237 0.194229 0.544216
Si Si6 0.901873 0.199479 0.391297
Si Si7 0.495397 0.184819 0.737742
Si Si8 0.297333 0.484175 0.754981
O O1 0.435993 0.160153 0.828226
O O2 0.470292 0.954351 0.851085
O O3 0.347115 0.192415 0.015647
O O4 0.893985 0.919037 0.900342
O O5 0.409089 0.773224 0.831000
O O6 0.938369 0.618739 0.785750
O O7 0.880301 0.253352 0.301487
O O8 0.628910 0.419936 0.181902
O O9 0.430827 0.206271 0.497368
O O10 0.575120 0.290689 0.422526
O O11 0.385311 0.425159 0.630439
O O12 0.000000 0.500000 0.500000
O O13 0.216807 0.262869 0.672965
O O14 0.955338 0.277636 0.497793
O O15 0.500000 0.000000 0.500000
O O16 0.176556 0.993287 0.342270
O O17 0.479103 0.323868 0.784037
#
# Coordination Sequence:
#
# PCOD8002723 Si02
#       8
#     2   2   2   2   2   2   2   2
#     4   9  20  39  62  82 107 144 190 234 280 337
#     4  10  20  38  61  83 108 145 186 236 286 326
#     4  10  20  36  58  85 112 143 189 234 277 335
#     4  11  22  36  55  81 113 151 192 231 274 329
#     4   9  20  36  54  79 112 149 189 227 270 329
#     4  10  21  37  58  80 112 155 191 228 275 326
#     4   9  20  39  57  82 117 150 189 234 278 336
#     4  10  22  35  52  83 118 144 183 233 279 334
#
# _framework density 21.197133999999998
#
# number of rings (size 3 to 8) (size 9 to 14) (size 15 to 20)
#    0.000    2.250    0.000    1.875    0.000   13.000 
#    0.000    6.875    0.000    0.000    0.000    0.000 
#    0.000    0.000    0.000    0.000    0.000    0.000 
#
# Total GULP energy -198226.731569 kJ/mol
# GULP energy per Si atom -12389.170723 kJ/mol
# Density = 2.114889 g / cm^3
# Si number density = 21.197134 Si / 1000 Ang^3
#
#
#
# Elastic Constant Matrix: (Units=GPa)
#
#
# Indices 1 2 3 4 5 6 
#
# 1 119.0655 32.6673 17.5788 5.9153 6.7511 18.1739
# 2 32.6673 79.8769 29.6813 0.9893 7.3039 31.3476
# 3 17.5788 29.6813 68.7737 -6.0516 -8.9148 7.3115
# 4 5.9153 0.9893 -6.0516 26.7866 2.8651 -0.5157
# 5 6.7511 7.3039 -8.9148 2.8651 26.8521 3.3799
# 6 18.1739 31.3476 7.3115 -0.5157 3.3799 35.7162
#
#
#
# Elastic Compliance Matrix: (Units=1/GPa)
#
#
# Indices 1 2 3 4 5 6 
#
# 1 0.009875 -0.002142 -0.001773 -0.002349 -0.001907 -0.002635
# 2 -0.002142 0.024462 -0.009159 -0.002130 -0.006675 -0.017904
# 3 -0.001773 -0.009159 0.020014 0.004411 0.008596 0.004094
# 4 -0.002349 -0.002130 0.004411 0.039187 -0.001913 0.002909
# 5 -0.001907 -0.006675 0.008596 -0.001913 0.042465 0.001023
# 6 -0.002635 -0.017904 0.004094 0.002909 0.001023 0.044161
#
#
# Mechanical properties :
#
#
# Convention : Reuss Voigt Hill
#
# Bulk Modulus (GPa) = 35.45861 47.50789 41.48325
# Shear Modulus (GPa) = 23.17901 30.39025 26.78463
#
# Velocity S-wave (km/s) = 3.31039 3.79053 3.55857
# Velocity P-wave (km/s) = 5.60142 6.45124 6.04129
#
# Compressibility (1/GPa) = 0.02820190
#
# Stress axis : x y z
#
# Youngs Moduli (GPa) = 101.26240 40.88004 49.96607
#
# Poissons Ratio (x) = 0.08757 0.08861
# Poissons Ratio (y) = 0.21691 0.45764
# Poissons Ratio (z) = 0.17957 0.37442
#
# Static dielectric constant tensor:
#      x y z
#    x 3.056190 0.365280 -0.330590 
#    y 0.365280 3.954300 -0.001060 
#    z -0.330590 -0.001060 3.567190 
# 
# 
# High freq. dielectric constant tensor:
#      x y z
#    x 1.824030 0.029190 -0.006200 
#    y 0.029190 1.828400 0.007900 
#    z -0.006200 0.007900 1.823400 
# 
# From -- ./inp_files/47432.got.cif
#   From: 2010.06.25/outbox.cif.g09.slc.cpg/sg2_24_cif.got.tgz:47432.got - 2010.06.27 13:26:56.
