data_PCOD8002175
_publ_section_title
;
Structure prediction by ZEFSAII (Michael W. Deem and Ramdas Pophale) SiO2 
 PCOD8002175
Probable space group: P -1
;
_chemical_formula_sum "Si O2"
_cell_formula_units_Z 16
_cell_length_a 14.606805
_cell_length_b 12.028987
_cell_length_c 14.002853
_cell_angle_alpha 31.196564
_cell_angle_beta 125.224044
_cell_angle_gamma 140.189370
_cell_volume 791.659887
_symmetry_space_group_name_H-M "P -1"
_symmetry_group_IT_number 2
_symmetry_cell_setting 'triclinic'
loop_
_space_group_symop_operation_xyz
x,y,z
-x,-y,-z
loop_
_atom_site_type_symbol
_atom_site_label
_atom_site_fract_x
_atom_site_fract_y
_atom_site_fract_z
Si Si1 0.945103 0.144354 0.534971
Si Si2 0.416661 0.638888 0.800656
Si Si3 0.676130 0.033863 0.530873
Si Si4 0.821531 0.319975 0.829710
Si Si5 0.503936 0.550686 0.646857
Si Si6 0.426259 0.221274 0.024566
Si Si7 0.822623 0.902081 0.266321
Si Si8 0.762194 0.713429 0.574205
O O1 0.834640 0.114761 0.566807
O O2 0.028601 0.440574 0.312475
O O3 0.055658 0.122405 0.674494
O O4 0.857320 0.890839 0.593029
O O5 0.306353 0.686754 0.664127
O O6 0.442983 0.695424 0.888346
O O7 0.583011 0.854433 0.699254
O O8 0.347926 0.330470 0.948178
O O9 0.583822 0.863118 0.504553
O O10 0.767508 0.464252 0.746336
O O11 0.700331 0.108375 0.832308
O O12 0.848085 0.160640 0.039028
O O13 0.336590 0.397462 0.632358
O O14 0.591949 0.566772 0.597074
O O15 0.507727 0.378115 0.859624
O O16 0.828455 0.927767 0.366388
#
# Coordination Sequence:
#
# PCOD8002175 Si02
#       8
#     2   2   2   2   2   2   2   2
#     4  10  22  39  54  84 116 147 187 225 271 345
#     4   9  18  37  61  80 108 142 184 236 284 321
#     4   9  19  37  60  81 108 145 185 228 283 332
#     4  10  21  37  57  81 118 151 182 225 282 326
#     4   9  19  36  56  86 111 141 189 232 271 329
#     4   9  19  35  57  84 111 138 184 236 278 328
#     4  10  20  35  57  79 119 150 181 227 276 321
#     4  10  21  37  56  83 118 145 193 227 263 335
#
# _framework density 20.210699999999999
#
# number of rings (size 3 to 8) (size 9 to 14) (size 15 to 20)
#    0.000    2.500    0.000    1.875    3.500    4.000 
#   13.500    1.250    0.000    0.000    0.000    0.000 
#    0.000    0.000    0.000    0.000    0.000    0.000 
#
# Total GULP energy -198295.988618 kJ/mol
# GULP energy per Si atom -12393.499289 kJ/mol
# Density = 2.016470 g / cm^3
# Si number density = 20.210700 Si / 1000 Ang^3
#
#
#
# Elastic Constant Matrix: (Units=GPa)
#
#
# Indices 1 2 3 4 5 6 
#
# 1 88.7404 21.0019 20.2269 0.9559 3.1449 8.7403
# 2 21.0019 53.1765 21.0120 -9.2030 6.1975 8.9193
# 3 20.2269 21.0120 94.1873 -3.3982 13.5530 -1.7471
# 4 0.9559 -9.2030 -3.3982 33.2959 -2.7839 0.5407
# 5 3.1449 6.1975 13.5530 -2.7839 18.2380 1.2984
# 6 8.7403 8.9193 -1.7471 0.5407 1.2984 24.2244
#
#
#
# Elastic Compliance Matrix: (Units=1/GPa)
#
#
# Indices 1 2 3 4 5 6 
#
# 1 0.013046 -0.004122 -0.002104 -0.001615 0.000706 -0.003343
# 2 -0.004122 0.024877 -0.004130 0.006441 -0.003125 -0.007946
# 3 -0.002104 -0.004130 0.013253 -0.000493 -0.008421 0.003698
# 4 -0.001615 0.006441 -0.000493 0.032152 0.003558 -0.002732
# 5 0.000706 -0.003125 -0.008421 0.003558 0.062796 -0.003157
# 6 -0.003343 -0.007946 0.003698 -0.002732 -0.003157 0.045909
#
#
# Mechanical properties :
#
#
# Convention : Reuss Voigt Hill
#
# Bulk Modulus (GPa) = 32.82620 40.06511 36.44565
# Shear Modulus (GPa) = 22.43170 26.74255 24.58713
#
# Velocity S-wave (km/s) = 3.33512 3.64151 3.49168
# Velocity P-wave (km/s) = 5.57745 6.12761 5.85899
#
# Compressibility (1/GPa) = 0.03046347
#
# Stress axis : x y z
#
# Youngs Moduli (GPa) = 76.65453 40.19796 75.45593
#
# Poissons Ratio (x) = 0.16570 0.15875
# Poissons Ratio (y) = 0.31598 0.31162
# Poissons Ratio (z) = 0.16127 0.16601
#
# Static dielectric constant tensor:
#      x y z
#    x 3.738750 -0.032560 -0.011990 
#    y -0.032560 3.665890 -0.047010 
#    z -0.011990 -0.047010 3.632840 
# 
# 
# High freq. dielectric constant tensor:
#      x y z
#    x 1.780260 -0.005800 0.002690 
#    y -0.005800 1.778740 -0.000590 
#    z 0.002690 -0.000590 1.787450 
# 
# From -- ./inp_files/532278.got.cif
#   From: 2010.06.25/outbox.cif.g09.slc.cpg/sg2_267_cif.got.tgz:532278.got - 2010.06.27 13:26:56.
