data_PCOD8002499
_publ_section_title
;
Structure prediction by ZEFSAII (Michael W. Deem and Ramdas Pophale) SiO2 
 PCOD8002499
Probable space group: P -1
;
_chemical_formula_sum "Si O2"
_cell_formula_units_Z 16
_cell_length_a 9.645112
_cell_length_b 11.921055
_cell_length_c 9.770640
_cell_angle_alpha 89.042610
_cell_angle_beta 135.908166
_cell_angle_gamma 101.848452
_cell_volume 750.801863
_symmetry_space_group_name_H-M "P -1"
_symmetry_group_IT_number 2
_symmetry_cell_setting 'triclinic'
loop_
_space_group_symop_operation_xyz
x,y,z
-x,-y,-z
loop_
_atom_site_type_symbol
_atom_site_label
_atom_site_fract_x
_atom_site_fract_y
_atom_site_fract_z
Si Si1 0.503730 0.140194 0.098680
Si Si2 0.726785 0.472736 0.010944
Si Si3 0.135766 0.656421 0.345704
Si Si4 0.736272 0.102643 0.014362
Si Si5 0.607341 0.258601 0.731439
Si Si6 0.396958 0.605073 0.774279
Si Si7 0.143144 0.130136 0.446101
Si Si8 0.905958 0.126421 0.543170
O O1 0.551983 0.132666 0.972138
O O2 0.462297 0.262406 0.104382
O O3 0.702088 0.122866 0.315409
O O4 0.301907 0.037944 0.005174
O O5 0.716829 0.445257 0.165375
O O6 0.952510 0.560775 0.142921
O O7 0.703448 0.358263 0.907860
O O8 0.547419 0.529731 0.833947
O O9 0.325224 0.699962 0.374160
O O10 0.220621 0.599936 0.536622
O O11 0.045732 0.764308 0.321909
O O12 0.966219 0.164976 0.230999
O O13 0.702261 0.150781 0.839330
O O14 0.358654 0.220799 0.556719
O O15 0.101210 0.141995 0.578317
O O16 0.137927 0.997193 0.407535
#
# Coordination Sequence:
#
# PCOD8002499 Si02
#       8
#     2   2   2   2   2   2   2   2
#     4   9  17  37  63  93 128 160 212 265 312 369
#     4  11  25  42  69  92 125 173 224 263 308 385
#     4  11  26  43  66  93 136 169 206 273 325 377
#     4  10  20  35  63  94 129 167 205 259 317 386
#     4  12  25  43  62  99 135 169 208 262 333 384
#     4  10  23  42  67  99 119 168 221 273 306 375
#     4  10  22  37  65  95 127 171 211 260 312 382
#     4   9  20  39  63  94 125 166 217 259 310 377
#
# _framework density 21.310547
#
# number of rings (size 3 to 8) (size 9 to 14) (size 15 to 20)
#    0.000    1.750    2.500    0.750    7.000    3.000 
#    0.000    0.625    0.000    0.000    0.000    0.000 
#    0.000    0.000    0.000    0.000    0.000    0.000 
#
# Total GULP energy -198435.045849 kJ/mol
# GULP energy per Si atom -12402.190366 kJ/mol
# Density = 2.126204 g / cm^3
# Si number density = 21.310547 Si / 1000 Ang^3
#
#
#
# Elastic Constant Matrix: (Units=GPa)
#
#
# Indices 1 2 3 4 5 6 
#
# 1 88.2905 37.7072 33.4575 3.6316 15.1293 16.0620
# 2 37.7072 95.6056 31.4987 7.9984 9.3917 2.4968
# 3 33.4575 31.4987 63.1529 7.0726 11.4328 12.5094
# 4 3.6316 7.9984 7.0726 35.1254 11.8022 6.7776
# 5 15.1293 9.3917 11.4328 11.8022 18.8035 4.4232
# 6 16.0620 2.4968 12.5094 6.7776 4.4232 22.9765
#
#
#
# Elastic Compliance Matrix: (Units=1/GPa)
#
#
# Indices 1 2 3 4 5 6 
#
# 1 0.018442 -0.005109 -0.003905 0.005680 -0.011188 -0.009733
# 2 -0.005109 0.014257 -0.005331 -0.003000 0.000783 0.005659
# 3 -0.003905 -0.005331 0.023382 0.000868 -0.006997 -0.008330
# 4 0.005680 -0.003000 0.000868 0.039057 -0.025594 -0.010711
# 5 -0.011188 0.000783 -0.006997 -0.025594 0.081301 0.003444
# 6 -0.009733 0.005659 -0.008330 -0.010711 0.003444 0.056743
#
#
# Mechanical properties :
#
#
# Convention : Reuss Voigt Hill
#
# Bulk Modulus (GPa) = 36.50817 50.26397 43.38607
# Shear Modulus (GPa) = 18.44996 25.00681 21.72838
#
# Velocity S-wave (km/s) = 2.94558 3.42928 3.19659
# Velocity P-wave (km/s) = 5.36072 6.27037 5.83330
#
# Compressibility (1/GPa) = 0.02739113
#
# Stress axis : x y z
#
# Youngs Moduli (GPa) = 54.22368 70.13919 42.76816
#
# Poissons Ratio (x) = 0.35835 0.16701
# Poissons Ratio (y) = 0.27703 0.22800
# Poissons Ratio (z) = 0.21174 0.37392
#
# Static dielectric constant tensor:
#      x y z
#    x 3.596120 -0.057980 0.031110 
#    y -0.057980 4.058120 0.014600 
#    z 0.031110 0.014600 3.672400 
# 
# 
# High freq. dielectric constant tensor:
#      x y z
#    x 1.805830 0.001490 0.014170 
#    y 0.001490 1.845130 -0.000480 
#    z 0.014170 -0.000480 1.835850 
# 
# From -- ./inp_files/188058.got.cif
#   From: 2010.06.25/outbox.cif.g09.slc.cpg/sg2_95_cif.got.tgz:188058.got - 2010.06.27 13:26:56.
