data_PCOD8002794
_publ_section_title
;
Structure prediction by ZEFSAII (Michael W. Deem and Ramdas Pophale) SiO2 
 PCOD8002794
Probable space group: P -1
;
_chemical_formula_sum "Si O2"
_cell_formula_units_Z 16
_cell_length_a 9.098041
_cell_length_b 5.401301
_cell_length_c 21.325735
_cell_angle_alpha 75.891185
_cell_angle_beta 50.843310
_cell_angle_gamma 51.624900
_cell_volume 617.833604
_symmetry_space_group_name_H-M "P -1"
_symmetry_group_IT_number 2
_symmetry_cell_setting 'triclinic'
loop_
_space_group_symop_operation_xyz
x,y,z
-x,-y,-z
loop_
_atom_site_type_symbol
_atom_site_label
_atom_site_fract_x
_atom_site_fract_y
_atom_site_fract_z
Si Si1 0.077498 0.821416 0.836251
Si Si2 0.828688 0.684747 0.708354
Si Si3 0.273749 0.473434 0.991287
Si Si4 0.366581 0.281377 0.568192
Si Si5 0.855719 0.547988 0.842920
Si Si6 0.721343 0.272557 0.544067
Si Si7 0.379653 0.586883 0.302938
Si Si8 0.783760 0.942234 0.033341
O O1 0.009660 0.673368 0.809767
O O2 0.362097 0.568388 0.786906
O O3 0.940849 0.862043 0.933807
O O4 0.014296 0.162276 0.812041
O O5 0.731961 0.562966 0.692197
O O6 0.114992 0.386525 0.657106
O O7 0.711597 0.726355 0.806018
O O8 0.776389 0.020852 0.682323
O O9 0.374361 0.180809 0.932038
O O10 0.334020 0.346817 0.054693
O O11 0.379380 0.667331 0.933893
O O12 0.975624 0.734517 0.050606
O O13 0.550844 0.167892 0.584022
O O14 0.290532 0.588494 0.528875
O O15 0.500000 0.000000 0.500000
O O16 0.605578 0.508531 0.621583
O O17 0.000000 0.000000 0.500000
#
# Coordination Sequence:
#
# PCOD8002794 Si02
#       8
#     2   2   2   2   2   2   2   2
#     4  10  20  36  59  86 113 156 198 251 296 355
#     4  12  26  42  60  89 122 160 200 243 301 361
#     4   8  14  26  48  79 109 146 182 248 294 342
#     4  11  26  41  69  92 121 160 199 252 299 363
#     4  10  20  36  59  84 118 150 203 247 298 357
#     4  11  24  45  65  93 123 156 202 246 305 359
#     4  12  26  41  63  85 124 161 197 247 300 359
#     4   8  14  26  48  79 111 139 193 239 296 347
#
# _framework density 25.896941000000002
#
# number of rings (size 3 to 8) (size 9 to 14) (size 15 to 20)
#    0.000    1.750    1.250    3.000    5.250    1.000 
#    0.000    0.000    0.000    1.500    0.000    0.000 
#    0.000    0.000    0.000    0.000    0.000    0.000 
#
# Total GULP energy -198225.230633 kJ/mol
# GULP energy per Si atom -12389.076915 kJ/mol
# Density = 2.583800 g / cm^3
# Si number density = 25.896941 Si / 1000 Ang^3
#
#
#
# Elastic Constant Matrix: (Units=GPa)
#
#
# Indices 1 2 3 4 5 6 
#
# 1 171.7491 54.5686 22.9424 5.3246 16.8425 21.3373
# 2 54.5686 96.0393 4.9654 7.1569 4.0718 33.1936
# 3 22.9424 4.9654 72.3264 0.4406 11.3230 -4.3419
# 4 5.3246 7.1569 0.4406 36.6668 -11.5203 1.7614
# 5 16.8425 4.0718 11.3230 -11.5203 42.3456 4.3209
# 6 21.3373 33.1936 -4.3419 1.7614 4.3209 61.6280
#
#
#
# Elastic Compliance Matrix: (Units=1/GPa)
#
#
# Indices 1 2 3 4 5 6 
#
# 1 0.007629 -0.003898 -0.001795 -0.001064 -0.002421 -0.000468
# 2 -0.003898 0.015114 -0.000246 -0.001954 0.000323 -0.006775
# 3 -0.001795 -0.000246 0.015151 -0.001186 -0.003853 0.002126
# 4 -0.001064 -0.001954 -0.001186 0.030759 0.009316 -0.000195
# 5 -0.002421 0.000323 -0.003853 0.009316 0.028302 -0.001858
# 6 -0.000468 -0.006775 0.002126 -0.000195 -0.001858 0.020323
#
#
# Mechanical properties :
#
#
# Convention : Reuss Voigt Hill
#
# Bulk Modulus (GPa) = 38.44075 56.11863 47.27969
# Shear Modulus (GPa) = 36.27702 45.30399 40.79051
#
# Velocity S-wave (km/s) = 3.74682 4.18712 3.97307
# Velocity P-wave (km/s) = 5.79605 6.71513 6.27244
#
# Compressibility (1/GPa) = 0.02601406
#
# Stress axis : x y z
#
# Youngs Moduli (GPa) = 131.07145 66.16522 66.00421
#
# Poissons Ratio (x) = 0.25794 0.11848
# Poissons Ratio (y) = 0.51098 0.01626
# Poissons Ratio (z) = 0.23528 0.01630
#
# Static dielectric constant tensor:
#      x y z
#    x 5.195070 0.515050 0.016010 
#    y 0.515050 4.859170 0.011490 
#    z 0.016010 0.011490 4.366440 
# 
# 
# High freq. dielectric constant tensor:
#      x y z
#    x 2.057260 0.009010 0.014570 
#    y 0.009010 2.041630 -0.003910 
#    z 0.014570 -0.003910 2.021080 
# 
# From -- ./inp_files/10733.got.cif
#   From: 2010.06.25/outbox.cif.g09.slc.cpg/sg2_6_cif.got.tgz:10733.got - 2010.06.27 13:26:56.
