data_PCOD8002302
_publ_section_title
;
Structure prediction by ZEFSAII (Michael W. Deem and Ramdas Pophale) SiO2 
 PCOD8002302
Probable space group: P -1
;
_chemical_formula_sum "Si O2"
_cell_formula_units_Z 16
_cell_length_a 14.380972
_cell_length_b 9.393893
_cell_length_c 12.572558
_cell_angle_alpha 142.375225
_cell_angle_beta 129.450987
_cell_angle_gamma 69.707478
_cell_volume 755.273322
_symmetry_space_group_name_H-M "P -1"
_symmetry_group_IT_number 2
_symmetry_cell_setting 'triclinic'
loop_
_space_group_symop_operation_xyz
x,y,z
-x,-y,-z
loop_
_atom_site_type_symbol
_atom_site_label
_atom_site_fract_x
_atom_site_fract_y
_atom_site_fract_z
Si Si1 0.006598 0.626039 0.196493
Si Si2 0.393420 0.038745 0.816576
Si Si3 0.661386 0.344793 0.284934
Si Si4 0.494740 0.885540 0.271417
Si Si5 0.657227 0.851840 0.552322
Si Si6 0.828716 0.828025 0.319596
Si Si7 0.919119 0.171164 0.006096
Si Si8 0.228686 0.592753 0.819987
O O1 0.890603 0.726553 0.204996
O O2 0.125232 0.878145 0.445951
O O3 0.000000 0.500000 0.000000
O O4 0.012087 0.416064 0.160685
O O5 0.431288 0.955662 0.680933
O O6 0.316102 0.229484 0.857764
O O7 0.305557 0.796727 0.674329
O O8 0.519186 0.188441 0.058241
O O9 0.665762 0.615644 0.482111
O O10 0.765364 0.382168 0.288154
O O11 0.597826 0.790296 0.353781
O O12 0.446466 0.066947 0.412930
O O13 0.371588 0.661644 0.011942
O O14 0.801521 0.043910 0.764453
O O15 0.841856 0.685218 0.353026
O O16 0.851472 0.233883 0.098726
O O17 0.000000 0.000000 0.000000
#
# Coordination Sequence:
#
# PCOD8002302 Si02
#       8
#     2   2   2   2   2   2   2   2
#     4  10  24  41  59  88 116 157 210 247 292 350
#     4  10  21  36  57  87 120 149 187 244 300 360
#     4  10  21  35  57  89 116 149 190 234 309 365
#     4   9  19  36  59  88 116 147 194 239 294 355
#     4  10  20  35  59  86 113 153 193 239 292 356
#     4  10  21  40  62  84 120 159 197 252 295 342
#     4  10  23  40  58  85 119 153 198 247 295 353
#     4   9  19  39  62  85 116 154 192 242 296 358
#
# _framework density 21.184384000000001
#
# number of rings (size 3 to 8) (size 9 to 14) (size 15 to 20)
#    0.000    2.250    0.000    1.500    5.250    4.500 
#    0.000    0.625    0.000    0.000    0.000    0.000 
#    0.000    0.000    0.000    0.000    0.000    0.000 
#
# Total GULP energy -198220.386811 kJ/mol
# GULP energy per Si atom -12388.774176 kJ/mol
# Density = 2.113617 g / cm^3
# Si number density = 21.184384 Si / 1000 Ang^3
#
#
#
# Elastic Constant Matrix: (Units=GPa)
#
#
# Indices 1 2 3 4 5 6 
#
# 1 105.6345 54.1160 38.2203 1.0147 1.7931 8.9149
# 2 54.1160 112.7093 40.2284 19.5659 4.6461 3.8471
# 3 38.2203 40.2284 55.6592 13.4058 -14.7116 3.8710
# 4 1.0147 19.5659 13.4058 30.4277 -1.5207 5.4274
# 5 1.7931 4.6461 -14.7116 -1.5207 21.7685 1.2671
# 6 8.9149 3.8471 3.8710 5.4274 1.2671 39.7314
#
#
#
# Elastic Compliance Matrix: (Units=1/GPa)
#
#
# Indices 1 2 3 4 5 6 
#
# 1 0.016269 -0.004681 -0.011356 0.007622 -0.007315 -0.002899
# 2 -0.004681 0.016055 -0.009533 -0.006768 -0.010053 0.001670
# 3 -0.011356 -0.009533 0.043755 -0.011130 0.031780 -0.000285
# 4 0.007622 -0.006768 -0.011130 0.042713 -0.003390 -0.005697
# 5 -0.007315 -0.010053 0.031780 -0.003390 0.070058 -0.002253
# 6 -0.002899 0.001670 -0.000285 -0.005697 -0.002253 0.026536
#
#
# Mechanical properties :
#
#
# Convention : Reuss Voigt Hill
#
# Bulk Modulus (GPa) = 40.09780 59.90359 50.00069
# Shear Modulus (GPa) = 18.19260 27.81474 23.00367
#
# Velocity S-wave (km/s) = 2.93366 3.62744 3.29884
# Velocity P-wave (km/s) = 5.51763 6.77370 6.17768
#
# Compressibility (1/GPa) = 0.02493902
#
# Stress axis : x y z
#
# Youngs Moduli (GPa) = 61.46685 62.28760 22.85461
#
# Poissons Ratio (x) = 0.29156 0.25954
# Poissons Ratio (y) = 0.28771 0.21787
# Poissons Ratio (z) = 0.69802 0.59377
#
# Static dielectric constant tensor:
#      x y z
#    x 4.068650 0.206870 0.086470 
#    y 0.206870 4.070220 0.122870 
#    z 0.086470 0.122870 3.752210 
# 
# 
# High freq. dielectric constant tensor:
#      x y z
#    x 1.842390 0.001130 0.003310 
#    y 0.001130 1.827420 0.011280 
#    z 0.003310 0.011280 1.813960 
# 
# From -- ./inp_files/295537.got.cif
#   From: 2010.06.25/outbox.cif.g09.slc.cpg/sg2_148_cif.got.tgz:295537.got - 2010.06.27 13:26:56.
