data_PCOD8002327
_publ_section_title
;
Structure prediction by ZEFSAII (Michael W. Deem and Ramdas Pophale) SiO2 
 PCOD8002327
Probable space group: P -1
;
_chemical_formula_sum "Si O2"
_cell_formula_units_Z 14
_cell_length_a 6.339003
_cell_length_b 14.223809
_cell_length_c 14.712483
_cell_angle_alpha 140.441435
_cell_angle_beta 125.868754
_cell_angle_gamma 71.335437
_cell_volume 661.950513
_symmetry_space_group_name_H-M "P -1"
_symmetry_group_IT_number 2
_symmetry_cell_setting 'triclinic'
loop_
_space_group_symop_operation_xyz
x,y,z
-x,-y,-z
loop_
_atom_site_type_symbol
_atom_site_label
_atom_site_fract_x
_atom_site_fract_y
_atom_site_fract_z
Si Si1 0.787321 0.596624 0.033121
Si Si2 0.493194 0.349546 0.269585
Si Si3 0.627367 0.345437 0.509070
Si Si4 0.024258 0.760058 0.047434
Si Si5 0.734705 0.959848 0.781328
Si Si6 0.276546 0.890224 0.923240
Si Si7 0.798028 0.529209 0.179869
O O1 0.874635 0.740419 0.093442
O O2 0.793656 0.640689 0.174662
O O3 0.483321 0.498617 0.856955
O O4 0.000000 0.500000 0.000000
O O5 0.546333 0.319396 0.364801
O O6 0.508072 0.527262 0.386501
O O7 0.701151 0.285592 0.212652
O O8 0.192084 0.251508 0.097244
O O9 0.514783 0.184650 0.412026
O O10 0.950888 0.396242 0.636932
O O11 0.214889 0.931525 0.214211
O O12 0.189012 0.634234 0.979552
O O13 0.981972 0.890123 0.816071
O O14 0.667899 0.060656 0.922112
O O15 0.500000 0.000000 0.000000
#
# Coordination Sequence:
#
# PCOD8002327 Si02
#       7
#     2   2   2   2   2   2   2
#     4   9  19  40  64  85 107 154 214 246 293 365
#     4  10  20  38  57  86 129 164 205 235 294 357
#     4  10  21  39  57  96 129 155 196 256 308 352
#     4  10  20  35  59  90 116 162 204 238 291 370
#     4  11  22  35  57  89 130 158 207 246 294 363
#     4  11  20  37  56  81 124 182 207 233 282 365
#     4   9  20  39  64  84 116 153 202 257 296 354
#
# _framework density 21.149615000000001
#
# number of rings (size 3 to 8) (size 9 to 14) (size 15 to 20)
#    0.000    2.000    2.857    0.857    2.000    0.571 
#    7.714    0.714    0.000    7.714    0.000    0.000 
#    0.000    0.000    0.000    0.000    0.000    0.000 
#
# Total GULP energy -173525.431263 kJ/mol
# GULP energy per Si atom -12394.673662 kJ/mol
# Density = 2.110148 g / cm^3
# Si number density = 21.149615 Si / 1000 Ang^3
#
#
#
# Elastic Constant Matrix: (Units=GPa)
#
#
# Indices 1 2 3 4 5 6 
#
# 1 124.8930 49.8318 42.5160 13.1190 6.3553 -2.0414
# 2 49.8318 107.5031 54.1434 9.4863 15.3157 17.4615
# 3 42.5160 54.1434 73.1123 22.0539 7.3282 -4.1839
# 4 13.1190 9.4863 22.0539 33.7317 -1.6156 7.8291
# 5 6.3553 15.3157 7.3282 -1.6156 31.1857 8.0899
# 6 -2.0414 17.4615 -4.1839 7.8291 8.0899 38.1787
#
#
#
# Elastic Compliance Matrix: (Units=1/GPa)
#
#
# Indices 1 2 3 4 5 6 
#
# 1 0.010688 -0.003820 -0.002592 -0.002000 -0.000456 0.002541
# 2 -0.003820 0.021180 -0.016973 0.009652 -0.001664 -0.013378
# 3 -0.002592 -0.016973 0.035849 -0.021878 -0.005136 0.017128
# 4 -0.002000 0.009652 -0.021878 0.046607 0.007933 -0.018157
# 5 -0.000456 -0.001664 -0.005136 0.007933 0.037005 -0.009294
# 6 0.002541 -0.013378 0.017128 -0.018157 -0.009294 0.040017
#
#
# Mechanical properties :
#
#
# Convention : Reuss Voigt Hill
#
# Bulk Modulus (GPa) = 47.74273 66.49895 57.12084
# Shear Modulus (GPa) = 20.39989 31.22035 25.81012
#
# Velocity S-wave (km/s) = 3.10909 3.84626 3.49715
# Velocity P-wave (km/s) = 5.95915 7.15789 6.58585
#
# Compressibility (1/GPa) = 0.02094560
#
# Stress axis : x y z
#
# Youngs Moduli (GPa) = 93.56022 47.21472 27.89497
#
# Poissons Ratio (x) = 0.18038 0.07230
# Poissons Ratio (y) = 0.35744 0.47347
# Poissons Ratio (z) = 0.24250 0.80139
#
# Static dielectric constant tensor:
#      x y z
#    x 4.117770 0.044390 -0.014400 
#    y 0.044390 4.122090 0.079470 
#    z -0.014400 0.079470 3.671550 
# 
# 
# High freq. dielectric constant tensor:
#      x y z
#    x 1.833620 -0.002040 0.011780 
#    y -0.002040 1.829430 0.002750 
#    z 0.011780 0.002750 1.791320 
# 
# From -- ./inp_files/43373.got.cif
#   From: 2010.06.25/outbox.cif.g09.slc.cpg/sg2_22_cif.got.tgz:43373.got - 2010.06.27 13:26:56.
