data_PCOD8002415
_publ_section_title
;
Structure prediction by ZEFSAII (Michael W. Deem and Ramdas Pophale) SiO2 
 PCOD8002415
Probable space group: P -1
;
_chemical_formula_sum "Si O2"
_cell_formula_units_Z 16
_cell_length_a 14.422764
_cell_length_b 20.477171
_cell_length_c 23.051247
_cell_angle_alpha 19.446845
_cell_angle_beta 29.349025
_cell_angle_gamma 19.880391
_cell_volume 763.873160
_symmetry_space_group_name_H-M "P -1"
_symmetry_group_IT_number 2
_symmetry_cell_setting 'triclinic'
loop_
_space_group_symop_operation_xyz
x,y,z
-x,-y,-z
loop_
_atom_site_type_symbol
_atom_site_label
_atom_site_fract_x
_atom_site_fract_y
_atom_site_fract_z
Si Si1 0.579563 0.139364 0.215833
Si Si2 0.213663 0.592413 0.450862
Si Si3 0.045376 0.336174 0.881849
Si Si4 0.012602 0.107790 0.202458
Si Si5 0.875463 0.090300 0.867966
Si Si6 0.280773 0.273444 0.430848
Si Si7 0.492644 0.718932 0.345158
Si Si8 0.399275 0.618261 0.107852
O O1 0.267032 0.392050 0.196620
O O2 0.678069 0.842955 0.427619
O O3 0.602203 0.188965 0.094693
O O4 0.798440 0.113458 0.152664
O O5 0.301290 0.634343 0.308529
O O6 0.486565 0.302950 0.577287
O O7 0.018349 0.555056 0.574938
O O8 0.066352 0.855255 0.355800
O O9 0.229322 0.390256 0.738683
O O10 0.052865 0.243534 0.019183
O O11 0.187529 0.084689 0.968305
O O12 0.702184 0.350670 0.192295
O O13 0.209662 0.022263 0.220618
O O14 0.810172 0.178698 0.896295
O O15 0.303100 0.492343 0.233005
O O16 0.500000 0.000000 0.500000
O O17 0.500000 0.500000 0.500000
#
# Coordination Sequence:
#
# PCOD8002415 Si02
#       8
#     2   2   2   2   2   2   2   2
#     4  10  23  37  60  90 119 158 196 238 295 355
#     4   9  19  35  55  86 113 150 199 245 289 346
#     4  10  20  36  62  86 116 156 196 248 297 346
#     4   9  19  37  58  85 113 151 200 247 289 342
#     4  10  22  39  56  87 127 157 192 235 301 363
#     4  11  21  35  62  88 121 154 199 243 297 346
#     4  10  20  35  61  89 112 146 206 255 289 338
#     4  11  23  39  59  88 128 160 191 244 294 360
#
# _framework density 20.945886999999999
#
# number of rings (size 3 to 8) (size 9 to 14) (size 15 to 20)
#    0.000    2.000    1.250    1.875    7.000    2.000 
#    2.250    1.250    0.000    0.000    0.000    0.000 
#    0.000    0.000    0.000    0.000    0.000    0.000 
#
# Total GULP energy -198238.764723 kJ/mol
# GULP energy per Si atom -12389.922795 kJ/mol
# Density = 2.089821 g / cm^3
# Si number density = 20.945887 Si / 1000 Ang^3
#
#
#
# Elastic Constant Matrix: (Units=GPa)
#
#
# Indices 1 2 3 4 5 6 
#
# 1 110.3000 40.7515 37.5386 2.1783 16.9186 -19.9547
# 2 40.7515 63.8502 24.6389 10.2181 -9.9923 -12.1096
# 3 37.5386 24.6389 70.9137 16.8675 2.9501 -12.9293
# 4 2.1783 10.2181 16.8675 23.8615 -9.1895 0.7572
# 5 16.9186 -9.9923 2.9501 -9.1895 38.6318 -5.8717
# 6 -19.9547 -12.1096 -12.9293 0.7572 -5.8717 30.6699
#
#
#
# Elastic Compliance Matrix: (Units=1/GPa)
#
#
# Indices 1 2 3 4 5 6 
#
# 1 0.015914 -0.009366 -0.005013 0.002985 -0.007848 0.002967
# 2 -0.009366 0.026011 -0.002473 -0.004568 0.010737 0.005302
# 3 -0.005013 -0.002473 0.022379 -0.015663 -0.003121 0.004985
# 4 0.002985 -0.004568 -0.015663 0.059463 0.011995 -0.005636
# 5 -0.007848 0.010737 -0.003121 0.011995 0.035858 0.004386
# 6 0.002967 0.005302 0.004985 -0.005636 0.004386 0.039710
#
#
# Mechanical properties :
#
#
# Convention : Reuss Voigt Hill
#
# Bulk Modulus (GPa) = 32.67866 50.10242 41.39054
# Shear Modulus (GPa) = 20.55608 28.10831 24.33219
#
# Velocity S-wave (km/s) = 3.13611 3.66724 3.41202
# Velocity P-wave (km/s) = 5.36180 6.47328 5.94358
#
# Compressibility (1/GPa) = 0.03060101
#
# Stress axis : x y z
#
# Youngs Moduli (GPa) = 62.83771 38.44588 44.68535
#
# Poissons Ratio (x) = 0.36008 0.22399
# Poissons Ratio (y) = 0.58853 0.11050
# Poissons Ratio (z) = 0.31497 0.09507
#
# Static dielectric constant tensor:
#      x y z
#    x 4.133700 -0.542900 0.562520 
#    y -0.542900 3.670250 0.020510 
#    z 0.562520 0.020510 4.165770 
# 
# 
# High freq. dielectric constant tensor:
#      x y z
#    x 1.812520 -0.026040 0.028080 
#    y -0.026040 1.783890 0.017750 
#    z 0.028080 0.017750 1.835160 
# 
# From -- ./inp_files/216734.got.cif
#   From: 2010.06.25/outbox.cif.g09.slc.cpg/sg2_109_cif.got.tgz:216734.got - 2010.06.27 13:26:56.
