data_PCOD8002462
_publ_section_title
;
Structure prediction by ZEFSAII (Michael W. Deem and Ramdas Pophale) SiO2 
 PCOD8002462
Probable space group: P -1
;
_chemical_formula_sum "Si O2"
_cell_formula_units_Z 16
_cell_length_a 9.505009
_cell_length_b 11.382687
_cell_length_c 14.602887
_cell_angle_alpha 30.886102
_cell_angle_beta 64.902959
_cell_angle_gamma 67.491640
_cell_volume 733.856718
_symmetry_space_group_name_H-M "P -1"
_symmetry_group_IT_number 2
_symmetry_cell_setting 'triclinic'
loop_
_space_group_symop_operation_xyz
x,y,z
-x,-y,-z
loop_
_atom_site_type_symbol
_atom_site_label
_atom_site_fract_x
_atom_site_fract_y
_atom_site_fract_z
Si Si1 0.868251 0.204825 0.614540
Si Si2 0.207668 0.919665 0.088127
Si Si3 0.320903 0.428100 0.106241
Si Si4 0.642071 0.468284 0.782408
Si Si5 0.786085 0.873542 0.384241
Si Si6 0.313921 0.704668 0.761924
Si Si7 0.119336 0.260444 0.742106
Si Si8 0.820527 0.054453 0.531021
O O1 0.782934 0.071578 0.809924
O O2 0.849960 0.474684 0.457463
O O3 0.788051 0.152247 0.575770
O O4 0.045980 0.110032 0.625149
O O5 0.360261 0.784147 0.094083
O O6 0.064466 0.769922 0.193880
O O7 0.188577 0.172749 0.879581
O O8 0.260431 0.542241 0.141615
O O9 0.291243 0.158925 0.304699
O O10 0.500000 0.500000 0.000000
O O11 0.229759 0.531391 0.972494
O O12 0.724706 0.624019 0.582501
O O13 0.474755 0.582133 0.771959
O O14 0.798788 0.896360 0.255575
O O15 0.670142 0.062745 0.337679
O O16 0.222930 0.751541 0.661863
O O17 0.000000 0.000000 0.500000
#
# Coordination Sequence:
#
# PCOD8002462 Si02
#       8
#     2   2   2   2   2   2   2   2
#     4  11  21  39  60  87 131 163 210 266 317 379
#     4  10  20  36  60  93 125 163 214 267 314 377
#     4  10  24  41  64  96 128 167 216 265 318 389
#     4  11  19  38  65  92 129 162 214 268 320 382
#     4  11  18  37  62  94 125 162 213 267 323 373
#     4  11  24  39  63  93 129 173 209 267 324 382
#     4  10  20  35  62  91 122 165 212 268 320 368
#     4  12  25  44  64  94 134 175 214 267 323 385
#
# _framework density 21.802622
#
# number of rings (size 3 to 8) (size 9 to 14) (size 15 to 20)
#    0.000    1.250    5.000    1.875    1.750    1.500 
#    0.000    0.625    0.000    3.750    0.000    0.000 
#    0.000    0.000    0.000    0.000    0.000    0.000 
#
# Total GULP energy -198249.688185 kJ/mol
# GULP energy per Si atom -12390.605512 kJ/mol
# Density = 2.175300 g / cm^3
# Si number density = 21.802622 Si / 1000 Ang^3
#
#
#
# Elastic Constant Matrix: (Units=GPa)
#
#
# Indices 1 2 3 4 5 6 
#
# 1 58.0088 34.9801 32.0932 8.7472 17.1642 1.5550
# 2 34.9801 114.2471 22.4484 13.8086 23.6826 -5.1010
# 3 32.0932 22.4484 105.8638 21.9240 32.9269 -1.5513
# 4 8.7472 13.8086 21.9240 32.3181 10.4646 9.5434
# 5 17.1642 23.6826 32.9269 10.4646 40.2898 7.0636
# 6 1.5550 -5.1010 -1.5513 9.5434 7.0636 28.9277
#
#
#
# Elastic Compliance Matrix: (Units=1/GPa)
#
#
# Indices 1 2 3 4 5 6 
#
# 1 0.024734 -0.006321 -0.005915 0.001447 -0.001876 -0.002781
# 2 -0.006321 0.012364 0.002313 -0.004826 -0.006220 0.005755
# 3 -0.005915 0.002313 0.016101 -0.008889 -0.010952 0.007196
# 4 0.001447 -0.004826 -0.008889 0.042966 0.001104 -0.015850
# 5 -0.001876 -0.006220 -0.010952 0.001104 0.039993 -0.011713
# 6 -0.002781 0.005755 0.007196 -0.015850 -0.011713 0.044208
#
#
# Mechanical properties :
#
#
# Convention : Reuss Voigt Hill
#
# Bulk Modulus (GPa) = 29.98200 50.79592 40.38896
# Shear Modulus (GPa) = 23.65970 32.88032 28.27001
#
# Velocity S-wave (km/s) = 3.29778 3.88763 3.60479
# Velocity P-wave (km/s) = 5.31807 6.59547 5.99091
#
# Compressibility (1/GPa) = 0.03335334
#
# Stress axis : x y z
#
# Youngs Moduli (GPa) = 40.42964 80.88273 62.10645
#
# Poissons Ratio (x) = 0.51127 0.36736
# Poissons Ratio (y) = 0.25556 -0.14366
# Poissons Ratio (z) = 0.23914 -0.18709
#
# Static dielectric constant tensor:
#      x y z
#    x 3.686260 0.211060 0.544400 
#    y 0.211060 4.228170 0.593520 
#    z 0.544400 0.593520 4.530990 
# 
# 
# High freq. dielectric constant tensor:
#      x y z
#    x 1.804150 -0.004820 0.027570 
#    y -0.004820 1.870940 0.021750 
#    z 0.027570 0.021750 1.871140 
# 
# From -- ./inp_files/464502.got.cif
#   From: 2010.06.25/outbox.cif.g09.slc.cpg/sg2_233_cif.got.tgz:464502.got - 2010.06.27 13:26:56.
