data_PCOD8002918
_publ_section_title
;
Structure prediction by ZEFSAII (Michael W. Deem and Ramdas Pophale) SiO2 
 PCOD8002918
Probable space group: P -1
;
_chemical_formula_sum "Si O2"
_cell_formula_units_Z 16
_cell_length_a 13.961242
_cell_length_b 11.487633
_cell_length_c 8.815588
_cell_angle_alpha 108.644123
_cell_angle_beta 42.542916
_cell_angle_gamma 87.577545
_cell_volume 816.213539
_symmetry_space_group_name_H-M "P -1"
_symmetry_group_IT_number 2
_symmetry_cell_setting 'triclinic'
loop_
_space_group_symop_operation_xyz
x,y,z
-x,-y,-z
loop_
_atom_site_type_symbol
_atom_site_label
_atom_site_fract_x
_atom_site_fract_y
_atom_site_fract_z
Si Si1 0.682618 0.326843 0.340771
Si Si2 0.009461 0.673157 0.687086
Si Si3 0.662896 0.583176 0.302145
Si Si4 0.132132 0.842897 0.446757
Si Si5 0.427468 0.656655 0.192522
Si Si6 0.084123 0.343345 0.879211
Si Si7 0.975029 0.157103 0.760962
Si Si8 0.753928 0.583176 0.864207
O O1 0.713224 0.455231 0.303743
O O2 0.524555 0.333623 0.451474
O O3 0.677156 0.320314 0.525271
O O4 0.829209 0.190141 0.058606
O O5 0.019349 0.809859 0.678324
O O6 0.168454 0.544768 0.393280
O O7 0.858178 0.666377 0.784228
O O8 0.997470 0.679686 0.884643
O O9 0.733082 0.687462 0.321410
O O10 0.736887 0.526226 0.026226
O O11 0.316947 0.753625 0.230982
O O12 0.097450 0.805101 0.305100
O O13 0.095912 1.000000 0.570549
O O14 0.500000 0.500000 0.000000
O O15 0.579456 0.687463 0.053516
O O16 0.070572 0.246375 0.723732
O O17 0.000000 0.500000 0.000000
#
# Coordination Sequence:
#
# PCOD8002918 Si02
#       8
#     2   2   2   2   2   2   2   2
#     4  10  20  36  60  88 118 160 193 244 306 355
#     4  10  20  36  60  88 118 160 193 244 306 355
#     4   9  19  34  57  91 122 147 192 251 299 350
#     4  11  25  43  60  84 124 168 206 247 300 366
#     4  11  22  35  59  94 122 152 203 254 301 354
#     4  11  22  35  59  94 122 152 203 254 301 354
#     4  11  25  43  60  84 124 168 206 247 300 366
#     4   9  19  34  57  91 122 147 192 251 299 350
#
# _framework density 19.602713000000001
#
# number of rings (size 3 to 8) (size 9 to 14) (size 15 to 20)
#    0.000    1.750    2.500    1.500    7.000    2.000 
#    0.000    1.250    0.000    7.500    0.000    0.000 
#    0.000    0.000    0.000    0.000    0.000    0.000 
#
# Total GULP energy -198405.821614 kJ/mol
# GULP energy per Si atom -12400.363851 kJ/mol
# Density = 1.955810 g / cm^3
# Si number density = 19.602713 Si / 1000 Ang^3
#
#
#
# Elastic Constant Matrix: (Units=GPa)
#
#
# Indices 1 2 3 4 5 6 
#
# 1 135.7130 66.7806 57.1258 8.7122 -0.1069 0.0183
# 2 66.7806 90.1682 32.8315 3.0014 -3.4079 3.9728
# 3 57.1258 32.8315 88.2854 -2.1919 -6.9453 4.3398
# 4 8.7122 3.0014 -2.1919 31.5854 2.6614 -1.6900
# 5 -0.1069 -3.4079 -6.9453 2.6614 31.5150 0.6928
# 6 0.0183 3.9728 4.3398 -1.6900 0.6928 32.0457
#
#
#
# Elastic Compliance Matrix: (Units=1/GPa)
#
#
# Indices 1 2 3 4 5 6 
#
# 1 0.014473 -0.008364 -0.006588 -0.003385 -0.002061 0.001787
# 2 -0.008364 0.017780 -0.000956 0.000296 0.001705 -0.002091
# 3 -0.006588 -0.000956 0.016371 0.002657 0.003302 -0.002026
# 4 -0.003385 0.000296 0.002657 0.033011 -0.002212 0.001394
# 5 -0.002061 0.001705 0.003302 -0.002212 0.032855 -0.001484
# 6 0.001787 -0.002091 -0.002026 0.001394 -0.001484 0.031844
#
#
# Mechanical properties :
#
#
# Convention : Reuss Voigt Hill
#
# Bulk Modulus (GPa) = 59.49844 69.73805 64.61825
# Shear Modulus (GPa) = 27.21059 29.52446 28.36753
#
# Velocity S-wave (km/s) = 3.72977 3.88511 3.80823
# Velocity P-wave (km/s) = 6.99759 7.46850 7.23687
#
# Compressibility (1/GPa) = 0.01680716
#
# Stress axis : x y z
#
# Youngs Moduli (GPa) = 69.09484 56.24426 61.08463
#
# Poissons Ratio (x) = 0.47042 0.40245
# Poissons Ratio (y) = 0.57790 0.05838
# Poissons Ratio (z) = 0.45522 0.05375
#
# Static dielectric constant tensor:
#      x y z
#    x 4.136300 0.173800 -0.239200 
#    y 0.173800 3.342960 -0.315490 
#    z -0.239200 -0.315490 3.675960 
# 
# 
# High freq. dielectric constant tensor:
#      x y z
#    x 1.790930 0.005530 -0.005090 
#    y 0.005530 1.730320 -0.024210 
#    z -0.005090 -0.024210 1.756910 
# 
# From -- ./inp_files/307875.got.cif
#   From: 2010.06.25/outbox.cif.g09.slc.cpg/sg2_154_cif.got.tgz:307875.got - 2010.06.27 13:26:56.
