data_PCOD8002389
_publ_section_title
;
Structure prediction by ZEFSAII (Michael W. Deem and Ramdas Pophale) SiO2 
 PCOD8002389
Probable space group: P -1
;
_chemical_formula_sum "Si O2"
_cell_formula_units_Z 14
_cell_length_a 8.069902
_cell_length_b 17.715879
_cell_length_c 8.984850
_cell_angle_alpha 124.462610
_cell_angle_beta 101.134684
_cell_angle_gamma 122.561049
_cell_volume 622.981153
_symmetry_space_group_name_H-M "P -1"
_symmetry_group_IT_number 2
_symmetry_cell_setting 'triclinic'
loop_
_space_group_symop_operation_xyz
x,y,z
-x,-y,-z
loop_
_atom_site_type_symbol
_atom_site_label
_atom_site_fract_x
_atom_site_fract_y
_atom_site_fract_z
Si Si1 0.837663 0.379843 0.117741
Si Si2 0.767257 0.603751 0.871899
Si Si3 0.174532 0.684440 0.635798
Si Si4 0.012454 0.000764 0.259016
Si Si5 0.717184 0.964799 0.910407
Si Si6 0.814341 0.685863 0.646632
Si Si7 0.723413 0.764957 0.204723
O O1 0.706377 0.286370 0.145847
O O2 0.964596 0.348624 0.010244
O O3 0.103444 0.561219 0.397123
O O4 0.589110 0.326794 0.931941
O O5 0.792746 0.678965 0.813981
O O6 0.483600 0.418784 0.599155
O O7 0.734840 0.659475 0.068456
O O8 0.882760 0.612235 0.524705
O O9 0.392798 0.843931 0.760938
O O10 0.885235 0.878208 0.220560
O O11 0.795247 0.919717 0.994163
O O12 0.110261 0.137828 0.506549
O O13 0.276765 0.066830 0.295103
O O14 0.930871 0.140531 0.170138
#
# Coordination Sequence:
#
# PCOD8002389 Si02
#       7
#     2   2   2   2   2   2   2
#     4  10  21  36  63  92 118 160 205 247 294 362
#     4  10  21  36  63  92 118 160 205 247 294 362
#     4  10  20  35  60  93 123 154 203 252 297 354
#     4  10  24  36  66  86 124 157 204 242 316 350
#     4  11  21  38  60  94 116 162 198 258 294 368
#     4  10  20  35  60  93 123 154 203 252 297 354
#     4  11  20  46  60  91 120 163 197 255 291 373
#
# _framework density 22.47259
#
# number of rings (size 3 to 8) (size 9 to 14) (size 15 to 20)
#    0.000    1.714    4.286    0.429    6.000    0.000 
#    0.000    7.143    0.000    0.000    0.000    0.000 
#    0.000    0.000    0.000    0.000    0.000    0.000 
#
# Total GULP energy -173493.763488 kJ/mol
# GULP energy per Si atom -12392.411678 kJ/mol
# Density = 2.242144 g / cm^3
# Si number density = 22.472590 Si / 1000 Ang^3
#
#
#
# Elastic Constant Matrix: (Units=GPa)
#
#
# Indices 1 2 3 4 5 6 
#
# 1 119.2156 8.2190 40.0452 -4.2104 -15.8751 22.7768
# 2 8.2190 73.2133 28.3990 23.4274 0.3912 14.0106
# 3 40.0452 28.3990 88.6142 3.2274 -23.2677 18.5478
# 4 -4.2104 23.4274 3.2274 33.6803 1.8630 3.7264
# 5 -15.8751 0.3912 -23.2677 1.8630 31.7482 4.3051
# 6 22.7768 14.0106 18.5478 3.7264 4.3051 20.8050
#
#
#
# Elastic Compliance Matrix: (Units=1/GPa)
#
#
# Indices 1 2 3 4 5 6 
#
# 1 0.012770 0.001228 -0.000825 0.002168 0.007819 -0.016078
# 2 0.001228 0.021575 -0.005930 -0.013308 -0.002165 -0.007755
# 3 -0.000825 -0.005930 0.022376 0.003002 0.018517 -0.019421
# 4 0.002168 -0.013308 0.003002 0.039223 0.001614 -0.003447
# 5 0.007819 -0.002165 0.018517 0.001614 0.053656 -0.035001
# 6 -0.016078 -0.007755 -0.019421 -0.003447 -0.035001 0.096063
#
#
# Mechanical properties :
#
#
# Convention : Reuss Voigt Hill
#
# Bulk Modulus (GPa) = 21.89783 48.26328 35.08055
# Shear Modulus (GPa) = 18.38643 30.87202 24.62923
#
# Velocity S-wave (km/s) = 2.86347 3.71045 3.31413
# Velocity P-wave (km/s) = 4.54951 6.31504 5.50353
#
# Compressibility (1/GPa) = 0.04566662
#
# Stress axis : x y z
#
# Youngs Moduli (GPa) = 78.30754 46.35001 44.69135
#
# Poissons Ratio (x) = -0.05691 0.03688
# Poissons Ratio (y) = -0.09614 0.26501
# Poissons Ratio (z) = 0.06461 0.27484
#
# Static dielectric constant tensor:
#      x y z
#    x 3.980790 0.294510 -0.143240 
#    y 0.294510 3.867010 0.042240 
#    z -0.143240 0.042240 3.798740 
# 
# 
# High freq. dielectric constant tensor:
#      x y z
#    x 1.883120 0.023060 -0.015610 
#    y 0.023060 1.869530 0.017520 
#    z -0.015610 0.017520 1.865820 
# 
# From -- ./inp_files/222462.got.cif
#   From: 2010.06.25/outbox.cif.g09.slc.cpg/sg2_112_cif.got.tgz:222462.got - 2010.06.27 13:26:56.
