data_PCOD8002727
_publ_section_title
;
Structure prediction by ZEFSAII (Michael W. Deem and Ramdas Pophale) SiO2 
 PCOD8002727
Probable space group: P -1
;
_chemical_formula_sum "Si O2"
_cell_formula_units_Z 16
_cell_length_a 12.885749
_cell_length_b 13.449713
_cell_length_c 11.615282
_cell_angle_alpha 90.101503
_cell_angle_beta 86.542266
_cell_angle_gamma 157.883430
_cell_volume 748.633498
_symmetry_space_group_name_H-M "P -1"
_symmetry_group_IT_number 2
_symmetry_cell_setting 'triclinic'
loop_
_space_group_symop_operation_xyz
x,y,z
-x,-y,-z
loop_
_atom_site_type_symbol
_atom_site_label
_atom_site_fract_x
_atom_site_fract_y
_atom_site_fract_z
Si Si1 0.173464 0.655311 0.872756
Si Si2 0.927897 0.220017 0.106516
Si Si3 0.365281 0.063071 0.438008
Si Si4 0.924337 0.098768 0.337050
Si Si5 0.547531 0.379429 0.261453
Si Si6 0.054616 0.419384 0.678651
Si Si7 0.482755 0.441600 0.627771
Si Si8 0.500296 0.777337 0.952364
O O1 0.243194 0.832609 0.843160
O O2 0.996143 0.452749 0.777597
O O3 0.447397 0.829464 0.876303
O O4 0.000000 0.500000 0.000000
O O5 0.926698 0.140168 0.207983
O O6 0.244650 0.529602 0.055150
O O7 0.781232 0.040959 0.005743
O O8 0.333599 0.138059 0.366855
O O9 0.690434 0.320199 0.422053
O O10 0.243375 0.972471 0.572331
O O11 0.212699 0.836856 0.382716
O O12 0.237790 0.371624 0.364344
O O13 0.783700 0.865980 0.345561
O O14 0.853980 0.601758 0.261702
O O15 0.556679 0.505417 0.277501
O O16 0.452150 0.273207 0.136616
O O17 0.500000 0.500000 0.500000
#
# Coordination Sequence:
#
# PCOD8002727 Si02
#       8
#     2   2   2   2   2   2   2   2
#     4   9  20  37  65  91 117 158 208 245 286 357
#     4  11  24  42  59  89 126 166 190 247 307 353
#     4  10  20  36  58  85 122 152 188 255 299 342
#     4  12  25  41  60  90 129 156 201 245 304 366
#     4   9  22  34  64  87 119 145 208 253 297 331
#     4   9  20  34  57  90 119 142 198 249 300 335
#     4  12  23  40  65  93 115 159 209 249 294 355
#     4  10  22  39  65  88 119 157 209 244 293 357
#
# _framework density 21.372273
#
# number of rings (size 3 to 8) (size 9 to 14) (size 15 to 20)
#    0.750    1.000    1.250    3.000    7.000    2.000 
#    0.000    5.000    0.000    0.000    0.000    0.000 
#    0.000    0.000    0.000    0.000    0.000    0.000 
#
# Total GULP energy -198366.919362 kJ/mol
# GULP energy per Si atom -12397.932460 kJ/mol
# Density = 2.132363 g / cm^3
# Si number density = 21.372273 Si / 1000 Ang^3
#
#
#
# Elastic Constant Matrix: (Units=GPa)
#
#
# Indices 1 2 3 4 5 6 
#
# 1 54.9965 3.5867 30.9056 4.9399 -6.3608 -14.7965
# 2 3.5867 77.6654 9.3198 14.1034 6.2067 -9.0027
# 3 30.9056 9.3198 75.9778 11.7838 -5.3609 -20.4825
# 4 4.9399 14.1034 11.7838 33.2396 -6.8482 -4.7367
# 5 -6.3608 6.2067 -5.3609 -6.8482 42.7366 5.3047
# 6 -14.7965 -9.0027 -20.4825 -4.7367 5.3047 25.4140
#
#
#
# Elastic Compliance Matrix: (Units=1/GPa)
#
#
# Indices 1 2 3 4 5 6 
#
# 1 0.024957 0.000525 -0.008005 0.000395 0.001707 0.007982
# 2 0.000525 0.014925 0.000113 -0.006477 -0.003766 0.005263
# 3 -0.008005 0.000113 0.019963 -0.004558 -0.000772 0.010780
# 4 0.000395 -0.006477 -0.004558 0.035608 0.006182 -0.000392
# 5 0.001707 -0.003766 -0.000772 0.006182 0.025737 -0.005183
# 6 0.007982 0.005263 0.010780 -0.000392 -0.005183 0.055557
#
#
# Mechanical properties :
#
#
# Convention : Reuss Voigt Hill
#
# Bulk Modulus (GPa) = 22.16754 32.91822 27.54288
# Shear Modulus (GPa) = 24.21111 31.26657 27.73884
#
# Velocity S-wave (km/s) = 3.36940 3.82900 3.60653
# Velocity P-wave (km/s) = 5.05290 5.91473 5.50072
#
# Compressibility (1/GPa) = 0.04511101
#
# Stress axis : x y z
#
# Youngs Moduli (GPa) = 40.06952 67.00113 50.09343
#
# Poissons Ratio (x) = -0.03519 0.40100
# Poissons Ratio (y) = -0.02104 -0.00567
# Poissons Ratio (z) = 0.32076 -0.00759
#
# Static dielectric constant tensor:
#      x y z
#    x 3.848780 -0.131110 -0.182410 
#    y -0.131110 3.792920 0.081090 
#    z -0.182410 0.081090 3.745790 
# 
# 
# High freq. dielectric constant tensor:
#      x y z
#    x 1.806990 -0.005470 -0.024840 
#    y -0.005470 1.839910 0.010350 
#    z -0.024840 0.010350 1.836020 
# 
# From -- ./inp_files/428281.got.cif
#   From: 2010.06.25/outbox.cif.g09.slc.cpg/sg2_215_cif.got.tgz:428281.got - 2010.06.27 13:26:56.
