data_PCOD8002361
_publ_section_title
;
Structure prediction by ZEFSAII (Michael W. Deem and Ramdas Pophale) SiO2 
 PCOD8002361
Probable space group: P -1
;
_chemical_formula_sum "Si O2"
_cell_formula_units_Z 16
_cell_length_a 8.510441
_cell_length_b 8.479204
_cell_length_c 16.036356
_cell_angle_alpha 103.862616
_cell_angle_beta 122.825552
_cell_angle_gamma 110.672529
_cell_volume 760.958566
_symmetry_space_group_name_H-M "P -1"
_symmetry_group_IT_number 2
_symmetry_cell_setting 'triclinic'
loop_
_space_group_symop_operation_xyz
x,y,z
-x,-y,-z
loop_
_atom_site_type_symbol
_atom_site_label
_atom_site_fract_x
_atom_site_fract_y
_atom_site_fract_z
Si Si1 0.640421 0.517922 0.165880
Si Si2 0.791285 0.198562 0.871977
Si Si3 0.485959 0.854750 0.370187
Si Si4 0.492163 0.245079 0.238980
Si Si5 0.976345 0.380643 0.397964
Si Si6 0.597917 0.568869 0.445033
Si Si7 0.136018 0.752386 0.393474
Si Si8 0.730168 0.443712 0.006990
O O1 0.476096 0.344942 0.163946
O O2 0.506054 0.605567 0.105303
O O3 0.881122 0.700744 0.301074
O O4 0.704373 0.427050 0.097469
O O5 0.606806 0.191145 0.756357
O O6 0.774769 0.285136 0.966124
O O7 0.736515 0.980844 0.843714
O O8 0.050095 0.333099 0.926912
O O9 0.521621 0.690671 0.391353
O O10 0.289389 0.845396 0.366257
O O11 0.727909 0.078713 0.473454
O O12 0.702311 0.221865 0.282823
O O13 0.519263 0.372580 0.343819
O O14 0.000000 0.500000 0.500000
O O15 0.119900 0.288241 0.443110
O O16 0.100962 0.545199 0.379938
O O17 0.500000 0.500000 0.500000
#
# Coordination Sequence:
#
# PCOD8002361 Si02
#       8
#     2   2   2   2   2   2   2   2
#     4  10  21  44  64  91 119 162 201 254 307 354
#     4  11  23  42  62  93 119 163 205 250 304 362
#     4  11  21  34  60  90 122 154 200 247 297 361
#     4  10  23  39  61  85 126 158 202 251 308 356
#     4   9  18  36  53  80 122 164 189 237 300 361
#     4  11  21  34  56  90 125 164 202 244 295 366
#     4  10  20  35  60  87 120 160 192 244 306 359
#     4  10  23  41  69  86 121 159 209 254 297 360
#
# _framework density 21.026109999999999
#
# number of rings (size 3 to 8) (size 9 to 14) (size 15 to 20)
#    0.000    1.750    2.500    2.250    1.750    2.000 
#    0.000    8.125    0.000    0.000    0.000    0.000 
#    0.000    0.000    0.000    0.000    0.000    0.000 
#
# Total GULP energy -198329.817548 kJ/mol
# GULP energy per Si atom -12395.613597 kJ/mol
# Density = 2.097825 g / cm^3
# Si number density = 21.026110 Si / 1000 Ang^3
#
#
#
# Elastic Constant Matrix: (Units=GPa)
#
#
# Indices 1 2 3 4 5 6 
#
# 1 74.8557 20.4356 24.3120 1.1212 -5.7277 4.8487
# 2 20.4356 77.8099 23.0809 11.9888 -2.5893 9.2627
# 3 24.3120 23.0809 81.8797 7.6867 5.0264 8.3773
# 4 1.1212 11.9888 7.6867 34.5566 3.1197 -3.2141
# 5 -5.7277 -2.5893 5.0264 3.1197 39.6157 -10.2863
# 6 4.8487 9.2627 8.3773 -3.2141 -10.2863 25.4565
#
#
#
# Elastic Compliance Matrix: (Units=1/GPa)
#
#
# Indices 1 2 3 4 5 6 
#
# 1 0.015689 -0.003092 -0.004152 0.001315 0.002685 0.000754
# 2 -0.003092 0.015827 -0.002538 -0.005293 0.000030 -0.004991
# 3 -0.004152 -0.002538 0.015155 -0.002488 -0.003826 -0.005133
# 4 0.001315 -0.005293 -0.002488 0.031931 -0.000738 0.006228
# 5 0.002685 0.000030 -0.003826 -0.000738 0.029431 0.012536
# 6 0.000754 -0.004991 -0.005133 0.006228 0.012536 0.048496
#
#
# Mechanical properties :
#
#
# Convention : Reuss Voigt Hill
#
# Bulk Modulus (GPa) = 36.89055 41.13358 39.01207
# Shear Modulus (GPa) = 27.00830 31.04022 29.02426
#
# Velocity S-wave (km/s) = 3.58790 3.84639 3.71939
# Velocity P-wave (km/s) = 5.89468 6.27152 6.08601
#
# Compressibility (1/GPa) = 0.02710721
#
# Stress axis : x y z
#
# Youngs Moduli (GPa) = 63.74069 63.18178 65.98518
#
# Poissons Ratio (x) = 0.19534 0.27399
# Poissons Ratio (y) = 0.19707 0.16746
# Poissons Ratio (z) = 0.26467 0.16035
#
# Static dielectric constant tensor:
#      x y z
#    x 4.055080 0.291930 0.248620 
#    y 0.291930 3.498940 -0.056610 
#    z 0.248620 -0.056610 3.990390 
# 
# 
# High freq. dielectric constant tensor:
#      x y z
#    x 1.824660 0.018700 0.008250 
#    y 0.018700 1.805650 -0.013660 
#    z 0.008250 -0.013660 1.823170 
# 
# From -- ./inp_files/185758.got.cif
#   From: 2010.06.25/outbox.cif.g09.slc.cpg/sg2_93_cif.got.tgz:185758.got - 2010.06.27 13:26:56.
