data_PCOD8002260
_publ_section_title
;
Structure prediction by ZEFSAII (Michael W. Deem and Ramdas Pophale) SiO2 
 PCOD8002260
Probable space group: P -1
;
_chemical_formula_sum "Si O2"
_cell_formula_units_Z 16
_cell_length_a 9.811170
_cell_length_b 18.160482
_cell_length_c 8.455327
_cell_angle_alpha 37.670385
_cell_angle_beta 106.931201
_cell_angle_gamma 125.034887
_cell_volume 712.635357
_symmetry_space_group_name_H-M "P -1"
_symmetry_group_IT_number 2
_symmetry_cell_setting 'triclinic'
loop_
_space_group_symop_operation_xyz
x,y,z
-x,-y,-z
loop_
_atom_site_type_symbol
_atom_site_label
_atom_site_fract_x
_atom_site_fract_y
_atom_site_fract_z
Si Si1 0.671113 0.006819 0.016323
Si Si2 0.020348 0.683358 0.317644
Si Si3 0.034038 0.604017 0.117636
Si Si4 0.373975 0.826034 0.715279
Si Si5 0.297072 0.307114 0.903193
Si Si6 0.518925 0.760788 0.154369
Si Si7 0.366607 0.546902 0.735032
Si Si8 0.595501 0.793846 0.619245
O O1 0.657759 0.931658 0.970107
O O2 0.706210 0.927820 0.304046
O O3 0.500000 0.000000 0.000000
O O4 0.833921 0.177310 0.766149
O O5 0.099107 0.675848 0.191519
O O6 0.952293 0.535661 0.648958
O O7 0.876696 0.711733 0.176566
O O8 0.834832 0.550927 0.105724
O O9 0.160580 0.734878 0.807705
O O10 0.433855 0.797134 0.620089
O O11 0.500000 0.000000 0.500000
O O12 0.393775 0.740954 0.007448
O O13 0.277828 0.182962 0.230275
O O14 0.382880 0.307847 0.766139
O O15 0.414075 0.455450 0.797834
O O16 0.395388 0.674488 0.410569
O O17 0.507538 0.632417 0.779452
#
# Coordination Sequence:
#
# PCOD8002260 Si02
#       8
#     2   2   2   2   2   2   2   2
#     4  11  21  38  62  84 113 154 195 237 284 337
#     4  10  20  36  59  85 116 150 193 241 283 333
#     4  10  20  35  58  88 112 146 196 238 283 339
#     4  11  21  36  57  84 118 149 184 237 294 342
#     4  10  21  36  56  85 119 153 189 239 290 337
#     4  10  21  36  58  84 111 153 199 229 280 352
#     4  10  20  38  61  83 114 152 195 241 282 338
#     4  10  22  36  56  85 115 152 193 231 290 352
#
# _framework density 22.451875999999999
#
# number of rings (size 3 to 8) (size 9 to 14) (size 15 to 20)
#    0.000    1.750    0.000    6.750    0.000    2.500 
#    0.000    1.250    0.000    3.000    0.000    0.000 
#    0.000    0.000    0.000    0.000    0.000    0.000 
#
# Total GULP energy -198252.951205 kJ/mol
# GULP energy per Si atom -12390.809450 kJ/mol
# Density = 2.240077 g / cm^3
# Si number density = 22.451876 Si / 1000 Ang^3
#
#
#
# Elastic Constant Matrix: (Units=GPa)
#
#
# Indices 1 2 3 4 5 6 
#
# 1 95.7850 35.4150 21.1859 -15.8774 -0.6440 -13.1525
# 2 35.4150 89.5323 21.2087 -20.6841 -9.6882 -15.1209
# 3 21.1859 21.2087 67.0673 -20.1239 -11.8588 2.9672
# 4 -15.8774 -20.6841 -20.1239 41.4873 3.6282 7.2240
# 5 -0.6440 -9.6882 -11.8588 3.6282 26.9679 1.4707
# 6 -13.1525 -15.1209 2.9672 7.2240 1.4707 37.4943
#
#
#
# Elastic Compliance Matrix: (Units=1/GPa)
#
#
# Indices 1 2 3 4 5 6 
#
# 1 0.013235 -0.003965 -0.003202 0.001232 -0.002855 0.003171
# 2 -0.003965 0.015204 -0.001807 0.004170 0.003797 0.003931
# 3 -0.003202 -0.001807 0.020476 0.008078 0.007482 -0.005322
# 4 0.001232 0.004170 0.008078 0.031275 0.001123 -0.004595
# 5 -0.002855 0.003797 0.007482 0.001123 0.041620 -0.001911
# 6 0.003171 0.003931 -0.005322 -0.004595 -0.001911 0.030750
#
#
# Mechanical properties :
#
#
# Convention : Reuss Voigt Hill
#
# Bulk Modulus (GPa) = 32.29368 45.33377 38.81373
# Shear Modulus (GPa) = 27.65035 32.82823 30.23929
#
# Velocity S-wave (km/s) = 3.51314 3.82797 3.67393
# Velocity P-wave (km/s) = 5.55616 6.30660 5.94323
#
# Compressibility (1/GPa) = 0.03096581
#
# Stress axis : x y z
#
# Youngs Moduli (GPa) = 75.55734 65.77344 48.83880
#
# Poissons Ratio (x) = 0.26081 0.15640
# Poissons Ratio (y) = 0.29960 0.08823
# Poissons Ratio (z) = 0.24196 0.11883
#
# Static dielectric constant tensor:
#      x y z
#    x 4.064920 -0.267110 0.042330 
#    y -0.267110 4.200300 -0.094370 
#    z 0.042330 -0.094370 4.153670 
# 
# 
# High freq. dielectric constant tensor:
#      x y z
#    x 1.868290 -0.013230 0.015080 
#    y -0.013230 1.885950 -0.003560 
#    z 0.015080 -0.003560 1.878050 
# 
# From -- ./inp_files/216535.got.cif
#   From: 2010.06.25/outbox.cif.g09.slc.cpg/sg2_109_cif.got.tgz:216535.got - 2010.06.27 13:26:56.
