data_PCOD8002549
_publ_section_title
;
Structure prediction by ZEFSAII (Michael W. Deem and Ramdas Pophale) SiO2 
 PCOD8002549
Probable space group: P -1
;
_chemical_formula_sum "Si O2"
_cell_formula_units_Z 16
_cell_length_a 15.398421
_cell_length_b 14.984251
_cell_length_c 13.517846
_cell_angle_alpha 115.205504
_cell_angle_beta 45.033369
_cell_angle_gamma 151.766009
_cell_volume 844.557624
_symmetry_space_group_name_H-M "P -1"
_symmetry_group_IT_number 2
_symmetry_cell_setting 'triclinic'
loop_
_space_group_symop_operation_xyz
x,y,z
-x,-y,-z
loop_
_atom_site_type_symbol
_atom_site_label
_atom_site_fract_x
_atom_site_fract_y
_atom_site_fract_z
Si Si1 0.523194 0.663538 0.727175
Si Si2 0.833756 0.613962 0.296401
Si Si3 0.540769 0.968463 0.051561
Si Si4 0.037512 0.175012 0.517924
Si Si5 0.849681 0.496436 0.894887
Si Si6 0.692760 0.329055 0.408671
Si Si7 0.224471 0.849958 0.599447
Si Si8 0.931127 0.296898 0.560876
O O1 0.391745 0.514502 0.665550
O O2 0.711278 0.720478 0.663958
O O3 0.261835 0.516887 0.932926
O O4 0.722593 0.897059 0.637185
O O5 0.909269 0.754736 0.378374
O O6 0.700604 0.426024 0.375163
O O7 0.118875 0.790204 0.088551
O O8 0.410382 0.763301 0.054659
O O9 0.386313 0.918600 0.238102
O O10 0.500000 0.000000 0.000000
O O11 0.045423 0.269813 0.478586
O O12 0.123115 0.626781 0.767633
O O13 0.953126 0.648270 0.797440
O O14 0.840003 0.460328 0.459121
O O15 0.352316 0.051956 0.566187
O O16 0.103679 0.710073 0.530974
O O17 0.500000 0.000000 0.500000
#
# Coordination Sequence:
#
# PCOD8002549 Si02
#       8
#     2   2   2   2   2   2   2   2
#     4  11  22  34  56  83 111 149 175 230 274 315
#     4  11  20  34  59  84 110 141 180 224 277 337
#     4  11  18  34  58  86 114 138 174 228 283 333
#     4  10  21  39  55  79 115 142 187 219 274 336
#     4  10  20  36  50  80 116 138 182 224 266 321
#     4   9  20  34  55  81 111 142 175 224 270 333
#     4  10  22  36  52  82 111 143 187 220 266 328
#     4  10  20  37  57  76 110 152 174 223 279 317
#
# _framework density 18.944827
#
# number of rings (size 3 to 8) (size 9 to 14) (size 15 to 20)
#    0.000    1.750    5.000    1.125    3.500    5.000 
#    0.000    0.625    0.000    3.000    0.000    0.000 
#    0.000    0.000    0.000    0.000    0.000    0.000 
#
# Total GULP energy -198308.753247 kJ/mol
# GULP energy per Si atom -12394.297078 kJ/mol
# Density = 1.890171 g / cm^3
# Si number density = 18.944827 Si / 1000 Ang^3
#
#
#
# Elastic Constant Matrix: (Units=GPa)
#
#
# Indices 1 2 3 4 5 6 
#
# 1 50.2301 15.2473 26.2788 2.8075 1.0665 9.9044
# 2 15.2473 76.3638 27.0786 -10.1672 4.3983 8.6542
# 3 26.2788 27.0786 56.1970 -7.4201 3.6582 7.1028
# 4 2.8075 -10.1672 -7.4201 32.6361 -5.9597 8.6272
# 5 1.0665 4.3983 3.6582 -5.9597 20.0276 7.1652
# 6 9.9044 8.6542 7.1028 8.6272 7.1652 30.1158
#
#
#
# Elastic Compliance Matrix: (Units=1/GPa)
#
#
# Indices 1 2 3 4 5 6 
#
# 1 0.028022 -0.001195 -0.012501 -0.003926 0.001751 -0.005216
# 2 -0.001195 0.016739 -0.006279 0.005247 0.000748 -0.004617
# 3 -0.012501 -0.006279 0.027760 0.005932 -0.000466 -0.002220
# 4 -0.003926 0.005247 0.005932 0.041620 0.016616 -0.017492
# 5 0.001751 0.000748 -0.000466 0.016616 0.061921 -0.020173
# 6 -0.005216 -0.004617 -0.002220 -0.017492 -0.020173 0.046582
#
#
# Mechanical properties :
#
#
# Convention : Reuss Voigt Hill
#
# Bulk Modulus (GPa) = 30.70211 35.55557 33.12884
# Shear Modulus (GPa) = 18.28475 24.16833 21.22654
#
# Velocity S-wave (km/s) = 3.11007 3.57560 3.35093
# Velocity P-wave (km/s) = 5.39796 5.98793 5.70058
#
# Compressibility (1/GPa) = 0.03257105
#
# Stress axis : x y z
#
# Youngs Moduli (GPa) = 35.68623 59.73988 36.02265
#
# Poissons Ratio (x) = 0.07137 0.45032
# Poissons Ratio (y) = 0.04263 0.22620
# Poissons Ratio (z) = 0.44612 0.37513
#
# Static dielectric constant tensor:
#      x y z
#    x 3.332070 -0.090140 0.050670 
#    y -0.090140 3.878220 -0.540430 
#    z 0.050670 -0.540430 4.449370 
# 
# 
# High freq. dielectric constant tensor:
#      x y z
#    x 1.717280 0.000360 0.005190 
#    y 0.000360 1.747090 -0.008930 
#    z 0.005190 -0.008930 1.716310 
# 
# From -- ./inp_files/342760.got.cif
#   From: 2010.06.25/outbox.cif.g09.slc.cpg/sg2_172_cif.got.tgz:342760.got - 2010.06.27 13:26:56.
