data_PCOD8002047
_publ_section_title
;
Structure prediction by ZEFSAII (Michael W. Deem and Ramdas Pophale) SiO2 
 PCOD8002047
Probable space group: P -1
;
_chemical_formula_sum "Si O2"
_cell_formula_units_Z 14
_cell_length_a 15.179828
_cell_length_b 11.214215
_cell_length_c 15.700836
_cell_angle_alpha 147.908692
_cell_angle_beta 151.776945
_cell_angle_gamma 47.271749
_cell_volume 646.470385
_symmetry_space_group_name_H-M "P -1"
_symmetry_group_IT_number 2
_symmetry_cell_setting 'triclinic'
loop_
_space_group_symop_operation_xyz
x,y,z
-x,-y,-z
loop_
_atom_site_type_symbol
_atom_site_label
_atom_site_fract_x
_atom_site_fract_y
_atom_site_fract_z
Si Si1 0.789660 0.267957 0.055452
Si Si2 0.859617 0.179926 0.630144
Si Si3 0.516228 0.791021 0.108525
Si Si4 0.885046 0.761895 0.485753
Si Si5 0.147463 0.600275 0.063091
Si Si6 0.512866 0.368189 0.742087
Si Si7 0.105396 0.047004 0.209242
O O1 0.931972 0.530092 0.348466
O O2 0.920650 0.096799 0.027366
O O3 0.679759 0.178478 0.996891
O O4 0.629896 0.255453 0.840620
O O5 0.822062 0.318039 0.764839
O O6 0.646034 0.036705 0.327386
O O7 0.977347 0.990524 0.644022
O O8 0.980647 0.353970 0.767707
O O9 0.351265 0.288006 0.753221
O O10 0.461487 0.599296 0.871759
O O11 0.938748 0.808641 0.658128
O O12 0.350831 0.563396 0.183269
O O13 0.079410 0.780605 0.053122
O O14 0.318578 0.173535 0.432810
#
# Coordination Sequence:
#
# PCOD8002047 Si02
#       7
#     2   2   2   2   2   2   2
#     4  11  18  32  55  83 111 132 174 227 259 313
#     4   8  18  36  57  75 100 147 188 206 260 324
#     4   9  17  33  56  80 104 135 179 221 257 304
#     4   8  15  31  53  76 101 132 177 213 252 301
#     4  10  20  35  53  79 109 144 177 213 266 324
#     4  11  20  34  54  84 109 135 176 225 268 304
#     4  11  20  31  55  83 107 143 172 210 275 319
#
# _framework density 21.656058999999999
#
# number of rings (size 3 to 8) (size 9 to 14) (size 15 to 20)
#    0.857    1.429    2.857    1.714    0.000    1.143 
#    0.000    0.714    0.000    4.286    0.000    0.000 
#    0.000    0.000    0.000    0.000    0.000    0.000 
#
# Total GULP energy -173496.197671 kJ/mol
# GULP energy per Si atom -12392.585548 kJ/mol
# Density = 2.160677 g / cm^3
# Si number density = 21.656059 Si / 1000 Ang^3
#
#
#
# Elastic Constant Matrix: (Units=GPa)
#
#
# Indices 1 2 3 4 5 6 
#
# 1 91.5257 46.8123 60.2532 8.6739 24.6555 -19.4784
# 2 46.8123 73.5571 58.8975 8.4370 18.4281 -20.3651
# 3 60.2532 58.8975 162.0072 26.4759 26.6146 -2.5780
# 4 8.6739 8.4370 26.4759 30.7791 5.7430 -2.4127
# 5 24.6555 18.4281 26.6146 5.7430 35.5822 -1.3084
# 6 -19.4784 -20.3651 -2.5780 -2.4127 -1.3084 34.9062
#
#
#
# Elastic Compliance Matrix: (Units=1/GPa)
#
#
# Indices 1 2 3 4 5 6 
#
# 1 0.020169 -0.005458 -0.004372 0.001633 -0.007864 0.007566
# 2 -0.005458 0.027208 -0.007230 0.002156 -0.004798 0.012263
# 3 -0.004372 -0.007230 0.011659 -0.007119 -0.001031 -0.006327
# 4 0.001633 0.002156 -0.007119 0.038445 -0.002975 0.004189
# 5 -0.007864 -0.004798 -0.001031 -0.002975 0.037066 -0.006080
# 6 0.007566 0.012263 -0.006327 0.004189 -0.006080 0.039619
#
#
# Mechanical properties :
#
#
# Convention : Reuss Voigt Hill
#
# Bulk Modulus (GPa) = 40.13454 73.22401 56.67928
# Shear Modulus (GPa) = 23.08494 30.99529 27.04011
#
# Velocity S-wave (km/s) = 3.26848 3.78729 3.53741
# Velocity P-wave (km/s) = 5.72860 7.28083 6.55085
#
# Compressibility (1/GPa) = 0.02491619
#
# Stress axis : x y z
#
# Youngs Moduli (GPa) = 49.58037 36.75431 85.77028
#
# Poissons Ratio (x) = 0.20060 0.37495
# Poissons Ratio (y) = 0.27060 0.62016
# Poissons Ratio (z) = 0.21675 0.26575
#
# Static dielectric constant tensor:
#      x y z
#    x 4.160940 -0.233600 -0.173990 
#    y -0.233600 3.625990 0.222290 
#    z -0.173990 0.222290 4.148490 
# 
# 
# High freq. dielectric constant tensor:
#      x y z
#    x 1.855490 -0.026020 -0.018920 
#    y -0.026020 1.813800 0.011450 
#    z -0.018920 0.011450 1.857940 
# 
# From -- ./inp_files/573648.got.cif
#   From: 2010.06.25/outbox.cif.g09.slc.cpg/sg2_287_cif.got.tgz:573648.got - 2010.06.27 13:26:56.
