data_PCOD8002478
_publ_section_title
;
Structure prediction by ZEFSAII (Michael W. Deem and Ramdas Pophale) SiO2 
 PCOD8002478
Probable space group: P -1
;
_chemical_formula_sum "Si O2"
_cell_formula_units_Z 16
_cell_length_a 8.839904
_cell_length_b 18.170312
_cell_length_c 9.307282
_cell_angle_alpha 113.657491
_cell_angle_beta 96.634593
_cell_angle_gamma 132.652714
_cell_volume 823.907537
_symmetry_space_group_name_H-M "P -1"
_symmetry_group_IT_number 2
_symmetry_cell_setting 'triclinic'
loop_
_space_group_symop_operation_xyz
x,y,z
-x,-y,-z
loop_
_atom_site_type_symbol
_atom_site_label
_atom_site_fract_x
_atom_site_fract_y
_atom_site_fract_z
Si Si1 0.958651 0.739476 0.947547
Si Si2 0.681883 0.399043 0.981874
Si Si3 0.701396 0.225730 0.819382
Si Si4 0.501947 0.444943 0.771502
Si Si5 0.873043 0.027739 0.371071
Si Si6 0.962667 0.657214 0.308900
Si Si7 0.061372 0.239850 0.373064
Si Si8 0.877993 0.849620 0.216928
O O1 0.694654 0.592310 0.851557
O O2 0.960228 0.758199 0.795164
O O3 0.014956 0.846399 0.121152
O O4 0.182308 0.770514 0.027557
O O5 0.788828 0.355441 0.927819
O O6 0.647837 0.434285 0.857429
O O7 0.419478 0.281346 0.944529
O O8 0.884325 0.530347 0.207326
O O9 0.403157 0.092096 0.684082
O O10 0.813757 0.232182 0.692582
O O11 0.292886 0.401870 0.817799
O O12 0.351094 0.346737 0.538388
O O13 0.967091 0.978521 0.296887
O O14 0.889719 0.091801 0.284634
O O15 0.055510 0.142410 0.603006
O O16 0.043513 0.724123 0.527062
#
# Coordination Sequence:
#
# PCOD8002478 Si02
#       8
#     2   2   2   2   2   2   2   2
#     4  12  22  38  58  86 114 155 183 226 287 343
#     4  11  18  36  62  91 109 138 193 245 281 317
#     4  11  24  34  60  86 116 147 187 231 286 332
#     4  10  20  35  63  84 112 141 193 237 275 328
#     4  10  22  39  57  87 111 147 191 239 271 325
#     4  10  20  36  60  88 111 144 186 240 281 326
#     4  10  23  37  60  81 118 149 192 222 281 335
#     4  10  20  38  64  82 110 144 197 238 272 324
#
# _framework density 19.419654000000001
#
# number of rings (size 3 to 8) (size 9 to 14) (size 15 to 20)
#    0.750    0.750    3.750    2.625    0.000    3.000 
#    0.000    0.625    5.500    0.000    0.000    0.000 
#    0.000    0.000    0.000    0.000    0.000    0.000 
#
# Total GULP energy -198356.197550 kJ/mol
# GULP energy per Si atom -12397.262347 kJ/mol
# Density = 1.937545 g / cm^3
# Si number density = 19.419654 Si / 1000 Ang^3
#
#
#
# Elastic Constant Matrix: (Units=GPa)
#
#
# Indices 1 2 3 4 5 6 
#
# 1 112.6950 50.2645 50.4308 -14.1415 -8.2321 -13.0666
# 2 50.2645 96.1830 44.5993 -8.1089 -14.3533 -14.1928
# 3 50.4308 44.5993 78.4708 -14.3715 -19.0603 -16.6202
# 4 -14.1415 -8.1089 -14.3715 31.4987 3.7337 3.5974
# 5 -8.2321 -14.3533 -19.0603 3.7337 22.3284 7.6348
# 6 -13.0666 -14.1928 -16.6202 3.5974 7.6348 22.2988
#
#
#
# Elastic Compliance Matrix: (Units=1/GPa)
#
#
# Indices 1 2 3 4 5 6 
#
# 1 0.014052 -0.004409 -0.006846 0.002406 -0.004392 0.001441
# 2 -0.004409 0.015827 -0.004859 -0.000865 0.003596 0.002777
# 3 -0.006846 -0.004859 0.025338 0.004957 0.012909 0.006562
# 4 0.002406 -0.000865 0.004957 0.035076 -0.001048 -0.000746
# 5 -0.004392 0.003596 0.012909 -0.001048 0.060507 -0.011210
# 6 0.001441 0.002777 0.006562 -0.000746 -0.011210 0.056307
#
#
# Mechanical properties :
#
#
# Convention : Reuss Voigt Hill
#
# Bulk Modulus (GPa) = 43.49731 64.21533 53.85632
# Shear Modulus (GPa) = 20.24319 24.69547 22.46933
#
# Velocity S-wave (km/s) = 3.23214 3.56992 3.40522
# Velocity P-wave (km/s) = 6.03127 7.08036 6.57676
#
# Compressibility (1/GPa) = 0.02298993
#
# Stress axis : x y z
#
# Youngs Moduli (GPa) = 71.16634 63.18133 39.46657
#
# Poissons Ratio (x) = 0.27856 0.27018
# Poissons Ratio (y) = 0.31377 0.19176
# Poissons Ratio (z) = 0.48718 0.30699
#
# Static dielectric constant tensor:
#      x y z
#    x 3.579220 -0.169960 -0.063620 
#    y -0.169960 3.436400 0.263440 
#    z -0.063620 0.263440 3.346850 
# 
# 
# High freq. dielectric constant tensor:
#      x y z
#    x 1.753980 -0.011320 -0.005700 
#    y -0.011320 1.753560 0.024780 
#    z -0.005700 0.024780 1.730920 
# 
# From -- ./inp_files/217894.got.cif
#   From: 2010.06.25/outbox.cif.g09.slc.cpg/sg2_109_cif.got.tgz:217894.got - 2010.06.27 13:26:56.
