data_PCOD8002141
_publ_section_title
;
Structure prediction by ZEFSAII (Michael W. Deem and Ramdas Pophale) SiO2 
 PCOD8002141
Probable space group: P -1
;
_chemical_formula_sum "Si O2"
_cell_formula_units_Z 14
_cell_length_a 7.204174
_cell_length_b 14.485887
_cell_length_c 18.972563
_cell_angle_alpha 32.398033
_cell_angle_beta 63.076921
_cell_angle_gamma 87.135202
_cell_volume 679.487300
_symmetry_space_group_name_H-M "P -1"
_symmetry_group_IT_number 2
_symmetry_cell_setting 'triclinic'
loop_
_space_group_symop_operation_xyz
x,y,z
-x,-y,-z
loop_
_atom_site_type_symbol
_atom_site_label
_atom_site_fract_x
_atom_site_fract_y
_atom_site_fract_z
Si Si1 0.677638 0.778642 0.286471
Si Si2 0.522035 0.784314 0.556483
Si Si3 0.204386 0.731331 0.770137
Si Si4 0.225803 0.291317 0.225065
Si Si5 0.953742 0.805277 0.535325
Si Si6 0.767457 0.065179 0.953379
Si Si7 0.223586 0.606880 0.583044
O O1 0.500000 0.500000 0.500000
O O2 0.528282 0.795801 0.365424
O O3 0.023698 0.932794 0.134702
O O4 0.635062 0.866013 0.165662
O O5 0.392000 0.706369 0.708197
O O6 0.790288 0.806530 0.498316
O O7 0.298130 0.592855 0.659045
O O8 0.613235 0.035023 0.361356
O O9 0.051381 0.768082 0.717288
O O10 0.000000 0.500000 0.000000
O O11 0.264149 0.368007 0.250972
O O12 0.500000 0.500000 0.000000
O O13 0.189974 0.065301 0.364982
O O14 0.092380 0.720881 0.529305
O O15 0.981025 0.334274 0.773790
O O16 0.500000 0.000000 0.000000
#
# Coordination Sequence:
#
# PCOD8002141 Si02
#       7
#     2   2   2   2   2   2   2
#     4   9  22  43  67  95 127 164 201 259 325 388
#     4  10  22  38  55  86 121 160 208 254 309 355
#     4  10  20  35  58  81 116 168 210 255 306 356
#     4  10  20  35  56  81 118 163 214 255 302 354
#     4  10  22  37  55  86 121 160 206 259 300 359
#     4  10  23  44  70  98 126 163 208 259 324 393
#     4  11  23  39  64  94 129 165 207 265 314 381
#
# _framework density 20.603769
#
# number of rings (size 3 to 8) (size 9 to 14) (size 15 to 20)
#    0.000    2.000    1.429    0.857    4.000    9.143 
#    0.000    1.429    0.000    0.000    0.000    0.000 
#    0.000    0.000    0.000    0.000    0.000    0.000 
#
# Total GULP energy -173446.568579 kJ/mol
# GULP energy per Si atom -12389.040613 kJ/mol
# Density = 2.055687 g / cm^3
# Si number density = 20.603769 Si / 1000 Ang^3
#
#
#
# Elastic Constant Matrix: (Units=GPa)
#
#
# Indices 1 2 3 4 5 6 
#
# 1 131.6033 56.2545 35.9619 4.0731 -2.4870 -12.1266
# 2 56.2545 110.4961 47.8298 4.7115 -6.6331 -15.0074
# 3 35.9619 47.8298 134.5036 16.2292 6.4783 -7.0614
# 4 4.0731 4.7115 16.2292 23.5136 -1.0219 -7.4798
# 5 -2.4870 -6.6331 6.4783 -1.0219 31.1530 -1.5621
# 6 -12.1266 -15.0074 -7.0614 -7.4798 -1.5621 37.3047
#
#
#
# Elastic Compliance Matrix: (Units=1/GPa)
#
#
# Indices 1 2 3 4 5 6 
#
# 1 0.009882 -0.004401 -0.001054 0.000322 0.000147 0.001313
# 2 -0.004401 0.013634 -0.003897 0.002116 0.003627 0.003893
# 3 -0.001054 -0.003897 0.009971 -0.006528 -0.003275 -0.001469
# 4 0.000322 0.002116 -0.006528 0.049872 0.003965 0.009886
# 5 0.000147 0.003627 -0.003275 0.003965 0.033850 0.003099
# 6 0.001313 0.003893 -0.001469 0.009886 0.003099 0.030633
#
#
# Mechanical properties :
#
#
# Convention : Reuss Voigt Hill
#
# Bulk Modulus (GPa) = 67.65153 72.96615 70.30884
# Shear Modulus (GPa) = 29.15915 34.16470 31.66193
#
# Velocity S-wave (km/s) = 3.76604 4.07649 3.92434
# Velocity P-wave (km/s) = 7.19837 7.59262 7.39812
#
# Compressibility (1/GPa) = 0.01478163
#
# Stress axis : x y z
#
# Youngs Moduli (GPa) = 101.19697 73.34664 100.29419
#
# Poissons Ratio (x) = 0.32281 0.10570
# Poissons Ratio (y) = 0.44539 0.39086
# Poissons Ratio (z) = 0.10666 0.28584
#
# Static dielectric constant tensor:
#      x y z
#    x 5.049870 -0.207010 0.221780 
#    y -0.207010 3.779480 0.230490 
#    z 0.221780 0.230490 3.889050 
# 
# 
# High freq. dielectric constant tensor:
#      x y z
#    x 1.819690 -0.019970 0.002780 
#    y -0.019970 1.789020 0.009940 
#    z 0.002780 0.009940 1.805530 
# 
# From -- ./inp_files/559653.got.cif
#   From: 2010.06.25/outbox.cif.g09.slc.cpg/sg2_280_cif.got.tgz:559653.got - 2010.06.27 13:26:56.
