data_PCOD8002447
_publ_section_title
;
Structure prediction by ZEFSAII (Michael W. Deem and Ramdas Pophale) SiO2 
 PCOD8002447
Probable space group: P -1
;
_chemical_formula_sum "Si O2"
_cell_formula_units_Z 14
_cell_length_a 8.359847
_cell_length_b 8.837391
_cell_length_c 21.670982
_cell_angle_alpha 31.549610
_cell_angle_beta 119.205370
_cell_angle_gamma 122.843620
_cell_volume 702.604810
_symmetry_space_group_name_H-M "P -1"
_symmetry_group_IT_number 2
_symmetry_cell_setting 'triclinic'
loop_
_space_group_symop_operation_xyz
x,y,z
-x,-y,-z
loop_
_atom_site_type_symbol
_atom_site_label
_atom_site_fract_x
_atom_site_fract_y
_atom_site_fract_z
Si Si1 0.974329 0.146304 0.361381
Si Si2 0.865762 0.260667 0.172629
Si Si3 0.778628 0.934469 0.741904
Si Si4 0.193298 0.459672 0.403999
Si Si5 0.532913 0.231909 0.746276
Si Si6 0.687813 0.721499 0.932008
Si Si7 0.626444 0.828102 0.620503
O O1 0.027359 0.373169 0.350244
O O2 0.160880 0.049965 0.408474
O O3 0.894101 0.306412 0.235351
O O4 0.813115 0.839769 0.454496
O O5 0.040259 0.177327 0.202713
O O6 0.676789 0.991022 0.218210
O O7 0.859577 0.584789 0.031762
O O8 0.676856 0.743798 0.847951
O O9 0.627783 0.887554 0.673536
O O10 0.851154 0.288252 0.648231
O O11 0.404001 0.575962 0.372017
O O12 0.546100 0.466286 0.722878
O O13 0.693825 0.047788 0.848858
O O14 0.500000 0.500000 0.000000
O O15 0.500000 0.000000 0.500000
#
# Coordination Sequence:
#
# PCOD8002447 Si02
#       7
#     2   2   2   2   2   2   2
#     4   9  20  37  55  82 117 146 193 226 278 339
#     4  10  20  35  62  83 111 148 187 235 280 324
#     4  10  21  37  60  83 114 146 191 231 283 327
#     4   9  19  38  53  81 119 147 184 232 276 340
#     4   9  20  38  56  82 118 147 188 227 278 336
#     4   9  19  41  57  82 112 148 191 233 274 335
#     4  10  22  37  55  86 120 148 184 232 282 336
#
# _framework density 19.925854000000001
#
# number of rings (size 3 to 8) (size 9 to 14) (size 15 to 20)
#    0.000    2.571    0.000    0.429    4.000    1.714 
#   20.571   15.714    0.000    0.000    0.000    0.000 
#    0.000    0.000    0.000    0.000    0.000    0.000 
#
# Total GULP energy -173505.404929 kJ/mol
# GULP energy per Si atom -12393.243209 kJ/mol
# Density = 1.988050 g / cm^3
# Si number density = 19.925854 Si / 1000 Ang^3
#
#
#
# Elastic Constant Matrix: (Units=GPa)
#
#
# Indices 1 2 3 4 5 6 
#
# 1 58.5612 35.8907 43.7427 1.5333 -0.5723 -3.2782
# 2 35.8907 133.1744 77.8302 7.0827 9.8486 -26.7229
# 3 43.7427 77.8302 139.3630 15.1292 1.4761 -12.8409
# 4 1.5333 7.0827 15.1292 30.6667 -1.4236 -3.0296
# 5 -0.5723 9.8486 1.4761 -1.4236 32.4524 -5.0224
# 6 -3.2782 -26.7229 -12.8409 -3.0296 -5.0224 32.0547
#
#
#
# Elastic Compliance Matrix: (Units=1/GPa)
#
#
# Indices 1 2 3 4 5 6 
#
# 1 0.023491 -0.003668 -0.005831 0.002369 0.001505 -0.002532
# 2 -0.003668 0.013719 -0.005771 0.000568 -0.002642 0.008390
# 3 -0.005831 -0.005771 0.012665 -0.004653 0.000767 -0.000653
# 4 0.002369 0.000568 -0.004653 0.034992 0.001999 0.002472
# 5 0.001505 -0.002642 0.000767 0.001999 0.032237 0.003498
# 6 -0.002532 0.008390 -0.000653 0.002472 0.003498 0.038452
#
#
# Mechanical properties :
#
#
# Convention : Reuss Voigt Hill
#
# Bulk Modulus (GPa) = 51.72050 71.78065 61.75058
# Shear Modulus (GPa) = 25.96850 30.61043 28.28947
#
# Velocity S-wave (km/s) = 3.61398 3.92371 3.77203
# Velocity P-wave (km/s) = 6.58994 7.52525 7.07307
#
# Compressibility (1/GPa) = 0.01933469
#
# Stress axis : x y z
#
# Youngs Moduli (GPa) = 42.56977 72.89221 78.95566
#
# Poissons Ratio (x) = 0.26740 0.46038
# Poissons Ratio (y) = 0.15617 0.45564
# Poissons Ratio (z) = 0.24822 0.42065
#
# Static dielectric constant tensor:
#      x y z
#    x 3.612730 -0.147620 -0.007890 
#    y -0.147620 3.691890 -0.091500 
#    z -0.007890 -0.091500 4.224060 
# 
# 
# High freq. dielectric constant tensor:
#      x y z
#    x 1.772590 -0.010550 -0.006870 
#    y -0.010550 1.768760 -0.006760 
#    z -0.006870 -0.006760 1.780280 
# 
# From -- ./inp_files/169192.got.cif
#   From: 2010.06.25/outbox.cif.g09.slc.cpg/sg2_85_cif.got.tgz:169192.got - 2010.06.27 13:26:56.
