data_PCOD8002312
_publ_section_title
;
Structure prediction by ZEFSAII (Michael W. Deem and Ramdas Pophale) SiO2 
 PCOD8002312
Probable space group: P -1
;
_chemical_formula_sum "Si O2"
_cell_formula_units_Z 14
_cell_length_a 17.108394
_cell_length_b 9.010275
_cell_length_c 14.134666
_cell_angle_alpha 105.459220
_cell_angle_beta 21.507957
_cell_angle_gamma 96.786587
_cell_volume 716.099414
_symmetry_space_group_name_H-M "P -1"
_symmetry_group_IT_number 2
_symmetry_cell_setting 'triclinic'
loop_
_space_group_symop_operation_xyz
x,y,z
-x,-y,-z
loop_
_atom_site_type_symbol
_atom_site_label
_atom_site_fract_x
_atom_site_fract_y
_atom_site_fract_z
Si Si1 0.004070 0.006645 0.128825
Si Si2 0.732567 0.254924 0.952608
Si Si3 0.050177 0.902055 0.582762
Si Si4 0.567525 0.314081 0.356372
Si Si5 0.961153 0.658563 0.510945
Si Si6 0.291597 0.101807 0.684489
Si Si7 0.495627 0.180916 0.041312
O O1 0.974642 0.101140 0.277205
O O2 0.066258 0.131162 0.008125
O O3 0.765033 0.989361 0.360310
O O4 0.206140 0.822408 0.874062
O O5 0.821564 0.373870 0.809313
O O6 0.616872 0.331256 0.193716
O O7 0.538221 0.216118 0.107614
O O8 0.960100 0.091106 0.681831
O O9 0.907251 0.810625 0.671746
O O10 0.312304 0.804635 0.243302
O O11 0.500000 0.500000 0.500000
O O12 0.346907 0.259856 0.612455
O O13 0.743424 0.683431 0.695592
O O14 0.000000 0.500000 0.500000
O O15 0.500000 0.000000 0.500000
O O16 0.500000 0.000000 0.000000
#
# Coordination Sequence:
#
# PCOD8002312 Si02
#       7
#     2   2   2   2   2   2   2
#     4   9  20  37  60  84 113 149 197 242 282 340
#     4  10  21  37  57  86 111 149 203 233 275 355
#     4  10  20  35  59  88 109 146 201 233 278 354
#     4  10  22  37  58  85 117 151 193 241 291 341
#     4  11  23  38  55  87 125 148 183 243 293 338
#     4   9  19  37  56  79 110 148 193 237 284 334
#     4  11  19  35  64  83 110 154 190 230 286 341
#
# _framework density 19.550359
#
# number of rings (size 3 to 8) (size 9 to 14) (size 15 to 20)
#    0.000    2.000    2.857    0.857    2.000    5.143 
#    0.000    7.143    0.000    0.000    0.000    0.000 
#    0.000    0.000    0.000    0.000    0.000    0.000 
#
# Total GULP energy -173464.206426 kJ/mol
# GULP energy per Si atom -12390.300459 kJ/mol
# Density = 1.950586 g / cm^3
# Si number density = 19.550359 Si / 1000 Ang^3
#
#
#
# Elastic Constant Matrix: (Units=GPa)
#
#
# Indices 1 2 3 4 5 6 
#
# 1 146.3444 45.5254 57.5770 -11.8715 11.2810 5.7088
# 2 45.5254 110.9082 48.4336 -21.6304 17.4625 -6.2535
# 3 57.5770 48.4336 70.0687 -8.2667 7.3073 9.8704
# 4 -11.8715 -21.6304 -8.2667 26.7387 2.9619 0.0436
# 5 11.2810 17.4625 7.3073 2.9619 41.7699 -5.2025
# 6 5.7088 -6.2535 9.8704 0.0436 -5.2025 30.3222
#
#
#
# Elastic Compliance Matrix: (Units=1/GPa)
#
#
# Indices 1 2 3 4 5 6 
#
# 1 0.010301 0.000008 -0.008117 0.002232 -0.001468 0.000450
# 2 0.000008 0.017059 -0.010809 0.011035 -0.005264 0.006116
# 3 -0.008117 -0.010809 0.029402 -0.003301 0.000534 -0.010175
# 4 0.002232 0.011035 -0.003301 0.047157 -0.007793 0.001525
# 5 -0.001468 -0.005264 0.000534 -0.007793 0.027463 0.003740
# 6 0.000450 0.006116 -0.010175 0.001525 0.003740 0.038108
#
#
# Mechanical properties :
#
#
# Convention : Reuss Voigt Hill
#
# Bulk Modulus (GPa) = 52.83879 70.04369 61.44124
# Shear Modulus (GPa) = 23.40446 31.48518 27.44482
#
# Velocity S-wave (km/s) = 3.46372 4.01741 3.75080
# Velocity P-wave (km/s) = 6.56370 7.57790 7.08896
#
# Compressibility (1/GPa) = 0.01892549
#
# Stress axis : x y z
#
# Youngs Moduli (GPa) = 97.07944 58.61869 34.01165
#
# Poissons Ratio (x) = -0.00048 0.27607
# Poissons Ratio (y) = -0.00080 0.36765
# Poissons Ratio (z) = 0.78799 0.63364
#
# Static dielectric constant tensor:
#      x y z
#    x 3.818620 0.036990 -0.089700 
#    y 0.036990 3.590530 -0.408940 
#    z -0.089700 -0.408940 3.601380 
# 
# 
# High freq. dielectric constant tensor:
#      x y z
#    x 1.783320 -0.001610 -0.003200 
#    y -0.001610 1.746840 -0.029380 
#    z -0.003200 -0.029380 1.740800 
# 
# From -- ./inp_files/35000.got.cif
#   From: 2010.06.25/outbox.cif.g09.slc.cpg/sg2_18_cif.got.tgz:35000.got - 2010.06.27 13:26:56.
