data_PCOD8002895
_publ_section_title
;
Structure prediction by ZEFSAII (Michael W. Deem and Ramdas Pophale) SiO2 
 PCOD8002895
Probable space group: P -1
;
_chemical_formula_sum "Si O2"
_cell_formula_units_Z 16
_cell_length_a 6.444867
_cell_length_b 22.245768
_cell_length_c 8.542772
_cell_angle_alpha 124.882050
_cell_angle_beta 130.185206
_cell_angle_gamma 77.518140
_cell_volume 744.385157
_symmetry_space_group_name_H-M "P -1"
_symmetry_group_IT_number 2
_symmetry_cell_setting 'triclinic'
loop_
_space_group_symop_operation_xyz
x,y,z
-x,-y,-z
loop_
_atom_site_type_symbol
_atom_site_label
_atom_site_fract_x
_atom_site_fract_y
_atom_site_fract_z
Si Si1 0.641895 0.407543 0.875100
Si Si2 0.735047 0.721131 0.671274
Si Si3 0.105914 0.110706 0.594926
Si Si4 0.622470 0.158987 0.294717
Si Si5 0.801645 0.609186 0.786955
Si Si6 0.262525 0.844604 0.012165
Si Si7 0.066406 0.053332 0.842213
Si Si8 0.548070 0.482575 0.257856
O O1 0.362592 0.342014 0.605176
O O2 0.674050 0.472973 0.855838
O O3 0.647337 0.440480 0.100044
O O4 0.908622 0.371900 0.948174
O O5 0.502044 0.768549 0.637858
O O6 0.747168 0.684155 0.792763
O O7 0.045043 0.769668 0.855761
O O8 0.424896 0.153558 0.769827
O O9 0.084994 0.088665 0.731873
O O10 0.892250 0.164034 0.544307
O O11 0.011914 0.036927 0.329355
O O12 0.740661 0.154048 0.172832
O O13 0.377077 0.085051 0.113145
O O14 0.796474 0.545452 0.555093
O O15 0.567290 0.579200 0.758252
O O16 0.170619 0.919303 0.135559
#
# Coordination Sequence:
#
# PCOD8002895 Si02
#       8
#     2   2   2   2   2   2   2   2
#     4  10  20  36  60  85 113 148 188 232 285 339
#     4  10  24  39  52  82 121 156 192 230 278 343
#     4  10  20  37  63  85 111 151 190 240 293 334
#     4  10  22  38  56  82 118 153 191 236 283 341
#     4  10  20  37  60  82 114 150 185 234 286 333
#     4  10  22  38  55  82 118 151 193 237 279 343
#     4   9  20  38  59  88 114 141 192 246 291 337
#     4   9  20  37  59  89 110 138 190 242 282 330
#
# _framework density 21.494250999999998
#
# number of rings (size 3 to 8) (size 9 to 14) (size 15 to 20)
#    0.000    2.250    0.000    1.500    0.000    8.500 
#    0.000    2.500    0.000    0.000    0.000    0.000 
#    0.000    0.000    0.000    0.000    0.000    0.000 
#
# Total GULP energy -198337.384587 kJ/mol
# GULP energy per Si atom -12396.086537 kJ/mol
# Density = 2.144533 g / cm^3
# Si number density = 21.494251 Si / 1000 Ang^3
#
#
#
# Elastic Constant Matrix: (Units=GPa)
#
#
# Indices 1 2 3 4 5 6 
#
# 1 80.9733 33.8283 34.6512 -2.2580 15.3186 -2.8731
# 2 33.8283 102.9249 36.8670 -7.1806 26.2963 -1.7712
# 3 34.6512 36.8670 83.9329 -9.4430 24.8595 0.8079
# 4 -2.2580 -7.1806 -9.4430 30.3710 -7.0006 6.9160
# 5 15.3186 26.2963 24.8595 -7.0006 39.3838 -6.6534
# 6 -2.8731 -1.7712 0.8079 6.9160 -6.6534 26.9931
#
#
#
# Elastic Compliance Matrix: (Units=1/GPa)
#
#
# Indices 1 2 3 4 5 6 
#
# 1 0.016128 -0.003341 -0.005187 -0.001820 -0.000765 0.001930
# 2 -0.003341 0.013313 -0.002576 0.000977 -0.005981 -0.001129
# 3 -0.005187 -0.002576 0.017894 0.003752 -0.007581 -0.004087
# 4 -0.001820 0.000977 0.003752 0.036868 0.002717 -0.009018
# 5 -0.000765 -0.005981 -0.007581 0.002717 0.036302 0.008005
# 6 0.001930 -0.001129 -0.004087 -0.009018 0.008005 0.041584
#
#
# Mechanical properties :
#
#
# Convention : Reuss Voigt Hill
#
# Bulk Modulus (GPa) = 39.79919 53.16933 46.48426
# Shear Modulus (GPa) = 25.95045 30.18190 28.06618
#
# Velocity S-wave (km/s) = 3.47842 3.75131 3.61744
# Velocity P-wave (km/s) = 5.88973 6.59950 6.25469
#
# Compressibility (1/GPa) = 0.02512614
#
# Stress axis : x y z
#
# Youngs Moduli (GPa) = 62.00440 75.11206 55.88366
#
# Poissons Ratio (x) = 0.25094 0.28990
# Poissons Ratio (y) = 0.20715 0.14398
# Poissons Ratio (z) = 0.32165 0.19352
#
# Static dielectric constant tensor:
#      x y z
#    x 3.678980 -0.044910 0.008290 
#    y -0.044910 3.760900 -0.007070 
#    z 0.008290 -0.007070 4.106140 
# 
# 
# High freq. dielectric constant tensor:
#      x y z
#    x 1.832170 -0.003770 0.000100 
#    y -0.003770 1.836100 -0.005390 
#    z 0.000100 -0.005390 1.855630 
# 
# From -- ./inp_files/48092.got.cif
#   From: 2010.06.25/outbox.cif.g09.slc.cpg/sg2_25_cif.got.tgz:48092.got - 2010.06.27 13:26:56.
