data_PCOD8002053
_publ_section_title
;
Structure prediction by ZEFSAII (Michael W. Deem and Ramdas Pophale) SiO2 
 PCOD8002053
Probable space group: P -1
;
_chemical_formula_sum "Si O2"
_cell_formula_units_Z 16
_cell_length_a 8.745906
_cell_length_b 10.154597
_cell_length_c 13.482102
_cell_angle_alpha 72.002701
_cell_angle_beta 88.390353
_cell_angle_gamma 45.020516
_cell_volume 772.622462
_symmetry_space_group_name_H-M "P -1"
_symmetry_group_IT_number 2
_symmetry_cell_setting 'triclinic'
loop_
_space_group_symop_operation_xyz
x,y,z
-x,-y,-z
loop_
_atom_site_type_symbol
_atom_site_label
_atom_site_fract_x
_atom_site_fract_y
_atom_site_fract_z
Si Si1 0.632220 0.321802 0.959119
Si Si2 0.418723 0.981259 0.354708
Si Si3 0.653155 0.545087 0.253804
Si Si4 0.076657 0.796723 0.521681
Si Si5 0.183624 0.287896 0.727568
Si Si6 0.772464 0.159867 0.675347
Si Si7 0.037483 0.104345 0.862778
Si Si8 0.196865 0.288465 0.444257
O O1 0.439863 0.428297 0.857286
O O2 0.852518 0.242484 0.921748
O O3 0.500000 0.500000 0.000000
O O4 0.725915 0.116890 0.052202
O O5 0.574349 0.920196 0.272513
O O6 0.217400 0.003712 0.331847
O O7 0.597291 0.795411 0.472799
O O8 0.297564 0.197907 0.351797
O O9 0.804593 0.324782 0.349494
O O10 0.783882 0.603298 0.225222
O O11 0.471417 0.680831 0.310833
O O12 0.218552 0.724293 0.434109
O O13 0.887155 0.808318 0.495178
O O14 0.000000 0.000000 0.500000
O O15 0.076836 0.234682 0.801415
O O16 0.001984 0.463651 0.607472
O O17 0.955405 0.064439 0.781176
#
# Coordination Sequence:
#
# PCOD8002053 Si02
#       8
#     2   2   2   2   2   2   2   2
#     4  10  23  43  65  86 115 148 197 250 291 346
#     4  10  20  35  53  81 120 161 191 238 282 346
#     4   9  22  39  59  86 115 158 194 234 299 349
#     4  11  20  33  56  88 120 151 194 239 282 342
#     4  10  21  38  58  80 120 150 191 243 291 345
#     4  10  20  37  58  84 119 156 195 241 284 344
#     4  10  23  41  62  91 112 153 199 241 295 345
#     4  10  21  35  51  82 122 159 198 228 289 341
#
# _framework density 20.708690000000001
#
# number of rings (size 3 to 8) (size 9 to 14) (size 15 to 20)
#    0.000    2.000    1.250    1.500    1.750    5.500 
#    0.000    0.625    0.000    0.000    0.000    0.000 
#    0.000    0.000    0.000    0.000    0.000    0.000 
#
# Total GULP energy -198219.632128 kJ/mol
# GULP energy per Si atom -12388.727008 kJ/mol
# Density = 2.066156 g / cm^3
# Si number density = 20.708690 Si / 1000 Ang^3
#
#
#
# Elastic Constant Matrix: (Units=GPa)
#
#
# Indices 1 2 3 4 5 6 
#
# 1 72.5424 17.3160 54.2121 -4.1535 -9.7261 5.8736
# 2 17.3160 47.5314 35.7784 -0.0319 -1.7115 7.4333
# 3 54.2121 35.7784 107.9831 0.7416 6.2956 10.3156
# 4 -4.1535 -0.0319 0.7416 26.0853 3.7991 1.7554
# 5 -9.7261 -1.7115 6.2956 3.7991 34.3869 -5.3501
# 6 5.8736 7.4333 10.3156 1.7554 -5.3501 23.9953
#
#
#
# Elastic Compliance Matrix: (Units=1/GPa)
#
#
# Indices 1 2 3 4 5 6 
#
# 1 0.025067 0.001351 -0.013729 0.002908 0.009546 0.001264
# 2 0.001351 0.028858 -0.009998 0.000401 0.002928 -0.004349
# 3 -0.013729 -0.009998 0.020371 -0.001245 -0.008615 -0.004130
# 4 0.002908 0.000401 -0.001245 0.039685 -0.003950 -0.004085
# 5 0.009546 0.002928 -0.008615 -0.003950 0.035281 0.008615
# 6 0.001264 -0.004349 -0.004130 -0.004085 0.008615 0.046708
#
#
# Mechanical properties :
#
#
# Convention : Reuss Voigt Hill
#
# Bulk Modulus (GPa) = 33.84859 49.18556 41.51708
# Shear Modulus (GPa) = 19.95448 24.94354 22.44901
#
# Velocity S-wave (km/s) = 3.10753 3.47435 3.29605
# Velocity P-wave (km/s) = 5.40890 6.31645 5.88021
#
# Compressibility (1/GPa) = 0.02954332
#
# Stress axis : x y z
#
# Youngs Moduli (GPa) = 39.89323 34.65237 49.08852
#
# Poissons Ratio (x) = -0.04680 0.67396
# Poissons Ratio (y) = -0.05388 0.49077
# Poissons Ratio (z) = 0.54771 0.34644
#
# Static dielectric constant tensor:
#      x y z
#    x 3.946080 -0.109200 0.032570 
#    y -0.109200 3.829750 0.170180 
#    z 0.032570 0.170180 3.917270 
# 
# 
# High freq. dielectric constant tensor:
#      x y z
#    x 1.814430 -0.008830 0.005980 
#    y -0.008830 1.816220 0.013030 
#    z 0.005980 0.013030 1.789740 
# 
# From -- ./inp_files/404789.got.cif
#   From: 2010.06.25/outbox.cif.g09.slc.cpg/sg2_203_cif.got.tgz:404789.got - 2010.06.27 13:26:56.
