data_PCOD8002869
_publ_section_title
;
Structure prediction by ZEFSAII (Michael W. Deem and Ramdas Pophale) SiO2 
 PCOD8002869
Probable space group: P -1
;
_chemical_formula_sum "Si O2"
_cell_formula_units_Z 16
_cell_length_a 12.152288
_cell_length_b 7.918005
_cell_length_c 15.798668
_cell_angle_alpha 147.670912
_cell_angle_beta 117.926959
_cell_angle_gamma 73.216906
_cell_volume 699.630301
_symmetry_space_group_name_H-M "P -1"
_symmetry_group_IT_number 2
_symmetry_cell_setting 'triclinic'
loop_
_space_group_symop_operation_xyz
x,y,z
-x,-y,-z
loop_
_atom_site_type_symbol
_atom_site_label
_atom_site_fract_x
_atom_site_fract_y
_atom_site_fract_z
Si Si1 0.520357 0.935134 0.752972
Si Si2 0.619078 0.889861 0.454304
Si Si3 0.860439 0.025799 0.690986
Si Si4 0.730776 0.404463 0.931064
Si Si5 0.321974 0.549715 0.401834
Si Si6 0.947248 0.815751 0.794531
Si Si7 0.521601 0.723656 0.952062
Si Si8 0.962963 0.492741 0.158215
O O1 0.381230 0.769847 0.596629
O O2 0.578089 0.640769 0.684402
O O3 0.609167 0.112235 0.783533
O O4 0.514444 0.199435 0.933542
O O5 0.573228 0.606559 0.250878
O O6 0.500000 0.000000 0.500000
O O7 0.723014 0.795953 0.516355
O O8 0.707562 0.207490 0.576680
O O9 0.826968 0.310977 0.857740
O O10 0.946688 0.179489 0.707358
O O11 0.941142 0.819512 0.690671
O O12 0.670011 0.693047 0.993613
O O13 0.816484 0.505356 0.089397
O O14 0.199202 0.280729 0.268949
O O15 0.021227 0.556480 0.754163
O O16 0.006467 0.181115 0.002028
O O17 0.500000 0.000000 0.000000
#
# Coordination Sequence:
#
# PCOD8002869 Si02
#       8
#     2   2   2   2   2   2   2   2
#     4  11  23  40  63  94 131 169 214 266 332 391
#     4  12  23  40  64  96 133 166 215 271 329 385
#     4  11  21  39  66  97 135 164 218 275 318 386
#     4  11  21  41  61  91 131 170 211 267 320 388
#     4  11  21  38  67  96 128 165 217 273 322 388
#     4  10  20  36  60 100 127 165 213 271 325 378
#     4  12  27  41  61  95 134 177 210 265 335 392
#     4  10  21  38  62  98 133 165 220 271 323 379
#
# _framework density 22.869221
#
# number of rings (size 3 to 8) (size 9 to 14) (size 15 to 20)
#    0.000    1.000    6.250    2.625    3.500    0.000 
#    2.250    0.000    0.000    3.750    0.000    0.000 
#    0.000    0.000    0.000    0.000    0.000    0.000 
#
# Total GULP energy -198276.106601 kJ/mol
# GULP energy per Si atom -12392.256663 kJ/mol
# Density = 2.281717 g / cm^3
# Si number density = 22.869221 Si / 1000 Ang^3
#
#
#
# Elastic Constant Matrix: (Units=GPa)
#
#
# Indices 1 2 3 4 5 6 
#
# 1 35.9191 23.7174 28.3460 -0.3604 8.2458 -0.8981
# 2 23.7174 174.6305 25.9401 -16.2893 9.0485 -18.0430
# 3 28.3460 25.9401 95.5977 -19.0104 -0.1084 -4.2046
# 4 -0.3604 -16.2893 -19.0104 35.3473 -3.8730 13.5940
# 5 8.2458 9.0485 -0.1084 -3.8730 34.6018 -3.4852
# 6 -0.8981 -18.0430 -4.2046 13.5940 -3.4852 33.3253
#
#
#
# Elastic Compliance Matrix: (Units=1/GPa)
#
#
# Indices 1 2 3 4 5 6 
#
# 1 0.043976 -0.004297 -0.013913 -0.010236 -0.010528 0.000178
# 2 -0.004297 0.006798 -0.000057 0.001984 -0.000258 0.002722
# 3 -0.013913 -0.000057 0.016493 0.009911 0.004298 -0.001918
# 4 -0.010236 0.001984 0.009911 0.040319 0.005068 -0.013868
# 5 -0.010528 -0.000258 0.004298 0.005068 0.032200 0.001419
# 6 0.000178 0.002722 -0.001918 -0.013868 0.001419 0.037049
#
#
# Mechanical properties :
#
#
# Convention : Reuss Voigt Hill
#
# Bulk Modulus (GPa) = 32.53832 51.35048 41.94440
# Shear Modulus (GPa) = 22.36006 35.86447 29.11227
#
# Velocity S-wave (km/s) = 3.13027 3.96440 3.57177
# Velocity P-wave (km/s) = 5.22720 6.59227 5.94902
#
# Compressibility (1/GPa) = 0.03073300
#
# Stress axis : x y z
#
# Youngs Moduli (GPa) = 22.73972 147.10331 60.63300
#
# Poissons Ratio (x) = 0.63208 0.84360
# Poissons Ratio (y) = 0.09771 0.00344
# Poissons Ratio (z) = 0.31638 0.00834
#
# Static dielectric constant tensor:
#      x y z
#    x 3.688220 -0.198560 0.109710 
#    y -0.198560 4.946950 -0.179590 
#    z 0.109710 -0.179590 3.998110 
# 
# 
# High freq. dielectric constant tensor:
#      x y z
#    x 1.854300 -0.000480 0.033600 
#    y -0.000480 1.933620 -0.016020 
#    z 0.033600 -0.016020 1.883590 
# 
# From -- ./inp_files/566335.got.cif
#   From: 2010.06.25/outbox.cif.g09.slc.cpg/sg2_284_cif.got.tgz:566335.got - 2010.06.27 13:26:56.
