data_PCOD8002888
_publ_section_title
;
Structure prediction by ZEFSAII (Michael W. Deem and Ramdas Pophale) SiO2 
 PCOD8002888
Probable space group: P -1
;
_chemical_formula_sum "Si O2"
_cell_formula_units_Z 14
_cell_length_a 10.931494
_cell_length_b 14.360433
_cell_length_c 9.299569
_cell_angle_alpha 122.679804
_cell_angle_beta 119.513558
_cell_angle_gamma 34.144191
_cell_volume 686.433964
_symmetry_space_group_name_H-M "P -1"
_symmetry_group_IT_number 2
_symmetry_cell_setting 'triclinic'
loop_
_space_group_symop_operation_xyz
x,y,z
-x,-y,-z
loop_
_atom_site_type_symbol
_atom_site_label
_atom_site_fract_x
_atom_site_fract_y
_atom_site_fract_z
Si Si1 0.429777 0.339911 0.568709
Si Si2 0.962423 0.149370 0.145381
Si Si3 0.485858 0.473026 0.237665
Si Si4 0.784078 0.648527 0.127273
Si Si5 0.411699 0.932133 0.361771
Si Si6 0.768810 0.546683 0.750835
Si Si7 0.797614 0.428206 0.096925
O O1 0.571352 0.363339 0.630341
O O2 0.572195 0.152899 0.556892
O O3 0.307186 0.369607 0.380676
O O4 0.258996 0.483085 0.708904
O O5 0.746419 0.291075 0.238481
O O6 0.946789 0.231561 0.057194
O O7 0.160910 0.081112 0.294090
O O8 0.000000 0.000000 0.000000
O O9 0.358593 0.486442 0.301533
O O10 0.412374 0.485144 0.044097
O O11 0.559497 0.795225 0.204837
O O12 0.907756 0.458743 0.090760
O O13 0.965612 0.634456 0.248346
O O14 0.722063 0.673459 0.944150
O O15 0.500000 0.000000 0.500000
#
# Coordination Sequence:
#
# PCOD8002888 Si02
#       7
#     2   2   2   2   2   2   2
#     4  10  20  36  60  84 114 152 203 239 284 343
#     4  11  20  35  62  87 120 154 192 245 300 343
#     4  10  20  38  61  91 114 152 199 246 291 347
#     4   9  21  40  60  85 116 153 202 239 294 346
#     4  11  25  39  60  89 124 153 197 250 294 347
#     4  10  20  36  65  84 115 154 198 245 283 352
#     4   9  19  35  63  87 112 150 207 249 280 340
#
# _framework density 20.39526
#
# number of rings (size 3 to 8) (size 9 to 14) (size 15 to 20)
#    0.000    2.000    0.000    5.571    6.000    1.143 
#    0.000    1.429    9.429    0.000    0.000    0.000 
#    0.000    0.000    0.000    0.000    0.000    0.000 
#
# Total GULP energy -173461.586982 kJ/mol
# GULP energy per Si atom -12390.113356 kJ/mol
# Density = 2.034884 g / cm^3
# Si number density = 20.395260 Si / 1000 Ang^3
#
#
#
# Elastic Constant Matrix: (Units=GPa)
#
#
# Indices 1 2 3 4 5 6 
#
# 1 98.8057 58.0604 37.3625 -12.2645 19.5826 -9.8796
# 2 58.0604 110.8676 48.4947 -20.9668 10.6037 9.2194
# 3 37.3625 48.4947 122.3931 -34.8910 2.7664 3.5045
# 4 -12.2645 -20.9668 -34.8910 28.2097 4.2143 9.7989
# 5 19.5826 10.6037 2.7664 4.2143 37.9800 -0.6004
# 6 -9.8796 9.2194 3.5045 9.7989 -0.6004 30.6343
#
#
#
# Elastic Compliance Matrix: (Units=1/GPa)
#
#
# Indices 1 2 3 4 5 6 
#
# 1 0.018948 -0.009990 -0.004259 -0.007778 -0.005618 0.011982
# 2 -0.009990 0.018096 0.000472 0.014622 -0.001771 -0.013434
# 3 -0.004259 0.000472 0.015905 0.022046 -0.001705 -0.010420
# 4 -0.007778 0.014622 0.022046 0.084711 -0.011658 -0.036755
# 5 -0.005618 -0.001771 -0.001705 -0.011658 0.031190 0.003257
# 6 0.011982 -0.013434 -0.010420 -0.036755 0.003257 0.053563
#
#
# Mechanical properties :
#
#
# Convention : Reuss Voigt Hill
#
# Bulk Modulus (GPa) = 39.37704 68.87796 54.12750
# Shear Modulus (GPa) = 19.34749 31.90806 25.62778
#
# Velocity S-wave (km/s) = 3.08332 3.95965 3.54864
# Velocity P-wave (km/s) = 5.65904 7.39932 6.58690
#
# Compressibility (1/GPa) = 0.02539551
#
# Stress axis : x y z
#
# Youngs Moduli (GPa) = 52.77666 55.25954 62.87334
#
# Poissons Ratio (x) = 0.55203 0.26781
# Poissons Ratio (y) = 0.52723 -0.02970
# Poissons Ratio (z) = 0.22480 -0.02610
#
# Static dielectric constant tensor:
#      x y z
#    x 4.062650 0.275580 0.107990 
#    y 0.275580 3.683000 -0.162360 
#    z 0.107990 -0.162360 3.690250 
# 
# 
# High freq. dielectric constant tensor:
#      x y z
#    x 1.813550 0.010220 0.009740 
#    y 0.010220 1.761610 -0.018700 
#    z 0.009740 -0.018700 1.801960 
# 
# From -- ./inp_files/187592.got.cif
#   From: 2010.06.25/outbox.cif.g09.slc.cpg/sg2_94_cif.got.tgz:187592.got - 2010.06.27 13:26:56.
