data_PCOD8002230
_publ_section_title
;
Structure prediction by ZEFSAII (Michael W. Deem and Ramdas Pophale) SiO2 
 PCOD8002230
Probable space group: P -1
;
_chemical_formula_sum "Si O2"
_cell_formula_units_Z 14
_cell_length_a 23.547667
_cell_length_b 19.269141
_cell_length_c 9.262953
_cell_angle_alpha 133.659336
_cell_angle_beta 55.825379
_cell_angle_gamma 163.962919
_cell_volume 722.923353
_symmetry_space_group_name_H-M "P -1"
_symmetry_group_IT_number 2
_symmetry_cell_setting 'triclinic'
loop_
_space_group_symop_operation_xyz
x,y,z
-x,-y,-z
loop_
_atom_site_type_symbol
_atom_site_label
_atom_site_fract_x
_atom_site_fract_y
_atom_site_fract_z
Si Si1 0.679816 0.810961 0.522465
Si Si2 0.004487 0.707801 0.995039
Si Si3 0.594017 0.285185 0.914682
Si Si4 0.472783 0.590990 0.784092
Si Si5 0.218734 0.776255 0.481158
Si Si6 0.345778 0.882100 0.984175
Si Si7 0.208824 0.873932 0.365113
O O1 0.465237 0.550615 0.566970
O O2 0.657727 0.668219 0.310633
O O3 0.663453 0.853957 0.464788
O O4 0.933115 0.176055 0.763461
O O5 0.851729 0.583540 0.954691
O O6 0.849630 0.403069 0.785834
O O7 0.250505 0.023187 0.006649
O O8 0.449367 0.062356 0.658036
O O9 0.655417 0.480032 0.111633
O O10 0.463066 0.072600 0.939760
O O11 0.262576 0.926284 0.531577
O O12 0.000000 0.500000 0.500000
O O13 0.337169 0.962941 0.216093
O O14 0.073139 0.488905 0.778038
O O15 0.500000 0.000000 0.000000
#
# Coordination Sequence:
#
# PCOD8002230 Si02
#       7
#     2   2   2   2   2   2   2
#     4   9  18  38  57  81 107 144 183 234 266 310
#     4  10  20  35  58  83 111 139 183 225 271 326
#     4  12  21  36  58  82 113 147 180 219 279 330
#     4   9  19  37  57  81 107 143 187 227 271 311
#     4  12  21  37  56  80 116 152 172 217 283 335
#     4  11  21  32  55  84 108 139 179 230 276 320
#     4  11  20  36  53  78 115 139 180 229 267 319
#
# _framework density 19.365815999999999
#
# number of rings (size 3 to 8) (size 9 to 14) (size 15 to 20)
#    0.857    0.571    4.286    3.857    0.000    0.571 
#    0.000    0.714    0.000    0.857    0.000    0.000 
#    0.000    0.000    0.000    0.000    0.000    0.000 
#
# Total GULP energy -173488.305387 kJ/mol
# GULP energy per Si atom -12392.021813 kJ/mol
# Density = 1.932174 g / cm^3
# Si number density = 19.365816 Si / 1000 Ang^3
#
#
#
# Elastic Constant Matrix: (Units=GPa)
#
#
# Indices 1 2 3 4 5 6 
#
# 1 176.8887 45.8534 47.6003 4.9066 -9.1519 -14.6424
# 2 45.8534 35.2682 -0.0091 -2.6010 5.0384 2.3705
# 3 47.6003 -0.0091 53.1092 6.7165 -2.5439 -12.3486
# 4 4.9066 -2.6010 6.7165 7.3851 -2.2621 2.0440
# 5 -9.1519 5.0384 -2.5439 -2.2621 41.6487 3.8310
# 6 -14.6424 2.3705 -12.3486 2.0440 3.8310 41.5158
#
#
#
# Elastic Compliance Matrix: (Units=1/GPa)
#
#
# Indices 1 2 3 4 5 6 
#
# 1 0.014619 -0.020250 -0.011521 -0.005787 0.004390 0.002765
# 2 -0.020250 0.057919 0.013595 0.020587 -0.008901 -0.006598
# 3 -0.011521 0.013595 0.033051 -0.020559 -0.003859 0.006360
# 4 -0.005787 0.020587 -0.020559 0.172127 0.006020 -0.018362
# 5 0.004390 -0.008901 -0.003859 0.006020 0.026310 -0.001816
# 6 0.002765 -0.006598 0.006360 -0.018362 -0.001816 0.028402
#
#
# Mechanical properties :
#
#
# Convention : Reuss Voigt Hill
#
# Bulk Modulus (GPa) = 14.44297 50.23947 32.34122
# Shear Modulus (GPa) = 12.75965 29.56468 21.16217
#
# Velocity S-wave (km/s) = 2.56964 3.91147 3.30928
# Velocity P-wave (km/s) = 4.03463 6.81161 5.59805
#
# Compressibility (1/GPa) = 0.06923784
#
# Stress axis : x y z
#
# Youngs Moduli (GPa) = 68.40233 17.26559 30.25588
#
# Poissons Ratio (x) = 0.34963 0.34858
# Poissons Ratio (y) = 1.38514 -0.41134
# Poissons Ratio (z) = 0.78808 -0.23473
#
# Static dielectric constant tensor:
#      x y z
#    x 3.710790 0.064870 -0.086000 
#    y 0.064870 3.349040 0.016030 
#    z -0.086000 0.016030 3.567000 
# 
# 
# High freq. dielectric constant tensor:
#      x y z
#    x 1.767080 0.003980 -0.009300 
#    y 0.003980 1.729740 0.002710 
#    z -0.009300 0.002710 1.725890 
# 
# From -- ./inp_files/348138.got.cif
#   From: 2010.06.25/outbox.cif.g09.slc.cpg/sg2_175_cif.got.tgz:348138.got - 2010.06.27 13:26:56.
