data_PCOD8002910
_publ_section_title
;
Structure prediction by ZEFSAII (Michael W. Deem and Ramdas Pophale) SiO2 
 PCOD8002910
Probable space group: P -1
;
_chemical_formula_sum "Si O2"
_cell_formula_units_Z 16
_cell_length_a 20.519321
_cell_length_b 17.159347
_cell_length_c 8.954904
_cell_angle_alpha 56.839728
_cell_angle_beta 48.183227
_cell_angle_gamma 19.910033
_cell_volume 759.531111
_symmetry_space_group_name_H-M "P -1"
_symmetry_group_IT_number 2
_symmetry_cell_setting 'triclinic'
loop_
_space_group_symop_operation_xyz
x,y,z
-x,-y,-z
loop_
_atom_site_type_symbol
_atom_site_label
_atom_site_fract_x
_atom_site_fract_y
_atom_site_fract_z
Si Si1 0.509494 0.137049 0.575618
Si Si2 0.577588 0.057587 0.214341
Si Si3 0.469047 0.673660 0.659418
Si Si4 0.333901 0.639808 0.739386
Si Si5 0.090561 0.551099 0.966534
Si Si6 0.412984 0.736590 0.021802
Si Si7 0.238899 0.279385 0.290960
Si Si8 0.095588 0.757944 0.754699
O O1 0.536562 0.073619 0.433116
O O2 0.609161 0.143241 0.438864
O O3 0.242114 0.399032 0.745209
O O4 0.651909 0.929893 0.685480
O O5 0.408373 0.167094 0.256931
O O6 0.530493 0.211382 0.093343
O O7 0.835186 0.774560 0.078570
O O8 0.282699 0.788117 0.746771
O O9 0.715661 0.410618 0.484896
O O10 0.480318 0.640395 0.852255
O O11 0.500000 0.500000 0.500000
O O12 0.439969 0.465755 0.877655
O O13 0.122031 0.796670 0.821286
O O14 0.096242 0.649849 0.922837
O O15 0.205575 0.366448 0.097617
O O16 0.150469 0.975100 0.213184
O O17 0.000000 0.500000 0.500000
#
# Coordination Sequence:
#
# PCOD8002910 Si02
#       8
#     2   2   2   2   2   2   2   2
#     4  10  21  40  60  83 121 155 193 244 286 340
#     4  10  22  41  60  86 116 154 194 240 290 346
#     4   9  20  37  58  84 118 151 193 238 281 337
#     4  10  20  36  60  87 118 150 191 237 281 343
#     4  10  21  40  61  87 118 154 194 239 290 342
#     4  10  20  38  62  82 115 153 190 235 289 336
#     4  12  23  38  63  86 118 154 194 240 294 346
#     4   9  20  38  61  84 116 154 189 235 286 337
#
# _framework density 21.065626000000002
#
# number of rings (size 3 to 8) (size 9 to 14) (size 15 to 20)
#    0.000    2.000    1.250    1.875    0.000    3.000 
#    2.250    2.500   11.000    0.000    0.000    0.000 
#    0.000    0.000    0.000    0.000    0.000    0.000 
#
# Total GULP energy -198354.019899 kJ/mol
# GULP energy per Si atom -12397.126244 kJ/mol
# Density = 2.101768 g / cm^3
# Si number density = 21.065626 Si / 1000 Ang^3
#
#
#
# Elastic Constant Matrix: (Units=GPa)
#
#
# Indices 1 2 3 4 5 6 
#
# 1 85.5191 38.8120 20.0681 2.6469 -12.8902 -0.8040
# 2 38.8120 64.9442 27.0696 2.4221 -3.5420 1.6457
# 3 20.0681 27.0696 77.2339 7.0124 0.6037 4.0384
# 4 2.6469 2.4221 7.0124 39.5094 -0.7987 -3.0477
# 5 -12.8902 -3.5420 0.6037 -0.7987 24.3148 6.9432
# 6 -0.8040 1.6457 4.0384 -3.0477 6.9432 20.1522
#
#
#
# Elastic Compliance Matrix: (Units=1/GPa)
#
#
# Indices 1 2 3 4 5 6 
#
# 1 0.017521 -0.009476 -0.001207 -0.000302 0.008265 -0.001179
# 2 -0.009476 0.023379 -0.005698 0.000134 -0.001276 -0.000685
# 3 -0.001207 -0.005698 0.015643 -0.002579 -0.001171 -0.002704
# 4 -0.000302 0.000134 -0.002579 0.026126 -0.000541 0.004631
# 5 0.008265 -0.001276 -0.001171 -0.000541 0.050095 -0.016673
# 6 -0.001179 -0.000685 -0.002704 0.004631 -0.016673 0.056618
#
#
# Mechanical properties :
#
#
# Convention : Reuss Voigt Hill
#
# Bulk Modulus (GPa) = 42.05076 44.39963 43.22520
# Shear Modulus (GPa) = 21.73238 26.24512 23.98875
#
# Velocity S-wave (km/s) = 3.21542 3.53352 3.37822
# Velocity P-wave (km/s) = 5.81295 6.14575 5.98166
#
# Compressibility (1/GPa) = 0.02378078
#
# Stress axis : x y z
#
# Youngs Moduli (GPa) = 57.07400 42.77391 63.92603
#
# Poissons Ratio (x) = 0.40533 0.07715
# Poissons Ratio (y) = 0.54084 0.36426
# Poissons Ratio (z) = 0.06888 0.24373
#
# Static dielectric constant tensor:
#      x y z
#    x 4.153020 0.202190 -0.148740 
#    y 0.202190 3.825940 -0.139430 
#    z -0.148740 -0.139430 4.195610 
# 
# 
# High freq. dielectric constant tensor:
#      x y z
#    x 1.826780 0.016560 -0.011540 
#    y 0.016560 1.813300 -0.003200 
#    z -0.011540 -0.003200 1.840410 
# 
# From -- ./inp_files/106281.got.cif
#   From: 2010.06.25/outbox.cif.g09.slc.cpg/sg2_54_cif.got.tgz:106281.got - 2010.06.27 13:26:56.
