data_PCOD8002246
_publ_section_title
;
Structure prediction by ZEFSAII (Michael W. Deem and Ramdas Pophale) SiO2 
 PCOD8002246
Probable space group: P -1
;
_chemical_formula_sum "Si O2"
_cell_formula_units_Z 12
_cell_length_a 16.938688
_cell_length_b 11.061495
_cell_length_c 8.973732
_cell_angle_alpha 137.480332
_cell_angle_beta 150.186858
_cell_angle_gamma 44.211977
_cell_volume 549.823363
_symmetry_space_group_name_H-M "P -1"
_symmetry_group_IT_number 2
_symmetry_cell_setting 'triclinic'
loop_
_space_group_symop_operation_xyz
x,y,z
-x,-y,-z
loop_
_atom_site_type_symbol
_atom_site_label
_atom_site_fract_x
_atom_site_fract_y
_atom_site_fract_z
Si Si1 0.811882 0.241604 0.419940
Si Si2 0.384282 0.392852 0.623554
Si Si3 0.769415 0.012971 0.612085
Si Si4 0.413806 0.590114 0.293440
Si Si5 0.981564 0.992804 0.217225
Si Si6 0.446111 0.225972 0.857104
O O1 0.786055 0.461542 0.557272
O O2 0.949108 0.175885 0.710256
O O3 0.642784 0.190238 0.148736
O O4 0.869654 0.155874 0.276365
O O5 0.464714 0.322725 0.533059
O O6 0.374569 0.226437 0.569038
O O7 0.500000 0.500000 0.000000
O O8 0.732773 0.236271 0.750809
O O9 0.868785 0.941644 0.559104
O O10 0.606522 0.933805 0.279379
O O11 0.875669 0.931887 0.857123
O O12 0.500000 0.500000 0.500000
O O13 0.359822 0.424561 0.967905
#
# Coordination Sequence:
#
# PCOD8002246 Si02
#       6
#     2   2   2   2   2   2
#     4   9  18  37  59  81 113 152 189 227 278 335
#     4   8  16  33  56  81 108 143 187 232 272 318
#     4  11  22  38  58  86 116 146 187 231 283 336
#     4  10  20  35  58  86 113 142 186 242 280 315
#     4  10  21  35  55  84 121 151 175 230 295 334
#     4  10  21  38  63  84 106 150 198 231 266 331
#
# _framework density 21.825191
#
# number of rings (size 3 to 8) (size 9 to 14) (size 15 to 20)
#    0.000    2.667    0.000    5.000    0.000    5.333 
#    0.000   10.000    0.000    6.000    0.000    0.000 
#    0.000    0.000    0.000    0.000    0.000    0.000 
#
# Total GULP energy -148662.360454 kJ/mol
# GULP energy per Si atom -12388.530038 kJ/mol
# Density = 2.177552 g / cm^3
# Si number density = 21.825191 Si / 1000 Ang^3
#
#
#
# Elastic Constant Matrix: (Units=GPa)
#
#
# Indices 1 2 3 4 5 6 
#
# 1 109.3921 15.3683 23.0717 11.4615 3.9618 -8.0686
# 2 15.3683 80.2344 21.0207 -9.5208 11.0028 -9.1694
# 3 23.0717 21.0207 28.7621 -7.0265 -5.0471 2.7209
# 4 11.4615 -9.5208 -7.0265 27.7240 4.2537 -7.2465
# 5 3.9618 11.0028 -5.0471 4.2537 23.8328 -11.0870
# 6 -8.0686 -9.1694 2.7209 -7.2465 -11.0870 37.1627
#
#
#
# Elastic Compliance Matrix: (Units=1/GPa)
#
#
# Indices 1 2 3 4 5 6 
#
# 1 0.012906 0.000797 -0.013512 -0.007580 -0.003314 0.001521
# 2 0.000797 0.018961 -0.015640 0.004897 -0.011424 0.003543
# 3 -0.013512 -0.015640 0.063791 0.012578 0.019204 -0.003281
# 4 -0.007580 0.004897 0.012578 0.046346 -0.003526 0.006627
# 5 -0.003314 -0.011424 0.019204 -0.003526 0.057895 0.011640
# 6 0.001521 0.003543 -0.003281 0.006627 0.011640 0.033118
#
#
# Mechanical properties :
#
#
# Convention : Reuss Voigt Hill
#
# Bulk Modulus (GPa) = 25.67639 37.47888 31.57764
# Shear Modulus (GPa) = 16.51740 28.33910 22.42825
#
# Velocity S-wave (km/s) = 2.75399 3.60732 3.20915
# Velocity P-wave (km/s) = 4.68004 5.87877 5.31332
#
# Compressibility (1/GPa) = 0.03894628
#
# Stress axis : x y z
#
# Youngs Moduli (GPa) = 77.48489 52.73954 15.67626
#
# Poissons Ratio (x) = -0.04203 0.21182
# Poissons Ratio (y) = -0.06175 0.24518
# Poissons Ratio (z) = 1.04699 0.82487
#
# Static dielectric constant tensor:
#      x y z
#    x 4.703570 0.156060 -0.276940 
#    y 0.156060 4.114390 -0.286620 
#    z -0.276940 -0.286620 3.414050 
# 
# 
# High freq. dielectric constant tensor:
#      x y z
#    x 1.879050 0.000790 -0.026310 
#    y 0.000790 1.858910 -0.026830 
#    z -0.026310 -0.026830 1.804750 
# 
# From -- ./inp_files/152792.got.cif
#   From: 2010.06.25/outbox.cif.g09.slc.cpg/sg2_77_cif.got.tgz:152792.got - 2010.06.27 13:26:56.
