data_PCOD8002280
_publ_section_title
;
Structure prediction by ZEFSAII (Michael W. Deem and Ramdas Pophale) SiO2 
 PCOD8002280
Probable space group: P -1
;
_chemical_formula_sum "Si O2"
_cell_formula_units_Z 16
_cell_length_a 11.214010
_cell_length_b 6.544850
_cell_length_c 11.899331
_cell_angle_alpha 57.496203
_cell_angle_beta 75.616981
_cell_angle_gamma 70.147492
_cell_volume 690.367664
_symmetry_space_group_name_H-M "P -1"
_symmetry_group_IT_number 2
_symmetry_cell_setting 'triclinic'
loop_
_space_group_symop_operation_xyz
x,y,z
-x,-y,-z
loop_
_atom_site_type_symbol
_atom_site_label
_atom_site_fract_x
_atom_site_fract_y
_atom_site_fract_z
Si Si1 0.682204 0.680865 0.519220
Si Si2 0.234992 0.552314 0.836358
Si Si3 0.797685 0.416525 0.922861
Si Si4 0.884368 0.720916 0.631404
Si Si5 0.687655 0.019462 0.976622
Si Si6 0.162749 0.709406 0.561541
Si Si7 0.438543 0.157921 0.132144
Si Si8 0.448595 0.796922 0.684389
O O1 0.798583 0.606228 0.601138
O O2 0.720032 0.500083 0.456123
O O3 0.550204 0.650284 0.612432
O O4 0.659416 0.973105 0.408100
O O5 0.168069 0.697050 0.699649
O O6 0.375554 0.599031 0.805854
O O7 0.253585 0.256384 0.906231
O O8 0.152150 0.649682 0.940625
O O9 0.879397 0.585759 0.792860
O O10 0.650470 0.563428 0.927106
O O11 0.796742 0.169121 0.923160
O O12 0.028760 0.656431 0.572318
O O13 0.829749 0.020529 0.566139
O O14 0.564354 0.155937 0.034815
O O15 0.644386 0.015365 0.857085
O O16 0.476170 0.083523 0.274043
#
# Coordination Sequence:
#
# PCOD8002280 Si02
#       8
#     2   2   2   2   2   2   2   2
#     4  11  24  44  67 100 135 179 227 278 339 400
#     4  11  24  41  67 101 137 174 220 280 337 406
#     4  11  23  41  64  98 140 170 220 282 337 397
#     4  11  25  48  70  98 133 179 233 288 325 400
#     4  10  22  34  62  96 135 182 212 260 347 414
#     4  11  26  47  73  95 131 187 234 275 336 396
#     4  10  20  35  58  95 138 175 211 265 334 410
#     4  11  22  41  67 102 144 171 215 287 337 402
#
# _framework density 23.176055999999999
#
# number of rings (size 3 to 8) (size 9 to 14) (size 15 to 20)
#    0.000    1.250    3.750    1.500    3.500    4.000 
#    0.000    0.625    0.000    0.000    0.000    0.000 
#    0.000    0.000    0.000    0.000    0.000    0.000 
#
# Total GULP energy -198339.350350 kJ/mol
# GULP energy per Si atom -12396.209397 kJ/mol
# Density = 2.312331 g / cm^3
# Si number density = 23.176056 Si / 1000 Ang^3
#
#
#
# Elastic Constant Matrix: (Units=GPa)
#
#
# Indices 1 2 3 4 5 6 
#
# 1 47.6281 33.0821 27.9078 0.9749 -1.0322 2.6458
# 2 33.0821 103.1275 48.0100 2.1305 -12.7504 7.5168
# 3 27.9078 48.0100 131.1970 5.0928 -8.5805 13.3276
# 4 0.9749 2.1305 5.0928 33.2378 12.4774 -1.3527
# 5 -1.0322 -12.7504 -8.5805 12.4774 29.3299 -1.4424
# 6 2.6458 7.5168 13.3276 -1.3527 -1.4424 29.2165
#
#
#
# Elastic Compliance Matrix: (Units=1/GPa)
#
#
# Indices 1 2 3 4 5 6 
#
# 1 0.028551 -0.008156 -0.003548 0.001898 -0.004337 0.001005
# 2 -0.008156 0.014626 -0.002953 -0.002658 0.006265 -0.001491
# 3 -0.003548 -0.002953 0.010052 -0.002261 0.002322 -0.003494
# 4 0.001898 -0.002658 -0.002261 0.037198 -0.017457 0.002404
# 5 -0.004337 0.006265 0.002322 -0.017457 0.044728 -0.000878
# 6 0.001005 -0.001491 -0.003494 0.002404 -0.000878 0.036182
#
#
# Mechanical properties :
#
#
# Convention : Reuss Voigt Hill
#
# Bulk Modulus (GPa) = 41.81387 55.55027 48.68207
# Shear Modulus (GPa) = 23.96661 29.88701 26.92681
#
# Velocity S-wave (km/s) = 3.21925 3.59495 3.41227
# Velocity P-wave (km/s) = 5.64793 6.42280 6.04779
#
# Compressibility (1/GPa) = 0.02391551
#
# Stress axis : x y z
#
# Youngs Moduli (GPa) = 35.02459 68.37194 99.48183
#
# Poissons Ratio (x) = 0.55762 0.35299
# Poissons Ratio (y) = 0.28565 0.29376
# Poissons Ratio (z) = 0.12428 0.20190
#
# Static dielectric constant tensor:
#      x y z
#    x 3.913730 0.129800 0.128440 
#    y 0.129800 4.078160 0.215500 
#    z 0.128440 0.215500 4.197030 
# 
# 
# High freq. dielectric constant tensor:
#      x y z
#    x 1.896680 0.011870 0.004840 
#    y 0.011870 1.908880 0.004950 
#    z 0.004840 0.004950 1.918930 
# 
# From -- ./inp_files/409827.got.cif
#   From: 2010.06.25/outbox.cif.g09.slc.cpg/sg2_205_cif.got.tgz:409827.got - 2010.06.27 13:26:56.
