data_PCOD8002278
_publ_section_title
;
Structure prediction by ZEFSAII (Michael W. Deem and Ramdas Pophale) SiO2 
 PCOD8002278
Probable space group: P -1
;
_chemical_formula_sum "Si O2"
_cell_formula_units_Z 16
_cell_length_a 13.355976
_cell_length_b 13.221455
_cell_length_c 8.936776
_cell_angle_alpha 137.327850
_cell_angle_beta 63.757160
_cell_angle_gamma 139.204413
_cell_volume 675.127864
_symmetry_space_group_name_H-M "P -1"
_symmetry_group_IT_number 2
_symmetry_cell_setting 'triclinic'
loop_
_space_group_symop_operation_xyz
x,y,z
-x,-y,-z
loop_
_atom_site_type_symbol
_atom_site_label
_atom_site_fract_x
_atom_site_fract_y
_atom_site_fract_z
Si Si1 0.097312 0.339244 0.942698
Si Si2 0.572393 0.795570 0.304915
Si Si3 0.928490 0.365848 0.586280
Si Si4 0.739116 0.443993 0.492131
Si Si5 0.328282 0.684350 0.931518
Si Si6 0.814110 0.137412 0.719606
Si Si7 0.734278 0.682919 0.967945
Si Si8 0.608410 0.063318 0.341665
O O1 0.233798 0.482845 0.882613
O O2 0.925204 0.154478 0.779837
O O3 0.100550 0.486720 0.207085
O O4 0.128108 0.223995 0.900532
O O5 0.418480 0.551539 0.129923
O O6 0.659186 0.891357 0.513842
O O7 0.545962 0.942813 0.419787
O O8 0.699111 0.825975 0.145340
O O9 0.915663 0.266335 0.643108
O O10 0.791499 0.183569 0.361840
O O11 0.098541 0.495681 0.543318
O O12 0.659559 0.371985 0.303603
O O13 0.773665 0.648138 0.741275
O O14 0.615964 0.246011 0.478286
O O15 0.236483 0.754079 0.055280
O O16 0.507734 0.875809 0.082515
#
# Coordination Sequence:
#
# PCOD8002278 Si02
#       8
#     2   2   2   2   2   2   2   2
#     4  11  19  38  65  89 118 165 194 252 298 354
#     4  10  24  44  59  89 121 162 211 242 289 369
#     4  10  20  35  58  95 126 150 193 247 312 354
#     4  12  22  38  61  95 125 154 194 255 309 353
#     4  11  21  37  62  96 121 151 204 254 304 349
#     4  10  20  36  64  89 125 155 198 255 292 356
#     4  11  24  41  67  84 120 167 203 244 300 359
#     4  11  22  36  62  88 122 157 199 252 295 349
#
# _framework density 23.699214000000001
#
# number of rings (size 3 to 8) (size 9 to 14) (size 15 to 20)
#    0.000    1.250    5.000    2.250    0.000    2.500 
#    0.000    3.125    2.750    0.000    0.000    0.000 
#    0.000    0.000    0.000    0.000    0.000    0.000 
#
# Total GULP energy -198264.829189 kJ/mol
# GULP energy per Si atom -12391.551824 kJ/mol
# Density = 2.364527 g / cm^3
# Si number density = 23.699214 Si / 1000 Ang^3
#
#
#
# Elastic Constant Matrix: (Units=GPa)
#
#
# Indices 1 2 3 4 5 6 
#
# 1 115.9253 20.0207 64.3000 5.9782 24.0066 13.1715
# 2 20.0207 55.8168 17.1508 -15.6052 11.0823 6.6711
# 3 64.3000 17.1508 108.9036 -12.2777 20.8387 3.3708
# 4 5.9782 -15.6052 -12.2777 30.2155 7.4359 6.7255
# 5 24.0066 11.0823 20.8387 7.4359 51.0169 8.6937
# 6 13.1715 6.6711 3.3708 6.7255 8.6937 22.6759
#
#
#
# Elastic Compliance Matrix: (Units=1/GPa)
#
#
# Indices 1 2 3 4 5 6 
#
# 1 0.015375 -0.004370 -0.009016 -0.007951 -0.000826 -0.003630
# 2 -0.004370 0.026253 0.001882 0.018530 -0.005615 -0.008808
# 3 -0.009016 0.001882 0.016177 0.010207 -0.004423 0.000947
# 4 -0.007951 0.018530 0.010207 0.054061 -0.009843 -0.014611
# 5 -0.000826 -0.005615 -0.004423 -0.009843 0.025119 -0.003922
# 6 -0.003630 -0.008808 0.000947 -0.014611 -0.003922 0.054496
#
#
# Mechanical properties :
#
#
# Convention : Reuss Voigt Hill
#
# Bulk Modulus (GPa) = 28.73747 53.73210 41.23478
# Shear Modulus (GPa) = 22.11519 32.72660 27.42089
#
# Velocity S-wave (km/s) = 3.05808 3.72010 3.40522
# Velocity P-wave (km/s) = 4.96200 6.41669 5.73565
#
# Compressibility (1/GPa) = 0.03479777
#
# Stress axis : x y z
#
# Youngs Moduli (GPa) = 65.03972 38.09046 61.81580
#
# Poissons Ratio (x) = 0.16645 0.55732
# Poissons Ratio (y) = 0.28421 -0.11632
# Poissons Ratio (z) = 0.58639 -0.07168
#
# Static dielectric constant tensor:
#      x y z
#    x 4.477620 0.225350 0.019610 
#    y 0.225350 4.127100 -0.030840 
#    z 0.019610 -0.030840 4.381670 
# 
# 
# High freq. dielectric constant tensor:
#      x y z
#    x 1.943210 0.024120 0.020450 
#    y 0.024120 1.921120 -0.002280 
#    z 0.020450 -0.002280 1.932870 
# 
# From -- ./inp_files/314223.got.cif
#   From: 2010.06.25/outbox.cif.g09.slc.cpg/sg2_158_cif.got.tgz:314223.got - 2010.06.27 13:26:56.
