data_PCOD8002931
_publ_section_title
;
Structure prediction by ZEFSAII (Michael W. Deem and Ramdas Pophale) SiO2 
 PCOD8002931
Probable space group: P -1
;
_chemical_formula_sum "Si O2"
_cell_formula_units_Z 16
_cell_length_a 5.028118
_cell_length_b 18.062050
_cell_length_c 19.691032
_cell_angle_alpha 158.365250
_cell_angle_beta 107.346491
_cell_angle_gamma 71.976752
_cell_volume 626.690367
_symmetry_space_group_name_H-M "P -1"
_symmetry_group_IT_number 2
_symmetry_cell_setting 'triclinic'
loop_
_space_group_symop_operation_xyz
x,y,z
-x,-y,-z
loop_
_atom_site_type_symbol
_atom_site_label
_atom_site_fract_x
_atom_site_fract_y
_atom_site_fract_z
Si Si1 0.771300 0.180616 0.236192
Si Si2 0.231363 0.640827 0.118625
Si Si3 0.540928 0.359579 0.729583
Si Si4 0.492800 0.789864 0.893617
Si Si5 0.527811 0.786444 0.541830
Si Si6 0.781283 0.111210 0.915615
Si Si7 0.995055 0.364228 0.037550
Si Si8 0.127585 0.577566 0.426497
O O1 0.742328 0.254976 0.219120
O O2 0.737247 0.371881 0.447267
O O3 0.071380 0.063454 0.174480
O O4 0.534971 0.027139 0.100066
O O5 0.308181 0.759213 0.294663
O O6 0.500000 0.500000 0.000000
O O7 0.112857 0.758501 0.141873
O O8 0.000000 0.500000 0.000000
O O9 0.529016 0.199992 0.531771
O O10 0.229340 0.447975 0.801200
O O11 0.707379 0.550578 0.881370
O O12 0.783651 0.656830 0.783949
O O13 0.385565 0.731944 0.911279
O O14 0.255159 0.715757 0.497030
O O15 0.793290 0.624864 0.440688
O O16 0.569950 0.011022 0.762856
O O17 0.011933 0.214498 0.976029
#
# Coordination Sequence:
#
# PCOD8002931 Si02
#       8
#     2   2   2   2   2   2   2   2
#     4  10  24  43  60  92 124 162 212 268 318 373
#     4   8  16  33  54  87 121 153 201 256 295 360
#     4  10  20  36  60  90 121 163 206 252 303 371
#     4  11  23  42  66  86 122 170 211 262 320 380
#     4  11  24  40  60  92 132 160 209 263 313 368
#     4  11  24  40  60  92 129 164 206 269 315 375
#     4  10  21  35  64  89 119 161 211 248 311 370
#     4  11  24  43  64  92 123 169 211 262 315 379
#
# _framework density 25.530946
#
# number of rings (size 3 to 8) (size 9 to 14) (size 15 to 20)
#    0.000    1.750    1.250    2.250    7.000    0.000 
#    0.000    2.500    0.000    0.000    0.000   13.125 
#    0.000    0.000    0.000    0.375    0.000    0.000 
#
# Total GULP energy -198287.406005 kJ/mol
# GULP energy per Si atom -12392.962875 kJ/mol
# Density = 2.547284 g / cm^3
# Si number density = 25.530946 Si / 1000 Ang^3
#
#
#
# Elastic Constant Matrix: (Units=GPa)
#
#
# Indices 1 2 3 4 5 6 
#
# 1 74.1888 7.0160 3.1616 -5.4625 -3.6545 3.2422
# 2 7.0160 106.1519 53.5245 -52.8420 -12.9289 10.8458
# 3 3.1616 53.5245 108.6308 -45.1546 -12.7373 5.9220
# 4 -5.4625 -52.8420 -45.1546 56.8567 2.5600 -0.8778
# 5 -3.6545 -12.9289 -12.7373 2.5600 26.2045 -5.9933
# 6 3.2422 10.8458 5.9220 -0.8778 -5.9933 28.9832
#
#
#
# Elastic Compliance Matrix: (Units=1/GPa)
#
#
# Indices 1 2 3 4 5 6 
#
# 1 0.013718 -0.000047 0.000571 0.001632 0.001728 -0.001227
# 2 -0.000047 0.019977 -0.001898 0.016699 0.006079 -0.005320
# 3 0.000571 -0.001898 0.014888 0.009866 0.005182 -0.001026
# 4 0.001632 0.016699 0.009866 0.040654 0.008020 -0.005558
# 5 0.001728 0.006079 0.005182 0.008020 0.044490 0.005916
# 6 -0.001227 -0.005320 -0.001026 -0.005558 0.005916 0.037895
#
#
# Mechanical properties :
#
#
# Convention : Reuss Voigt Hill
#
# Bulk Modulus (GPa) = 21.81606 46.26399 34.04002
# Shear Modulus (GPa) = 26.36465 37.42683 31.89574
#
# Velocity S-wave (km/s) = 3.21698 3.83291 3.53837
# Velocity P-wave (km/s) = 4.72886 6.14397 5.48227
#
# Compressibility (1/GPa) = 0.04583778
#
# Stress axis : x y z
#
# Youngs Moduli (GPa) = 72.89660 50.05723 67.16601
#
# Poissons Ratio (x) = 0.00235 -0.03839
# Poissons Ratio (y) = 0.00342 0.12745
# Poissons Ratio (z) = -0.04166 0.09499
#
# Static dielectric constant tensor:
#      x y z
#    x 4.461460 0.102150 -0.112240 
#    y 0.102150 5.137990 -0.897270 
#    z -0.112240 -0.897270 4.590570 
# 
# 
# High freq. dielectric constant tensor:
#      x y z
#    x 2.026480 -0.000570 -0.001990 
#    y -0.000570 2.016540 -0.051850 
#    z -0.001990 -0.051850 1.997860 
# 
# From -- ./inp_files/584235.got.cif
#   From: 2010.06.25/outbox.cif.g09.slc.cpg/sg2_293_cif.got.tgz:584235.got - 2010.06.27 13:26:56.
