data_PCOD8002184
_publ_section_title
;
Structure prediction by ZEFSAII (Michael W. Deem and Ramdas Pophale) SiO2 
 PCOD8002184
Probable space group: P -1
;
_chemical_formula_sum "Si O2"
_cell_formula_units_Z 16
_cell_length_a 11.565203
_cell_length_b 9.498935
_cell_length_c 12.105607
_cell_angle_alpha 121.690200
_cell_angle_beta 50.262130
_cell_angle_gamma 101.925210
_cell_volume 853.045690
_symmetry_space_group_name_H-M "P -1"
_symmetry_group_IT_number 2
_symmetry_cell_setting 'triclinic'
loop_
_space_group_symop_operation_xyz
x,y,z
-x,-y,-z
loop_
_atom_site_type_symbol
_atom_site_label
_atom_site_fract_x
_atom_site_fract_y
_atom_site_fract_z
Si Si1 0.536763 0.392021 0.639905
Si Si2 0.404163 0.225322 0.467723
Si Si3 0.085624 0.416940 0.306404
Si Si4 0.711260 0.927048 0.902528
Si Si5 0.329233 0.714087 0.827090
Si Si6 0.197004 0.544370 0.655803
Si Si7 0.355424 0.614547 0.188868
Si Si8 0.389436 0.943297 0.208793
O O1 0.461680 0.245907 0.566538
O O2 0.403109 0.561866 0.802198
O O3 0.685047 0.423538 0.496753
O O4 0.595768 0.329230 0.697770
O O5 0.530696 0.274642 0.332023
O O6 0.244868 0.354472 0.595023
O O7 0.385206 0.038095 0.368883
O O8 0.147588 0.219082 0.210786
O O9 0.217466 0.516239 0.235261
O O10 0.000000 0.500000 0.500000
O O11 0.973585 0.427860 0.275438
O O12 0.699015 0.929677 0.777654
O O13 0.561991 0.880601 0.032213
O O14 0.737446 0.111859 0.998091
O O15 0.194845 0.669223 0.813619
O O16 0.309911 0.783991 0.212788
O O17 0.500000 0.500000 0.000000
#
# Coordination Sequence:
#
# PCOD8002184 Si02
#       8
#     2   2   2   2   2   2   2   2
#     4   9  17  33  58  83 112 141 188 231 271 328
#     4   8  16  32  57  83 106 148 186 227 273 328
#     4  12  23  36  57  82 117 152 181 229 285 332
#     4  10  20  35  57  83 109 149 188 230 276 332
#     4   8  16  31  58  84 106 144 192 228 266 327
#     4   9  17  34  56  83 112 146 185 225 276 337
#     4  12  23  36  55  86 114 147 188 235 278 321
#     4  10  20  35  57  82 112 143 194 234 268 328
#
# _framework density 18.756321
#
# number of rings (size 3 to 8) (size 9 to 14) (size 15 to 20)
#    0.000    2.250    2.500    3.000    3.500    1.000 
#    0.000    2.500    0.000    6.750    0.000    0.000 
#    0.000    0.000    0.000    0.000    0.000    0.000 
#
# Total GULP energy -198304.005638 kJ/mol
# GULP energy per Si atom -12394.000352 kJ/mol
# Density = 1.871363 g / cm^3
# Si number density = 18.756321 Si / 1000 Ang^3
#
#
#
# Elastic Constant Matrix: (Units=GPa)
#
#
# Indices 1 2 3 4 5 6 
#
# 1 137.2303 37.9014 40.4810 10.7448 0.0643 0.4850
# 2 37.9014 85.4237 34.8409 13.5930 -0.8271 8.8983
# 3 40.4810 34.8409 67.1948 11.9080 1.9222 8.4334
# 4 10.7448 13.5930 11.9080 23.4634 -0.2490 1.5305
# 5 0.0643 -0.8271 1.9222 -0.2490 26.5143 4.2903
# 6 0.4850 8.8983 8.4334 1.5305 4.2903 24.9569
#
#
#
# Elastic Compliance Matrix: (Units=1/GPa)
#
#
# Indices 1 2 3 4 5 6 
#
# 1 0.009339 -0.002422 -0.004524 -0.000728 -0.000146 0.002280
# 2 -0.002422 0.016325 -0.005646 -0.005219 0.001491 -0.003802
# 3 -0.004524 -0.005646 0.022168 -0.005602 -0.001037 -0.004868
# 4 -0.000728 -0.005219 -0.005602 0.048782 0.000594 0.000674
# 5 -0.000146 0.001491 -0.001037 0.000594 0.038962 -0.006912
# 6 0.002280 -0.003802 -0.004868 0.000674 -0.006912 0.044172
#
#
# Mechanical properties :
#
#
# Convention : Reuss Voigt Hill
#
# Bulk Modulus (GPa) = 44.15162 57.36617 50.75889
# Shear Modulus (GPa) = 23.53156 26.76195 25.14676
#
# Velocity S-wave (km/s) = 3.54587 3.78143 3.66554
# Velocity P-wave (km/s) = 6.35255 7.05103 6.71088
#
# Compressibility (1/GPa) = 0.02264923
#
# Stress axis : x y z
#
# Youngs Moduli (GPa) = 107.07393 61.25738 45.10955
#
# Poissons Ratio (x) = 0.14835 0.20406
# Poissons Ratio (y) = 0.25931 0.25469
# Poissons Ratio (z) = 0.48437 0.34586
#
# Static dielectric constant tensor:
#      x y z
#    x 3.647510 0.169590 0.429650 
#    y 0.169590 3.664760 0.407490 
#    z 0.429650 0.407490 3.530050 
# 
# 
# High freq. dielectric constant tensor:
#      x y z
#    x 1.728530 -0.003820 0.022930 
#    y -0.003820 1.710810 0.020730 
#    z 0.022930 0.020730 1.712190 
# 
# From -- ./inp_files/256929.got.cif
#   From: 2010.06.25/outbox.cif.g09.slc.cpg/sg2_129_cif.got.tgz:256929.got - 2010.06.27 13:26:56.
