data_PCOD8002397
_publ_section_title
;
Structure prediction by ZEFSAII (Michael W. Deem and Ramdas Pophale) SiO2 
 PCOD8002397
Probable space group: P -1
;
_chemical_formula_sum "Si O2"
_cell_formula_units_Z 16
_cell_length_a 11.342755
_cell_length_b 11.378487
_cell_length_c 6.605720
_cell_angle_alpha 108.792880
_cell_angle_beta 78.387339
_cell_angle_gamma 118.276942
_cell_volume 709.579913
_symmetry_space_group_name_H-M "P -1"
_symmetry_group_IT_number 2
_symmetry_cell_setting 'triclinic'
loop_
_space_group_symop_operation_xyz
x,y,z
-x,-y,-z
loop_
_atom_site_type_symbol
_atom_site_label
_atom_site_fract_x
_atom_site_fract_y
_atom_site_fract_z
Si Si1 0.670132 0.778473 0.509927
Si Si2 0.862863 0.992805 0.287832
Si Si3 0.174597 0.336838 0.355876
Si Si4 0.552877 0.429720 0.771621
Si Si5 0.521355 0.938867 0.754385
Si Si6 0.344118 0.786433 0.385937
Si Si7 0.021479 0.836970 0.015936
Si Si8 0.934818 0.260898 0.649573
O O1 0.788363 0.769401 0.589656
O O2 0.561132 0.627179 0.392837
O O3 0.606392 0.853177 0.719234
O O4 0.722698 0.867344 0.332826
O O5 0.908811 0.108324 0.507666
O O6 0.853416 0.066131 0.118938
O O7 0.975488 0.938394 0.206118
O O8 0.309322 0.469485 0.327388
O O9 0.101188 0.266962 0.136271
O O10 0.074227 0.370377 0.556440
O O11 0.581418 0.303060 0.775199
O O12 0.500000 0.500000 0.000000
O O13 0.383918 0.830909 0.631606
O O14 0.609859 0.069829 0.662311
O O15 0.500000 0.000000 0.000000
O O16 0.183611 0.700604 0.362042
O O17 0.058197 0.743515 0.109500
#
# Coordination Sequence:
#
# PCOD8002397 Si02
#       8
#     2   2   2   2   2   2   2   2
#     4  11  22  43  70 101 136 172 223 289 334 400
#     4  10  20  35  61 100 136 166 213 271 342 401
#     4  11  25  41  67  98 131 182 228 274 329 393
#     4  11  26  47  70  93 134 183 237 278 323 400
#     4  10  23  42  69 101 137 174 221 279 351 399
#     4  10  24  45  65 101 136 176 223 281 333 405
#     4  10  22  35  62  98 137 178 212 267 337 409
#     4  11  22  41  64  97 141 169 220 278 340 404
#
# _framework density 22.548552999999998
#
# number of rings (size 3 to 8) (size 9 to 14) (size 15 to 20)
#    0.000    1.500    2.500    1.500    5.250    3.500 
#    0.000    0.625    0.000    0.000    0.000    0.000 
#    0.000    0.000    0.000    0.000    0.000    0.000 
#
# Total GULP energy -198283.920129 kJ/mol
# GULP energy per Si atom -12392.745008 kJ/mol
# Density = 2.249723 g / cm^3
# Si number density = 22.548553 Si / 1000 Ang^3
#
#
#
# Elastic Constant Matrix: (Units=GPa)
#
#
# Indices 1 2 3 4 5 6 
#
# 1 134.4264 24.8467 60.7253 1.3096 4.4267 5.6404
# 2 24.8467 75.1527 30.1651 1.6244 -4.0540 21.4182
# 3 60.7253 30.1651 124.0468 4.7735 -0.2775 1.2511
# 4 1.3096 1.6244 4.7735 31.7763 -2.6583 -11.6189
# 5 4.4267 -4.0540 -0.2775 -2.6583 27.5276 1.4540
# 6 5.6404 21.4182 1.2511 -11.6189 1.4540 38.1791
#
#
#
# Elastic Compliance Matrix: (Units=1/GPa)
#
#
# Indices 1 2 3 4 5 6 
#
# 1 0.009788 -0.001431 -0.004445 0.000033 -0.001804 -0.000419
# 2 -0.001431 0.018808 -0.003580 -0.004368 0.003158 -0.011672
# 3 -0.004445 -0.003580 0.011106 -0.000508 0.000137 0.002141
# 4 0.000033 -0.004368 -0.000508 0.036931 0.002193 0.013618
# 5 -0.001804 0.003158 0.000137 0.002193 0.037415 -0.002267
# 6 -0.000419 -0.011672 0.002141 0.013618 -0.002267 0.036962
#
#
# Mechanical properties :
#
#
# Convention : Reuss Voigt Hill
#
# Bulk Modulus (GPa) = 48.09924 62.78888 55.44406
# Shear Modulus (GPa) = 28.27221 34.02253 31.14737
#
# Velocity S-wave (km/s) = 3.54480 3.88861 3.72068
# Velocity P-wave (km/s) = 6.17510 6.93313 6.56506
#
# Compressibility (1/GPa) = 0.02079035
#
# Stress axis : x y z
#
# Youngs Moduli (GPa) = 102.16620 53.17013 90.03962
#
# Poissons Ratio (x) = 0.07607 0.40020
# Poissons Ratio (y) = 0.14617 0.32237
# Poissons Ratio (z) = 0.45410 0.19036
#
# Static dielectric constant tensor:
#      x y z
#    x 4.186930 0.136410 -0.026870 
#    y 0.136410 3.972680 0.017140 
#    z -0.026870 0.017140 3.532860 
# 
# 
# High freq. dielectric constant tensor:
#      x y z
#    x 1.893390 0.008440 0.000630 
#    y 0.008440 1.874380 -0.003740 
#    z 0.000630 -0.003740 1.881500 
# 
# From -- ./inp_files/71301.got.cif
#   From: 2010.06.25/outbox.cif.g09.slc.cpg/sg2_36_cif.got.tgz:71301.got - 2010.06.27 13:26:56.
