data_PCOD8002809
_publ_section_title
;
Structure prediction by ZEFSAII (Michael W. Deem and Ramdas Pophale) SiO2 
 PCOD8002809
Probable space group: P -1
;
_chemical_formula_sum "Si O2"
_cell_formula_units_Z 16
_cell_length_a 9.635579
_cell_length_b 6.740518
_cell_length_c 20.195345
_cell_angle_alpha 55.491798
_cell_angle_beta 121.642754
_cell_angle_gamma 131.273963
_cell_volume 787.858094
_symmetry_space_group_name_H-M "P -1"
_symmetry_group_IT_number 2
_symmetry_cell_setting 'triclinic'
loop_
_space_group_symop_operation_xyz
x,y,z
-x,-y,-z
loop_
_atom_site_type_symbol
_atom_site_label
_atom_site_fract_x
_atom_site_fract_y
_atom_site_fract_z
Si Si1 0.095140 0.496697 0.349887
Si Si2 0.204760 0.593872 0.609750
Si Si3 0.247881 0.248811 0.945318
Si Si4 0.871643 0.230486 0.830488
Si Si5 0.182777 0.660269 0.060629
Si Si6 0.913560 0.051718 0.575322
Si Si7 0.601494 0.984956 0.594149
Si Si8 0.620821 0.613333 0.904749
O O1 0.113547 0.577737 0.262728
O O2 0.286146 0.716775 0.395886
O O3 0.903477 0.476647 0.333617
O O4 0.069861 0.192072 0.409198
O O5 0.161334 0.811039 0.521395
O O6 0.121270 0.299617 0.605115
O O7 0.435478 0.741891 0.645253
O O8 0.395084 0.462982 0.887778
O O9 0.039498 0.161306 0.885999
O O10 0.279975 0.381901 0.001444
O O11 0.281062 0.988558 0.006914
O O12 0.873538 0.394624 0.865723
O O13 0.683599 0.922790 0.835148
O O14 0.330399 0.557726 0.103222
O O15 0.000000 0.500000 0.000000
O O16 0.762835 0.916875 0.624533
O O17 0.500000 0.000000 0.500000
#
# Coordination Sequence:
#
# PCOD8002809 Si02
#       8
#     2   2   2   2   2   2   2   2
#     4  11  23  36  57  86 120 155 190 240 297 347
#     4   9  19  37  60  82 114 148 194 241 288 345
#     4  10  20  36  59  86 108 149 195 235 284 338
#     4  11  23  37  53  82 121 151 186 238 293 336
#     4  11  18  36  62  84 110 152 194 236 281 335
#     4   9  19  37  59  89 112 147 196 240 286 352
#     4   9  20  38  60  85 112 147 193 240 287 347
#     4  10  20  37  60  82 113 147 196 239 277 341
#
# _framework density 20.308226000000001
#
# number of rings (size 3 to 8) (size 9 to 14) (size 15 to 20)
#    0.000    2.000    2.500    2.250    0.000    6.000 
#    0.000    0.000    0.000    0.000    0.000    0.000 
#    0.000    0.000    0.000    0.000    0.000    0.000 
#
# Total GULP energy -198349.144482 kJ/mol
# GULP energy per Si atom -12396.821530 kJ/mol
# Density = 2.026200 g / cm^3
# Si number density = 20.308226 Si / 1000 Ang^3
#
#
#
# Elastic Constant Matrix: (Units=GPa)
#
#
# Indices 1 2 3 4 5 6 
#
# 1 95.9615 47.7601 16.9279 1.0165 -24.3617 10.7401
# 2 47.7601 108.1799 22.2277 3.5641 -14.8065 -0.8967
# 3 16.9279 22.2277 55.8262 4.5383 -20.6521 -2.5098
# 4 1.0165 3.5641 4.5383 17.6805 -0.2850 -6.5460
# 5 -24.3617 -14.8065 -20.6521 -0.2850 23.5161 -6.0743
# 6 10.7401 -0.8967 -2.5098 -6.5460 -6.0743 40.8895
#
#
#
# Elastic Compliance Matrix: (Units=1/GPa)
#
#
# Indices 1 2 3 4 5 6 
#
# 1 0.017254 -0.006023 0.003186 -0.001160 0.016289 -0.002234
# 2 -0.006023 0.012501 -0.003396 -0.000812 -0.001008 0.001368
# 3 0.003186 -0.003396 0.029186 -0.004981 0.027822 0.004216
# 4 -0.001160 -0.000812 -0.004981 0.061499 -0.002915 0.009394
# 5 0.016289 -0.001008 0.027822 -0.002915 0.085659 0.009665
# 6 -0.002234 0.001368 0.004216 0.009394 0.009665 0.028271
#
#
# Mechanical properties :
#
#
# Convention : Reuss Voigt Hill
#
# Bulk Modulus (GPa) = 21.51734 48.19990 34.85862
# Shear Modulus (GPa) = 19.06005 27.95401 23.50703
#
# Velocity S-wave (km/s) = 3.06688 3.71413 3.40591
# Velocity P-wave (km/s) = 4.81242 6.49451 5.71568
#
# Compressibility (1/GPa) = 0.04647414
#
# Stress axis : x y z
#
# Youngs Moduli (GPa) = 57.95719 79.99412 34.26328
#
# Poissons Ratio (x) = 0.48180 -0.10916
# Poissons Ratio (y) = 0.34907 0.11637
# Poissons Ratio (z) = -0.18465 0.27169
#
# Static dielectric constant tensor:
#      x y z
#    x 4.174260 0.124380 -0.366330 
#    y 0.124380 3.894220 -0.025020 
#    z -0.366330 -0.025020 3.240410 
# 
# 
# High freq. dielectric constant tensor:
#      x y z
#    x 1.802300 0.005120 -0.025070 
#    y 0.005120 1.799480 -0.001450 
#    z -0.025070 -0.001450 1.753590 
# 
# From -- ./inp_files/551030.got.cif
#   From: 2010.06.25/outbox.cif.g09.slc.cpg/sg2_276_cif.got.tgz:551030.got - 2010.06.27 13:26:56.
