data_PCOD8002400
_publ_section_title
;
Structure prediction by ZEFSAII (Michael W. Deem and Ramdas Pophale) SiO2 
 PCOD8002400
Probable space group: P -1
;
_chemical_formula_sum "Si O2"
_cell_formula_units_Z 14
_cell_length_a 25.565985
_cell_length_b 9.873930
_cell_length_c 8.836571
_cell_angle_alpha 131.352918
_cell_angle_beta 124.869418
_cell_angle_gamma 26.855377
_cell_volume 755.388467
_symmetry_space_group_name_H-M "P -1"
_symmetry_group_IT_number 2
_symmetry_cell_setting 'triclinic'
loop_
_space_group_symop_operation_xyz
x,y,z
-x,-y,-z
loop_
_atom_site_type_symbol
_atom_site_label
_atom_site_fract_x
_atom_site_fract_y
_atom_site_fract_z
Si Si1 0.225891 0.425182 0.889435
Si Si2 0.796881 0.531891 0.768511
Si Si3 0.213619 0.740417 0.879942
Si Si4 0.188353 0.200266 0.236553
Si Si5 0.610138 0.810914 0.453588
Si Si6 0.054005 0.793320 0.644653
Si Si7 0.610173 0.145210 0.490662
O O1 0.245595 0.587112 0.987377
O O2 0.097416 0.663864 0.794897
O O3 0.319776 0.082576 0.707432
O O4 0.241499 0.360739 0.043265
O O5 0.800447 0.724184 0.848995
O O6 0.701980 0.639463 0.607353
O O7 0.918333 0.141615 0.668736
O O8 0.328403 0.480854 0.771725
O O9 0.124663 0.802646 0.702739
O O10 0.154186 0.075422 0.049379
O O11 0.087374 0.538751 0.413819
O O12 0.309357 0.913201 0.317850
O O13 0.500000 0.000000 0.500000
O O14 0.572484 0.069674 0.480448
O O15 0.500000 0.500000 0.500000
#
# Coordination Sequence:
#
# PCOD8002400 Si02
#       7
#     2   2   2   2   2   2   2
#     4   8  19  36  56  84 113 144 185 227 283 330
#     4  11  19  36  61  82 113 153 178 236 284 318
#     4   9  20  39  56  83 114 147 185 225 279 338
#     4  10  20  35  61  84 109 148 192 224 283 328
#     4  10  22  38  54  83 117 142 190 238 269 327
#     4   9  19  39  60  79 121 144 184 227 282 338
#     4   9  19  38  58  75 115 154 184 231 276 333
#
# _framework density 18.533511000000001
#
# number of rings (size 3 to 8) (size 9 to 14) (size 15 to 20)
#    0.857    1.714    2.857    0.857    0.000    4.000 
#    0.000    7.857    0.000    0.000    0.000    0.000 
#    0.000    0.000    0.000    0.000    0.000    0.000 
#
# Total GULP energy -173439.318070 kJ/mol
# GULP energy per Si atom -12388.522719 kJ/mol
# Density = 1.849133 g / cm^3
# Si number density = 18.533511 Si / 1000 Ang^3
#
#
#
# Elastic Constant Matrix: (Units=GPa)
#
#
# Indices 1 2 3 4 5 6 
#
# 1 64.3800 42.6597 54.2688 4.3791 -12.7270 3.2957
# 2 42.6597 144.4605 50.3052 0.7999 -11.0180 5.6179
# 3 54.2688 50.3052 107.8251 6.8226 -6.6436 18.6100
# 4 4.3791 0.7999 6.8226 27.1016 14.0028 -6.0636
# 5 -12.7270 -11.0180 -6.6436 14.0028 37.5870 -0.1773
# 6 3.2957 5.6179 18.6100 -6.0636 -0.1773 27.2483
#
#
#
# Elastic Compliance Matrix: (Units=1/GPa)
#
#
# Indices 1 2 3 4 5 6 
#
# 1 0.032184 -0.003972 -0.014496 -0.004768 0.008975 0.005824
# 2 -0.003972 0.008896 -0.002211 0.000687 0.000618 0.000313
# 3 -0.014496 -0.002211 0.020160 -0.005533 0.000008 -0.012791
# 4 -0.004768 0.000687 -0.005533 0.054304 -0.022546 0.016152
# 5 0.008975 0.000618 0.000008 -0.022546 0.038197 -0.005987
# 6 0.005824 0.000313 -0.012791 0.016152 -0.005987 0.048222
#
#
# Mechanical properties :
#
#
# Convention : Reuss Voigt Hill
#
# Bulk Modulus (GPa) = 50.29373 67.90366 59.09870
# Shear Modulus (GPa) = 20.00410 29.68285 24.84347
#
# Velocity S-wave (km/s) = 3.28891 4.00631 3.66520
# Velocity P-wave (km/s) = 6.45121 7.62355 7.06175
#
# Compressibility (1/GPa) = 0.01988319
#
# Stress axis : x y z
#
# Youngs Moduli (GPa) = 31.07102 112.40716 49.60348
#
# Poissons Ratio (x) = 0.44646 0.71905
# Poissons Ratio (y) = 0.12341 0.10967
# Poissons Ratio (z) = 0.45040 0.24852
#
# Static dielectric constant tensor:
#      x y z
#    x 3.214810 0.085240 -0.139640 
#    y 0.085240 3.445920 -0.071320 
#    z -0.139640 -0.071320 3.303320 
# 
# 
# High freq. dielectric constant tensor:
#      x y z
#    x 1.694440 0.005890 -0.013370 
#    y 0.005890 1.724280 -0.000680 
#    z -0.013370 -0.000680 1.717390 
# 
# From -- ./inp_files/351504.got.cif
#   From: 2010.06.25/outbox.cif.g09.slc.cpg/sg2_176_cif.got.tgz:351504.got - 2010.06.27 13:26:56.
