data_PCOD8002976
_publ_section_title
;
Structure prediction by ZEFSAII (Michael W. Deem and Ramdas Pophale) SiO2 
 PCOD8002976
Probable space group: P -1
;
_chemical_formula_sum "Si O2"
_cell_formula_units_Z 16
_cell_length_a 9.064336
_cell_length_b 17.230619
_cell_length_c 11.866988
_cell_angle_alpha 129.564533
_cell_angle_beta 119.519826
_cell_angle_gamma 99.898644
_cell_volume 857.537295
_symmetry_space_group_name_H-M "P -1"
_symmetry_group_IT_number 2
_symmetry_cell_setting 'triclinic'
loop_
_space_group_symop_operation_xyz
x,y,z
-x,-y,-z
loop_
_atom_site_type_symbol
_atom_site_label
_atom_site_fract_x
_atom_site_fract_y
_atom_site_fract_z
Si Si1 0.907938 0.107565 0.608955
Si Si2 0.217122 0.668131 0.062285
Si Si3 0.739252 0.429086 0.373323
Si Si4 0.399267 0.216601 0.857700
Si Si5 0.317125 0.631727 0.442623
Si Si6 0.390982 0.835232 0.500874
Si Si7 0.130290 0.852434 0.113536
Si Si8 0.672751 0.617978 0.579988
O O1 0.835860 0.184644 0.603137
O O2 0.915180 0.111198 0.751348
O O3 0.175549 0.198724 0.743695
O O4 0.706231 0.941138 0.337800
O O5 0.394376 0.674071 0.058701
O O6 0.351484 0.738447 0.296554
O O7 0.179031 0.756095 0.063039
O O8 0.954332 0.504775 0.833815
O O9 0.684854 0.373643 0.428867
O O10 0.746127 0.553665 0.470917
O O11 0.000000 0.500000 0.500000
O O12 0.522540 0.284406 0.087961
O O13 0.400029 0.778154 0.568511
O O14 0.514192 0.634829 0.470119
O O15 0.640543 0.002238 0.730203
O O16 0.904166 0.770058 0.867637
O O17 0.500000 0.500000 0.500000
#
# Coordination Sequence:
#
# PCOD8002976 Si02
#       8
#     2   2   2   2   2   2   2   2
#     4  10  21  35  61  88 116 150 198 242 283 347
#     4  11  19  39  61  84 114 156 198 240 279 350
#     4  11  21  37  63  83 115 155 199 233 282 353
#     4  11  20  36  61  89 110 151 204 236 281 341
#     4  11  23  39  58  89 119 151 195 243 295 338
#     4  11  23  37  59  89 120 153 188 247 301 331
#     4  11  18  38  65  84 114 150 204 241 281 336
#     4  10  20  36  61  85 111 153 203 241 270 345
#
# _framework density 18.658082
#
# number of rings (size 3 to 8) (size 9 to 14) (size 15 to 20)
#    0.000    1.250    6.250    2.625    1.750    0.500 
#    0.000    2.500    0.000    0.000    0.000    0.000 
#    0.000    0.000    0.000    0.000    0.000    0.000 
#
# Total GULP energy -198394.282736 kJ/mol
# GULP energy per Si atom -12399.642671 kJ/mol
# Density = 1.861562 g / cm^3
# Si number density = 18.658082 Si / 1000 Ang^3
#
#
#
# Elastic Constant Matrix: (Units=GPa)
#
#
# Indices 1 2 3 4 5 6 
#
# 1 125.4352 35.1789 30.0815 1.0137 12.1555 -9.5995
# 2 35.1789 82.7502 7.4456 7.9959 7.4591 -8.6470
# 3 30.0815 7.4456 98.4310 3.2946 4.7868 -0.2729
# 4 1.0137 7.9959 3.2946 19.7331 1.2061 -1.7431
# 5 12.1555 7.4591 4.7868 1.2061 34.6131 -2.4525
# 6 -9.5995 -8.6470 -0.2729 -1.7431 -2.4525 15.1336
#
#
#
# Elastic Compliance Matrix: (Units=1/GPa)
#
#
# Indices 1 2 3 4 5 6 
#
# 1 0.010172 -0.003624 -0.002781 0.001914 -0.002176 0.004199
# 2 -0.003624 0.014796 0.000248 -0.005295 -0.001388 0.005325
# 3 -0.002781 0.000248 0.011083 -0.001922 -0.000667 -0.001752
# 4 0.001914 -0.005295 -0.001922 0.053464 -0.000832 0.004177
# 5 -0.002176 -0.001388 -0.000667 -0.000832 0.030261 0.002623
# 6 0.004199 0.005325 -0.001752 0.004177 0.002623 0.072659
#
#
# Mechanical properties :
#
#
# Convention : Reuss Voigt Hill
#
# Bulk Modulus (GPa) = 42.13022 50.22539 46.17780
# Shear Modulus (GPa) = 23.51137 29.48998 26.50067
#
# Velocity S-wave (km/s) = 3.55366 3.97992 3.77282
# Velocity P-wave (km/s) = 6.28229 6.93520 6.61680
#
# Compressibility (1/GPa) = 0.02373593
#
# Stress axis : x y z
#
# Youngs Moduli (GPa) = 98.30460 67.58461 90.23221
#
# Poissons Ratio (x) = 0.24495 0.25096
# Poissons Ratio (y) = 0.35629 -0.02237
# Poissons Ratio (z) = 0.27341 -0.01676
#
# Static dielectric constant tensor:
#      x y z
#    x 4.169730 -0.308870 0.081280 
#    y -0.308870 3.204100 -0.001240 
#    z 0.081280 -0.001240 3.563180 
# 
# 
# High freq. dielectric constant tensor:
#      x y z
#    x 1.736530 -0.005730 0.009040 
#    y -0.005730 1.682410 0.002240 
#    z 0.009040 0.002240 1.740640 
# 
# From -- ./inp_files/258116.got.cif
#   From: 2010.06.25/outbox.cif.g09.slc.cpg/sg2_130_cif.got.tgz:258116.got - 2010.06.27 13:26:56.
