data_PCOD8002636
_publ_section_title
;
Structure prediction by ZEFSAII (Michael W. Deem and Ramdas Pophale) SiO2 
 PCOD8002636
Probable space group: P -1
;
_chemical_formula_sum "Si O2"
_cell_formula_units_Z 16
_cell_length_a 7.169454
_cell_length_b 18.575567
_cell_length_c 11.097869
_cell_angle_alpha 42.465113
_cell_angle_beta 106.831214
_cell_angle_gamma 76.955700
_cell_volume 700.459971
_symmetry_space_group_name_H-M "P -1"
_symmetry_group_IT_number 2
_symmetry_cell_setting 'triclinic'
loop_
_space_group_symop_operation_xyz
x,y,z
-x,-y,-z
loop_
_atom_site_type_symbol
_atom_site_label
_atom_site_fract_x
_atom_site_fract_y
_atom_site_fract_z
Si Si1 0.712673 0.062671 0.029445
Si Si2 0.923880 0.225113 0.118832
Si Si3 0.949786 0.622980 0.194796
Si Si4 0.290049 0.385837 0.058932
Si Si5 0.427801 0.345398 0.744259
Si Si6 0.778674 0.067796 0.585486
Si Si7 0.006721 0.669215 0.765824
Si Si8 0.499065 0.940073 0.244723
O O1 0.514785 0.059812 0.072228
O O2 0.616742 0.219542 0.836664
O O3 0.694989 0.043521 0.908459
O O4 0.015017 0.943224 0.280007
O O5 0.921960 0.262865 0.210898
O O6 0.613819 0.333609 0.892039
O O7 0.074717 0.055188 0.340737
O O8 0.076213 0.252494 0.026864
O O9 0.750560 0.681595 0.196298
O O10 0.249809 0.498165 0.453113
O O11 0.874197 0.559162 0.163739
O O12 0.591496 0.228926 0.292143
O O13 0.155161 0.362693 0.160637
O O14 0.267488 0.517358 0.939908
O O15 0.614074 0.043439 0.664513
O O16 0.806415 0.787029 0.480184
#
# Coordination Sequence:
#
# PCOD8002636 Si02
#       8
#     2   2   2   2   2   2   2   2
#     4  10  21  36  55  82 112 144 183 226 273 324
#     4  10  21  37  58  83 111 144 182 226 274 324
#     4  10  20  36  57  80 109 147 184 224 270 325
#     4   9  19  36  58  82 110 146 184 225 273 323
#     4  10  21  36  55  82 112 144 183 226 273 324
#     4  10  21  37  58  83 111 144 182 226 274 324
#     4   9  19  36  58  82 110 146 184 225 273 323
#     4  10  20  36  57  80 109 147 184 224 270 325
#
# _framework density 22.842131999999999
#
# number of rings (size 3 to 8) (size 9 to 14) (size 15 to 20)
#    0.000    2.250    0.000    2.250    0.000    7.500 
#    0.000   11.250    0.000    0.000    0.000    0.000 
#    0.000    0.000    0.000    0.000    0.000    0.000 
#
# Total GULP energy -198323.396707 kJ/mol
# GULP energy per Si atom -12395.212294 kJ/mol
# Density = 2.279014 g / cm^3
# Si number density = 22.842132 Si / 1000 Ang^3
#
#
#
# Elastic Constant Matrix: (Units=GPa)
#
#
# Indices 1 2 3 4 5 6 
#
# 1 43.1307 1.8022 5.2687 3.0244 11.1432 8.4234
# 2 1.8022 119.8782 83.5941 -15.1177 18.5285 26.8211
# 3 5.2687 83.5941 128.1953 5.3966 30.7331 14.9195
# 4 3.0244 -15.1177 5.3966 31.1021 -0.0094 5.3307
# 5 11.1432 18.5285 30.7331 -0.0094 29.4282 10.9865
# 6 8.4234 26.8211 14.9195 5.3307 10.9865 18.4630
#
#
#
# Elastic Compliance Matrix: (Units=1/GPa)
#
#
# Indices 1 2 3 4 5 6 
#
# 1 0.027913 0.006383 -0.001985 0.003830 -0.005765 -0.018079
# 2 0.006383 0.047386 -0.030844 0.040674 0.028075 -0.075275
# 3 -0.001985 -0.030844 0.030812 -0.028104 -0.029332 0.046383
# 4 0.003830 0.040674 -0.028104 0.069565 0.030911 -0.076602
# 5 -0.005765 0.028075 -0.029332 0.030911 0.074381 -0.067637
# 6 -0.018079 -0.075275 0.046383 -0.076602 -0.067637 0.196645
#
#
# Mechanical properties :
#
#
# Convention : Reuss Voigt Hill
#
# Bulk Modulus (GPa) = 18.79015 52.50381 35.64698
# Shear Modulus (GPa) = 9.66495 29.16796 19.41646
#
# Velocity S-wave (km/s) = 2.05922 3.57730 2.91869
# Velocity P-wave (km/s) = 3.72797 6.33231 5.19596
#
# Compressibility (1/GPa) = 0.05321938
#
# Stress axis : x y z
#
# Youngs Moduli (GPa) = 35.82595 21.10322 32.45457
#
# Poissons Ratio (x) = -0.13471 0.06441
# Poissons Ratio (y) = -0.22868 1.00104
# Poissons Ratio (z) = 0.07110 0.65092
#
# Static dielectric constant tensor:
#      x y z
#    x 3.848050 0.102940 0.106160 
#    y 0.102940 3.977060 -0.076150 
#    z 0.106160 -0.076150 4.262220 
# 
# 
# High freq. dielectric constant tensor:
#      x y z
#    x 1.889370 0.007940 0.006040 
#    y 0.007940 1.889800 0.003520 
#    z 0.006040 0.003520 1.904700 
# 
# From -- ./inp_files/401963.got.cif
#   From: 2010.06.25/outbox.cif.g09.slc.cpg/sg2_201_cif.got.tgz:401963.got - 2010.06.27 13:26:56.
