data_PCOD8002989
_publ_section_title
;
Structure prediction by ZEFSAII (Michael W. Deem and Ramdas Pophale) SiO2 
 PCOD8002989
Probable space group: P -1
;
_chemical_formula_sum "Si O2"
_cell_formula_units_Z 12
_cell_length_a 7.685983
_cell_length_b 16.219012
_cell_length_c 10.474151
_cell_angle_alpha 140.000003
_cell_angle_beta 103.312900
_cell_angle_gamma 49.498289
_cell_volume 534.329046
_symmetry_space_group_name_H-M "P -1"
_symmetry_group_IT_number 2
_symmetry_cell_setting 'triclinic'
loop_
_space_group_symop_operation_xyz
x,y,z
-x,-y,-z
loop_
_atom_site_type_symbol
_atom_site_label
_atom_site_fract_x
_atom_site_fract_y
_atom_site_fract_z
Si Si1 0.314856 0.626564 0.425916
Si Si2 0.474150 0.274625 0.583995
Si Si3 0.311295 0.095415 0.704941
Si Si4 0.866016 0.628825 0.792620
Si Si5 0.153719 0.617976 0.630752
Si Si6 0.173995 0.536175 0.064140
O O1 0.311205 0.762792 0.511125
O O2 0.096938 0.741469 0.644191
O O3 0.616235 0.440823 0.313528
O O4 0.252948 0.538801 0.221164
O O5 0.174992 0.424814 0.648213
O O6 0.611824 0.063516 0.380182
O O7 0.443535 0.364889 0.821632
O O8 0.002865 0.256040 0.789105
O O9 0.500000 0.000000 0.500000
O O10 0.323569 0.216207 0.940344
O O11 0.730547 0.578331 0.645202
O O12 0.892805 0.726740 0.804191
O O13 0.000000 0.500000 0.000000
#
# Coordination Sequence:
#
# PCOD8002989 Si02
#       6
#     2   2   2   2   2   2
#     4  10  20  36  61  87 120 154 198 239 299 348
#     4  10  21  37  60  92 119 152 192 248 299 342
#     4  11  22  36  62  92 114 153 201 247 292 345
#     4   9  20  40  65  86 117 154 204 237 286 354
#     4   9  19  38  63  87 115 164 194 236 290 352
#     4  11  21  38  62  87 116 157 195 247 296 348
#
# _framework density 22.458071
#
# number of rings (size 3 to 8) (size 9 to 14) (size 15 to 20)
#    0.000    2.000    1.667    2.500    0.000    0.667 
#    0.000    8.333    0.000    0.000    0.000    0.000 
#    0.000    0.000    0.000    0.000    0.000    0.000 
#
# Total GULP energy -148664.873819 kJ/mol
# GULP energy per Si atom -12388.739485 kJ/mol
# Density = 2.240696 g / cm^3
# Si number density = 22.458071 Si / 1000 Ang^3
#
#
#
# Elastic Constant Matrix: (Units=GPa)
#
#
# Indices 1 2 3 4 5 6 
#
# 1 107.6211 49.4829 26.5328 -6.3040 10.3934 17.9282
# 2 49.4829 108.1080 45.2752 -18.7745 13.8264 13.4090
# 3 26.5328 45.2752 102.0838 -11.6854 5.5122 0.5300
# 4 -6.3040 -18.7745 -11.6854 41.9565 5.0156 6.9007
# 5 10.3934 13.8264 5.5122 5.0156 26.6551 -14.0055
# 6 17.9282 13.4090 0.5300 6.9007 -14.0055 48.2595
#
#
#
# Elastic Compliance Matrix: (Units=1/GPa)
#
#
# Indices 1 2 3 4 5 6 
#
# 1 0.012927 -0.003563 -0.001205 0.001743 -0.006369 -0.005897
# 2 -0.003563 0.017003 -0.004936 0.008503 -0.012279 -0.008126
# 3 -0.001205 -0.004936 0.012268 0.000516 0.001466 0.002036
# 4 0.001743 0.008503 0.000516 0.032319 -0.018042 -0.012873
# 5 -0.006369 -0.012279 0.001466 -0.018042 0.063532 0.026779
# 6 -0.005897 -0.008126 0.002036 -0.012873 0.026779 0.034760
#
#
# Mechanical properties :
#
#
# Convention : Reuss Voigt Hill
#
# Bulk Modulus (GPa) = 43.88332 62.26605 53.07469
# Shear Modulus (GPa) = 25.02318 36.47569 30.74943
#
# Velocity S-wave (km/s) = 3.34161 4.03447 3.70428
# Velocity P-wave (km/s) = 5.87120 7.03479 6.47917
#
# Compressibility (1/GPa) = 0.02278770
#
# Stress axis : x y z
#
# Youngs Moduli (GPa) = 77.35786 58.81217 81.51350
#
# Poissons Ratio (x) = 0.20957 0.09826
# Poissons Ratio (y) = 0.27565 0.40239
# Poissons Ratio (z) = 0.09325 0.29032
#
# Static dielectric constant tensor:
#      x y z
#    x 4.154730 0.433030 -0.039340 
#    y 0.433030 4.491160 -0.431120 
#    z -0.039340 -0.431120 3.921210 
# 
# 
# High freq. dielectric constant tensor:
#      x y z
#    x 1.883110 0.025020 0.005880 
#    y 0.025020 1.896250 -0.043750 
#    z 0.005880 -0.043750 1.846270 
# 
# From -- ./inp_files/402340.got.cif
#   From: 2010.06.25/outbox.cif.g09.slc.cpg/sg2_202_cif.got.tgz:402340.got - 2010.06.27 13:26:56.
