data_PCOD8002618
_publ_section_title
;
Structure prediction by ZEFSAII (Michael W. Deem and Ramdas Pophale) SiO2 
 PCOD8002618
Probable space group: P -1
;
_chemical_formula_sum "Si O2"
_cell_formula_units_Z 16
_cell_length_a 12.111187
_cell_length_b 10.820116
_cell_length_c 8.318091
_cell_angle_alpha 128.183290
_cell_angle_beta 105.045376
_cell_angle_gamma 65.124982
_cell_volume 777.323015
_symmetry_space_group_name_H-M "P -1"
_symmetry_group_IT_number 2
_symmetry_cell_setting 'triclinic'
loop_
_space_group_symop_operation_xyz
x,y,z
-x,-y,-z
loop_
_atom_site_type_symbol
_atom_site_label
_atom_site_fract_x
_atom_site_fract_y
_atom_site_fract_z
Si Si1 0.962021 0.056860 0.852707
Si Si2 0.504445 0.889453 0.069395
Si Si3 0.291891 0.299987 0.776796
Si Si4 0.084841 0.605674 0.064956
Si Si5 0.508333 0.833395 0.500520
Si Si6 0.161738 0.801695 0.517884
Si Si7 0.416752 0.686014 0.647885
Si Si8 0.754032 0.011111 0.568176
O O1 0.977528 0.233598 0.947087
O O2 0.822560 0.063889 0.784635
O O3 0.042685 0.906001 0.652298
O O4 0.000000 0.000000 0.000000
O O5 0.640187 0.777741 0.092448
O O6 0.445664 0.014781 0.298026
O O7 0.435865 0.760324 0.889204
O O8 0.500000 0.000000 0.000000
O O9 0.387680 0.302138 0.672707
O O10 0.212772 0.188921 0.596209
O O11 0.202947 0.487742 0.919844
O O12 0.130574 0.663338 0.291682
O O13 0.000000 0.500000 0.000000
O O14 0.462808 0.773030 0.593251
O O15 0.391161 0.905141 0.398248
O O16 0.274712 0.707107 0.601194
O O17 0.198867 0.931849 0.530476
O O18 0.500000 0.500000 0.500000
#
# Coordination Sequence:
#
# PCOD8002618 Si02
#       8
#     2   2   2   2   2   2   2   2
#     4  11  24  41  61  88 115 153 202 250 297 346
#     4   9  18  33  55  84 116 151 186 224 281 351
#     4  11  20  36  61  89 115 151 198 247 289 340
#     4  11  23  42  64  85 113 157 204 246 292 354
#     4   9  20  35  56  85 116 152 192 232 288 351
#     4  10  21  39  60  81 116 163 197 226 291 372
#     4  10  20  36  56  85 120 151 187 238 291 346
#     4   9  18  38  60  81 117 160 193 229 287 366
#
# _framework density 20.583462999999998
#
# number of rings (size 3 to 8) (size 9 to 14) (size 15 to 20)
#    0.000    2.000    0.000    6.000    0.000    3.000 
#    0.000   15.000    0.000    0.000    0.000    0.000 
#    0.000    0.000    0.000    0.000    0.000    0.000 
#
# Total GULP energy -198212.666460 kJ/mol
# GULP energy per Si atom -12388.291654 kJ/mol
# Density = 2.053661 g / cm^3
# Si number density = 20.583463 Si / 1000 Ang^3
#
#
#
# Elastic Constant Matrix: (Units=GPa)
#
#
# Indices 1 2 3 4 5 6 
#
# 1 67.2547 35.7327 90.6897 0.7623 -3.0320 -4.2101
# 2 35.7327 92.8981 51.4346 1.8094 9.2616 -13.4353
# 3 90.6897 51.4346 123.0478 10.5217 10.4391 -19.0285
# 4 0.7623 1.8094 10.5217 41.0838 -8.3360 -3.6020
# 5 -3.0320 9.2616 10.4391 -8.3360 38.3175 8.6529
# 6 -4.2101 -13.4353 -19.0285 -3.6020 8.6529 27.3492
#
#
#
# Elastic Compliance Matrix: (Units=1/GPa)
#
#
# Indices 1 2 3 4 5 6 
#
# 1 -0.077256 0.003316 0.068020 -0.020212 -0.040505 0.047215
# 2 0.003316 0.014443 -0.008086 0.001331 -0.001317 0.002572
# 3 0.068020 -0.008086 -0.047948 0.014702 0.031475 -0.034883
# 4 -0.020212 0.001331 0.014702 0.021116 -0.004002 0.011819
# 5 -0.040505 -0.001317 0.031475 -0.004002 0.011301 0.010915
# 6 0.047215 0.002572 -0.034883 0.011819 0.010915 0.018929
#
#
# Mechanical properties :
#
#
# Convention : Reuss Voigt Hill
#
# Bulk Modulus (GPa) = 63.53275 70.99052 67.26163
# Shear Modulus (GPa) = -27.67496 28.37300 0.34902
#
# Velocity S-wave (km/s) = -3.67075 3.71676 0.41223
# Velocity P-wave (km/s) = 3.60098 7.27894 5.74239
#
# Compressibility (1/GPa) = 0.01573991
#
# Stress axis : x y z
#
# Youngs Moduli (GPa) = -12.94402 69.23736 -20.85608
#
# Poissons Ratio (x) = -0.22960 1.41863
# Poissons Ratio (y) = 0.04292 -0.16864
# Poissons Ratio (z) = 0.88045 0.55983
#
# Static dielectric constant tensor:
#      x y z
#    x 3.847710 -0.251610 0.267590 
#    y -0.251610 3.681430 -0.243940 
#    z 0.267590 -0.243940 4.065910 
# 
# 
# High freq. dielectric constant tensor:
#      x y z
#    x 1.799840 -0.001100 0.004930 
#    y -0.001100 1.798170 0.001210 
#    z 0.004930 0.001210 1.813210 
# 
# From -- ./inp_files/260719.got.cif
#   From: 2010.06.25/outbox.cif.g09.slc.cpg/sg2_131_cif.got.tgz:260719.got - 2010.06.27 13:26:56.
