data_PCOD8002986
_publ_section_title
;
Structure prediction by ZEFSAII (Michael W. Deem and Ramdas Pophale) SiO2 
 PCOD8002986
Probable space group: P -1
;
_chemical_formula_sum "Si O2"
_cell_formula_units_Z 14
_cell_length_a 5.354659
_cell_length_b 11.698075
_cell_length_c 22.773950
_cell_angle_alpha 31.807824
_cell_angle_beta 57.861067
_cell_angle_gamma 59.910931
_cell_volume 632.780577
_symmetry_space_group_name_H-M "P -1"
_symmetry_group_IT_number 2
_symmetry_cell_setting 'triclinic'
loop_
_space_group_symop_operation_xyz
x,y,z
-x,-y,-z
loop_
_atom_site_type_symbol
_atom_site_label
_atom_site_fract_x
_atom_site_fract_y
_atom_site_fract_z
Si Si1 0.097598 0.735547 0.236944
Si Si2 0.277091 0.824847 0.050419
Si Si3 0.630053 0.473010 0.347185
Si Si4 0.648703 0.008904 0.541347
Si Si5 0.842362 0.635654 0.757365
Si Si6 0.856539 0.830504 0.915409
Si Si7 0.199406 0.395863 0.095554
O O1 0.302932 0.770002 0.139800
O O2 0.321079 0.613773 0.309492
O O3 0.827158 0.596046 0.314706
O O4 0.950945 0.968080 0.181555
O O5 0.265497 0.599822 0.115733
O O6 0.548050 0.928723 0.941476
O O7 0.000000 0.000000 0.000000
O O8 0.537727 0.241676 0.484780
O O9 0.828544 0.401526 0.295670
O O10 0.500000 0.000000 0.500000
O O11 0.601755 0.795551 0.679654
O O12 0.000000 0.000000 0.500000
O O13 0.832354 0.728819 0.784356
O O14 0.846332 0.791509 0.864230
O O15 0.949224 0.601119 0.035271
O O16 0.500000 0.500000 0.000000
#
# Coordination Sequence:
#
# PCOD8002986 Si02
#       7
#     2   2   2   2   2   2   2
#     4  11  22  36  60  85 119 157 193 251 314 358
#     4  11  20  35  59  90 124 155 200 250 306 371
#     4  10  21  37  60  91 116 148 200 257 317 363
#     4  10  20  37  61  90 121 151 196 259 314 366
#     4  10  20  36  61  86 122 158 198 250 310 358
#     4  11  23  37  58  84 123 168 209 246 297 365
#     4  11  23  39  57  84 126 166 213 244 283 370
#
# _framework density 22.124572000000001
#
# number of rings (size 3 to 8) (size 9 to 14) (size 15 to 20)
#    0.000    1.429    1.429    6.429    2.000    1.143 
#    0.000    0.000    0.000    1.714    0.000    0.000 
#    0.000    0.000    0.000    0.000    0.000    0.000 
#
# Total GULP energy -173445.384292 kJ/mol
# GULP energy per Si atom -12388.956021 kJ/mol
# Density = 2.207422 g / cm^3
# Si number density = 22.124572 Si / 1000 Ang^3
#
#
#
# Elastic Constant Matrix: (Units=GPa)
#
#
# Indices 1 2 3 4 5 6 
#
# 1 134.2680 40.6579 38.2900 -15.6255 12.7639 18.7104
# 2 40.6579 71.4000 28.1757 -25.7674 -7.9539 24.2755
# 3 38.2900 28.1757 89.9180 -30.3652 10.7467 18.6400
# 4 -15.6255 -25.7674 -30.3652 37.4815 6.1330 -5.8496
# 5 12.7639 -7.9539 10.7467 6.1330 32.1423 -5.5479
# 6 18.7104 24.2755 18.6400 -5.8496 -5.5479 40.9303
#
#
#
# Elastic Compliance Matrix: (Units=1/GPa)
#
#
# Indices 1 2 3 4 5 6 
#
# 1 0.010206 -0.005241 -0.001955 -0.000351 -0.004867 -0.001376
# 2 -0.005241 0.025761 0.000520 0.013656 0.003839 -0.010648
# 3 -0.001955 0.000520 0.020108 0.016319 -0.010249 -0.007629
# 4 -0.000351 0.013656 0.016319 0.049728 -0.013160 -0.010048
# 5 -0.004867 0.003839 -0.010249 -0.013160 0.041372 0.008342
# 6 -0.001376 -0.010648 -0.007629 -0.010048 0.008342 0.034545
#
#
# Mechanical properties :
#
#
# Convention : Reuss Voigt Hill
#
# Bulk Modulus (GPa) = 23.40692 56.64813 40.02753
# Shear Modulus (GPa) = 23.88764 34.67498 29.28131
#
# Velocity S-wave (km/s) = 3.28943 3.96316 3.64191
# Velocity P-wave (km/s) = 5.00297 6.82656 5.98463
#
# Compressibility (1/GPa) = 0.04272241
#
# Stress axis : x y z
#
# Youngs Moduli (GPa) = 97.98142 38.81853 49.73080
#
# Poissons Ratio (x) = 0.20344 0.09724
# Poissons Ratio (y) = 0.51350 -0.02585
# Poissons Ratio (z) = 0.19158 -0.02018
#
# Static dielectric constant tensor:
#      x y z
#    x 4.372340 0.212390 -0.407670 
#    y 0.212390 3.907730 -0.388680 
#    z -0.407670 -0.388680 6.113830 
# 
# 
# High freq. dielectric constant tensor:
#      x y z
#    x 1.875030 0.015410 0.007460 
#    y 0.015410 1.850790 -0.038170 
#    z 0.007460 -0.038170 1.859810 
# 
# From -- ./inp_files/67869.got.cif
#   From: 2010.06.25/outbox.cif.g09.slc.cpg/sg2_34_cif.got.tgz:67869.got - 2010.06.27 13:26:56.
