data_PCOD8002339
_publ_section_title
;
Structure prediction by ZEFSAII (Michael W. Deem and Ramdas Pophale) SiO2 
 PCOD8002339
Probable space group: P -1
;
_chemical_formula_sum "Si O2"
_cell_formula_units_Z 16
_cell_length_a 10.698022
_cell_length_b 6.666985
_cell_length_c 22.682651
_cell_angle_alpha 114.730163
_cell_angle_beta 31.155317
_cell_angle_gamma 104.504089
_cell_volume 740.044566
_symmetry_space_group_name_H-M "P -1"
_symmetry_group_IT_number 2
_symmetry_cell_setting 'triclinic'
loop_
_space_group_symop_operation_xyz
x,y,z
-x,-y,-z
loop_
_atom_site_type_symbol
_atom_site_label
_atom_site_fract_x
_atom_site_fract_y
_atom_site_fract_z
Si Si1 0.400845 0.401442 0.174686
Si Si2 0.944496 0.404301 0.948148
Si Si3 0.782903 0.671251 0.504023
Si Si4 0.014923 0.811605 0.690631
Si Si5 0.916973 0.200042 0.104179
Si Si6 0.358621 0.302301 0.310542
Si Si7 0.152780 0.885925 0.313735
Si Si8 0.769609 0.049217 0.261118
O O1 0.259947 0.217068 0.181984
O O2 0.292985 0.433566 0.290620
O O3 0.329849 0.639506 0.197767
O O4 0.695955 0.306462 0.040019
O O5 0.908572 0.621429 0.947016
O O6 0.179095 0.220691 0.804791
O O7 0.000000 0.500000 0.000000
O O8 0.815488 0.595540 0.550771
O O9 0.511310 0.825300 0.620694
O O10 0.825096 0.438929 0.421478
O O11 0.959583 0.837093 0.434412
O O12 0.149744 0.905107 0.700599
O O13 0.996293 0.996602 0.668932
O O14 0.635152 0.317106 0.216254
O O15 0.946745 0.123266 0.150074
O O16 0.000000 0.000000 0.000000
O O17 0.330291 0.042435 0.285232
#
# Coordination Sequence:
#
# PCOD8002339 Si02
#       8
#     2   2   2   2   2   2   2   2
#     4  10  22  40  64  91 131 161 205 261 307 376
#     4  12  23  40  66  97 124 156 208 259 314 375
#     4  10  23  39  64  94 125 164 213 260 305 368
#     4  10  24  45  60  90 128 171 213 249 306 371
#     4  11  21  38  63  92 125 157 200 259 316 363
#     4  10  20  35  59  92 124 159 201 257 315 361
#     4  10  22  38  63  89 130 167 207 254 311 365
#     4  11  25  42  66  91 127 168 206 259 312 369
#
# _framework density 21.620318000000001
#
# number of rings (size 3 to 8) (size 9 to 14) (size 15 to 20)
#    0.000    1.500    2.500    1.500    1.750   11.500 
#    0.000    1.250    0.000    0.000    0.000    0.000 
#    0.000    0.000    0.000    0.000    0.000    0.000 
#
# Total GULP energy -198265.487969 kJ/mol
# GULP energy per Si atom -12391.592998 kJ/mol
# Density = 2.157111 g / cm^3
# Si number density = 21.620318 Si / 1000 Ang^3
#
#
#
# Elastic Constant Matrix: (Units=GPa)
#
#
# Indices 1 2 3 4 5 6 
#
# 1 74.6583 22.0788 17.6849 4.0266 4.1368 -2.4197
# 2 22.0788 119.5239 32.5805 0.5282 1.6663 -14.4475
# 3 17.6849 32.5805 80.6197 4.1707 -4.6155 -2.7708
# 4 4.0266 0.5282 4.1707 36.9791 2.9254 0.7847
# 5 4.1368 1.6663 -4.6155 2.9254 28.0564 -0.4673
# 6 -2.4197 -14.4475 -2.7708 0.7847 -0.4673 30.1497
#
#
#
# Elastic Compliance Matrix: (Units=1/GPa)
#
#
# Indices 1 2 3 4 5 6 
#
# 1 0.014772 -0.002010 -0.002506 -0.001111 -0.002356 -0.000015
# 2 -0.002010 0.010270 -0.003633 0.000459 -0.000886 0.004401
# 3 -0.002506 -0.003633 0.014666 -0.001568 0.003153 -0.000504
# 4 -0.001111 0.000459 -0.001568 0.027588 -0.003011 -0.000778
# 5 -0.002356 -0.000886 0.003153 -0.003011 0.036881 0.000326
# 6 -0.000015 0.004401 -0.000504 -0.000778 0.000326 0.035254
#
#
# Mechanical properties :
#
#
# Convention : Reuss Voigt Hill
#
# Bulk Modulus (GPa) = 42.71475 46.61002 44.66238
# Shear Modulus (GPa) = 30.57489 32.53423 31.55456
#
# Velocity S-wave (km/s) = 3.76463 3.88338 3.82447
# Velocity P-wave (km/s) = 6.22063 6.45854 6.34070
#
# Compressibility (1/GPa) = 0.02341112
#
# Stress axis : x y z
#
# Youngs Moduli (GPa) = 67.69438 97.36846 68.18446
#
# Poissons Ratio (x) = 0.19568 0.17089
# Poissons Ratio (y) = 0.13605 0.24770
# Poissons Ratio (z) = 0.16966 0.35372
#
# Static dielectric constant tensor:
#      x y z
#    x 3.749450 -0.171610 -0.067530 
#    y -0.171610 4.134960 -0.168030 
#    z -0.067530 -0.168030 3.957880 
# 
# 
# High freq. dielectric constant tensor:
#      x y z
#    x 1.835630 -0.013830 -0.011610 
#    y -0.013830 1.858850 -0.008570 
#    z -0.011610 -0.008570 1.848620 
# 
# From -- ./inp_files/437392.got.cif
#   From: 2010.06.25/outbox.cif.g09.slc.cpg/sg2_219_cif.got.tgz:437392.got - 2010.06.27 13:26:56.
