data_PCOD8002330
_publ_section_title
;
Structure prediction by ZEFSAII (Michael W. Deem and Ramdas Pophale) SiO2 
 PCOD8002330
Probable space group: P -1
;
_chemical_formula_sum "Si O2"
_cell_formula_units_Z 14
_cell_length_a 9.756307
_cell_length_b 12.050770
_cell_length_c 14.995480
_cell_angle_alpha 149.309222
_cell_angle_beta 121.767669
_cell_angle_gamma 46.137729
_cell_volume 637.166049
_symmetry_space_group_name_H-M "P -1"
_symmetry_group_IT_number 2
_symmetry_cell_setting 'triclinic'
loop_
_space_group_symop_operation_xyz
x,y,z
-x,-y,-z
loop_
_atom_site_type_symbol
_atom_site_label
_atom_site_fract_x
_atom_site_fract_y
_atom_site_fract_z
Si Si1 0.438276 0.167836 0.383347
Si Si2 0.231739 0.925754 0.241499
Si Si3 0.474067 0.267467 0.651255
Si Si4 0.916220 0.251484 0.084430
Si Si5 0.165459 0.698975 0.550203
Si Si6 0.350348 0.028259 0.847988
Si Si7 0.768373 0.656928 0.813957
O O1 0.524180 0.248918 0.550321
O O2 0.298764 0.425698 0.457293
O O3 0.326499 0.041206 0.293162
O O4 0.615617 0.950604 0.230985
O O5 0.378451 0.715030 0.220777
O O6 0.168802 0.772398 0.053671
O O7 0.050979 0.167024 0.396647
O O8 0.253905 0.504865 0.751502
O O9 0.500000 0.000000 0.500000
O O10 0.086968 0.289133 0.149321
O O11 0.000000 0.000000 0.000000
O O12 0.174775 0.628505 0.398392
O O13 0.239921 0.883752 0.721551
O O14 0.554851 0.870227 0.856475
O O15 0.226147 0.308434 0.052057
#
# Coordination Sequence:
#
# PCOD8002330 Si02
#       7
#     2   2   2   2   2   2   2
#     4  10  20  38  60  90 122 165 216 258 309 375
#     4  11  22  39  61  90 127 163 207 262 316 373
#     4  10  23  40  61  88 131 171 202 262 322 372
#     4  12  22  38  66 100 121 162 221 265 308 374
#     4  11  20  39  64  92 124 164 212 263 316 369
#     4  10  21  37  58  93 129 159 209 265 319 366
#     4  10  20  35  59  90 129 157 202 264 322 356
#
# _framework density 21.972294999999999
#
# number of rings (size 3 to 8) (size 9 to 14) (size 15 to 20)
#    0.000    1.429    1.429    6.857    0.000    0.000 
#    2.571    0.714    0.000    6.000    0.000    0.000 
#    0.000    0.000    0.000    0.000    0.000    0.000 
#
# Total GULP energy -173482.739926 kJ/mol
# GULP energy per Si atom -12391.624280 kJ/mol
# Density = 2.192229 g / cm^3
# Si number density = 21.972295 Si / 1000 Ang^3
#
#
#
# Elastic Constant Matrix: (Units=GPa)
#
#
# Indices 1 2 3 4 5 6 
#
# 1 112.9890 20.7809 44.7496 -7.1997 -21.4202 0.8579
# 2 20.7809 105.5423 31.8674 -27.0866 -14.8852 2.1864
# 3 44.7496 31.8674 135.7032 -23.8493 -28.8731 6.5810
# 4 -7.1997 -27.0866 -23.8493 45.2345 3.2048 -4.1113
# 5 -21.4202 -14.8852 -28.8731 3.2048 48.7487 -16.4163
# 6 0.8579 2.1864 6.5810 -4.1113 -16.4163 16.5409
#
#
#
# Elastic Compliance Matrix: (Units=1/GPa)
#
#
# Indices 1 2 3 4 5 6 
#
# 1 0.010912 -0.000779 -0.002654 0.000018 0.004784 0.005346
# 2 -0.000779 0.012067 -0.000759 0.006817 0.003896 0.004308
# 3 -0.002654 -0.000759 0.010161 0.004332 0.005132 0.002366
# 4 0.000018 0.006817 0.004332 0.029018 0.006447 0.010986
# 5 0.004784 0.003896 0.005132 0.006447 0.039076 0.037579
# 6 0.005346 0.004308 0.002366 0.010986 0.037579 0.098695
#
#
# Mechanical properties :
#
#
# Convention : Reuss Voigt Hill
#
# Bulk Modulus (GPa) = 40.39131 61.00336 50.69733
# Shear Modulus (GPa) = 23.08795 39.22727 31.15761
#
# Velocity S-wave (km/s) = 3.24508 4.22987 3.76977
# Velocity P-wave (km/s) = 5.69767 7.18887 6.48627
#
# Compressibility (1/GPa) = 0.02475780
#
# Stress axis : x y z
#
# Youngs Moduli (GPa) = 91.64076 82.86982 98.41705
#
# Poissons Ratio (x) = 0.06452 0.26116
# Poissons Ratio (y) = 0.07135 0.07469
# Poissons Ratio (z) = 0.24318 0.06289
#
# Static dielectric constant tensor:
#      x y z
#    x 4.203630 -0.059390 -0.564770 
#    y -0.059390 4.376370 -0.811030 
#    z -0.564770 -0.811030 4.821810 
# 
# 
# High freq. dielectric constant tensor:
#      x y z
#    x 1.866380 -0.014720 -0.020560 
#    y -0.014720 1.835180 -0.032330 
#    z -0.020560 -0.032330 1.886770 
# 
# From -- ./inp_files/187760.got.cif
#   From: 2010.06.25/outbox.cif.g09.slc.cpg/sg2_94_cif.got.tgz:187760.got - 2010.06.27 13:26:56.
