data_PCOD8002615
_publ_section_title
;
Structure prediction by ZEFSAII (Michael W. Deem and Ramdas Pophale) SiO2 
 PCOD8002615
Probable space group: P -1
;
_chemical_formula_sum "Si O2"
_cell_formula_units_Z 16
_cell_length_a 7.594703
_cell_length_b 8.038879
_cell_length_c 18.471746
_cell_angle_alpha 125.187574
_cell_angle_beta 115.133635
_cell_angle_gamma 59.280146
_cell_volume 778.587391
_symmetry_space_group_name_H-M "P -1"
_symmetry_group_IT_number 2
_symmetry_cell_setting 'triclinic'
loop_
_space_group_symop_operation_xyz
x,y,z
-x,-y,-z
loop_
_atom_site_type_symbol
_atom_site_label
_atom_site_fract_x
_atom_site_fract_y
_atom_site_fract_z
Si Si1 0.132381 0.386762 0.561250
Si Si2 0.963433 0.993009 0.575670
Si Si3 0.349721 0.863079 0.855243
Si Si4 0.828312 0.476384 0.667057
Si Si5 0.364394 0.690397 0.659472
Si Si6 0.222219 0.743485 0.026480
Si Si7 0.375817 0.298372 0.006241
Si Si8 0.989239 0.793579 0.854450
O O1 0.203152 0.131846 0.484985
O O2 0.319050 0.476620 0.625644
O O3 0.000000 0.500000 0.500000
O O4 0.980381 0.445948 0.618537
O O5 0.181053 0.854710 0.619502
O O6 0.865339 0.239219 0.650787
O O7 0.000000 0.000000 0.500000
O O8 0.395466 0.818342 0.767553
O O9 0.181980 0.760860 0.826378
O O10 0.270313 0.124633 0.920470
O O11 0.559140 0.746223 0.909428
O O12 0.585227 0.597302 0.631980
O O13 0.881227 0.623239 0.773225
O O14 0.432648 0.724929 0.018701
O O15 0.224722 0.547514 0.031156
O O16 0.048221 0.757434 0.939938
O O17 0.166021 0.957678 0.120210
#
# Coordination Sequence:
#
# PCOD8002615 Si02
#       8
#     2   2   2   2   2   2   2   2
#     4   9  20  41  63  88 123 150 200 255 302 361
#     4   9  22  41  63  91 119 156 204 249 307 369
#     4  10  20  36  56  85 123 154 201 256 296 350
#     4  11  22  40  63  91 122 163 200 249 304 371
#     4  11  22  40  65  90 123 163 197 256 305 362
#     4   9  19  36  57  82 115 165 196 249 303 352
#     4   9  19  36  57  82 117 159 203 247 298 362
#     4  10  20  36  56  84 123 156 204 247 301 356
#
# _framework density 20.550039999999999
#
# number of rings (size 3 to 8) (size 9 to 14) (size 15 to 20)
#    0.000    2.250    1.250    0.750    1.750    6.500 
#    4.500    3.750    0.000    0.000    0.000    0.000 
#    0.000    0.000    0.000    0.000    0.000    0.000 
#
# Total GULP energy -198221.288456 kJ/mol
# GULP energy per Si atom -12388.830529 kJ/mol
# Density = 2.050327 g / cm^3
# Si number density = 20.550040 Si / 1000 Ang^3
#
#
#
# Elastic Constant Matrix: (Units=GPa)
#
#
# Indices 1 2 3 4 5 6 
#
# 1 54.2913 19.4300 30.0876 5.2850 13.8358 -1.0235
# 2 19.4300 139.8283 61.0464 19.7998 14.4060 11.6291
# 3 30.0876 61.0464 122.0012 18.2607 20.6785 10.8507
# 4 5.2850 19.7998 18.2607 34.7317 9.8146 2.1970
# 5 13.8358 14.4060 20.6785 9.8146 25.3102 1.8743
# 6 -1.0235 11.6291 10.8507 2.1970 1.8743 28.5685
#
#
#
# Elastic Compliance Matrix: (Units=1/GPa)
#
#
# Indices 1 2 3 4 5 6 
#
# 1 0.023478 -0.000935 -0.004222 0.001730 -0.009771 0.003333
# 2 -0.000935 0.009629 -0.003853 -0.003046 -0.000476 -0.002224
# 3 -0.004222 -0.003853 0.012550 -0.002260 -0.004663 -0.002870
# 4 0.001730 -0.003046 -0.002260 0.034478 -0.010751 0.000214
# 5 -0.009771 -0.000476 -0.004663 -0.010751 0.053178 -0.001047
# 6 0.003333 -0.002224 -0.002870 0.000214 -0.001047 0.037170
#
#
# Mechanical properties :
#
#
# Convention : Reuss Voigt Hill
#
# Bulk Modulus (GPa) = 36.18322 59.69428 47.93875
# Shear Modulus (GPa) = 25.28894 31.42588 28.35741
#
# Velocity S-wave (km/s) = 3.51180 3.91479 3.71876
# Velocity P-wave (km/s) = 5.83860 7.03885 6.46663
#
# Compressibility (1/GPa) = 0.02763712
#
# Stress axis : x y z
#
# Youngs Moduli (GPa) = 42.59368 103.85191 79.68322
#
# Poissons Ratio (x) = 0.09709 0.33639
# Poissons Ratio (y) = 0.03982 0.30704
# Poissons Ratio (z) = 0.17981 0.40017
#
# Static dielectric constant tensor:
#      x y z
#    x 3.500840 0.286440 0.190160 
#    y 0.286440 4.211390 0.262730 
#    z 0.190160 0.262730 3.717680 
# 
# 
# High freq. dielectric constant tensor:
#      x y z
#    x 1.794840 0.017820 0.013420 
#    y 0.017820 1.800520 0.012470 
#    z 0.013420 0.012470 1.805830 
# 
# From -- ./inp_files/557307.got.cif
#   From: 2010.06.25/outbox.cif.g09.slc.cpg/sg2_279_cif.got.tgz:557307.got - 2010.06.27 13:26:56.
