data_PCOD8002328
_publ_section_title
;
Structure prediction by ZEFSAII (Michael W. Deem and Ramdas Pophale) SiO2 
 PCOD8002328
Probable space group: P -1
;
_chemical_formula_sum "Si O2"
_cell_formula_units_Z 16
_cell_length_a 24.298771
_cell_length_b 17.979440
_cell_length_c 12.485949
_cell_angle_alpha 36.126886
_cell_angle_beta 27.193844
_cell_angle_gamma 18.367795
_cell_volume 759.983407
_symmetry_space_group_name_H-M "P -1"
_symmetry_group_IT_number 2
_symmetry_cell_setting 'triclinic'
loop_
_space_group_symop_operation_xyz
x,y,z
-x,-y,-z
loop_
_atom_site_type_symbol
_atom_site_label
_atom_site_fract_x
_atom_site_fract_y
_atom_site_fract_z
Si Si1 0.934277 0.334474 0.780808
Si Si2 0.552485 0.774796 0.079540
Si Si3 0.325846 0.488006 0.178465
Si Si4 0.104902 0.952934 0.046210
Si Si5 0.583863 0.648580 0.592633
Si Si6 0.541499 0.065889 0.706836
Si Si7 0.264297 0.735865 0.329802
Si Si8 0.329742 0.726374 0.456652
O O1 0.760952 0.514521 0.770276
O O2 0.810936 0.508423 0.896534
O O3 0.179996 0.177433 0.508898
O O4 0.971026 0.152126 0.953578
O O5 0.543333 0.781589 0.217701
O O6 0.363049 0.845832 0.279534
O O7 0.470088 0.984690 0.936195
O O8 0.186006 0.744096 0.109511
O O9 0.290328 0.440725 0.405815
O O10 0.601148 0.276176 0.955306
O O11 0.316771 0.848773 0.840243
O O12 0.936494 0.076715 0.293834
O O13 0.593114 0.760016 0.367365
O O14 0.724415 0.409435 0.574240
O O15 0.404026 0.615540 0.339739
O O16 0.000000 0.000000 0.500000
O O17 0.500000 0.500000 0.500000
#
# Coordination Sequence:
#
# PCOD8002328 Si02
#       8
#     2   2   2   2   2   2   2   2
#     4  11  21  39  66  90 122 158 207 251 301 358
#     4  11  22  41  63  93 119 156 212 252 302 354
#     4  11  20  37  56  90 126 157 197 244 308 368
#     4  10  20  35  59  90 122 161 194 244 310 359
#     4  10  22  39  58  86 125 165 195 240 310 366
#     4  10  24  42  65  85 123 162 205 257 297 355
#     4  11  21  34  56  86 122 156 190 245 303 364
#     4  12  20  34  59  92 120 143 199 257 296 351
#
# _framework density 21.053090000000001
#
# number of rings (size 3 to 8) (size 9 to 14) (size 15 to 20)
#    0.000    1.250    2.500    5.250    0.000    2.000 
#    0.000    0.625    0.000    9.000    0.000    0.000 
#    0.000    0.000    0.000    0.000    0.000    0.000 
#
# Total GULP energy -198281.722833 kJ/mol
# GULP energy per Si atom -12392.607677 kJ/mol
# Density = 2.100517 g / cm^3
# Si number density = 21.053090 Si / 1000 Ang^3
#
#
#
# Elastic Constant Matrix: (Units=GPa)
#
#
# Indices 1 2 3 4 5 6 
#
# 1 89.9841 42.1002 31.7282 -6.2538 31.1186 -6.4160
# 2 42.1002 81.7025 42.7527 7.8328 15.5624 -9.1990
# 3 31.7282 42.7527 93.2743 -4.1848 18.8010 3.9078
# 4 -6.2538 7.8328 -4.1848 35.1806 1.1342 13.2319
# 5 31.1186 15.5624 18.8010 1.1342 31.4955 -4.1756
# 6 -6.4160 -9.1990 3.9078 13.2319 -4.1756 24.9716
#
#
#
# Elastic Compliance Matrix: (Units=1/GPa)
#
#
# Indices 1 2 3 4 5 6 
#
# 1 0.022094 -0.010359 0.001769 0.009561 -0.018995 -0.006658
# 2 -0.010359 0.025607 -0.011144 -0.015933 0.007216 0.018164
# 3 0.001769 -0.011144 0.018113 0.010323 -0.009215 -0.013496
# 4 0.009561 -0.015933 0.010323 0.047583 -0.013765 -0.032543
# 5 -0.018995 0.007216 -0.009215 -0.013765 0.055032 0.015716
# 6 -0.006658 0.018164 -0.013496 -0.032543 0.015716 0.067010
#
#
# Mechanical properties :
#
#
# Convention : Reuss Voigt Hill
#
# Bulk Modulus (GPa) = 37.95496 55.34701 46.65098
# Shear Modulus (GPa) = 17.62494 28.22154 22.92324
#
# Velocity S-wave (km/s) = 2.89652 3.66525 3.30332
# Velocity P-wave (km/s) = 5.40868 6.65270 6.06268
#
# Compressibility (1/GPa) = 0.02634702
#
# Stress axis : x y z
#
# Youngs Moduli (GPa) = 45.26051 39.05255 55.20863
#
# Poissons Ratio (x) = 0.40454 -0.09767
# Poissons Ratio (y) = 0.46885 0.61522
# Poissons Ratio (z) = -0.08007 0.43519
#
# Static dielectric constant tensor:
#      x y z
#    x 4.195620 0.177340 0.573450 
#    y 0.177340 3.929340 0.161630 
#    z 0.573450 0.161630 3.659320 
# 
# 
# High freq. dielectric constant tensor:
#      x y z
#    x 1.815450 -0.006190 0.029160 
#    y -0.006190 1.814500 0.010310 
#    z 0.029160 0.010310 1.829780 
# 
# From -- ./inp_files/234800.got.cif
#   From: 2010.06.25/outbox.cif.g09.slc.cpg/sg2_118_cif.got.tgz:234800.got - 2010.06.27 13:26:56.
