data_PCOD8002226
_publ_section_title
;
Structure prediction by ZEFSAII (Michael W. Deem and Ramdas Pophale) SiO2 
 PCOD8002226
Probable space group: P -1
;
_chemical_formula_sum "Si O2"
_cell_formula_units_Z 14
_cell_length_a 5.095911
_cell_length_b 8.771476
_cell_length_c 18.951845
_cell_angle_alpha 121.123633
_cell_angle_beta 78.225733
_cell_angle_gamma 120.409565
_cell_volume 623.513298
_symmetry_space_group_name_H-M "P -1"
_symmetry_group_IT_number 2
_symmetry_cell_setting 'triclinic'
loop_
_space_group_symop_operation_xyz
x,y,z
-x,-y,-z
loop_
_atom_site_type_symbol
_atom_site_label
_atom_site_fract_x
_atom_site_fract_y
_atom_site_fract_z
Si Si1 0.454577 0.336760 0.238451
Si Si2 0.011768 0.737770 0.325304
Si Si3 0.172852 0.384892 0.397471
Si Si4 0.447852 0.299873 0.761173
Si Si5 0.143678 0.349266 0.541608
Si Si6 0.405825 0.947639 0.072592
Si Si7 0.290214 0.282065 0.927507
O O1 0.797520 0.490845 0.283686
O O2 0.209408 0.266331 0.299597
O O3 0.374943 0.461596 0.213422
O O4 0.441344 0.140810 0.158655
O O5 0.842953 0.825475 0.304583
O O6 0.051346 0.810044 0.422821
O O7 0.332637 0.798484 0.285524
O O8 0.069381 0.247993 0.442722
O O9 0.502944 0.576339 0.442090
O O10 0.933723 0.464066 0.411446
O O11 0.341537 0.279777 0.841556
O O12 0.635320 0.880380 0.078584
O O13 0.057661 0.770717 0.052583
O O14 0.500000 0.000000 0.000000
O O15 0.500000 0.500000 0.000000
#
# Coordination Sequence:
#
# PCOD8002226 Si02
#       7
#     2   2   2   2   2   2   2
#     4   9  21  34  59  85 119 145 196 236 297 326
#     4   9  17  30  56  82 116 148 188 237 280 334
#     4   9  16  25  47  78 122 144 180 238 285 328
#     4  10  20  35  58  81 114 150 187 235 287 338
#     4   9  14  26  43  82 117 146 183 228 292 316
#     4  12  27  42  65  89 115 153 194 243 299 351
#     4  12  27  44  63  85 117 152 196 243 295 354
#
# _framework density 22.453410000000002
#
# number of rings (size 3 to 8) (size 9 to 14) (size 15 to 20)
#    0.857    1.143    1.429    2.571    4.000    0.000 
#    0.000    0.000    0.000    0.000    0.000    6.000 
#    0.000    0.000    0.000    0.000    0.000    0.000 
#
# Total GULP energy -173458.081446 kJ/mol
# GULP energy per Si atom -12389.862960 kJ/mol
# Density = 2.240230 g / cm^3
# Si number density = 22.453410 Si / 1000 Ang^3
#
#
#
# Elastic Constant Matrix: (Units=GPa)
#
#
# Indices 1 2 3 4 5 6 
#
# 1 111.1153 6.5515 23.3569 -18.6722 -7.8808 -4.5926
# 2 6.5515 32.8153 44.5125 -21.6301 2.9082 -2.6283
# 3 23.3569 44.5125 168.7554 -54.3621 -15.2070 -2.8336
# 4 -18.6722 -21.6301 -54.3621 54.1906 -2.7083 -1.6208
# 5 -7.8808 2.9082 -15.2070 -2.7083 33.6559 -11.7391
# 6 -4.5926 -2.6283 -2.8336 -1.6208 -11.7391 27.0799
#
#
#
# Elastic Compliance Matrix: (Units=1/GPa)
#
#
# Indices 1 2 3 4 5 6 
#
# 1 0.010080 0.000253 0.000346 0.004244 0.004173 0.003833
# 2 0.000253 0.053565 -0.012123 0.008865 -0.009145 0.000539
# 3 0.000346 -0.012123 0.012805 0.008732 0.009279 0.004767
# 4 0.004244 0.008865 0.008732 0.032969 0.009878 0.008749
# 5 0.004173 -0.009145 0.009279 0.009878 0.043532 0.020253
# 6 0.003833 0.000539 0.004767 0.008749 0.020253 0.047433
#
#
# Mechanical properties :
#
#
# Convention : Reuss Voigt Hill
#
# Bulk Modulus (GPa) = 18.72616 51.28087 35.00352
# Shear Modulus (GPa) = 20.72710 38.86961 29.79835
#
# Velocity S-wave (km/s) = 3.04158 4.16519 3.64692
# Velocity P-wave (km/s) = 4.54896 6.78381 5.77552
#
# Compressibility (1/GPa) = 0.05340123
#
# Stress axis : x y z
#
# Youngs Moduli (GPa) = 99.20941 18.66908 78.09712
#
# Poissons Ratio (x) = -0.00473 -0.02700
# Poissons Ratio (y) = -0.02515 0.94677
# Poissons Ratio (z) = -0.03430 0.22632
#
# Static dielectric constant tensor:
#      x y z
#    x 4.197870 -0.068200 0.027560 
#    y -0.068200 3.626080 -0.347370 
#    z 0.027560 -0.347370 4.069880 
# 
# 
# High freq. dielectric constant tensor:
#      x y z
#    x 1.894030 -0.011910 -0.006610 
#    y -0.011910 1.840830 -0.038520 
#    z -0.006610 -0.038520 1.899330 
# 
# From -- ./inp_files/547051.got.cif
#   From: 2010.06.25/outbox.cif.g09.slc.cpg/sg2_274_cif.got.tgz:547051.got - 2010.06.27 13:26:56.
