data_PCOD8002359
_publ_section_title
;
Structure prediction by ZEFSAII (Michael W. Deem and Ramdas Pophale) SiO2 
 PCOD8002359
Probable space group: P -1
;
_chemical_formula_sum "Si O2"
_cell_formula_units_Z 16
_cell_length_a 10.393183
_cell_length_b 22.914060
_cell_length_c 9.227996
_cell_angle_alpha 144.458781
_cell_angle_beta 102.434917
_cell_angle_gamma 51.639512
_cell_volume 773.415179
_symmetry_space_group_name_H-M "P -1"
_symmetry_group_IT_number 2
_symmetry_cell_setting 'triclinic'
loop_
_space_group_symop_operation_xyz
x,y,z
-x,-y,-z
loop_
_atom_site_type_symbol
_atom_site_label
_atom_site_fract_x
_atom_site_fract_y
_atom_site_fract_z
Si Si1 0.739545 0.340079 0.280742
Si Si2 0.109115 0.165740 0.797264
Si Si3 0.642725 0.059324 0.076305
Si Si4 0.266015 0.576492 0.246588
Si Si5 0.880886 0.770448 0.376757
Si Si6 0.683120 0.249895 0.563947
Si Si7 0.921479 0.024447 0.689328
Si Si8 0.577726 0.984537 0.182980
O O1 0.500000 0.500000 0.500000
O O2 0.793054 0.378415 0.508074
O O3 0.766423 0.207658 0.068265
O O4 0.892001 0.279697 0.063120
O O5 0.062272 0.267279 0.856192
O O6 0.196511 0.011920 0.430067
O O7 0.294623 0.099539 0.807013
O O8 0.618347 0.193552 0.333094
O O9 0.693085 0.994681 0.124626
O O10 0.832996 0.911943 0.716623
O O11 0.429688 0.123714 0.107982
O O12 0.274023 0.681134 0.387028
O O13 0.089712 0.611106 0.194507
O O14 0.492482 0.386775 0.905268
O O15 0.667302 0.832287 0.477006
O O16 0.886769 0.097694 0.398031
O O17 0.000000 0.000000 0.500000
#
# Coordination Sequence:
#
# PCOD8002359 Si02
#       8
#     2   2   2   2   2   2   2   2
#     4  11  25  38  59  91 126 161 197 252 317 362
#     4  11  20  37  60  87 123 160 201 248 303 363
#     4   9  20  37  62  83 120 150 215 242 301 356
#     4  11  23  37  61  89 130 155 202 256 309 359
#     4  10  20  36  61  90 119 157 205 247 302 355
#     4  11  22  38  62  93 119 162 202 254 307 364
#     4  10  20  35  60  87 119 153 202 242 306 368
#     4   9  20  37  62  88 118 160 210 247 292 360
#
# _framework density 20.687467999999999
#
# number of rings (size 3 to 8) (size 9 to 14) (size 15 to 20)
#    0.750    1.000    1.250    4.875    3.500    1.000 
#    0.000    0.625    2.750    0.750    0.000    0.000 
#    0.000    0.000    0.000    0.000    0.000    0.000 
#
# Total GULP energy -198246.123257 kJ/mol
# GULP energy per Si atom -12390.382704 kJ/mol
# Density = 2.064038 g / cm^3
# Si number density = 20.687468 Si / 1000 Ang^3
#
#
#
# Elastic Constant Matrix: (Units=GPa)
#
#
# Indices 1 2 3 4 5 6 
#
# 1 47.5944 24.1879 16.0037 1.9183 -8.7637 -10.5161
# 2 24.1879 138.0693 36.6761 -0.7841 -11.0255 -12.7629
# 3 16.0037 36.6761 85.2530 8.8884 -9.8982 -2.4790
# 4 1.9183 -0.7841 8.8884 36.1176 4.7931 -7.1065
# 5 -8.7637 -11.0255 -9.8982 4.7931 29.8508 -7.3738
# 6 -10.5161 -12.7629 -2.4790 -7.1065 -7.3738 29.5839
#
#
#
# Elastic Compliance Matrix: (Units=1/GPa)
#
#
# Indices 1 2 3 4 5 6 
#
# 1 0.027078 -0.002327 -0.002767 0.000114 0.008774 0.010604
# 2 -0.002327 0.009048 -0.003247 0.001556 0.002256 0.003740
# 3 -0.002767 -0.003247 0.014396 -0.004152 0.003081 -0.001407
# 4 0.000114 0.001556 -0.004152 0.030591 -0.004023 0.006709
# 5 0.008774 0.002256 0.003081 -0.004023 0.041998 0.013852
# 6 0.010604 0.003740 -0.001407 0.006709 0.013852 0.044131
#
#
# Mechanical properties :
#
#
# Convention : Reuss Voigt Hill
#
# Bulk Modulus (GPa) = 29.55168 47.18357 38.36763
# Shear Modulus (GPa) = 25.61438 32.04706 28.83072
#
# Velocity S-wave (km/s) = 3.52257 3.94014 3.73719
# Velocity P-wave (km/s) = 5.55522 6.59976 6.09989
#
# Compressibility (1/GPa) = 0.03383902
#
# Stress axis : x y z
#
# Youngs Moduli (GPa) = 36.93078 110.52606 69.46521
#
# Poissons Ratio (x) = 0.25722 0.19220
# Poissons Ratio (y) = 0.08595 0.22555
# Poissons Ratio (z) = 0.10218 0.35887
#
# Static dielectric constant tensor:
#      x y z
#    x 3.866210 -0.124150 0.107940 
#    y -0.124150 3.894390 -0.168700 
#    z 0.107940 -0.168700 3.848260 
# 
# 
# High freq. dielectric constant tensor:
#      x y z
#    x 1.791560 -0.006970 -0.017480 
#    y -0.006970 1.819290 -0.021000 
#    z -0.017480 -0.021000 1.788470 
# 
# From -- ./inp_files/285211.got.cif
#   From: 2010.06.25/outbox.cif.g09.slc.cpg/sg2_143_cif.got.tgz:285211.got - 2010.06.27 13:26:56.
