data_PCOD8002532
_publ_section_title
;
Structure prediction by ZEFSAII (Michael W. Deem and Ramdas Pophale) SiO2 
 PCOD8002532
Probable space group: P -1
;
_chemical_formula_sum "Si O2"
_cell_formula_units_Z 16
_cell_length_a 22.182497
_cell_length_b 9.498590
_cell_length_c 13.502659
_cell_angle_alpha 133.117421
_cell_angle_beta 158.801365
_cell_angle_gamma 49.823425
_cell_volume 750.622026
_symmetry_space_group_name_H-M "P -1"
_symmetry_group_IT_number 2
_symmetry_cell_setting 'triclinic'
loop_
_space_group_symop_operation_xyz
x,y,z
-x,-y,-z
loop_
_atom_site_type_symbol
_atom_site_label
_atom_site_fract_x
_atom_site_fract_y
_atom_site_fract_z
Si Si1 0.329726 0.113246 0.288724
Si Si2 0.971457 0.939627 0.075180
Si Si3 0.718943 0.614585 0.941937
Si Si4 0.848988 0.354149 0.684459
Si Si5 0.311144 0.581662 0.742055
Si Si6 0.806260 0.999113 0.181843
Si Si7 0.581395 0.504869 0.472166
Si Si8 0.025185 0.320837 0.236148
O O1 0.226017 0.060511 0.202938
O O2 0.385035 0.334202 0.482728
O O3 0.500000 0.000000 0.500000
O O4 0.221975 0.073712 0.007413
O O5 0.011118 0.787807 0.974477
O O6 0.066437 0.860308 0.281501
O O7 0.029674 0.155098 0.247076
O O8 0.613701 0.583468 0.667630
O O9 0.609779 0.565201 0.849262
O O10 0.886258 0.482786 0.129874
O O11 0.745299 0.843932 0.094643
O O12 0.754682 0.397877 0.460097
O O13 0.715910 0.343106 0.565927
O O14 0.000000 0.500000 0.000000
O O15 0.291475 0.795096 0.860582
O O16 0.199686 0.428191 0.555153
O O17 0.500000 0.500000 0.000000
O O18 0.000000 0.000000 0.500000
#
# Coordination Sequence:
#
# PCOD8002532 Si02
#       8
#     2   2   2   2   2   2   2   2
#     4  11  23  39  64  97 127 167 225 274 324 388
#     4  11  23  38  72  99 129 174 225 281 326 395
#     4  10  20  40  63 100 132 174 215 279 331 394
#     4  12  21  43  72  94 128 178 229 266 328 396
#     4  12  27  45  69  98 139 178 222 278 338 401
#     4  11  24  43  67  92 135 184 218 262 343 410
#     4  10  20  35  65  97 127 163 224 276 320 381
#     4  11  22  42  65 100 136 169 225 275 343 381
#
# _framework density 21.315653999999999
#
# number of rings (size 3 to 8) (size 9 to 14) (size 15 to 20)
#    0.000    1.000    5.000    1.500    3.500    1.000 
#    0.000    4.375    0.000    0.000    0.000    0.000 
#    0.000    0.000    0.000    0.000    0.000    0.000 
#
# Total GULP energy -198256.090492 kJ/mol
# GULP energy per Si atom -12391.005656 kJ/mol
# Density = 2.126714 g / cm^3
# Si number density = 21.315654 Si / 1000 Ang^3
#
#
#
# Elastic Constant Matrix: (Units=GPa)
#
#
# Indices 1 2 3 4 5 6 
#
# 1 87.3974 43.4700 45.3378 6.7025 37.9083 13.9546
# 2 43.4700 163.8192 56.7928 1.3552 25.5137 19.3203
# 3 45.3378 56.7928 115.3101 -10.6211 34.6832 17.1322
# 4 6.7025 1.3552 -10.6211 42.4660 3.3103 7.1905
# 5 37.9083 25.5137 34.6832 3.3103 48.1677 -0.5353
# 6 13.9546 19.3203 17.1322 7.1905 -0.5353 36.8967
#
#
#
# Elastic Compliance Matrix: (Units=1/GPa)
#
#
# Indices 1 2 3 4 5 6 
#
# 1 0.020386 -0.001829 -0.002507 -0.001839 -0.013204 -0.005421
# 2 -0.001829 0.007887 -0.002582 -0.000163 -0.000892 -0.002220
# 3 -0.002507 -0.002582 0.014591 0.005685 -0.007620 -0.005693
# 4 -0.001839 -0.000163 0.005685 0.026826 -0.004483 -0.007152
# 5 -0.013204 -0.000892 -0.007620 -0.004483 0.037535 0.010417
# 6 -0.005421 -0.002220 -0.005693 -0.007152 0.010417 0.034504
#
#
# Mechanical properties :
#
#
# Convention : Reuss Voigt Hill
#
# Bulk Modulus (GPa) = 34.45009 73.08088 53.76549
# Shear Modulus (GPa) = 30.25856 40.23448 35.24652
#
# Velocity S-wave (km/s) = 3.77177 4.34931 4.07080
# Velocity P-wave (km/s) = 5.93004 7.71891 6.88284
#
# Compressibility (1/GPa) = 0.02902750
#
# Stress axis : x y z
#
# Youngs Moduli (GPa) = 49.05299 126.79054 68.53491
#
# Poissons Ratio (x) = 0.23196 0.17180
# Poissons Ratio (y) = 0.08974 0.17696
# Poissons Ratio (z) = 0.12297 0.32738
#
# Static dielectric constant tensor:
#      x y z
#    x 3.925850 -0.016690 0.237760 
#    y -0.016690 3.351400 0.324960 
#    z 0.237760 0.324960 3.925480 
# 
# 
# High freq. dielectric constant tensor:
#      x y z
#    x 1.831550 0.003870 0.027260 
#    y 0.003870 1.850000 -0.007250 
#    z 0.027260 -0.007250 1.825230 
# 
# From -- ./inp_files/542690.got.cif
#   From: 2010.06.25/outbox.cif.g09.slc.cpg/sg2_272_cif.got.tgz:542690.got - 2010.06.27 13:26:56.
