data_PCOD8002835
_publ_section_title
;
Structure prediction by ZEFSAII (Michael W. Deem and Ramdas Pophale) SiO2 
 PCOD8002835
Probable space group: P -1
;
_chemical_formula_sum "Si O2"
_cell_formula_units_Z 14
_cell_length_a 8.487014
_cell_length_b 11.452558
_cell_length_c 11.697462
_cell_angle_alpha 37.874879
_cell_angle_beta 92.451738
_cell_angle_gamma 109.219331
_cell_volume 611.177792
_symmetry_space_group_name_H-M "P -1"
_symmetry_group_IT_number 2
_symmetry_cell_setting 'triclinic'
loop_
_space_group_symop_operation_xyz
x,y,z
-x,-y,-z
loop_
_atom_site_type_symbol
_atom_site_label
_atom_site_fract_x
_atom_site_fract_y
_atom_site_fract_z
Si Si1 0.386105 0.435930 0.180869
Si Si2 0.780540 0.446561 0.732941
Si Si3 0.446260 0.143679 0.265758
Si Si4 0.436786 0.669313 0.401307
Si Si5 0.810717 0.346261 0.396460
Si Si6 0.727957 0.095575 0.185392
Si Si7 0.906006 0.618984 0.966568
O O1 0.307662 0.407542 0.329809
O O2 0.455677 0.257995 0.301393
O O3 0.541466 0.683946 0.966209
O O4 0.231961 0.359865 0.137523
O O5 0.670087 0.306614 0.729103
O O6 0.990356 0.584772 0.601977
O O7 0.758704 0.299368 0.953462
O O8 0.620140 0.105751 0.287413
O O9 0.270875 0.911503 0.427093
O O10 0.500000 0.500000 0.500000
O O11 0.301361 0.596579 0.559454
O O12 0.618231 0.887172 0.265364
O O13 0.808876 0.483477 0.181456
O O14 0.928613 0.136253 0.190478
O O15 0.000000 0.500000 0.000000
#
# Coordination Sequence:
#
# PCOD8002835 Si02
#       7
#     2   2   2   2   2   2   2
#     4  10  20  36  59  88 122 151 189 235 294 354
#     4  10  20  40  59  80 118 161 188 231 289 353
#     4   9  19  35  54  89 118 149 193 233 291 348
#     4  11  24  41  57  88 116 150 205 245 279 333
#     4  10  22  38  61  85 116 157 193 241 293 339
#     4   9  20  40  62  81 115 161 191 235 295 343
#     4  11  19  40  60  88 119 149 192 239 297 350
#
# _framework density 22.906590000000001
#
# number of rings (size 3 to 8) (size 9 to 14) (size 15 to 20)
#    0.000    2.000    4.286    0.857    0.000    5.714 
#    2.571    2.857    0.000    0.000    0.000    0.000 
#    0.000    0.000    0.000    0.000    0.000    0.000 
#
# Total GULP energy -173460.421178 kJ/mol
# GULP energy per Si atom -12390.030084 kJ/mol
# Density = 2.285445 g / cm^3
# Si number density = 22.906590 Si / 1000 Ang^3
#
#
#
# Elastic Constant Matrix: (Units=GPa)
#
#
# Indices 1 2 3 4 5 6 
#
# 1 63.1759 52.8264 41.6718 -16.8115 -30.0112 -5.6941
# 2 52.8264 143.7941 50.2272 -13.1098 -24.0814 -1.7736
# 3 41.6718 50.2272 61.5118 -15.9775 -24.1579 8.9579
# 4 -16.8115 -13.1098 -15.9775 45.1070 4.6414 -7.0621
# 5 -30.0112 -24.0814 -24.1579 4.6414 33.1141 -0.7977
# 6 -5.6941 -1.7736 8.9579 -7.0621 -0.7977 55.3531
#
#
#
# Elastic Compliance Matrix: (Units=1/GPa)
#
#
# Indices 1 2 3 4 5 6 
#
# 1 0.046392 -0.006663 -0.015053 0.008756 0.025194 0.008475
# 2 -0.006663 0.010900 -0.005467 -0.000989 -0.001953 0.000394
# 3 -0.015053 -0.005467 0.036014 0.003645 0.007976 -0.006972
# 4 0.008756 -0.000989 0.003645 0.026376 0.006268 0.003735
# 5 0.025194 -0.001953 0.007976 0.006268 0.056621 0.002854
# 6 0.008475 0.000394 -0.006972 0.003735 0.002854 0.020596
#
#
# Mechanical properties :
#
#
# Convention : Reuss Voigt Hill
#
# Bulk Modulus (GPa) = 25.68160 61.99251 43.83706
# Shear Modulus (GPa) = 18.92182 34.96527 26.94355
#
# Velocity S-wave (km/s) = 2.87721 3.91119 3.43335
# Velocity P-wave (km/s) = 4.71949 6.89337 5.90729
#
# Compressibility (1/GPa) = 0.03893838
#
# Stress axis : x y z
#
# Youngs Moduli (GPa) = 21.55549 91.74635 27.76713
#
# Poissons Ratio (x) = 0.61131 0.41798
# Poissons Ratio (y) = 0.14362 0.15181
# Poissons Ratio (z) = 0.32448 0.50162
#
# Static dielectric constant tensor:
#      x y z
#    x 5.069700 0.407410 -0.543150 
#    y 0.407410 4.849530 -0.134400 
#    z -0.543150 -0.134400 4.074470 
# 
# 
# High freq. dielectric constant tensor:
#      x y z
#    x 1.915430 -0.000820 -0.022030 
#    y -0.000820 1.903140 -0.003170 
#    z -0.022030 -0.003170 1.891200 
# 
# From -- ./inp_files/382531.got.cif
#   From: 2010.06.25/outbox.cif.g09.slc.cpg/sg2_192_cif.got.tgz:382531.got - 2010.06.27 13:26:56.
