data_PCOD8002716
_publ_section_title
;
Structure prediction by ZEFSAII (Michael W. Deem and Ramdas Pophale) SiO2 
 PCOD8002716
Probable space group: P -1
;
_chemical_formula_sum "Si O2"
_cell_formula_units_Z 16
_cell_length_a 14.325944
_cell_length_b 15.398617
_cell_length_c 9.410106
_cell_angle_alpha 132.512015
_cell_angle_beta 92.440693
_cell_angle_gamma 49.474856
_cell_volume 821.834702
_symmetry_space_group_name_H-M "P -1"
_symmetry_group_IT_number 2
_symmetry_cell_setting 'triclinic'
loop_
_space_group_symop_operation_xyz
x,y,z
-x,-y,-z
loop_
_atom_site_type_symbol
_atom_site_label
_atom_site_fract_x
_atom_site_fract_y
_atom_site_fract_z
Si Si1 0.306850 0.735494 0.080683
Si Si2 0.902305 0.627724 0.465425
Si Si3 0.843370 0.671592 0.071931
Si Si4 0.125631 0.551478 0.567261
Si Si5 0.711508 0.323952 0.668113
Si Si6 0.302020 0.009785 0.377411
Si Si7 0.030095 0.907501 0.051935
Si Si8 0.692331 0.600561 0.881627
O O1 0.267867 0.716900 0.208088
O O2 0.242396 0.938664 0.310799
O O3 0.192866 0.795550 0.017575
O O4 0.513863 0.505041 0.804466
O O5 0.789254 0.636950 0.527753
O O6 0.948889 0.673195 0.640405
O O7 0.815514 0.793041 0.518899
O O8 0.081852 0.381472 0.139145
O O9 0.708684 0.916132 0.385995
O O10 0.752947 0.640254 0.032060
O O11 0.000000 0.500000 0.000000
O O12 0.252221 0.443938 0.326844
O O13 0.079714 0.718835 0.830612
O O14 0.765600 0.401146 0.728188
O O15 0.851324 0.098452 0.341221
O O16 0.487780 0.815834 0.105308
O O17 0.000000 0.000000 0.000000
#
# Coordination Sequence:
#
# PCOD8002716 Si02
#       8
#     2   2   2   2   2   2   2   2
#     4  10  24  41  62  92 125 157 207 250 304 357
#     4   9  20  38  57  81 118 147 192 248 288 354
#     4   9  19  32  57  81 106 145 191 234 289 347
#     4  10  21  38  56  85 115 153 197 238 295 362
#     4  10  23  43  61  89 127 160 201 258 296 359
#     4  10  20  36  58  84 112 154 189 246 303 345
#     4  12  23  39  66  91 121 165 204 244 310 362
#     4  10  20  38  57  82 119 149 194 247 296 352
#
# _framework density 19.468634999999999
#
# number of rings (size 3 to 8) (size 9 to 14) (size 15 to 20)
#    0.000    2.000    1.250    1.500    5.250    3.000 
#    2.250    1.250    0.000    0.000    0.000    0.000 
#    0.000    0.000    0.000    0.000    0.000    0.000 
#
# Total GULP energy -198289.125764 kJ/mol
# GULP energy per Si atom -12393.070360 kJ/mol
# Density = 1.942432 g / cm^3
# Si number density = 19.468635 Si / 1000 Ang^3
#
#
#
# Elastic Constant Matrix: (Units=GPa)
#
#
# Indices 1 2 3 4 5 6 
#
# 1 130.4225 44.7290 60.9411 -10.1330 18.9794 11.4469
# 2 44.7290 86.2206 27.9608 -10.3021 0.4414 7.1786
# 3 60.9411 27.9608 118.5340 -6.9198 15.1599 -0.1087
# 4 -10.1330 -10.3021 -6.9198 22.2177 0.9714 0.8702
# 5 18.9794 0.4414 15.1599 0.9714 35.0802 -4.8119
# 6 11.4469 7.1786 -0.1087 0.8702 -4.8119 38.5081
#
#
#
# Elastic Compliance Matrix: (Units=1/GPa)
#
#
# Indices 1 2 3 4 5 6 
#
# 1 0.012654 -0.004412 -0.004626 0.002664 -0.005370 -0.003683
# 2 -0.004412 0.014937 -0.001313 0.004447 0.002469 -0.001269
# 3 -0.004626 -0.001313 0.011469 0.000901 -0.002277 0.001347
# 4 0.002664 0.004447 0.000901 0.048852 -0.003675 -0.003182
# 5 -0.005370 0.002469 -0.002277 -0.003675 0.033202 0.005362
# 6 -0.003683 -0.001269 0.001347 -0.003182 0.005362 0.028046
#
#
# Mechanical properties :
#
#
# Convention : Reuss Voigt Hill
#
# Bulk Modulus (GPa) = 54.46801 66.93764 60.70282
# Shear Modulus (GPa) = 28.41241 32.59764 30.50502
#
# Velocity S-wave (km/s) = 3.82435 4.09634 3.96268
# Velocity P-wave (km/s) = 6.89484 7.53859 7.22389
#
# Compressibility (1/GPa) = 0.01835940
#
# Stress axis : x y z
#
# Youngs Moduli (GPa) = 79.02839 66.94841 87.18882
#
# Poissons Ratio (x) = 0.29536 0.40333
# Poissons Ratio (y) = 0.34866 0.11444
# Poissons Ratio (z) = 0.36558 0.08787
#
# Static dielectric constant tensor:
#      x y z
#    x 4.124810 0.380880 0.296650 
#    y 0.380880 3.704160 -0.133510 
#    z 0.296650 -0.133510 4.456300 
# 
# 
# High freq. dielectric constant tensor:
#      x y z
#    x 1.765960 0.013090 0.003730 
#    y 0.013090 1.750520 -0.010220 
#    z 0.003730 -0.010220 1.766160 
# 
# From -- ./inp_files/315890.got.cif
#   From: 2010.06.25/outbox.cif.g09.slc.cpg/sg2_158_cif.got.tgz:315890.got - 2010.06.27 13:26:56.
