data_PCOD8002837
_publ_section_title
;
Structure prediction by ZEFSAII (Michael W. Deem and Ramdas Pophale) SiO2 
 PCOD8002837
Probable space group: P -1
;
_chemical_formula_sum "Si O2"
_cell_formula_units_Z 14
_cell_length_a 9.231549
_cell_length_b 13.833244
_cell_length_c 9.427932
_cell_angle_alpha 89.686819
_cell_angle_beta 134.447881
_cell_angle_gamma 116.856971
_cell_volume 669.229581
_symmetry_space_group_name_H-M "P -1"
_symmetry_group_IT_number 2
_symmetry_cell_setting 'triclinic'
loop_
_space_group_symop_operation_xyz
x,y,z
-x,-y,-z
loop_
_atom_site_type_symbol
_atom_site_label
_atom_site_fract_x
_atom_site_fract_y
_atom_site_fract_z
Si Si1 0.397713 0.290157 0.858105
Si Si2 0.668066 0.468376 0.806318
Si Si3 0.883964 0.340090 0.542302
Si Si4 0.770166 0.306760 0.778890
Si Si5 0.160290 0.848261 0.658824
Si Si6 0.616636 0.449775 0.263238
Si Si7 0.554751 0.131197 0.886681
O O1 0.643237 0.416925 0.949457
O O2 0.456513 0.194206 0.907588
O O3 0.140836 0.228220 0.587333
O O4 0.387441 0.332830 0.009945
O O5 0.593497 0.353467 0.655591
O O6 0.487647 0.510690 0.682605
O O7 0.957145 0.585686 0.959904
O O8 0.833855 0.287112 0.667086
O O9 0.734498 0.218014 0.343163
O O10 0.773704 0.414340 0.451999
O O11 0.189547 0.430944 0.706642
O O12 0.640567 0.184297 0.785626
O O13 0.316992 0.986514 0.706417
O O14 0.210818 0.849553 0.862696
#
# Coordination Sequence:
#
# PCOD8002837 Si02
#       7
#     2   2   2   2   2   2   2
#     4  11  19  38  65  92 116 158 206 259 291 363
#     4  10  20  36  59  88 127 158 193 252 309 369
#     4  11  22  37  64  93 125 166 198 254 310 362
#     4  10  22  39  58  90 132 157 194 255 321 352
#     4  11  22  41  67  85 118 169 214 246 299 361
#     4  11  21  36  63  95 125 158 211 244 301 380
#     4  10  24  42  60  90 123 162 211 255 293 370
#
# _framework density 20.919578999999999
#
# number of rings (size 3 to 8) (size 9 to 14) (size 15 to 20)
#    0.000    1.429    4.286    1.714    0.000    1.143 
#    5.143    0.000    0.000    1.714    0.000    0.000 
#    0.000    0.000    0.000    0.000    0.000    0.000 
#
# Total GULP energy -173449.510044 kJ/mol
# GULP energy per Si atom -12389.250717 kJ/mol
# Density = 2.087196 g / cm^3
# Si number density = 20.919579 Si / 1000 Ang^3
#
#
#
# Elastic Constant Matrix: (Units=GPa)
#
#
# Indices 1 2 3 4 5 6 
#
# 1 87.3258 37.9816 9.0010 0.0843 12.1383 3.5283
# 2 37.9816 127.9206 22.3101 8.8960 1.5053 2.5526
# 3 9.0010 22.3101 70.6664 -0.9765 10.0190 8.6319
# 4 0.0843 8.8960 -0.9765 22.3126 -1.7928 -5.2929
# 5 12.1383 1.5053 10.0190 -1.7928 24.9203 -8.7992
# 6 3.5283 2.5526 8.6319 -5.2929 -8.7992 29.2661
#
#
#
# Elastic Compliance Matrix: (Units=1/GPa)
#
#
# Indices 1 2 3 4 5 6 
#
# 1 0.014654 -0.004387 0.001343 -0.000037 -0.009002 -0.004493
# 2 -0.004387 0.009865 -0.003095 -0.003647 0.002792 0.000761
# 3 0.001343 -0.003095 0.017452 -0.000829 -0.010489 -0.008343
# 4 -0.000037 -0.003647 -0.000829 0.049784 0.008427 0.012105
# 5 -0.009002 0.002792 -0.010489 0.008427 0.057164 0.022647
# 6 -0.004493 0.000761 -0.008343 0.012105 0.022647 0.046103
#
#
# Mechanical properties :
#
#
# Convention : Reuss Voigt Hill
#
# Bulk Modulus (GPa) = 33.67761 47.16648 40.42204
# Shear Modulus (GPa) = 23.02051 29.74115 26.38083
#
# Velocity S-wave (km/s) = 3.32087 3.77462 3.55499
# Velocity P-wave (km/s) = 5.55318 6.44923 6.01790
#
# Compressibility (1/GPa) = 0.02969332
#
# Stress axis : x y z
#
# Youngs Moduli (GPa) = 68.24129 101.36520 57.30077
#
# Poissons Ratio (x) = 0.44470 -0.07696
# Poissons Ratio (y) = 0.29938 0.17734
# Poissons Ratio (z) = -0.09166 0.31372
#
# Static dielectric constant tensor:
#      x y z
#    x 3.914520 -0.247390 -0.000350 
#    y -0.247390 3.777530 0.035120 
#    z -0.000350 0.035120 3.426010 
# 
# 
# High freq. dielectric constant tensor:
#      x y z
#    x 1.816430 -0.020470 -0.000860 
#    y -0.020470 1.819250 -0.005150 
#    z -0.000860 -0.005150 1.795560 
# 
# From -- ./inp_files/177137.got.cif
#   From: 2010.06.25/outbox.cif.g09.slc.cpg/sg2_89_cif.got.tgz:177137.got - 2010.06.27 13:26:56.
