data_PCOD8002367
_publ_section_title
;
Structure prediction by ZEFSAII (Michael W. Deem and Ramdas Pophale) SiO2 
 PCOD8002367
Probable space group: P -1
;
_chemical_formula_sum "Si O2"
_cell_formula_units_Z 16
_cell_length_a 11.420776
_cell_length_b 12.418353
_cell_length_c 8.772139
_cell_angle_alpha 108.148805
_cell_angle_beta 52.873267
_cell_angle_gamma 129.740369
_cell_volume 757.120935
_symmetry_space_group_name_H-M "P -1"
_symmetry_group_IT_number 2
_symmetry_cell_setting 'triclinic'
loop_
_space_group_symop_operation_xyz
x,y,z
-x,-y,-z
loop_
_atom_site_type_symbol
_atom_site_label
_atom_site_fract_x
_atom_site_fract_y
_atom_site_fract_z
Si Si1 0.804226 0.786310 0.238682
Si Si2 0.415307 0.539110 0.453088
Si Si3 0.947535 0.504842 0.213838
Si Si4 0.366999 0.084331 0.221566
Si Si5 0.852529 0.053393 0.387613
Si Si6 0.067173 0.745162 0.842872
Si Si7 0.233094 0.807296 0.060988
Si Si8 0.805187 0.757177 0.580071
O O1 0.588741 0.687916 0.318135
O O2 0.849152 0.766852 0.368167
O O3 0.883529 0.949558 0.226707
O O4 0.894743 0.740479 0.029361
O O5 0.500000 0.500000 0.500000
O O6 0.265415 0.559433 0.639743
O O7 0.315474 0.409149 0.352758
O O8 0.987407 0.407992 0.237222
O O9 0.079846 0.671744 0.225555
O O10 0.000000 0.500000 0.000000
O O11 0.313442 0.186775 0.267111
O O12 0.333115 0.045063 0.411058
O O13 0.237385 0.939843 0.165403
O O14 0.575188 0.165146 0.044447
O O15 0.830559 0.145763 0.327745
O O16 0.015034 0.153928 0.421419
O O17 0.203646 0.790733 0.896246
#
# Coordination Sequence:
#
# PCOD8002367 Si02
#       8
#     2   2   2   2   2   2   2   2
#     4  10  21  37  62  88 115 157 207 240 283 348
#     4  10  20  35  60  89 112 150 201 250 279 341
#     4  10  21  35  59  86 118 150 198 241 291 342
#     4  10  21  36  62  88 113 156 198 251 283 349
#     4  11  22  38  60  87 123 156 197 238 302 350
#     4  11  23  37  61  86 125 156 189 241 302 355
#     4  10  21  38  59  87 119 149 201 240 297 345
#     4  10  20  36  64  83 116 151 208 239 290 339
#
# _framework density 21.132686
#
# number of rings (size 3 to 8) (size 9 to 14) (size 15 to 20)
#    0.000    1.750    0.000    7.125   12.250    0.500 
#    0.000    3.125    2.750    0.000    0.000    0.000 
#    0.000    0.000    0.000    0.000    0.000    0.000 
#
# Total GULP energy -198304.253702 kJ/mol
# GULP energy per Si atom -12394.015856 kJ/mol
# Density = 2.108459 g / cm^3
# Si number density = 21.132686 Si / 1000 Ang^3
#
#
#
# Elastic Constant Matrix: (Units=GPa)
#
#
# Indices 1 2 3 4 5 6 
#
# 1 57.1784 43.4573 22.6850 -9.2264 -7.6614 -12.3599
# 2 43.4573 137.9949 28.0119 -0.2075 -5.8683 -5.2528
# 3 22.6850 28.0119 52.6141 9.3816 -19.5911 -0.8950
# 4 -9.2264 -0.2075 9.3816 24.3658 -4.1394 -7.4434
# 5 -7.6614 -5.8683 -19.5911 -4.1394 29.7992 -6.5441
# 6 -12.3599 -5.2528 -0.8950 -7.4434 -6.5441 34.4026
#
#
#
# Elastic Compliance Matrix: (Units=1/GPa)
#
#
# Indices 1 2 3 4 5 6 
#
# 1 0.039205 -0.008328 -0.014386 0.027566 0.007151 0.019764
# 2 -0.008328 0.010091 -0.002208 -0.003529 -0.002708 -0.002787
# 3 -0.014386 -0.002208 0.035206 -0.018144 0.015260 -0.005613
# 4 0.027566 -0.003529 -0.018144 0.067786 0.009448 0.025356
# 5 0.007151 -0.002708 0.015260 0.009448 0.049276 0.013970
# 6 0.019764 -0.002787 -0.005613 0.025356 0.013970 0.043740
#
#
# Mechanical properties :
#
#
# Convention : Reuss Voigt Hill
#
# Bulk Modulus (GPa) = 28.85375 48.45508 38.65441
# Shear Modulus (GPa) = 16.30254 27.95575 22.12914
#
# Velocity S-wave (km/s) = 2.78049 3.64107 3.23948
# Velocity P-wave (km/s) = 4.89810 6.37615 5.68536
#
# Compressibility (1/GPa) = 0.03465754
#
# Stress axis : x y z
#
# Youngs Moduli (GPa) = 25.50715 99.09762 28.40407
#
# Poissons Ratio (x) = 0.82531 0.40861
# Poissons Ratio (y) = 0.21243 0.06272
# Poissons Ratio (z) = 0.36694 0.21883
#
# Static dielectric constant tensor:
#      x y z
#    x 3.566270 -0.051110 -0.251540 
#    y -0.051110 4.946350 0.063320 
#    z -0.251540 0.063320 3.675480 
# 
# 
# High freq. dielectric constant tensor:
#      x y z
#    x 1.794890 -0.000080 -0.034600 
#    y -0.000080 1.856360 0.012110 
#    z -0.034600 0.012110 1.808330 
# 
# From -- ./inp_files/188321.got.cif
#   From: 2010.06.25/outbox.cif.g09.slc.cpg/sg2_95_cif.got.tgz:188321.got - 2010.06.27 13:26:56.
