data_PCOD8002627
_publ_section_title
;
Structure prediction by ZEFSAII (Michael W. Deem and Ramdas Pophale) SiO2 
 PCOD8002627
Probable space group: P -1
;
_chemical_formula_sum "Si O2"
_cell_formula_units_Z 14
_cell_length_a 8.901911
_cell_length_b 6.689466
_cell_length_c 14.535531
_cell_angle_alpha 69.906524
_cell_angle_beta 61.477202
_cell_angle_gamma 97.714331
_cell_volume 665.929818
_symmetry_space_group_name_H-M "P -1"
_symmetry_group_IT_number 2
_symmetry_cell_setting 'triclinic'
loop_
_space_group_symop_operation_xyz
x,y,z
-x,-y,-z
loop_
_atom_site_type_symbol
_atom_site_label
_atom_site_fract_x
_atom_site_fract_y
_atom_site_fract_z
Si Si1 0.986747 0.632999 0.573143
Si Si2 0.582492 0.665035 0.075358
Si Si3 0.690929 0.307251 0.197398
Si Si4 0.005254 0.499963 0.207600
Si Si5 0.741229 0.737066 0.828661
Si Si6 0.270730 0.097668 0.375499
Si Si7 0.826789 0.079892 0.036116
O O1 0.989172 0.478602 0.686175
O O2 0.000000 0.500000 0.500000
O O3 0.807831 0.704471 0.604136
O O4 0.166361 0.863438 0.495617
O O5 0.695982 0.503557 0.092809
O O6 0.370306 0.501587 0.157530
O O7 0.637592 0.776854 0.941079
O O8 0.636686 0.872462 0.098917
O O9 0.802311 0.424706 0.237007
O O10 0.487747 0.169772 0.317488
O O11 0.787554 0.159053 0.136079
O O12 0.068940 0.288627 0.195992
O O13 0.136804 0.731595 0.084224
O O14 0.767090 0.943121 0.717480
O O15 0.000000 0.000000 0.000000
#
# Coordination Sequence:
#
# PCOD8002627 Si02
#       7
#     2   2   2   2   2   2   2
#     4  10  23  45  65  89 117 154 208 261 299 357
#     4  10  20  36  56  89 124 158 200 242 297 362
#     4  11  22  41  61  90 128 158 201 251 298 368
#     4  11  22  39  61  88 124 165 198 248 303 360
#     4   9  19  37  59  85 123 158 196 249 297 356
#     4   9  22  42  65  87 118 160 201 253 309 348
#     4  12  23  36  61  93 129 167 195 241 308 365
#
# _framework density 21.023237000000002
#
# number of rings (size 3 to 8) (size 9 to 14) (size 15 to 20)
#    0.000    1.714    2.857    1.286    2.000    4.571 
#    2.571    0.714    0.000    0.000    0.000    0.000 
#    0.000    0.000    0.000    0.000    0.000    0.000 
#
# Total GULP energy -173463.859157 kJ/mol
# GULP energy per Si atom -12390.275654 kJ/mol
# Density = 2.097539 g / cm^3
# Si number density = 21.023237 Si / 1000 Ang^3
#
#
#
# Elastic Constant Matrix: (Units=GPa)
#
#
# Indices 1 2 3 4 5 6 
#
# 1 80.6567 17.4562 16.9382 6.9673 -6.6506 0.8056
# 2 17.4562 66.3744 19.8614 18.8266 -1.9731 10.0674
# 3 16.9382 19.8614 91.2242 14.5466 -0.7371 1.1362
# 4 6.9673 18.8266 14.5466 31.3882 -0.0281 0.3739
# 5 -6.6506 -1.9731 -0.7371 -0.0281 35.8210 1.2501
# 6 0.8056 10.0674 1.1362 0.3739 1.2501 28.1215
#
#
#
# Elastic Compliance Matrix: (Units=1/GPa)
#
#
# Indices 1 2 3 4 5 6 
#
# 1 0.013638 -0.002954 -0.001811 -0.000422 0.002309 0.000643
# 2 -0.002954 0.020597 -0.002148 -0.010617 0.000781 -0.007096
# 3 -0.001811 -0.002148 0.012408 -0.004064 -0.000216 0.000383
# 4 -0.000422 -0.010617 -0.004064 0.040162 -0.000837 0.003481
# 5 0.002309 0.000781 -0.000216 -0.000837 0.028439 -0.001590
# 6 0.000643 -0.007096 0.000383 0.003481 -0.001590 0.038091
#
#
# Mechanical properties :
#
#
# Convention : Reuss Voigt Hill
#
# Bulk Modulus (GPa) = 30.47311 38.52965 34.50138
# Shear Modulus (GPa) = 28.07406 31.33278 29.70342
#
# Velocity S-wave (km/s) = 3.65825 3.86474 3.76291
# Velocity P-wave (km/s) = 5.68948 6.18724 5.94357
#
# Compressibility (1/GPa) = 0.03281582
#
# Stress axis : x y z
#
# Youngs Moduli (GPa) = 73.32257 48.55118 80.59583
#
# Poissons Ratio (x) = 0.14343 0.14598
# Poissons Ratio (y) = 0.21660 0.17313
# Poissons Ratio (z) = 0.13281 0.10429
#
# Static dielectric constant tensor:
#      x y z
#    x 3.856980 -0.026120 0.013370 
#    y -0.026120 3.573130 -0.152050 
#    z 0.013370 -0.152050 3.888940 
# 
# 
# High freq. dielectric constant tensor:
#      x y z
#    x 1.825090 -0.003670 -0.001040 
#    y -0.003670 1.799130 -0.004860 
#    z -0.001040 -0.004860 1.824710 
# 
# From -- ./inp_files/55460.got.cif
#   From: 2010.06.25/outbox.cif.g09.slc.cpg/sg2_28_cif.got.tgz:55460.got - 2010.06.27 13:26:56.
