data_PCOD8002937
_publ_section_title
;
Structure prediction by ZEFSAII (Michael W. Deem and Ramdas Pophale) SiO2 
 PCOD8002937
Probable space group: P -1
;
_chemical_formula_sum "Si O2"
_cell_formula_units_Z 16
_cell_length_a 9.449169
_cell_length_b 8.138555
_cell_length_c 14.141350
_cell_angle_alpha 136.432361
_cell_angle_beta 110.648735
_cell_angle_gamma 64.832996
_cell_volume 676.640934
_symmetry_space_group_name_H-M "P -1"
_symmetry_group_IT_number 2
_symmetry_cell_setting 'triclinic'
loop_
_space_group_symop_operation_xyz
x,y,z
-x,-y,-z
loop_
_atom_site_type_symbol
_atom_site_label
_atom_site_fract_x
_atom_site_fract_y
_atom_site_fract_z
Si Si1 0.696295 0.569613 0.547962
Si Si2 0.752521 0.142415 0.231202
Si Si3 0.008956 0.433182 0.123309
Si Si4 0.531932 0.516009 0.202848
Si Si5 0.245098 0.400079 0.007086
Si Si6 0.987498 0.712576 0.735090
Si Si7 0.612668 0.264947 0.553973
Si Si8 0.801980 0.743720 0.337862
O O1 0.736264 0.315343 0.391492
O O2 0.829785 0.715223 0.642599
O O3 0.668363 0.493721 0.617844
O O4 0.541419 0.760582 0.550215
O O5 0.626210 0.265667 0.172882
O O6 0.929296 0.089333 0.206872
O O7 0.728005 0.878006 0.142876
O O8 0.927465 0.704663 0.264429
O O9 0.172176 0.420669 0.104880
O O10 0.038261 0.238308 0.136750
O O11 0.876646 0.398335 0.002481
O O12 0.413102 0.458270 0.073410
O O13 0.428820 0.701657 0.332438
O O14 0.648606 0.650495 0.233473
O O15 0.111809 0.440500 0.633955
O O16 0.755666 0.022297 0.477465
#
# Coordination Sequence:
#
# PCOD8002937 Si02
#       8
#     2   2   2   2   2   2   2   2
#     4  10  20  36  60  91 120 148 195 247 293 354
#     4  10  21  38  61  87 118 155 197 241 292 353
#     4   9  22  40  55  83 124 147 200 249 277 352
#     4  10  21  38  61  87 118 155 197 241 292 353
#     4  11  21  40  60  84 119 159 198 244 287 340
#     4   9  20  40  59  86 121 151 193 245 295 348
#     4  10  20  36  60  91 120 148 195 247 293 354
#     4   9  20  40  59  86 121 151 193 245 295 348
#
# _framework density 23.646221000000001
#
# number of rings (size 3 to 8) (size 9 to 14) (size 15 to 20)
#    0.750    1.500    0.000    2.625    0.000    1.500 
#    9.000    1.250    0.000    0.000    0.000    0.000 
#    0.000    0.000    0.000    0.000    0.000    0.000 
#
# Total GULP energy -198273.489430 kJ/mol
# GULP energy per Si atom -12392.093089 kJ/mol
# Density = 2.359240 g / cm^3
# Si number density = 23.646221 Si / 1000 Ang^3
#
#
#
# Elastic Constant Matrix: (Units=GPa)
#
#
# Indices 1 2 3 4 5 6 
#
# 1 65.2395 -14.6050 6.9557 -6.3483 8.3378 -9.4594
# 2 -14.6050 31.5890 3.8790 -5.5978 8.2532 -4.2169
# 3 6.9557 3.8790 43.2810 -3.9353 3.1047 -3.4985
# 4 -6.3483 -5.5978 -3.9353 21.4692 -6.0106 -2.0628
# 5 8.3378 8.2532 3.1047 -6.0106 47.4352 -8.6079
# 6 -9.4594 -4.2169 -3.4985 -2.0628 -8.6079 26.1291
#
#
#
# Elastic Compliance Matrix: (Units=1/GPa)
#
#
# Indices 1 2 3 4 5 6 
#
# 1 0.021453 0.014019 -0.002859 0.009502 -0.003119 0.009369
# 2 0.014019 0.044166 -0.003593 0.014326 -0.006132 0.010833
# 3 -0.002859 -0.003593 0.024292 0.002932 0.000264 0.001956
# 4 0.009502 0.014326 0.002932 0.056233 0.004990 0.012228
# 5 -0.003119 -0.006132 0.000264 0.004990 0.024468 0.006371
# 6 0.009369 0.010833 0.001956 0.012228 0.006371 0.046738
#
#
# Mechanical properties :
#
#
# Convention : Reuss Voigt Hill
#
# Bulk Modulus (GPa) = 9.51975 14.72989 12.12482
# Shear Modulus (GPa) = 21.07645 28.59867 24.83756
#
# Velocity S-wave (km/s) = 2.98874 3.48147 3.24448
# Velocity P-wave (km/s) = 3.99309 4.73325 4.37884
#
# Compressibility (1/GPa) = 0.10504482
#
# Stress axis : x y z
#
# Youngs Moduli (GPa) = 46.61354 22.64161 41.16553
#
# Poissons Ratio (x) = -0.31741 0.11770
# Poissons Ratio (y) = -0.65348 0.14792
# Poissons Ratio (z) = 0.13328 0.08136
#
# Static dielectric constant tensor:
#      x y z
#    x 4.395190 -0.053680 -0.130570 
#    y -0.053680 4.020390 -0.168620 
#    z -0.130570 -0.168620 3.696420 
# 
# 
# High freq. dielectric constant tensor:
#      x y z
#    x 1.945380 -0.005710 -0.009630 
#    y -0.005710 1.922650 -0.013230 
#    z -0.009630 -0.013230 1.899740 
# 
# From -- ./inp_files/557686.got.cif
#   From: 2010.06.25/outbox.cif.g09.slc.cpg/sg2_279_cif.got.tgz:557686.got - 2010.06.27 13:26:56.
