data_PCOD8002121
_publ_section_title
;
Structure prediction by ZEFSAII (Michael W. Deem and Ramdas Pophale) SiO2 
 PCOD8002121
Probable space group: P -1
;
_chemical_formula_sum "Si O2"
_cell_formula_units_Z 14
_cell_length_a 13.816618
_cell_length_b 6.631233
_cell_length_c 25.380248
_cell_angle_alpha 113.203907
_cell_angle_beta 158.560020
_cell_angle_gamma 77.908792
_cell_volume 690.340030
_symmetry_space_group_name_H-M "P -1"
_symmetry_group_IT_number 2
_symmetry_cell_setting 'triclinic'
loop_
_space_group_symop_operation_xyz
x,y,z
-x,-y,-z
loop_
_atom_site_type_symbol
_atom_site_label
_atom_site_fract_x
_atom_site_fract_y
_atom_site_fract_z
Si Si1 0.577359 0.615157 0.108139
Si Si2 0.152208 0.843012 0.580477
Si Si3 0.739739 0.675673 0.983166
Si Si4 0.804477 0.220900 0.938512
Si Si5 0.235545 0.825231 0.731634
Si Si6 0.799883 0.918694 0.806377
Si Si7 0.878326 0.405842 0.567527
O O1 0.913349 0.668619 0.299186
O O2 0.578276 0.879053 0.135672
O O3 0.500000 0.500000 0.000000
O O4 0.317074 0.421437 0.995094
O O5 0.024412 0.738474 0.563062
O O6 0.114089 0.651656 0.496415
O O7 0.500012 0.015259 0.788523
O O8 0.000000 0.000000 0.500000
O O9 0.789394 0.477725 0.952699
O O10 0.451745 0.698406 0.821098
O O11 0.027504 0.945422 0.146093
O O12 0.830363 0.135791 0.883912
O O13 0.069398 0.244637 0.114408
O O14 0.028332 0.706705 0.667423
O O15 0.459943 0.731971 0.596810
#
# Coordination Sequence:
#
# PCOD8002121 Si02
#       7
#     2   2   2   2   2   2   2
#     4  11  24  43  63  86 112 153 211 255 292 337
#     4  11  17  35  58  89 124 152 192 236 295 356
#     4  11  20  38  62  85 118 164 196 238 292 350
#     4  10  20  35  55  89 125 164 188 230 285 364
#     4  11  21  39  61  87 121 152 196 245 300 348
#     4  10  21  37  55  87 129 158 193 226 294 360
#     4  10  23  35  59  90 120 156 189 243 294 353
#
# _framework density 20.279858999999998
#
# number of rings (size 3 to 8) (size 9 to 14) (size 15 to 20)
#    0.000    1.429    4.286    1.714    0.000    3.429 
#    0.000    0.714    0.000    4.286    0.000    0.000 
#    0.000    0.000    0.000    0.000    0.000    0.000 
#
# Total GULP energy -173450.073618 kJ/mol
# GULP energy per Si atom -12389.290973 kJ/mol
# Density = 2.023370 g / cm^3
# Si number density = 20.279859 Si / 1000 Ang^3
#
#
#
# Elastic Constant Matrix: (Units=GPa)
#
#
# Indices 1 2 3 4 5 6 
#
# 1 70.1400 41.4755 36.5982 6.7707 6.3683 9.4933
# 2 41.4755 121.8160 45.8957 -7.8654 3.6361 13.2972
# 3 36.5982 45.8957 102.7481 -3.1089 24.1695 5.6427
# 4 6.7707 -7.8654 -3.1089 23.9481 0.8646 12.4147
# 5 6.3683 3.6361 24.1695 0.8646 35.8763 13.6280
# 6 9.4933 13.2972 5.6427 12.4147 13.6280 24.3796
#
#
#
# Elastic Compliance Matrix: (Units=1/GPa)
#
#
# Indices 1 2 3 4 5 6 
#
# 1 0.021275 -0.005844 -0.005376 -0.008837 0.000514 0.000360
# 2 -0.005844 0.014666 -0.005269 0.014189 0.009159 -0.016849
# 3 -0.005376 -0.005269 0.016514 -0.002795 -0.013388 0.010052
# 4 -0.008837 0.014189 -0.002795 0.075630 0.020576 -0.053665
# 5 0.000514 0.009159 -0.013388 0.020576 0.050979 -0.041072
# 6 0.000360 -0.016849 0.010052 -0.053665 -0.041072 0.098028
#
#
# Mechanical properties :
#
#
# Convention : Reuss Voigt Hill
#
# Bulk Modulus (GPa) = 51.34186 60.29365 55.81776
# Shear Modulus (GPa) = 15.79467 28.22313 22.00890
#
# Velocity S-wave (km/s) = 2.79379 3.73457 3.29790
# Velocity P-wave (km/s) = 5.98153 6.95639 6.48730
#
# Compressibility (1/GPa) = 0.01947728
#
# Stress axis : x y z
#
# Youngs Moduli (GPa) = 47.00245 68.18472 60.55520
#
# Poissons Ratio (x) = 0.39844 0.32554
# Poissons Ratio (y) = 0.27466 0.31910
# Poissons Ratio (z) = 0.25268 0.35930
#
# Static dielectric constant tensor:
#      x y z
#    x 3.569070 0.129390 0.333590 
#    y 0.129390 3.876970 0.085320 
#    z 0.333590 0.085320 3.691770 
# 
# 
# High freq. dielectric constant tensor:
#      x y z
#    x 1.763100 0.021440 0.023610 
#    y 0.021440 1.809580 -0.001940 
#    z 0.023610 -0.001940 1.773210 
# 
# From -- ./inp_files/63507.got.cif
#   From: 2010.06.25/outbox.cif.g09.slc.cpg/sg2_32_cif.got.tgz:63507.got - 2010.06.27 13:26:56.
