data_PCOD8002770
_publ_section_title
;
Structure prediction by ZEFSAII (Michael W. Deem and Ramdas Pophale) SiO2 
 PCOD8002770
Probable space group: P -1
;
_chemical_formula_sum "Si O2"
_cell_formula_units_Z 14
_cell_length_a 15.125829
_cell_length_b 27.117426
_cell_length_c 26.229926
_cell_angle_alpha 10.545443
_cell_angle_beta 19.644370
_cell_angle_gamma 19.128727
_cell_volume 629.964622
_symmetry_space_group_name_H-M "P -1"
_symmetry_group_IT_number 2
_symmetry_cell_setting 'triclinic'
loop_
_space_group_symop_operation_xyz
x,y,z
-x,-y,-z
loop_
_atom_site_type_symbol
_atom_site_label
_atom_site_fract_x
_atom_site_fract_y
_atom_site_fract_z
Si Si1 0.136601 0.682814 0.693570
Si Si2 0.249194 0.643741 0.878596
Si Si3 0.334493 0.803299 0.563604
Si Si4 0.679838 0.849317 0.929887
Si Si5 0.853830 0.634899 0.391477
Si Si6 0.512083 0.029999 0.403150
Si Si7 0.097910 0.867578 0.201176
O O1 0.156788 0.669605 0.757720
O O2 0.340230 0.835703 0.398834
O O3 0.195031 0.367519 0.963138
O O4 0.829205 0.886451 0.640678
O O5 0.404981 0.612380 0.770467
O O6 0.909971 0.735768 0.965244
O O7 0.310783 0.884768 0.633308
O O8 0.388207 0.356619 0.124472
O O9 0.571705 0.834644 0.365902
O O10 0.363464 0.851066 0.110745
O O11 0.818689 0.396568 0.614268
O O12 0.000000 0.500000 0.500000
O O13 0.992625 0.841686 0.077513
O O14 0.500000 0.000000 0.500000
O O15 0.831363 0.878146 0.368359
#
# Coordination Sequence:
#
# PCOD8002770 Si02
#       7
#     2   2   2   2   2   2   2
#     4  10  21  33  59  91 142 176 199 239 303 377
#     4  11  25  42  70  97 128 166 219 265 315 388
#     4  10  20  36  58  96 135 170 208 237 304 375
#     4  11  21  41  62 100 132 169 211 264 311 372
#     4  12  24  37  59  94 136 175 210 249 302 385
#     4  12  27  50  69  90 121 169 220 278 337 385
#     4  12  24  43  65  93 128 172 212 265 325 371
#
# _framework density 22.223469000000001
#
# number of rings (size 3 to 8) (size 9 to 14) (size 15 to 20)
#    0.000    0.857    2.857    5.143    0.000    9.714 
#    0.000    1.429    0.000    0.000    0.000    0.000 
#    0.000    0.000    0.000    0.000    0.000    0.000 
#
# Total GULP energy -173439.932758 kJ/mol
# GULP energy per Si atom -12388.566626 kJ/mol
# Density = 2.217289 g / cm^3
# Si number density = 22.223469 Si / 1000 Ang^3
#
#
#
# Elastic Constant Matrix: (Units=GPa)
#
#
# Indices 1 2 3 4 5 6 
#
# 1 64.5257 34.7698 -62.6219 101.0631 38.5615 9.9027
# 2 34.7698 97.6108 -0.3434 30.3746 -1.7849 -13.7047
# 3 -62.6219 -0.3434 -97.7310 174.4556 56.5990 16.2451
# 4 101.0631 30.3746 174.4556 -156.8935 -66.8105 -10.8881
# 5 38.5615 -1.7849 56.5990 -66.8105 17.5038 -2.6365
# 6 9.9027 -13.7047 16.2451 -10.8881 -2.6365 22.9203
#
#
#
# Elastic Compliance Matrix: (Units=1/GPa)
#
#
# Indices 1 2 3 4 5 6 
#
# 1 0.011818 -0.005790 -0.004309 0.002929 -0.002172 -0.004372
# 2 -0.005790 0.015623 -0.002361 -0.005408 0.003040 0.011297
# 3 -0.004309 -0.002361 0.014444 0.011163 0.004557 -0.003960
# 4 0.002929 -0.005408 0.011163 0.010035 -0.006053 -0.008340
# 5 -0.002172 0.003040 0.004557 -0.006053 0.024302 -0.000554
# 6 -0.004372 0.011297 -0.003960 -0.008340 -0.000554 0.051055
#
#
# Mechanical properties :
#
#
# Convention : Reuss Voigt Hill
#
# Bulk Modulus (GPa) = 58.93845 0.89053 29.91449
# Shear Modulus (GPa) = 31.67546 -17.12046 7.27750
#
# Velocity S-wave (km/s) = 3.77943 -2.77858 1.81157
# Velocity P-wave (km/s) = 6.75454 3.14522 4.22679
#
# Compressibility (1/GPa) = 0.01696685
#
# Stress axis : x y z
#
# Youngs Moduli (GPa) = 84.61807 64.00649 69.23070
#
# Poissons Ratio (x) = 0.37058 0.29832
# Poissons Ratio (y) = 0.48991 0.16343
# Poissons Ratio (z) = 0.36463 0.15110
#
# Static dielectric constant tensor:
#      x y z
#    x 3.695920 -0.060770 -0.076020 
#    y -0.060770 3.647160 -0.002960 
#    z -0.076020 -0.002960 4.109880 
# 
# 
# High freq. dielectric constant tensor:
#      x y z
#    x 1.852380 -0.031520 -0.006590 
#    y -0.031520 1.873760 -0.006270 
#    z -0.006590 -0.006270 1.887700 
# 
# From -- ./inp_files/619966.got.cif
#   From: 2010.06.25/outbox.cif.g09.slc.cpg/sg2_310_cif.got.tgz:619966.got - 2010.06.27 13:26:56.
