data_PCOD8002996
_publ_section_title
;
Structure prediction by ZEFSAII (Michael W. Deem and Ramdas Pophale) SiO2 
 PCOD8002996
Probable space group: P -1
;
_chemical_formula_sum "Si O2"
_cell_formula_units_Z 12
_cell_length_a 8.835941
_cell_length_b 6.527746
_cell_length_c 13.222092
_cell_angle_alpha 127.516039
_cell_angle_beta 111.864688
_cell_angle_gamma 83.588855
_cell_volume 554.485860
_symmetry_space_group_name_H-M "P -1"
_symmetry_group_IT_number 2
_symmetry_cell_setting 'triclinic'
loop_
_space_group_symop_operation_xyz
x,y,z
-x,-y,-z
loop_
_atom_site_type_symbol
_atom_site_label
_atom_site_fract_x
_atom_site_fract_y
_atom_site_fract_z
Si Si1 0.521017 0.865865 0.200159
Si Si2 0.697063 0.384371 0.104648
Si Si3 0.205527 0.765166 0.223480
Si Si4 0.996143 0.270287 0.029590
Si Si5 0.926690 0.879261 0.551252
Si Si6 0.774035 0.295614 0.315519
O O1 0.644583 0.664882 0.200162
O O2 0.385786 0.864167 0.253679
O O3 0.622033 0.159477 0.306398
O O4 0.441549 0.792899 0.049117
O O5 0.866818 0.434082 0.099306
O O6 0.728426 0.227728 0.167066
O O7 0.176814 0.449835 0.140628
O O8 0.183091 0.921135 0.367227
O O9 0.057269 0.796652 0.118721
O O10 0.000000 0.000000 0.000000
O O11 0.803270 0.608378 0.425359
O O12 0.066758 0.827765 0.649240
O O13 0.000000 0.000000 0.500000
#
# Coordination Sequence:
#
# PCOD8002996 Si02
#       6
#     2   2   2   2   2   2
#     4  10  22  38  61  92 123 154 188 244 305 351
#     4  10  21  39  62  90 124 154 192 241 297 354
#     4  10  22  38  57  88 121 150 196 247 292 345
#     4  10  20  36  61  88 117 154 196 243 291 347
#     4  11  24  42  62  84 116 161 205 245 287 345
#     4  11  22  39  63  86 115 160 202 236 292 357
#
# _framework density 21.641670000000001
#
# number of rings (size 3 to 8) (size 9 to 14) (size 15 to 20)
#    0.000    1.667    0.000    4.500    0.000   10.000 
#    0.000    3.333    0.000    0.000    0.000    0.000 
#    0.000    0.000    0.000    0.000    0.000    0.000 
#
# Total GULP energy -148769.715719 kJ/mol
# GULP energy per Si atom -12397.476310 kJ/mol
# Density = 2.159241 g / cm^3
# Si number density = 21.641670 Si / 1000 Ang^3
#
#
#
# Elastic Constant Matrix: (Units=GPa)
#
#
# Indices 1 2 3 4 5 6 
#
# 1 112.0949 56.5444 57.0520 12.3662 -8.3284 30.7990
# 2 56.5444 144.5312 58.7874 13.6991 1.3437 24.9458
# 3 57.0520 58.7874 77.6537 3.8156 -12.1147 10.3280
# 4 12.3662 13.6991 3.8156 44.5841 5.9040 15.1137
# 5 -8.3284 1.3437 -12.1147 5.9040 39.0089 3.9721
# 6 30.7990 24.9458 10.3280 15.1137 3.9721 40.0287
#
#
#
# Elastic Compliance Matrix: (Units=1/GPa)
#
#
# Indices 1 2 3 4 5 6 
#
# 1 0.017904 -0.000710 -0.010951 -0.000465 0.001584 -0.010489
# 2 -0.000710 0.011095 -0.007701 -0.000953 -0.002396 -0.003783
# 3 -0.010951 -0.007701 0.026871 0.000475 0.005635 0.005554
# 4 -0.000465 -0.000953 0.000475 0.026175 -0.002989 -0.008758
# 5 0.001584 -0.002396 0.005635 -0.002989 0.028552 -0.002885
# 6 -0.010489 -0.003783 0.005554 -0.008758 -0.002885 0.037570
#
#
# Mechanical properties :
#
#
# Convention : Reuss Voigt Hill
#
# Bulk Modulus (GPa) = 58.32928 75.44969 66.88948
# Shear Modulus (GPa) = 25.95959 35.51740 30.73850
#
# Velocity S-wave (km/s) = 3.46716 4.05552 3.77283
# Velocity P-wave (km/s) = 6.56042 7.54112 7.06780
#
# Compressibility (1/GPa) = 0.01714405
#
# Stress axis : x y z
#
# Youngs Moduli (GPa) = 55.85314 90.13191 37.21533
#
# Poissons Ratio (x) = 0.06404 0.40755
# Poissons Ratio (y) = 0.03968 0.28660
# Poissons Ratio (z) = 0.61165 0.69412
#
# Static dielectric constant tensor:
#      x y z
#    x 4.026300 0.207650 0.098450 
#    y 0.207650 4.032920 -0.047100 
#    z 0.098450 -0.047100 3.887010 
# 
# 
# High freq. dielectric constant tensor:
#      x y z
#    x 1.840400 0.016890 0.006250 
#    y 0.016890 1.859380 0.000010 
#    z 0.006250 0.000010 1.844140 
# 
# From -- ./inp_files/22707.got.cif
#   From: 2010.06.25/outbox.cif.g09.slc.cpg/sg2_12_cif.got.tgz:22707.got - 2010.06.27 13:26:56.
