data_PCOD8002860
_publ_section_title
;
Structure prediction by ZEFSAII (Michael W. Deem and Ramdas Pophale) SiO2 
 PCOD8002860
Probable space group: P -1
;
_chemical_formula_sum "Si O2"
_cell_formula_units_Z 16
_cell_length_a 15.417692
_cell_length_b 25.491887
_cell_length_c 8.500965
_cell_angle_alpha 133.227285
_cell_angle_beta 134.014946
_cell_angle_gamma 18.376502
_cell_volume 752.700974
_symmetry_space_group_name_H-M "P -1"
_symmetry_group_IT_number 2
_symmetry_cell_setting 'triclinic'
loop_
_space_group_symop_operation_xyz
x,y,z
-x,-y,-z
loop_
_atom_site_type_symbol
_atom_site_label
_atom_site_fract_x
_atom_site_fract_y
_atom_site_fract_z
Si Si1 0.832606 0.742419 0.859398
Si Si2 0.915943 0.118783 0.552768
Si Si3 0.151874 0.373851 0.630527
Si Si4 0.054799 0.890764 0.791827
Si Si5 0.722036 0.951309 0.012762
Si Si6 0.312396 0.437075 0.041298
Si Si7 0.630485 0.647997 0.737891
Si Si8 0.415434 0.903139 0.161382
O O1 0.884089 0.643176 0.618328
O O2 0.086203 0.612355 0.037718
O O3 0.532594 0.895467 0.876002
O O4 0.845708 0.805554 0.896473
O O5 0.027538 0.069486 0.413940
O O6 0.576453 0.299876 0.492382
O O7 0.028637 0.125411 0.807730
O O8 0.000000 0.000000 0.500000
O O9 0.326840 0.353582 0.791716
O O10 0.313415 0.233407 0.665907
O O11 0.847256 0.558132 0.695864
O O12 0.378577 0.694288 0.831507
O O13 0.856971 0.946398 0.760444
O O14 0.000000 0.000000 0.000000
O O15 0.610114 0.016793 0.827356
O O16 0.205370 0.476479 0.164172
O O17 0.439987 0.816133 0.911039
#
# Coordination Sequence:
#
# PCOD8002860 Si02
#       8
#     2   2   2   2   2   2   2   2
#     4  11  25  41  59  89 122 164 203 248 300 362
#     4  11  21  37  63  92 122 154 201 251 299 354
#     4  11  21  36  62  89 117 157 206 251 302 349
#     4  11  19  36  61  97 120 154 202 247 306 353
#     4  11  24  42  61  85 126 162 201 248 304 356
#     4  10  21  37  61  87 127 152 198 253 299 356
#     4  10  20  36  59  93 118 153 198 253 306 352
#     4  11  20  38  61  90 123 156 202 252 298 360
#
# _framework density 21.256782999999999
#
# number of rings (size 3 to 8) (size 9 to 14) (size 15 to 20)
#    0.000    1.250    5.000    4.125    0.000    2.500 
#    0.000    6.250    0.000    0.000    0.000    0.000 
#    0.000    0.000    0.000    0.000    0.000    0.000 
#
# Total GULP energy -198371.786911 kJ/mol
# GULP energy per Si atom -12398.236682 kJ/mol
# Density = 2.120840 g / cm^3
# Si number density = 21.256783 Si / 1000 Ang^3
#
#
#
# Elastic Constant Matrix: (Units=GPa)
#
#
# Indices 1 2 3 4 5 6 
#
# 1 102.6546 29.3782 9.6789 -0.8913 -10.1392 7.7630
# 2 29.3782 84.9366 12.7944 -13.9086 -4.6645 9.3746
# 3 9.6789 12.7944 42.3609 -10.9996 -5.1263 -2.6312
# 4 -0.8913 -13.9086 -10.9996 28.0236 -1.4022 -8.7152
# 5 -10.1392 -4.6645 -5.1263 -1.4022 27.6080 -2.0495
# 6 7.7630 9.3746 -2.6312 -8.7152 -2.0495 44.8920
#
#
#
# Elastic Compliance Matrix: (Units=1/GPa)
#
#
# Indices 1 2 3 4 5 6 
#
# 1 0.011383 -0.003732 -0.001899 -0.002609 0.002941 -0.001673
# 2 -0.003732 0.014531 -0.001955 0.005967 0.000928 -0.001303
# 3 -0.001899 -0.001955 0.028713 0.012060 0.005288 0.005002
# 4 -0.002609 0.005967 0.012060 0.046413 0.005327 0.009166
# 5 0.002941 0.000928 0.005288 0.005327 0.038890 0.002417
# 6 -0.001673 -0.001303 0.005002 0.009166 0.002417 0.025020
#
#
# Mechanical properties :
#
#
# Convention : Reuss Voigt Hill
#
# Bulk Modulus (GPa) = 25.34611 37.07279 31.20945
# Shear Modulus (GPa) = 25.87001 31.97810 28.92406
#
# Velocity S-wave (km/s) = 3.49237 3.88283 3.69277
# Velocity P-wave (km/s) = 5.31148 6.13027 5.73550
#
# Compressibility (1/GPa) = 0.03945379
#
# Stress axis : x y z
#
# Youngs Moduli (GPa) = 87.85176 68.81951 34.82719
#
# Poissons Ratio (x) = 0.25685 0.06614
# Poissons Ratio (y) = 0.32788 0.06810
# Poissons Ratio (z) = 0.16683 0.13456
#
# Static dielectric constant tensor:
#      x y z
#    x 4.215890 -0.155130 -0.264230 
#    y -0.155130 4.041950 -0.374690 
#    z -0.264230 -0.374690 3.728050 
# 
# 
# High freq. dielectric constant tensor:
#      x y z
#    x 1.833150 -0.001220 -0.020150 
#    y -0.001220 1.830990 -0.033340 
#    z -0.020150 -0.033340 1.807380 
# 
# From -- ./inp_files/320186.got.cif
#   From: 2010.06.25/outbox.cif.g09.slc.cpg/sg2_161_cif.got.tgz:320186.got - 2010.06.27 13:26:56.
