data_PCOD8002647
_publ_section_title
;
Structure prediction by ZEFSAII (Michael W. Deem and Ramdas Pophale) SiO2 
 PCOD8002647
Probable space group: P -1
;
_chemical_formula_sum "Si O2"
_cell_formula_units_Z 16
_cell_length_a 17.143871
_cell_length_b 9.884779
_cell_length_c 14.210915
_cell_angle_alpha 79.984178
_cell_angle_beta 32.275337
_cell_angle_gamma 56.724404
_cell_volume 817.454643
_symmetry_space_group_name_H-M "P -1"
_symmetry_group_IT_number 2
_symmetry_cell_setting 'triclinic'
loop_
_space_group_symop_operation_xyz
x,y,z
-x,-y,-z
loop_
_atom_site_type_symbol
_atom_site_label
_atom_site_fract_x
_atom_site_fract_y
_atom_site_fract_z
Si Si1 0.253966 0.809491 0.299578
Si Si2 0.580339 0.093834 0.421555
Si Si3 0.240227 0.679584 0.624148
Si Si4 0.449409 0.666218 0.930402
Si Si5 0.691804 0.498485 0.236293
Si Si6 0.089089 0.252025 0.736406
Si Si7 0.955124 0.943313 0.337900
Si Si8 0.624288 0.676664 0.575165
O O1 0.344219 0.590158 0.250630
O O2 0.242205 0.897645 0.400499
O O3 0.417308 0.755532 0.057414
O O4 0.000000 0.000000 0.500000
O O5 0.398645 0.302100 0.644611
O O6 0.585815 0.158885 0.304420
O O7 0.500000 0.000000 0.500000
O O8 0.811520 0.923290 0.264339
O O9 0.499846 0.543537 0.379073
O O10 0.171815 0.686694 0.800103
O O11 0.225874 0.561975 0.580277
O O12 0.073404 0.917475 0.728373
O O13 0.514921 0.738546 0.782105
O O14 0.211889 0.763489 0.135333
O O15 0.837512 0.453996 0.007093
O O16 0.087127 0.176511 0.647768
O O17 0.217535 0.303084 0.588050
#
# Coordination Sequence:
#
# PCOD8002647 Si02
#       8
#     2   2   2   2   2   2   2   2
#     4   9  20  39  64  89 113 140 190 244 298 350
#     4   9  20  36  52  80 122 158 195 229 273 337
#     4  10  20  36  57  82 117 151 207 241 269 336
#     4  10  20  38  65  88 112 147 190 243 296 344
#     4  10  21  37  53  80 120 162 196 242 277 329
#     4  11  23  36  57  83 125 162 189 231 294 333
#     4  11  21  36  61  89 111 152 194 241 288 346
#     4  10  21  38  55  87 119 154 197 237 280 348
#
# _framework density 19.572952000000001
#
# number of rings (size 3 to 8) (size 9 to 14) (size 15 to 20)
#    0.000    2.000    2.500    0.750    1.750    5.000 
#    2.250    0.625    0.000    6.750    0.000    0.000 
#    0.000    0.000    0.000    0.000    0.000    0.000 
#
# Total GULP energy -198226.414383 kJ/mol
# GULP energy per Si atom -12389.150899 kJ/mol
# Density = 1.952840 g / cm^3
# Si number density = 19.572952 Si / 1000 Ang^3
#
#
#
# Elastic Constant Matrix: (Units=GPa)
#
#
# Indices 1 2 3 4 5 6 
#
# 1 87.3763 49.6255 51.7917 -6.3830 18.4938 12.6249
# 2 49.6255 88.1213 43.0665 1.9479 11.2797 3.8059
# 3 51.7917 43.0665 106.4637 -13.8204 28.9546 2.7917
# 4 -6.3830 1.9479 -13.8204 29.5104 -7.4666 -1.2645
# 5 18.4938 11.2797 28.9546 -7.4666 34.5687 3.5837
# 6 12.6249 3.8059 2.7917 -1.2645 3.5837 32.1281
#
#
#
# Elastic Compliance Matrix: (Units=1/GPa)
#
#
# Indices 1 2 3 4 5 6 
#
# 1 0.021429 -0.008621 -0.005816 0.001497 -0.002780 -0.006525
# 2 -0.008621 0.018093 -0.004016 -0.004648 0.000933 0.001306
# 3 -0.005816 -0.004016 0.016817 0.004738 -0.008897 0.002479
# 4 0.001497 -0.004648 0.004738 0.037998 0.004903 0.000499
# 5 -0.002780 0.000933 -0.008897 0.004903 0.038870 -0.002388
# 6 -0.006525 0.001306 0.002479 0.000499 -0.002388 0.033605
#
#
# Mechanical properties :
#
#
# Convention : Reuss Voigt Hill
#
# Bulk Modulus (GPa) = 51.46114 63.43650 57.44882
# Shear Modulus (GPa) = 23.78764 28.40662 26.09713
#
# Velocity S-wave (km/s) = 3.48994 3.81375 3.65544
# Velocity P-wave (km/s) = 6.52600 7.20233 6.87249
#
# Compressibility (1/GPa) = 0.01943214
#
# Stress axis : x y z
#
# Youngs Moduli (GPa) = 46.66637 55.27140 59.46530
#
# Poissons Ratio (x) = 0.47648 0.34583
# Poissons Ratio (y) = 0.40230 0.23884
# Poissons Ratio (z) = 0.27139 0.22199
#
# Static dielectric constant tensor:
#      x y z
#    x 3.860420 -0.288560 0.286000 
#    y -0.288560 3.675900 0.155910 
#    z 0.286000 0.155910 3.474120 
# 
# 
# High freq. dielectric constant tensor:
#      x y z
#    x 1.764120 -0.012450 0.018970 
#    y -0.012450 1.753980 0.015650 
#    z 0.018970 0.015650 1.749000 
# 
# From -- ./inp_files/278195.got.cif
#   From: 2010.06.25/outbox.cif.g09.slc.cpg/sg2_140_cif.got.tgz:278195.got - 2010.06.27 13:26:56.
