data_PCOD8002933
_publ_section_title
;
Structure prediction by ZEFSAII (Michael W. Deem and Ramdas Pophale) SiO2 
 PCOD8002933
Probable space group: P -1
;
_chemical_formula_sum "Si O2"
_cell_formula_units_Z 16
_cell_length_a 9.353843
_cell_length_b 14.718734
_cell_length_c 11.204910
_cell_angle_alpha 40.727825
_cell_angle_beta 122.468284
_cell_angle_gamma 103.014735
_cell_volume 801.648172
_symmetry_space_group_name_H-M "P -1"
_symmetry_group_IT_number 2
_symmetry_cell_setting 'triclinic'
loop_
_space_group_symop_operation_xyz
x,y,z
-x,-y,-z
loop_
_atom_site_type_symbol
_atom_site_label
_atom_site_fract_x
_atom_site_fract_y
_atom_site_fract_z
Si Si1 0.548102 0.845366 0.524318
Si Si2 0.184785 0.466031 0.687298
Si Si3 0.285675 0.662677 0.175669
Si Si4 0.898176 0.707134 0.720774
Si Si5 0.000023 0.476595 0.826295
Si Si6 0.444174 0.612570 0.546185
Si Si7 0.452800 0.170255 0.184350
Si Si8 0.171481 0.855550 0.726581
O O1 0.729976 0.852619 0.532113
O O2 0.479493 0.733724 0.527214
O O3 0.585521 0.789302 0.733581
O O4 0.417054 0.015580 0.294539
O O5 0.135161 0.505082 0.763335
O O6 0.282410 0.573882 0.573059
O O7 0.000000 0.500000 0.500000
O O8 0.318033 0.294900 0.915202
O O9 0.393194 0.679738 0.323880
O O10 0.392206 0.538391 0.250609
O O11 0.110748 0.622946 0.179075
O O12 0.233915 0.819559 0.928282
O O13 0.864623 0.636048 0.651224
O O14 0.091349 0.728035 0.777389
O O15 0.888094 0.598111 0.932893
O O16 0.662065 0.149917 0.276789
O O17 0.000000 0.000000 0.500000
#
# Coordination Sequence:
#
# PCOD8002933 Si02
#       8
#     2   2   2   2   2   2   2   2
#     4  11  23  42  65  92 133 166 206 262 324 377
#     4  12  24  41  65  92 128 168 214 260 311 375
#     4  10  21  39  64  90 127 163 212 264 314 371
#     4  10  20  36  61  95 121 159 207 259 315 364
#     4  10  20  36  60  90 123 159 207 261 310 364
#     4  11  23  40  64  94 124 170 212 261 316 370
#     4  11  25  43  63  94 130 168 210 260 319 375
#     4  11  22  39  65  93 126 166 212 260 313 378
#
# _framework density 19.958880000000001
#
# number of rings (size 3 to 8) (size 9 to 14) (size 15 to 20)
#    0.000    1.250    6.250    0.000    1.750    0.500 
#    0.000    2.500    0.000    0.000    0.000    0.000 
#    0.000    0.000    0.000    0.000    0.000    0.000 
#
# Total GULP energy -198246.902837 kJ/mol
# GULP energy per Si atom -12390.431427 kJ/mol
# Density = 1.991345 g / cm^3
# Si number density = 19.958880 Si / 1000 Ang^3
#
#
#
# Elastic Constant Matrix: (Units=GPa)
#
#
# Indices 1 2 3 4 5 6 
#
# 1 110.8580 29.1156 24.5094 -8.2835 5.8636 -3.6119
# 2 29.1156 112.8883 43.9600 -5.4622 0.2305 -7.1406
# 3 24.5094 43.9600 116.3875 -1.9310 7.8647 -4.9836
# 4 -8.2835 -5.4622 -1.9310 17.5385 -0.1629 6.3249
# 5 5.8636 0.2305 7.8647 -0.1629 28.0380 -0.3364
# 6 -3.6119 -7.1406 -4.9836 6.3249 -0.3364 27.6887
#
#
#
# Elastic Compliance Matrix: (Units=1/GPa)
#
#
# Indices 1 2 3 4 5 6 
#
# 1 0.010204 -0.001969 -0.001233 0.004190 -0.001752 -0.000377
# 2 -0.001969 0.010993 -0.003739 0.001528 0.001398 0.001573
# 3 -0.001233 -0.003739 0.010467 -0.000960 -0.002642 0.000946
# 4 0.004190 0.001528 -0.000960 0.064392 -0.000413 -0.013946
# 5 -0.001752 0.001398 -0.002642 -0.000413 0.036762 0.000197
# 6 -0.000377 0.001573 0.000946 -0.013946 0.000197 0.039831
#
#
# Mechanical properties :
#
#
# Convention : Reuss Voigt Hill
#
# Bulk Modulus (GPa) = 56.24050 59.47819 57.85934
# Shear Modulus (GPa) = 25.97968 30.82296 28.40132
#
# Velocity S-wave (km/s) = 3.61177 3.93405 3.77635
# Velocity P-wave (km/s) = 6.75518 7.10639 6.93301
#
# Compressibility (1/GPa) = 0.01778078
#
# Stress axis : x y z
#
# Youngs Moduli (GPa) = 98.00255 90.96892 95.53773
#
# Poissons Ratio (x) = 0.17912 0.11783
# Poissons Ratio (y) = 0.19297 0.35723
# Poissons Ratio (z) = 0.12087 0.34014
#
# Static dielectric constant tensor:
#      x y z
#    x 3.940920 -0.055280 -0.003460 
#    y -0.055280 3.491680 -0.082440 
#    z -0.003460 -0.082440 3.739270 
# 
# 
# High freq. dielectric constant tensor:
#      x y z
#    x 1.795620 -0.004620 0.002160 
#    y -0.004620 1.758520 -0.002710 
#    z 0.002160 -0.002710 1.772470 
# 
# From -- ./inp_files/283264.got.cif
#   From: 2010.06.25/outbox.cif.g09.slc.cpg/sg2_142_cif.got.tgz:283264.got - 2010.06.27 13:26:56.
