data_PCOD8002002
_publ_section_title
;
Structure prediction by ZEFSAII (Michael W. Deem and Ramdas Pophale) SiO2 
 PCOD8002002
Probable space group: P -1
;
_chemical_formula_sum "Si O2"
_cell_formula_units_Z 16
_cell_length_a 5.879615
_cell_length_b 9.121203
_cell_length_c 23.419993
_cell_angle_alpha 62.549792
_cell_angle_beta 68.091450
_cell_angle_gamma 110.089347
_cell_volume 806.318843
_symmetry_space_group_name_H-M "P -1"
_symmetry_group_IT_number 2
_symmetry_cell_setting 'triclinic'
loop_
_space_group_symop_operation_xyz
x,y,z
-x,-y,-z
loop_
_atom_site_type_symbol
_atom_site_label
_atom_site_fract_x
_atom_site_fract_y
_atom_site_fract_z
Si Si1 0.722436 0.333192 0.715184
Si Si2 0.290238 0.068991 0.705135
Si Si3 0.573923 0.269916 0.411017
Si Si4 0.333785 0.044603 0.176152
Si Si5 0.430466 0.381537 0.292163
Si Si6 0.293735 0.583668 0.001050
Si Si7 0.203027 0.666914 0.819439
Si Si8 0.254730 0.011856 0.593102
O O1 0.606022 0.242125 0.678794
O O2 0.556114 0.414875 0.748513
O O3 0.085111 0.528090 0.637464
O O4 0.637917 0.140957 0.797168
O O5 0.174056 0.831342 0.762479
O O6 0.361843 0.139095 0.619782
O O7 0.028874 0.073954 0.756938
O O8 0.443111 0.343450 0.364567
O O9 0.571193 0.088264 0.415228
O O10 0.344686 0.174755 0.504396
O O11 0.447639 0.167158 0.082649
O O12 0.534775 0.213688 0.177369
O O13 0.717611 0.433311 0.218688
O O14 0.116680 0.169770 0.334233
O O15 0.500000 0.500000 0.000000
O O16 0.000000 0.500000 0.000000
O O17 0.135592 0.529666 0.087989
#
# Coordination Sequence:
#
# PCOD8002002 Si02
#       8
#     2   2   2   2   2   2   2   2
#     4  10  24  37  57  84 123 167 195 247 319 368
#     4  11  19  37  61  86 116 155 204 253 304 366
#     4  10  21  39  55  87 121 157 200 253 310 366
#     4  10  20  38  59  88 123 156 200 252 310 368
#     4  11  20  39  59  86 120 161 202 249 309 372
#     4  10  20  36  62  99 128 156 208 267 314 368
#     4  10  20  34  63  92 113 159 202 255 304 369
#     4  10  21  35  63  87 113 155 209 258 299 360
#
# _framework density 19.843267999999998
#
# number of rings (size 3 to 8) (size 9 to 14) (size 15 to 20)
#    0.000    1.750    3.750    1.125    0.000    0.500 
#    0.000    3.125    0.000    3.000    0.000    0.000 
#    0.000    0.000    0.000    0.000    0.000    0.000 
#
# Total GULP energy -198306.361103 kJ/mol
# GULP energy per Si atom -12394.147569 kJ/mol
# Density = 1.979810 g / cm^3
# Si number density = 19.843268 Si / 1000 Ang^3
#
#
#
# Elastic Constant Matrix: (Units=GPa)
#
#
# Indices 1 2 3 4 5 6 
#
# 1 88.3291 29.9462 21.1801 -1.6812 12.4175 -16.7022
# 2 29.9462 88.4492 50.0277 -4.3827 8.8614 -13.2072
# 3 21.1801 50.0277 108.4439 7.6066 13.0370 -20.9542
# 4 -1.6812 -4.3827 7.6066 23.5502 -3.2968 1.7467
# 5 12.4175 8.8614 13.0370 -3.2968 21.5133 -0.0963
# 6 -16.7022 -13.2072 -20.9542 1.7467 -0.0963 24.2886
#
#
#
# Elastic Compliance Matrix: (Units=1/GPa)
#
#
# Indices 1 2 3 4 5 6 
#
# 1 0.015326 -0.004075 0.002080 -0.002320 -0.008738 0.010251
# 2 -0.004075 0.017161 -0.007705 0.005541 0.000799 -0.000513
# 3 0.002080 -0.007705 0.016418 -0.008776 -0.009267 0.011999
# 4 -0.002320 0.005541 -0.008776 0.048522 0.011767 -0.009595
# 5 -0.008738 0.000799 -0.009267 0.011767 0.058553 -0.014183
# 6 0.010251 -0.000513 0.011999 -0.009595 -0.014183 0.058927
#
#
# Mechanical properties :
#
#
# Convention : Reuss Voigt Hill
#
# Bulk Modulus (GPa) = 33.89037 54.17001 44.03019
# Shear Modulus (GPa) = 20.47989 26.14163 23.31076
#
# Velocity S-wave (km/s) = 3.21609 3.63355 3.43117
# Velocity P-wave (km/s) = 5.55941 6.70535 6.15909
#
# Compressibility (1/GPa) = 0.02950691
#
# Stress axis : x y z
#
# Youngs Moduli (GPa) = 65.24652 58.27020 60.90970
#
# Poissons Ratio (x) = 0.23742 -0.12670
# Poissons Ratio (y) = 0.26585 0.46931
# Poissons Ratio (z) = -0.13572 0.44897
#
# Static dielectric constant tensor:
#      x y z
#    x 3.841470 -0.056920 0.102620 
#    y -0.056920 3.330140 -0.025760 
#    z 0.102620 -0.025760 3.826700 
# 
# 
# High freq. dielectric constant tensor:
#      x y z
#    x 1.785810 -0.003560 0.004780 
#    y -0.003560 1.744730 0.000800 
#    z 0.004780 0.000800 1.775600 
# 
# From -- ./inp_files/39175.got.cif
#   From: 2010.06.25/outbox.cif.g09.slc.cpg/sg2_20_cif.got.tgz:39175.got - 2010.06.27 13:26:56.
