data_PCOD8002277
_publ_section_title
;
Structure prediction by ZEFSAII (Michael W. Deem and Ramdas Pophale) SiO2 
 PCOD8002277
Probable space group: P -1
;
_chemical_formula_sum "Si O2"
_cell_formula_units_Z 16
_cell_length_a 14.735551
_cell_length_b 19.370182
_cell_length_c 11.458800
_cell_angle_alpha 149.445661
_cell_angle_beta 127.089128
_cell_angle_gamma 30.808121
_cell_volume 725.003755
_symmetry_space_group_name_H-M "P -1"
_symmetry_group_IT_number 2
_symmetry_cell_setting 'triclinic'
loop_
_space_group_symop_operation_xyz
x,y,z
-x,-y,-z
loop_
_atom_site_type_symbol
_atom_site_label
_atom_site_fract_x
_atom_site_fract_y
_atom_site_fract_z
Si Si1 0.838565 0.681680 0.000328
Si Si2 0.102599 0.189431 0.577093
Si Si3 0.886478 0.186492 0.291079
Si Si4 0.113776 0.531985 0.629343
Si Si5 0.445955 0.887231 0.213634
Si Si6 0.625951 0.686423 0.705896
Si Si7 0.752524 0.642355 0.276121
Si Si8 0.710816 0.098274 0.105111
O O1 0.641678 0.817837 0.974700
O O2 0.907582 0.490249 0.862355
O O3 0.023026 0.522016 0.819320
O O4 0.780909 0.880040 0.313548
O O5 0.033251 0.100587 0.384413
O O6 0.247102 0.060748 0.390716
O O7 0.780326 0.424128 0.500985
O O8 0.727364 0.244455 0.318114
O O9 0.000000 0.000000 0.000000
O O10 0.310839 0.346723 0.426125
O O11 0.211607 0.475939 0.748716
O O12 0.000000 0.500000 0.500000
O O13 0.943947 0.809234 0.857433
O O14 0.658725 0.646204 0.101842
O O15 0.424983 0.064527 0.411974
O O16 0.439731 0.798186 0.966438
O O17 0.395013 0.851337 0.783138
#
# Coordination Sequence:
#
# PCOD8002277 Si02
#       8
#     2   2   2   2   2   2   2   2
#     4   9  18  34  55  90 124 156 196 262 321 368
#     4   9  18  32  59  88 122 156 199 264 322 360
#     4  11  20  41  65  92 128 171 217 271 316 369
#     4  12  22  43  61  93 140 173 202 263 339 384
#     4  10  20  35  58  94 122 162 213 256 310 378
#     4  11  24  39  65  98 125 169 222 262 318 389
#     4  10  21  36  58  88 132 164 200 260 321 380
#     4  12  24  40  67  95 127 171 219 265 317 384
#
# _framework density 22.068852
#
# number of rings (size 3 to 8) (size 9 to 14) (size 15 to 20)
#    0.000    1.500    5.000    1.125    8.750    0.500 
#    2.250    0.000    0.000    3.750    0.000    0.000 
#    0.000    0.000    0.000    0.000    0.000    0.000 
#
# Total GULP energy -198216.178580 kJ/mol
# GULP energy per Si atom -12388.511161 kJ/mol
# Density = 2.201862 g / cm^3
# Si number density = 22.068852 Si / 1000 Ang^3
#
#
#
# Elastic Constant Matrix: (Units=GPa)
#
#
# Indices 1 2 3 4 5 6 
#
# 1 130.9850 44.7753 33.6669 -26.4941 -12.4918 -11.9848
# 2 44.7753 96.6943 23.5038 -25.3592 5.2376 0.1866
# 3 33.6669 23.5038 72.6342 -28.4400 0.9841 -7.5982
# 4 -26.4941 -25.3592 -28.4400 29.3435 -5.2045 1.8162
# 5 -12.4918 5.2376 0.9841 -5.2045 30.3580 -5.1743
# 6 -11.9848 0.1866 -7.5982 1.8162 -5.1743 31.7692
#
#
#
# Elastic Compliance Matrix: (Units=1/GPa)
#
#
# Indices 1 2 3 4 5 6 
#
# 1 0.011901 -0.003691 -0.000832 0.007810 0.007774 0.005132
# 2 -0.003691 0.014543 0.000437 0.009300 -0.002852 -0.002370
# 3 -0.000832 0.000437 0.023242 0.022486 0.003454 0.004519
# 4 0.007810 0.009300 0.022486 0.073137 0.014518 0.006453
# 5 0.007774 -0.002852 0.003454 0.014518 0.040639 0.009565
# 6 0.005132 -0.002370 0.004519 0.006453 0.009565 0.035697
#
#
# Mechanical properties :
#
#
# Convention : Reuss Voigt Hill
#
# Bulk Modulus (GPa) = 24.08871 56.02285 40.05578
# Shear Modulus (GPa) = 22.60714 31.51862 27.06288
#
# Velocity S-wave (km/s) = 3.20408 3.78325 3.50565
# Velocity P-wave (km/s) = 4.96258 6.67267 5.88012
#
# Compressibility (1/GPa) = 0.04151323
#
# Stress axis : x y z
#
# Youngs Moduli (GPa) = 84.02746 68.76164 43.02507
#
# Poissons Ratio (x) = 0.25382 0.03581
# Poissons Ratio (y) = 0.31017 -0.01881
# Poissons Ratio (z) = 0.06994 -0.03006
#
# Static dielectric constant tensor:
#      x y z
#    x 4.065150 -0.181940 -0.063180 
#    y -0.181940 4.049310 -0.239160 
#    z -0.063180 -0.239160 3.947160 
# 
# 
# High freq. dielectric constant tensor:
#      x y z
#    x 1.859590 -0.020560 -0.028340 
#    y -0.020560 1.852200 -0.014010 
#    z -0.028340 -0.014010 1.847650 
# 
# From -- ./inp_files/457553.got.cif
#   From: 2010.06.25/outbox.cif.g09.slc.cpg/sg2_229_cif.got.tgz:457553.got - 2010.06.27 13:26:56.
