data_PCOD8002590
_publ_section_title
;
Structure prediction by ZEFSAII (Michael W. Deem and Ramdas Pophale) SiO2 
 PCOD8002590
Probable space group: P -1
;
_chemical_formula_sum "Si O2"
_cell_formula_units_Z 14
_cell_length_a 7.409913
_cell_length_b 7.695853
_cell_length_c 14.243995
_cell_angle_alpha 37.738136
_cell_angle_beta 71.026067
_cell_angle_gamma 76.260988
_cell_volume 469.871787
_symmetry_space_group_name_H-M "P -1"
_symmetry_group_IT_number 2
_symmetry_cell_setting 'triclinic'
loop_
_space_group_symop_operation_xyz
x,y,z
-x,-y,-z
loop_
_atom_site_type_symbol
_atom_site_label
_atom_site_fract_x
_atom_site_fract_y
_atom_site_fract_z
Si Si1 0.774921 0.610708 0.603724
Si Si2 0.616135 0.783903 0.878513
Si Si3 0.223972 0.016342 0.853186
Si Si4 0.673802 0.224423 0.401584
Si Si5 0.348914 0.236964 0.916516
Si Si6 0.900715 0.558019 0.806175
Si Si7 0.806748 0.426044 0.481205
O O1 0.800289 0.462075 0.764877
O O2 0.715451 0.405453 0.611910
O O3 0.989911 0.724018 0.491958
O O4 0.641381 0.896921 0.509306
O O5 0.456257 0.021890 0.802534
O O6 0.778929 0.823742 0.753732
O O7 0.500000 0.500000 0.000000
O O8 0.732148 0.740484 0.974948
O O9 0.182138 0.152627 0.905862
O O10 0.151920 0.236071 0.694001
O O11 0.122654 0.702931 0.003485
O O12 0.544606 0.461752 0.267458
O O13 0.662816 0.270062 0.496711
O O14 0.884737 0.327471 0.287853
O O15 0.500000 0.000000 0.000000
#
# Coordination Sequence:
#
# PCOD8002590 Si02
#       7
#     2   2   2   2   2   2   2
#     4  10  21  37  57  84 121 154 188 231 292 345
#     4   9  19  35  57  80 115 145 188 241 283 336
#     4   9  19  37  60  79 116 148 194 240 286 334
#     4  10  21  37  61  83 121 152 193 234 285 350
#     4   9  19  37  59  85 111 153 189 237 295 330
#     4  10  20  36  55  92 112 149 193 238 283 339
#     4   9  19  37  57  81 115 155 187 233 288 333
#
# _framework density 29.795362999999998
#
# number of rings (size 3 to 8) (size 9 to 14) (size 15 to 20)
#    0.000    2.571    0.000    1.714    4.000    5.714 
#   10.286    0.714    0.000    5.143    0.000    0.000 
#    0.000    0.000    0.000    0.000    0.000    0.000 
#
# Total GULP energy -173436.142257 kJ/mol
# GULP energy per Si atom -12388.295876 kJ/mol
# Density = 2.972755 g / cm^3
# Si number density = 29.795363 Si / 1000 Ang^3
#
#
#
# Elastic Constant Matrix: (Units=GPa)
#
#
# Indices 1 2 3 4 5 6 
#
# 1 63.4914 19.1434 23.6699 -6.4671 7.1442 -1.6842
# 2 19.1434 144.8596 28.0586 30.8174 7.7387 -0.7091
# 3 23.6699 28.0586 132.1483 -3.1968 7.4648 -4.7104
# 4 -6.4671 30.8174 -3.1968 55.4415 3.8016 18.2754
# 5 7.1442 7.7387 7.4648 3.8016 42.4079 -2.9949
# 6 -1.6842 -0.7091 -4.7104 18.2754 -2.9949 41.7027
#
#
#
# Elastic Compliance Matrix: (Units=1/GPa)
#
#
# Indices 1 2 3 4 5 6 
#
# 1 0.018163 -0.002672 -0.002494 0.004170 -0.002621 -0.001609
# 2 -0.002672 0.008870 -0.001452 -0.006159 -0.000180 0.002565
# 3 -0.002494 -0.001452 0.008406 0.000945 -0.000854 0.000349
# 4 0.004170 -0.006159 0.000945 0.025961 -0.002878 -0.011413
# 5 -0.002621 -0.000180 -0.000854 -0.002878 0.024663 0.002827
# 6 -0.001609 0.002565 0.000349 -0.011413 0.002827 0.029202
#
#
# Mechanical properties :
#
#
# Convention : Reuss Voigt Hill
#
# Bulk Modulus (GPa) = 45.04215 53.58259 49.31237
# Shear Modulus (GPa) = 36.79113 45.88558 41.33835
#
# Velocity S-wave (km/s) = 3.51778 3.92857 3.72883
# Velocity P-wave (km/s) = 5.62580 6.21295 5.92665
#
# Compressibility (1/GPa) = 0.02220143
#
# Stress axis : x y z
#
# Youngs Moduli (GPa) = 55.05787 112.73849 118.96398
#
# Poissons Ratio (x) = 0.30126 0.29673
# Poissons Ratio (y) = 0.14712 0.17275
# Poissons Ratio (z) = 0.13733 0.16371
#
# Static dielectric constant tensor:
#      x y z
#    x 6.232650 -1.013210 0.440560 
#    y -1.013210 9.453950 0.914780 
#    z 0.440560 0.914780 6.125400 
# 
# 
# High freq. dielectric constant tensor:
#      x y z
#    x 2.226350 -0.019870 -0.000750 
#    y -0.019870 2.232590 -0.008710 
#    z -0.000750 -0.008710 2.219410 
# 
# From -- ./inp_files/356439.got.cif
#   From: 2010.06.25/outbox.cif.g09.slc.cpg/sg2_179_cif.got.tgz:356439.got - 2010.06.27 13:26:56.
