data_PCOD8002746
_publ_section_title
;
Structure prediction by ZEFSAII (Michael W. Deem and Ramdas Pophale) SiO2 
 PCOD8002746
Probable space group: P -1
;
_chemical_formula_sum "Si O2"
_cell_formula_units_Z 12
_cell_length_a 5.364649
_cell_length_b 13.399914
_cell_length_c 12.870992
_cell_angle_alpha 131.787981
_cell_angle_beta 56.755824
_cell_angle_gamma 108.137565
_cell_volume 574.802985
_symmetry_space_group_name_H-M "P -1"
_symmetry_group_IT_number 2
_symmetry_cell_setting 'triclinic'
loop_
_space_group_symop_operation_xyz
x,y,z
-x,-y,-z
loop_
_atom_site_type_symbol
_atom_site_label
_atom_site_fract_x
_atom_site_fract_y
_atom_site_fract_z
Si Si1 0.565911 0.947181 0.615818
Si Si2 0.337867 0.452975 0.365603
Si Si3 0.162700 0.386365 0.951107
Si Si4 0.253253 0.543403 0.231611
Si Si5 0.673966 0.689751 0.539307
Si Si6 0.935227 0.899145 0.292446
O O1 0.515106 0.823501 0.617654
O O2 0.751588 0.892386 0.435886
O O3 0.244302 0.010226 0.691944
O O4 0.744010 0.049596 0.715731
O O5 0.391623 0.445634 0.224541
O O6 0.552938 0.558845 0.429360
O O7 0.394132 0.312791 0.321706
O O8 0.000000 0.500000 0.500000
O O9 0.510742 0.374889 0.829234
O O10 0.013316 0.248538 0.870542
O O11 0.114983 0.433980 0.113615
O O12 0.000000 0.500000 0.000000
O O13 0.027223 0.665637 0.412846
#
# Coordination Sequence:
#
# PCOD8002746 Si02
#       6
#     2   2   2   2   2   2
#     4  10  22  36  58  81 121 151 193 240 286 356
#     4   9  19  34  58  86 112 143 194 243 291 337
#     4  11  23  36  57  83 119 153 193 237 288 348
#     4  10  21  34  58  85 115 150 188 246 287 345
#     4  10  20  36  58  88 113 149 191 243 294 337
#     4  10  23  36  55  85 115 159 191 236 292 344
#
# _framework density 20.876719000000001
#
# number of rings (size 3 to 8) (size 9 to 14) (size 15 to 20)
#    0.000    2.000    0.000    3.000   16.333    0.000 
#    0.000    0.000    0.000    2.000    0.000    0.000 
#    0.000    0.000    0.000    0.000    0.000    0.000 
#
# Total GULP energy -148687.560544 kJ/mol
# GULP energy per Si atom -12390.630045 kJ/mol
# Density = 2.082920 g / cm^3
# Si number density = 20.876719 Si / 1000 Ang^3
#
#
#
# Elastic Constant Matrix: (Units=GPa)
#
#
# Indices 1 2 3 4 5 6 
#
# 1 80.9321 23.3865 7.6510 1.8259 20.8853 -23.0016
# 2 23.3865 123.6348 26.1721 4.0170 17.4792 -40.1654
# 3 7.6510 26.1721 54.5785 6.0838 24.1799 -13.5483
# 4 1.8259 4.0170 6.0838 29.6654 -4.6579 4.0334
# 5 20.8853 17.4792 24.1799 -4.6579 33.6784 -8.7303
# 6 -23.0016 -40.1654 -13.5483 4.0334 -8.7303 43.5304
#
#
#
# Elastic Compliance Matrix: (Units=1/GPa)
#
#
# Indices 1 2 3 4 5 6 
#
# 1 0.018390 0.000644 0.006976 -0.006376 -0.015021 0.010061
# 2 0.000644 0.012445 -0.001391 -0.003485 -0.003487 0.011014
# 3 0.006976 -0.001391 0.033616 -0.012580 -0.027259 0.008564
# 4 -0.006376 -0.003485 -0.012580 0.041402 0.017726 -0.010781
# 5 -0.015021 -0.003487 -0.027259 0.017726 0.060467 -0.009154
# 6 0.010061 0.011014 0.008564 -0.010781 -0.009154 0.040280
#
#
# Mechanical properties :
#
#
# Convention : Reuss Voigt Hill
#
# Bulk Modulus (GPa) = 13.00219 41.50716 27.25468
# Shear Modulus (GPa) = 22.75006 34.83724 28.79365
#
# Velocity S-wave (km/s) = 3.30469 4.08942 3.71782
# Velocity P-wave (km/s) = 4.56102 6.49792 5.61364
#
# Compressibility (1/GPa) = 0.07691014
#
# Stress axis : x y z
#
# Youngs Moduli (GPa) = 54.37698 80.35136 29.74763
#
# Poissons Ratio (x) = -0.05174 -0.20753
# Poissons Ratio (y) = -0.03502 0.04138
# Poissons Ratio (z) = -0.37935 0.11177
#
# Static dielectric constant tensor:
#      x y z
#    x 6.097290 -0.029310 0.752650 
#    y -0.029310 4.241800 -0.357570 
#    z 0.752650 -0.357570 3.600880 
# 
# 
# High freq. dielectric constant tensor:
#      x y z
#    x 1.841040 -0.011230 0.019300 
#    y -0.011230 1.812820 -0.010830 
#    z 0.019300 -0.010830 1.771920 
# 
# From -- ./inp_files/23569.got.cif
#   From: 2010.06.25/outbox.cif.g09.slc.cpg/sg2_12_cif.got.tgz:23569.got - 2010.06.27 13:26:56.
