data_PCOD8002889
_publ_section_title
;
Structure prediction by ZEFSAII (Michael W. Deem and Ramdas Pophale) SiO2 
 PCOD8002889
Probable space group: P -1
;
_chemical_formula_sum "Si O2"
_cell_formula_units_Z 16
_cell_length_a 7.464706
_cell_length_b 7.525613
_cell_length_c 16.488182
_cell_angle_alpha 68.470940
_cell_angle_beta 47.311313
_cell_angle_gamma 59.718492
_cell_volume 587.483448
_symmetry_space_group_name_H-M "P -1"
_symmetry_group_IT_number 2
_symmetry_cell_setting 'triclinic'
loop_
_space_group_symop_operation_xyz
x,y,z
-x,-y,-z
loop_
_atom_site_type_symbol
_atom_site_label
_atom_site_fract_x
_atom_site_fract_y
_atom_site_fract_z
Si Si1 0.995921 0.048548 0.774250
Si Si2 0.766843 0.770618 0.812137
Si Si3 0.261589 0.299156 0.441149
Si Si4 0.239565 0.406214 0.728717
Si Si5 0.236672 0.066462 0.897822
Si Si6 0.576909 0.704711 0.056549
Si Si7 0.513665 0.840983 0.442083
Si Si8 0.641578 0.348388 0.202744
O O1 0.737879 0.213431 0.867216
O O2 0.197621 0.141238 0.658854
O O3 0.898095 0.941932 0.747997
O O4 0.133532 0.878539 0.830659
O O5 0.975335 0.566727 0.740084
O O6 0.493350 0.857949 0.830867
O O7 0.713189 0.709210 0.929716
O O8 0.471213 0.271170 0.456237
O O9 0.365151 0.335547 0.315532
O O10 0.000000 0.500000 0.500000
O O11 0.265592 0.061715 0.475771
O O12 0.170129 0.213940 0.815281
O O13 0.483655 0.315598 0.605086
O O14 0.321766 0.512442 0.759042
O O15 0.326865 0.162850 0.931921
O O16 0.000000 0.000000 0.000000
O O17 0.660840 0.464481 0.095138
#
# Coordination Sequence:
#
# PCOD8002889 Si02
#       8
#     2   2   2   2   2   2   2   2
#     4   9  18  35  58  81 114 154 197 235 279 341
#     4  10  22  38  59  83 120 167 202 231 284 349
#     4  10  21  41  64  87 111 147 196 241 300 361
#     4  10  23  39  56  87 125 149 197 243 294 347
#     4  10  22  37  54  84 123 156 201 248 286 326
#     4  10  20  36  60  84 115 167 208 230 278 350
#     4  10  22  38  62  89 116 147 190 250 299 345
#     4   9  20  38  59  86 115 153 196 241 291 348
#
# _framework density 27.234808999999998
#
# number of rings (size 3 to 8) (size 9 to 14) (size 15 to 20)
#    0.000    2.250    0.000    2.250    3.500    7.500 
#    2.250    0.625    0.000    0.000    0.000    0.000 
#    0.000    0.000    0.000    0.000    0.000    0.000 
#
# Total GULP energy -198253.775503 kJ/mol
# GULP energy per Si atom -12390.860969 kJ/mol
# Density = 2.717282 g / cm^3
# Si number density = 27.234809 Si / 1000 Ang^3
#
#
#
# Elastic Constant Matrix: (Units=GPa)
#
#
# Indices 1 2 3 4 5 6 
#
# 1 38.2963 14.0180 -0.6985 3.5566 -7.8261 -21.7144
# 2 14.0180 136.5737 -8.3604 25.2806 -8.1782 -15.0448
# 3 -0.6985 -8.3604 43.2782 0.8514 3.4949 5.4395
# 4 3.5566 25.2806 0.8514 54.4206 -1.7692 0.3293
# 5 -7.8261 -8.1782 3.4949 -1.7692 36.6528 12.5848
# 6 -21.7144 -15.0448 5.4395 0.3293 12.5848 35.3220
#
#
#
# Elastic Compliance Matrix: (Units=1/GPa)
#
#
# Indices 1 2 3 4 5 6 
#
# 1 0.040932 -0.001188 -0.002679 -0.002233 0.000009 0.025088
# 2 -0.001188 0.008565 0.001351 -0.003923 0.000451 0.002585
# 3 -0.002679 0.001351 0.023978 -0.000837 -0.001099 -0.004365
# 4 -0.002233 -0.003923 -0.000837 0.020406 0.000887 -0.003421
# 5 0.000009 0.000451 -0.001099 0.000887 0.031231 -0.010769
# 6 0.025088 0.002585 -0.004365 -0.003421 -0.010769 0.049376
#
#
# Mechanical properties :
#
#
# Convention : Reuss Voigt Hill
#
# Bulk Modulus (GPa) = 14.61053 25.34072 19.97563
# Shear Modulus (GPa) = 24.71175 39.49170 32.10172
#
# Velocity S-wave (km/s) = 3.01551 3.81208 3.43695
# Velocity P-wave (km/s) = 4.18338 5.35730 4.80631
#
# Compressibility (1/GPa) = 0.06844379
#
# Stress axis : x y z
#
# Youngs Moduli (GPa) = 24.43067 116.75807 41.70520
#
# Poissons Ratio (x) = 0.13869 0.11172
# Poissons Ratio (y) = 0.02902 -0.05635
# Poissons Ratio (z) = 0.06544 -0.15775
#
# Static dielectric constant tensor:
#      x y z
#    x 5.069880 0.056140 0.180670 
#    y 0.056140 5.782530 0.049560 
#    z 0.180670 0.049560 5.042900 
# 
# 
# High freq. dielectric constant tensor:
#      x y z
#    x 2.085360 0.010750 0.011530 
#    y 0.010750 2.123160 0.006920 
#    z 0.011530 0.006920 2.087590 
# 
# From -- ./inp_files/587880.got.cif
#   From: 2010.06.25/outbox.cif.g09.slc.cpg/sg2_294_cif.got.tgz:587880.got - 2010.06.27 13:26:56.
