data_PCOD8002096
_publ_section_title
;
Structure prediction by ZEFSAII (Michael W. Deem and Ramdas Pophale) SiO2 
 PCOD8002096
Probable space group: P -1
;
_chemical_formula_sum "Si O2"
_cell_formula_units_Z 16
_cell_length_a 24.400135
_cell_length_b 14.315783
_cell_length_c 14.995390
_cell_angle_alpha 160.158302
_cell_angle_beta 150.812020
_cell_angle_gamma 31.285264
_cell_volume 849.207563
_symmetry_space_group_name_H-M "P -1"
_symmetry_group_IT_number 2
_symmetry_cell_setting 'triclinic'
loop_
_space_group_symop_operation_xyz
x,y,z
-x,-y,-z
loop_
_atom_site_type_symbol
_atom_site_label
_atom_site_fract_x
_atom_site_fract_y
_atom_site_fract_z
Si Si1 0.549318 0.269281 0.291109
Si Si2 0.204678 0.694829 0.956841
Si Si3 0.244673 0.021886 0.588204
Si Si4 0.152543 0.324213 0.391371
Si Si5 0.108759 0.618415 0.938793
Si Si6 0.534970 0.114234 0.787071
Si Si7 0.358462 0.368352 0.615227
Si Si8 0.415822 0.268299 0.933000
O O1 0.500000 0.500000 0.500000
O O2 0.687804 0.175884 0.414768
O O3 0.505815 0.367529 0.218544
O O4 0.500000 0.000000 0.000000
O O5 0.158174 0.567496 0.688828
O O6 0.122246 0.645946 0.876553
O O7 0.336915 0.550770 0.034577
O O8 0.201339 0.023076 0.234670
O O9 0.179522 0.316986 0.801926
O O10 0.336360 0.074515 0.691204
O O11 0.153330 0.866920 0.274422
O O12 0.225877 0.369299 0.448826
O O13 0.023712 0.349711 0.196877
O O14 0.428485 0.233150 0.679175
O O15 0.488314 0.087045 0.795606
O O16 0.600569 0.808671 0.574320
O O17 0.626324 0.316555 0.096520
#
# Coordination Sequence:
#
# PCOD8002096 Si02
#       8
#     2   2   2   2   2   2   2   2
#     4  10  20  35  55  81 110 138 171 216 268 326
#     4  11  21  32  51  78 108 138 176 213 253 325
#     4  10  21  37  53  82 108 136 175 220 259 320
#     4  12  22  36  51  74 106 147 179 217 257 299
#     4  11  22  35  53  75 106 144 179 214 257 313
#     4  10  21  35  52  74 104 141 176 218 264 307
#     4  10  22  35  50  73 105 140 183 221 251 304
#     4  10  21  35  57  80 110 145 169 213 276 322
#
# _framework density 18.841094999999999
#
# number of rings (size 3 to 8) (size 9 to 14) (size 15 to 20)
#    0.000    1.500    1.250    6.000    3.500    4.000 
#    0.000    0.000    0.000    0.000    0.000    5.250 
#    0.000    0.000    0.000    0.000    0.000    0.000 
#
# Total GULP energy -198430.022559 kJ/mol
# GULP energy per Si atom -12401.876410 kJ/mol
# Density = 1.879821 g / cm^3
# Si number density = 18.841095 Si / 1000 Ang^3
#
#
#
# Elastic Constant Matrix: (Units=GPa)
#
#
# Indices 1 2 3 4 5 6 
#
# 1 73.7928 31.6392 31.5122 -18.8976 -5.3519 -22.0707
# 2 31.6392 84.5469 29.5616 -11.8241 6.6761 -7.5981
# 3 31.5122 29.5616 88.7029 1.7447 -9.1257 -6.8722
# 4 -18.8976 -11.8241 1.7447 31.7747 -2.7529 1.1259
# 5 -5.3519 6.6761 -9.1257 -2.7529 26.7815 -5.4943
# 6 -22.0707 -7.5981 -6.8722 1.1259 -5.4943 21.5061
#
#
#
# Elastic Compliance Matrix: (Units=1/GPa)
#
#
# Indices 1 2 3 4 5 6 
#
# 1 0.035831 -0.006458 -0.006592 0.019381 0.015778 0.035400
# 2 -0.006458 0.016201 -0.004240 0.001927 -0.007450 -0.004262
# 3 -0.006592 -0.004240 0.015396 -0.005929 0.003962 -0.002021
# 4 0.019381 0.001927 -0.005929 0.044221 0.009787 0.018862
# 5 0.015778 -0.007450 0.003962 0.009787 0.050277 0.027158
# 6 0.035400 -0.004262 -0.002021 0.018862 0.027158 0.086627
#
#
# Mechanical properties :
#
#
# Convention : Reuss Voigt Hill
#
# Bulk Modulus (GPa) = 30.44261 48.05204 39.24732
# Shear Modulus (GPa) = 17.00208 26.30111 21.65160
#
# Velocity S-wave (km/s) = 3.00725 3.74029 3.39362
# Velocity P-wave (km/s) = 5.31514 6.64923 6.01926
#
# Compressibility (1/GPa) = 0.03284870
#
# Stress axis : x y z
#
# Youngs Moduli (GPa) = 27.90900 61.72270 64.95121
#
# Poissons Ratio (x) = 0.39858 0.42818
# Poissons Ratio (y) = 0.18023 0.27539
# Poissons Ratio (z) = 0.18399 0.26170
#
# Static dielectric constant tensor:
#      x y z
#    x 3.366040 0.089610 -0.192950 
#    y 0.089610 3.809790 -0.141780 
#    z -0.192950 -0.141780 3.663210 
# 
# 
# High freq. dielectric constant tensor:
#      x y z
#    x 1.696360 -0.015230 -0.005390 
#    y -0.015230 1.718300 0.009270 
#    z -0.005390 0.009270 1.750350 
# 
# From -- ./inp_files/94811.got.cif
#   From: 2010.06.25/outbox.cif.g09.slc.cpg/sg2_48_cif.got.tgz:94811.got - 2010.06.27 13:26:56.
