data_PCOD8002610
_publ_section_title
;
Structure prediction by ZEFSAII (Michael W. Deem and Ramdas Pophale) SiO2 
 PCOD8002610
Probable space group: P -1
;
_chemical_formula_sum "Si O2"
_cell_formula_units_Z 16
_cell_length_a 14.291209
_cell_length_b 8.836208
_cell_length_c 14.755833
_cell_angle_alpha 105.599076
_cell_angle_beta 137.495131
_cell_angle_gamma 107.182207
_cell_volume 790.128985
_symmetry_space_group_name_H-M "P -1"
_symmetry_group_IT_number 2
_symmetry_cell_setting 'triclinic'
loop_
_space_group_symop_operation_xyz
x,y,z
-x,-y,-z
loop_
_atom_site_type_symbol
_atom_site_label
_atom_site_fract_x
_atom_site_fract_y
_atom_site_fract_z
Si Si1 0.729105 0.231580 0.160544
Si Si2 0.843974 0.543799 0.438885
Si Si3 0.607765 0.958917 0.450168
Si Si4 0.193314 0.615912 0.218848
Si Si5 0.340335 0.348592 0.575204
Si Si6 0.287016 0.187134 0.154944
Si Si7 0.514851 0.952646 0.789522
Si Si8 0.815827 0.715307 0.738158
O O1 0.810178 0.470791 0.296184
O O2 0.909980 0.262879 0.325488
O O3 0.693249 0.186745 0.019964
O O4 0.500000 0.000000 0.000000
O O5 0.782021 0.672042 0.432676
O O6 0.689335 0.294184 0.344628
O O7 0.396120 0.759202 0.324942
O O8 0.718062 0.883697 0.506484
O O9 0.562888 0.977379 0.320093
O O10 0.772066 0.214583 0.657879
O O11 0.143280 0.415696 0.205991
O O12 0.000000 0.500000 0.000000
O O13 0.593582 0.602628 0.802273
O O14 0.288988 0.397100 0.452516
O O15 0.324121 0.287653 0.299451
O O16 0.367852 0.077552 0.192044
O O17 0.040900 0.991410 0.923955
#
# Coordination Sequence:
#
# PCOD8002610 Si02
#       8
#     2   2   2   2   2   2   2   2
#     4   9  18  37  64  88 108 138 183 239 283 345
#     4   9  19  36  63  88 108 142 188 232 289 341
#     4  11  25  36  54  82 118 155 194 237 286 336
#     4  11  24  39  54  76 115 162 202 239 281 330
#     4  11  22  37  57  84 118 149 193 242 280 336
#     4  10  21  34  56  81 108 152 198 239 276 328
#     4  10  20  36  56  83 116 148 189 232 284 339
#     4  11  22  35  56  78 112 157 199 237 283 324
#
# _framework density 20.249859000000001
#
# number of rings (size 3 to 8) (size 9 to 14) (size 15 to 20)
#    0.000    1.750    1.250    3.375    7.000    1.000 
#    0.000    0.625    0.000    6.750    0.000    0.000 
#    0.000    0.000    0.000    0.000    0.000    0.000 
#
# Total GULP energy -198336.544581 kJ/mol
# GULP energy per Si atom -12396.034036 kJ/mol
# Density = 2.020377 g / cm^3
# Si number density = 20.249859 Si / 1000 Ang^3
#
#
#
# Elastic Constant Matrix: (Units=GPa)
#
#
# Indices 1 2 3 4 5 6 
#
# 1 134.9279 41.0985 53.5971 1.5187 -11.6711 -39.8821
# 2 41.0985 83.0334 32.7978 -12.0137 -16.5095 -23.5149
# 3 53.5971 32.7978 116.1116 -3.2428 -18.5629 -11.7874
# 4 1.5187 -12.0137 -3.2428 24.6585 5.0834 2.6752
# 5 -11.6711 -16.5095 -18.5629 5.0834 36.7953 5.3971
# 6 -39.8821 -23.5149 -11.7874 2.6752 5.3971 25.7895
#
#
#
# Elastic Compliance Matrix: (Units=1/GPa)
#
#
# Indices 1 2 3 4 5 6 
#
# 1 0.016582 -0.000068 -0.005416 -0.004251 -0.000382 0.023626
# 2 -0.000068 0.019109 -0.003086 0.006526 0.003982 0.014398
# 3 -0.005416 -0.003086 0.011940 0.000321 0.003840 -0.006569
# 4 -0.004251 0.006526 0.000321 0.045310 -0.003878 -0.004366
# 5 -0.000382 0.003982 0.003840 -0.003878 0.031521 -0.001398
# 6 0.023626 0.014398 -0.006569 -0.004366 -0.001398 0.086183
#
#
# Mechanical properties :
#
#
# Convention : Reuss Voigt Hill
#
# Bulk Modulus (GPa) = 32.79637 65.45110 49.12374
# Shear Modulus (GPa) = 21.01279 31.22063 26.11671
#
# Velocity S-wave (km/s) = 3.22479 3.93080 3.59517
# Velocity P-wave (km/s) = 5.48605 7.27966 6.44555
#
# Compressibility (1/GPa) = 0.03049118
#
# Stress axis : x y z
#
# Youngs Moduli (GPa) = 60.30678 52.33047 83.75048
#
# Poissons Ratio (x) = 0.00356 0.45361
# Poissons Ratio (y) = 0.00411 0.25844
# Poissons Ratio (z) = 0.32663 0.16148
#
# Static dielectric constant tensor:
#      x y z
#    x 4.076310 -0.084750 -0.186880 
#    y -0.084750 3.300060 0.181380 
#    z -0.186880 0.181380 3.913780 
# 
# 
# High freq. dielectric constant tensor:
#      x y z
#    x 1.805340 -0.013100 -0.001250 
#    y -0.013100 1.746250 0.017050 
#    z -0.001250 0.017050 1.806020 
# 
# From -- ./inp_files/313700.got.cif
#   From: 2010.06.25/outbox.cif.g09.slc.cpg/sg2_157_cif.got.tgz:313700.got - 2010.06.27 13:26:56.
