data_PCOD8002051
_publ_section_title
;
Structure prediction by ZEFSAII (Michael W. Deem and Ramdas Pophale) SiO2 
 PCOD8002051
Probable space group: P -1
;
_chemical_formula_sum "Si O2"
_cell_formula_units_Z 14
_cell_length_a 21.590983
_cell_length_b 10.765083
_cell_length_c 25.399515
_cell_angle_alpha 33.376578
_cell_angle_beta 14.594440
_cell_angle_gamma 41.202707
_cell_volume 749.278391
_symmetry_space_group_name_H-M "P -1"
_symmetry_group_IT_number 2
_symmetry_cell_setting 'triclinic'
loop_
_space_group_symop_operation_xyz
x,y,z
-x,-y,-z
loop_
_atom_site_type_symbol
_atom_site_label
_atom_site_fract_x
_atom_site_fract_y
_atom_site_fract_z
Si Si1 0.008371 0.997811 0.749811
Si Si2 0.839799 0.111275 0.628142
Si Si3 0.704537 0.542634 0.580555
Si Si4 0.546985 0.280069 0.361877
Si Si5 0.148266 0.576398 0.753639
Si Si6 0.272944 0.039143 0.114966
Si Si7 0.603840 0.610947 0.293038
O O1 0.898026 0.032572 0.771862
O O2 0.190566 0.840588 0.650218
O O3 0.762539 0.858730 0.041464
O O4 0.193604 0.267561 0.522471
O O5 0.903207 0.398806 0.459931
O O6 0.914816 0.093350 0.634039
O O7 0.519513 0.949332 0.940265
O O8 0.000000 0.000000 0.500000
O O9 0.686827 0.686889 0.491411
O O10 0.404709 0.335681 0.911895
O O11 0.529363 0.369757 0.403603
O O12 0.500000 0.000000 0.500000
O O13 0.838371 0.437016 0.041344
O O14 0.331522 0.621092 0.535382
O O15 0.214997 0.408843 0.800771
#
# Coordination Sequence:
#
# PCOD8002051 Si02
#       7
#     2   2   2   2   2   2   2
#     4  11  20  38  58  81 116 149 188 235 284 337
#     4   9  19  40  61  81 116 146 183 241 286 329
#     4  10  20  38  58  86 112 150 193 230 279 344
#     4  11  20  36  58  83 117 156 188 231 286 334
#     4  10  20  35  55  78 116 155 188 241 281 323
#     4   9  20  38  58  83 111 145 189 233 282 337
#     4  10  20  35  53  81 116 151 195 236 276 336
#
# _framework density 18.684643999999999
#
# number of rings (size 3 to 8) (size 9 to 14) (size 15 to 20)
#    0.857    1.143    2.857    3.429    0.000    3.429 
#    2.571    0.714    0.000    0.000    0.000    0.000 
#    0.000    0.000    0.000    0.000    0.000    0.000 
#
# Total GULP energy -173500.704586 kJ/mol
# GULP energy per Si atom -12392.907470 kJ/mol
# Density = 1.864212 g / cm^3
# Si number density = 18.684644 Si / 1000 Ang^3
#
#
#
# Elastic Constant Matrix: (Units=GPa)
#
#
# Indices 1 2 3 4 5 6 
#
# 1 134.0114 41.2258 40.6265 2.6413 2.6815 -3.1729
# 2 41.2258 134.2533 57.4306 -1.0663 6.8979 4.4917
# 3 40.6265 57.4306 62.2834 8.7496 2.0115 17.4782
# 4 2.6413 -1.0663 8.7496 38.9898 12.5217 2.3129
# 5 2.6815 6.8979 2.0115 12.5217 27.9798 -2.4982
# 6 -3.1729 4.4917 17.4782 2.3129 -2.4982 30.4992
#
#
#
# Elastic Compliance Matrix: (Units=1/GPa)
#
#
# Indices 1 2 3 4 5 6 
#
# 1 0.010128 0.000535 -0.008917 0.001113 -0.000427 0.005965
# 2 0.000535 0.013934 -0.015469 0.004711 -0.003930 0.006189
# 3 -0.008917 -0.015469 0.043710 -0.009486 0.003747 -0.022672
# 4 0.001113 0.004711 -0.009486 0.032603 -0.015074 0.001151
# 5 -0.000427 -0.003930 0.003747 -0.015074 0.043503 0.003094
# 6 0.005965 0.006189 -0.022672 0.001151 0.003094 0.045656
#
#
# Mechanical properties :
#
#
# Convention : Reuss Voigt Hill
#
# Bulk Modulus (GPa) = 49.82388 67.67930 58.75159
# Shear Modulus (GPa) = 20.49811 32.24477 26.37144
#
# Velocity S-wave (km/s) = 3.31578 4.15871 3.76093
# Velocity P-wave (km/s) = 6.43294 7.70456 7.09729
#
# Compressibility (1/GPa) = 0.02007070
#
# Stress axis : x y z
#
# Youngs Moduli (GPa) = 98.73218 71.76761 22.87808
#
# Poissons Ratio (x) = -0.03843 0.20400
# Poissons Ratio (y) = -0.05287 0.35391
# Poissons Ratio (z) = 0.88039 1.11019
#
# Static dielectric constant tensor:
#      x y z
#    x 3.589070 -0.190550 0.012340 
#    y -0.190550 3.479220 -0.008580 
#    z 0.012340 -0.008580 3.174510 
# 
# 
# High freq. dielectric constant tensor:
#      x y z
#    x 1.737560 -0.009590 -0.002550 
#    y -0.009590 1.720420 -0.001030 
#    z -0.002550 -0.001030 1.692280 
# 
# From -- ./inp_files/599186.got.cif
#   From: 2010.06.25/outbox.cif.g09.slc.cpg/sg2_300_cif.got.tgz:599186.got - 2010.06.27 13:26:56.
