data_PCOD8002069
_publ_section_title
;
Structure prediction by ZEFSAII (Michael W. Deem and Ramdas Pophale) SiO2 
 PCOD8002069
Probable space group: P -1
;
_chemical_formula_sum "Si O2"
_cell_formula_units_Z 16
_cell_length_a 17.611199
_cell_length_b 8.448612
_cell_length_c 8.444934
_cell_angle_alpha 128.443612
_cell_angle_beta 53.017100
_cell_angle_gamma 120.268872
_cell_volume 768.975366
_symmetry_space_group_name_H-M "P -1"
_symmetry_group_IT_number 2
_symmetry_cell_setting 'triclinic'
loop_
_space_group_symop_operation_xyz
x,y,z
-x,-y,-z
loop_
_atom_site_type_symbol
_atom_site_label
_atom_site_fract_x
_atom_site_fract_y
_atom_site_fract_z
Si Si1 0.150897 0.633717 0.786185
Si Si2 0.497829 0.303838 0.099030
Si Si3 0.345590 0.528490 0.545364
Si Si4 0.650024 0.669149 0.241533
Si Si5 0.502367 0.104978 0.309922
Si Si6 0.974161 0.304270 0.748327
Si Si7 0.153215 0.060036 0.901579
Si Si8 0.965289 0.023535 0.306262
O O1 0.240530 0.519530 0.594950
O O2 0.181513 0.852159 0.798269
O O3 0.055073 0.509855 0.738957
O O4 0.122114 0.652551 0.019059
O O5 0.402132 0.403183 0.276709
O O6 0.592277 0.490424 0.086755
O O7 0.499834 0.189374 0.189985
O O8 0.496693 0.140632 0.854282
O O9 0.335343 0.422989 0.663274
O O10 0.401869 0.767715 0.642547
O O11 0.591472 0.854757 0.451837
O O12 0.753085 0.756694 0.084638
O O13 0.026516 0.171129 0.718323
O O14 0.939672 0.199155 0.560488
O O15 0.123247 0.039684 0.742512
O O16 0.066062 0.116295 0.148171
#
# Coordination Sequence:
#
# PCOD8002069 Si02
#       8
#     2   2   2   2   2   2   2   2
#     4  10  20  35  54  81 114 141 180 229 273 322
#     4   8  15  31  52  77 107 142 183 228 265 316
#     4   9  17  32  54  79 107 145 183 227 265 317
#     4   9  17  32  54  78 111 143 179 226 275 320
#     4   8  15  31  52  78 106 138 189 226 261 320
#     4   9  19  38  58  77 105 144 190 225 260 329
#     4  10  20  35  54  81 117 143 171 230 283 323
#     4   9  19  38  58  77 106 147 185 221 274 326
#
# _framework density 20.806908
#
# number of rings (size 3 to 8) (size 9 to 14) (size 15 to 20)
#    0.000    3.000    0.000    2.250    0.000    1.500 
#   18.000    2.500    0.000    1.500    0.000    0.000 
#    0.000    0.000    0.000    0.000    0.000    0.000 
#
# Total GULP energy -198348.718528 kJ/mol
# GULP energy per Si atom -12396.794908 kJ/mol
# Density = 2.075955 g / cm^3
# Si number density = 20.806908 Si / 1000 Ang^3
#
#
#
# Elastic Constant Matrix: (Units=GPa)
#
#
# Indices 1 2 3 4 5 6 
#
# 1 56.8845 28.9297 33.5993 -1.2080 -17.2690 4.0374
# 2 28.9297 101.3921 40.1832 6.3203 -7.2346 28.8962
# 3 33.5993 40.1832 94.5123 26.3700 -3.5215 14.5329
# 4 -1.2080 6.3203 26.3700 30.9593 3.1838 -1.5304
# 5 -17.2690 -7.2346 -3.5215 3.1838 30.0422 -2.8086
# 6 4.0374 28.8962 14.5329 -1.5304 -2.8086 21.6158
#
#
#
# Elastic Compliance Matrix: (Units=1/GPa)
#
#
# Indices 1 2 3 4 5 6 
#
# 1 0.035308 -0.009346 -0.015305 0.015594 0.016415 0.019425
# 2 -0.009346 0.019965 0.000335 -0.005765 -0.002333 -0.025881
# 3 -0.015305 0.000335 0.024150 -0.021503 -0.005104 -0.016012
# 4 0.015594 -0.005765 -0.021503 0.053388 0.001569 0.023235
# 5 0.016415 -0.002333 -0.005104 0.001569 0.042245 0.009085
# 6 0.019425 -0.025881 -0.016012 0.023235 0.009085 0.090823
#
#
# Mechanical properties :
#
#
# Convention : Reuss Voigt Hill
#
# Bulk Modulus (GPa) = 32.47475 50.91259 41.69367
# Shear Modulus (GPa) = 15.39531 26.52857 20.96194
#
# Velocity S-wave (km/s) = 2.72309 3.57457 3.17748
# Velocity P-wave (km/s) = 5.05257 6.44662 5.79169
#
# Compressibility (1/GPa) = 0.03079315
#
# Stress axis : x y z
#
# Youngs Moduli (GPa) = 28.32238 50.08728 41.40713
#
# Poissons Ratio (x) = 0.46809 0.63373
# Poissons Ratio (y) = 0.26469 -0.01388
# Poissons Ratio (z) = 0.43347 -0.01679
#
# Static dielectric constant tensor:
#      x y z
#    x 3.440030 0.106500 -0.040420 
#    y 0.106500 3.761700 0.222380 
#    z -0.040420 0.222380 3.903460 
# 
# 
# High freq. dielectric constant tensor:
#      x y z
#    x 1.792890 0.006740 -0.006880 
#    y 0.006740 1.813220 0.005760 
#    z -0.006880 0.005760 1.805840 
# 
# From -- ./inp_files/328519.got.cif
#   From: 2010.06.25/outbox.cif.g09.slc.cpg/sg2_165_cif.got.tgz:328519.got - 2010.06.27 13:26:56.
