data_PCOD8002651
_publ_section_title
;
Structure prediction by ZEFSAII (Michael W. Deem and Ramdas Pophale) SiO2 
 PCOD8002651
Probable space group: P -1
;
_chemical_formula_sum "Si O2"
_cell_formula_units_Z 16
_cell_length_a 8.973292
_cell_length_b 6.150651
_cell_length_c 20.359383
_cell_angle_alpha 112.868720
_cell_angle_beta 65.703520
_cell_angle_gamma 131.919602
_cell_volume 751.254471
_symmetry_space_group_name_H-M "P -1"
_symmetry_group_IT_number 2
_symmetry_cell_setting 'triclinic'
loop_
_space_group_symop_operation_xyz
x,y,z
-x,-y,-z
loop_
_atom_site_type_symbol
_atom_site_label
_atom_site_fract_x
_atom_site_fract_y
_atom_site_fract_z
Si Si1 0.733518 0.057679 0.665144
Si Si2 0.413136 0.667534 0.959755
Si Si3 0.054887 0.654850 0.212820
Si Si4 0.094348 0.643884 0.594752
Si Si5 0.302038 0.922777 0.721564
Si Si6 0.130680 0.261679 0.456882
Si Si7 0.140467 0.235086 0.853670
Si Si8 0.784761 0.661061 0.912653
O O1 0.819775 0.085519 0.725998
O O2 0.899128 0.347819 0.627757
O O3 0.531851 0.037131 0.701748
O O4 0.693771 0.762509 0.606004
O O5 0.286831 0.554384 0.900805
O O6 0.599750 0.650947 0.915498
O O7 0.255663 0.438617 0.016349
O O8 0.500000 0.000000 0.000000
O O9 0.202238 0.565454 0.158351
O O10 0.839349 0.381478 0.248965
O O11 0.011652 0.771494 0.170227
O O12 0.247655 0.878484 0.649054
O O13 0.217491 0.567232 0.515486
O O14 0.016880 0.793370 0.582814
O O15 0.280513 0.167248 0.782531
O O16 0.000000 0.000000 0.500000
O O17 0.999269 0.987945 0.905605
#
# Coordination Sequence:
#
# PCOD8002651 Si02
#       8
#     2   2   2   2   2   2   2   2
#     4  10  20  36  57  83 114 151 191 236 284 336
#     4  11  24  40  62  89 116 150 194 241 293 351
#     4  10  22  38  59  85 115 151 194 237 285 342
#     4   9  19  37  56  82 115 151 190 233 285 338
#     4  10  22  37  58  85 115 151 195 238 282 342
#     4   9  18  35  58  81 116 152 185 235 287 334
#     4  11  23  40  61  85 117 156 193 239 294 347
#     4  10  23  41  60  85 118 153 191 240 290 349
#
# _framework density 21.297711
#
# number of rings (size 3 to 8) (size 9 to 14) (size 15 to 20)
#    0.000    2.000    0.000    2.625    0.000    9.500 
#    0.000    5.625    0.000    0.000    0.000    0.000 
#    0.000    0.000    0.000    0.000    0.000    0.000 
#
# Total GULP energy -198375.836601 kJ/mol
# GULP energy per Si atom -12398.489788 kJ/mol
# Density = 2.124924 g / cm^3
# Si number density = 21.297711 Si / 1000 Ang^3
#
#
#
# Elastic Constant Matrix: (Units=GPa)
#
#
# Indices 1 2 3 4 5 6 
#
# 1 127.7359 52.5412 80.3804 1.6311 2.7786 -7.1157
# 2 52.5412 59.6121 57.3742 17.1369 -0.6452 -5.6403
# 3 80.3804 57.3742 142.4820 18.5432 -3.8348 7.1359
# 4 1.6311 17.1369 18.5432 21.3341 -1.6821 2.5279
# 5 2.7786 -0.6452 -3.8348 -1.6821 46.0050 0.6649
# 6 -7.1157 -5.6403 7.1359 2.5279 0.6649 30.7726
#
#
#
# Elastic Compliance Matrix: (Units=1/GPa)
#
#
# Indices 1 2 3 4 5 6 
#
# 1 0.017133 -0.012750 -0.006522 0.014264 -0.001265 0.001993
# 2 -0.012750 0.044428 -0.007340 -0.029471 -0.000431 0.009327
# 3 -0.006522 -0.007340 0.014711 -0.005590 0.001397 -0.005836
# 4 0.014264 -0.029471 -0.005590 0.075233 0.001111 -0.007011
# 5 -0.001265 -0.000431 0.001397 0.001111 0.021982 -0.001262
# 6 0.001993 0.009327 -0.005836 -0.007011 -0.001262 0.036623
#
#
# Mechanical properties :
#
#
# Convention : Reuss Voigt Hill
#
# Bulk Modulus (GPa) = 43.38864 78.93572 61.16218
# Shear Modulus (GPa) = 18.44900 28.92463 23.68682
#
# Velocity S-wave (km/s) = 2.94639 3.68925 3.33855
# Velocity P-wave (km/s) = 5.65612 7.43579 6.60616
#
# Compressibility (1/GPa) = 0.02304751
#
# Stress axis : x y z
#
# Youngs Moduli (GPa) = 58.36546 22.50857 67.97669
#
# Poissons Ratio (x) = 0.28698 0.44334
# Poissons Ratio (y) = 0.74415 0.49898
# Poissons Ratio (z) = 0.38066 0.16522
#
# Static dielectric constant tensor:
#      x y z
#    x 3.716250 -0.202030 -0.118290 
#    y -0.202030 3.667670 0.048120 
#    z -0.118290 0.048120 4.385700 
# 
# 
# High freq. dielectric constant tensor:
#      x y z
#    x 1.833050 -0.015190 -0.003350 
#    y -0.015190 1.813960 0.001470 
#    z -0.003350 0.001470 1.860220 
# 
# From -- ./inp_files/13673.got.cif
#   From: 2010.06.25/outbox.cif.g09.slc.cpg/sg2_7_cif.got.tgz:13673.got - 2010.06.27 13:26:56.
