data_PCOD8002662
_publ_section_title
;
Structure prediction by ZEFSAII (Michael W. Deem and Ramdas Pophale) SiO2 
 PCOD8002662
Probable space group: P -1
;
_chemical_formula_sum "Si O2"
_cell_formula_units_Z 16
_cell_length_a 8.809535
_cell_length_b 14.844519
_cell_length_c 12.095483
_cell_angle_alpha 115.702972
_cell_angle_beta 37.987598
_cell_angle_gamma 128.336690
_cell_volume 758.640780
_symmetry_space_group_name_H-M "P -1"
_symmetry_group_IT_number 2
_symmetry_cell_setting 'triclinic'
loop_
_space_group_symop_operation_xyz
x,y,z
-x,-y,-z
loop_
_atom_site_type_symbol
_atom_site_label
_atom_site_fract_x
_atom_site_fract_y
_atom_site_fract_z
Si Si1 0.249259 0.060182 0.032806
Si Si2 0.571727 0.660142 0.549983
Si Si3 0.872063 0.132923 0.698977
Si Si4 0.760298 0.543776 0.532730
Si Si5 0.893761 0.825700 0.012018
Si Si6 0.652985 0.359807 0.656428
Si Si7 0.887992 0.015249 0.416091
Si Si8 0.338190 0.783569 0.628699
O O1 0.579159 0.116892 0.907899
O O2 0.254166 0.119027 0.945671
O O3 0.120133 0.922525 0.016862
O O4 0.052086 0.080527 0.244219
O O5 0.633128 0.629166 0.622708
O O6 0.349111 0.544068 0.553921
O O7 0.445529 0.747611 0.660522
O O8 0.880944 0.734095 0.349830
O O9 0.869581 0.108176 0.555248
O O10 0.922260 0.037080 0.676172
O O11 0.657176 0.476526 0.673354
O O12 0.106757 0.612825 0.373748
O O13 0.042529 0.775762 0.821433
O O14 0.658243 0.721132 0.162022
O O15 0.719778 0.305150 0.483303
O O16 0.565891 0.912114 0.525003
#
# Coordination Sequence:
#
# PCOD8002662 Si02
#       8
#     2   2   2   2   2   2   2   2
#     4  11  22  35  54  86 123 154 190 228 277 354
#     4   9  19  37  61  85 113 149 195 245 287 335
#     4  10  20  36  59  85 118 152 187 234 287 346
#     4   9  19  38  63  86 107 150 202 242 290 337
#     4  11  23  35  56  87 118 155 191 230 286 348
#     4  10  20  39  64  83 115 154 190 242 294 336
#     4  10  20  36  57  85 119 155 188 227 285 350
#     4  10  20  38  59  84 121 154 186 236 290 344
#
# _framework density 21.090350999999998
#
# number of rings (size 3 to 8) (size 9 to 14) (size 15 to 20)
#    0.000    2.000    2.500    1.125    0.000    2.500 
#    0.000    6.250    0.000    3.000    0.000    0.000 
#    0.000    0.000    0.000    0.000    0.000    0.000 
#
# Total GULP energy -198280.800050 kJ/mol
# GULP energy per Si atom -12392.550003 kJ/mol
# Density = 2.104235 g / cm^3
# Si number density = 21.090351 Si / 1000 Ang^3
#
#
#
# Elastic Constant Matrix: (Units=GPa)
#
#
# Indices 1 2 3 4 5 6 
#
# 1 89.9682 21.9324 23.8072 -11.0795 -13.5257 -0.7780
# 2 21.9324 57.6160 34.1096 -15.5922 -11.3241 4.4047
# 3 23.8072 34.1096 119.6865 -7.3029 -12.2749 0.8699
# 4 -11.0795 -15.5922 -7.3029 24.5048 5.8537 0.3057
# 5 -13.5257 -11.3241 -12.2749 5.8537 30.5373 -3.2801
# 6 -0.7780 4.4047 0.8699 0.3057 -3.2801 28.0369
#
#
#
# Elastic Compliance Matrix: (Units=1/GPa)
#
#
# Indices 1 2 3 4 5 6 
#
# 1 0.013065 -0.002822 -0.001239 0.002810 0.003840 0.001263
# 2 -0.002822 0.026305 -0.005778 0.013003 0.003283 -0.003789
# 3 -0.001239 -0.005778 0.010335 -0.001610 0.001856 0.000787
# 4 0.002810 0.013003 -0.001610 0.051030 -0.004687 -0.003020
# 5 0.003840 0.003283 0.001856 -0.004687 0.037739 0.003999
# 6 0.001263 -0.003789 0.000787 -0.003020 0.003999 0.036774
#
#
# Mechanical properties :
#
#
# Convention : Reuss Voigt Hill
#
# Bulk Modulus (GPa) = 33.30201 47.44101 40.37151
# Shear Modulus (GPa) = 24.39830 29.11057 26.75444
#
# Velocity S-wave (km/s) = 3.40493 3.71924 3.56555
# Velocity P-wave (km/s) = 5.59308 6.40208 6.01121
#
# Compressibility (1/GPa) = 0.03002822
#
# Stress axis : x y z
#
# Youngs Moduli (GPa) = 76.54152 38.01598 96.76277
#
# Poissons Ratio (x) = 0.10727 0.11985
# Poissons Ratio (y) = 0.21597 0.55907
# Poissons Ratio (z) = 0.09480 0.21965
#
# Static dielectric constant tensor:
#      x y z
#    x 4.117810 -0.106580 0.000410 
#    y -0.106580 3.892040 -0.249050 
#    z 0.000410 -0.249050 3.488280 
# 
# 
# High freq. dielectric constant tensor:
#      x y z
#    x 1.836830 -0.002580 -0.011060 
#    y -0.002580 1.820470 -0.027710 
#    z -0.011060 -0.027710 1.793520 
# 
# From -- ./inp_files/200969.got.cif
#   From: 2010.06.25/outbox.cif.g09.slc.cpg/sg2_101_cif.got.tgz:200969.got - 2010.06.27 13:26:56.
