data_PCOD8002548
_publ_section_title
;
Structure prediction by ZEFSAII (Michael W. Deem and Ramdas Pophale) SiO2 
 PCOD8002548
Probable space group: P -1
;
_chemical_formula_sum "Si O2"
_cell_formula_units_Z 14
_cell_length_a 25.421046
_cell_length_b 5.358767
_cell_length_c 9.987250
_cell_angle_alpha 102.054431
_cell_angle_beta 38.665407
_cell_angle_gamma 119.073745
_cell_volume 705.726538
_symmetry_space_group_name_H-M "P -1"
_symmetry_group_IT_number 2
_symmetry_cell_setting 'triclinic'
loop_
_space_group_symop_operation_xyz
x,y,z
-x,-y,-z
loop_
_atom_site_type_symbol
_atom_site_label
_atom_site_fract_x
_atom_site_fract_y
_atom_site_fract_z
Si Si1 0.565981 0.962794 0.970764
Si Si2 0.803846 0.632709 0.213310
Si Si3 0.889338 0.293139 0.147273
Si Si4 0.337018 0.616441 0.781662
Si Si5 0.730380 0.863512 0.598003
Si Si6 0.472897 0.266473 0.699215
Si Si7 0.680895 0.575254 0.928066
O O1 0.661771 0.283106 0.855532
O O2 0.617656 0.787563 0.790699
O O3 0.500000 0.000000 0.000000
O O4 0.501980 0.812807 0.214390
O O5 0.866461 0.481455 0.108702
O O6 0.737862 0.453679 0.197482
O O7 0.736392 0.609077 0.472453
O O8 0.875175 0.988813 0.073988
O O9 0.814914 0.192092 0.411983
O O10 0.000000 0.500000 0.000000
O O11 0.422598 0.546875 0.565328
O O12 0.391520 0.967811 0.747979
O O13 0.274086 0.408300 0.011789
O O14 0.747773 0.850226 0.723289
O O15 0.427101 0.471651 0.835250
#
# Coordination Sequence:
#
# PCOD8002548 Si02
#       7
#     2   2   2   2   2   2   2
#     4  10  21  32  52  82 121 158 209 246 291 347
#     4  10  23  37  68  91 120 153 201 252 305 361
#     4  10  22  41  65  95 119 148 197 257 317 362
#     4  10  21  36  54  82 120 161 210 239 296 350
#     4   9  22  35  59  85 115 159 195 246 305 351
#     4   9  21  33  52  77 118 171 202 248 281 345
#     4  10  20  36  50  80 115 164 200 243 295 342
#
# _framework density 19.837712
#
# number of rings (size 3 to 8) (size 9 to 14) (size 15 to 20)
#    0.857    1.429    0.000    1.714    8.000    1.143 
#    0.000    0.000    0.000    1.714    0.000    0.000 
#    0.000    0.000    0.000    0.000    0.000    0.000 
#
# Total GULP energy -173439.706178 kJ/mol
# GULP energy per Si atom -12388.550441 kJ/mol
# Density = 1.979256 g / cm^3
# Si number density = 19.837712 Si / 1000 Ang^3
#
#
#
# Elastic Constant Matrix: (Units=GPa)
#
#
# Indices 1 2 3 4 5 6 
#
# 1 159.4070 47.1448 55.6809 -0.4903 17.7449 5.7934
# 2 47.1448 60.6883 10.7901 0.5823 9.4035 -7.3231
# 3 55.6809 10.7901 63.7242 -4.2917 20.4690 8.8488
# 4 -0.4903 0.5823 -4.2917 21.8189 -1.2606 -1.0661
# 5 17.7449 9.4035 20.4690 -1.2606 23.4162 0.6188
# 6 5.7934 -7.3231 8.8488 -1.0661 0.6188 30.6005
#
#
#
# Elastic Compliance Matrix: (Units=1/GPa)
#
#
# Indices 1 2 3 4 5 6 
#
# 1 0.011773 -0.008007 -0.009702 -0.001342 0.002740 -0.001442
# 2 -0.008007 0.023799 0.004584 -0.000061 -0.007660 0.006038
# 3 -0.009702 0.004584 0.031372 0.004315 -0.021533 -0.005552
# 4 -0.001342 -0.000061 0.004315 0.046669 -0.000234 0.000622
# 5 0.002740 -0.007660 -0.021533 -0.000234 0.062446 0.002604
# 6 -0.001442 0.006038 -0.005552 0.000622 0.002604 0.035972
#
#
# Mechanical properties :
#
#
# Convention : Reuss Voigt Hill
#
# Bulk Modulus (GPa) = 24.57299 56.78346 40.67823
# Shear Modulus (GPa) = 19.85346 26.51403 23.18374
#
# Velocity S-wave (km/s) = 3.16696 3.65985 3.42229
# Velocity P-wave (km/s) = 5.07807 6.82242 6.01383
#
# Compressibility (1/GPa) = 0.04069508
#
# Stress axis : x y z
#
# Youngs Moduli (GPa) = 84.93736 42.01938 31.87540
#
# Poissons Ratio (x) = 0.33644 0.30925
# Poissons Ratio (y) = 0.68007 -0.14612
# Poissons Ratio (z) = 0.82406 -0.19262
#
# Static dielectric constant tensor:
#      x y z
#    x 3.517590 -0.219040 0.356040 
#    y -0.219040 3.583100 0.175880 
#    z 0.356040 0.175880 3.578420 
# 
# 
# High freq. dielectric constant tensor:
#      x y z
#    x 1.761410 -0.025720 0.028960 
#    y -0.025720 1.764970 0.014980 
#    z 0.028960 0.014980 1.752330 
# 
# From -- ./inp_files/35738.got.cif
#   From: 2010.06.25/outbox.cif.g09.slc.cpg/sg2_18_cif.got.tgz:35738.got - 2010.06.27 13:26:56.
