data_PCOD8002188
_publ_section_title
;
Structure prediction by ZEFSAII (Michael W. Deem and Ramdas Pophale) SiO2 
 PCOD8002188
Probable space group: P -1
;
_chemical_formula_sum "Si O2"
_cell_formula_units_Z 16
_cell_length_a 12.734701
_cell_length_b 8.222033
_cell_length_c 11.796727
_cell_angle_alpha 144.196906
_cell_angle_beta 92.577288
_cell_angle_gamma 91.416444
_cell_volume 717.882419
_symmetry_space_group_name_H-M "P -1"
_symmetry_group_IT_number 2
_symmetry_cell_setting 'triclinic'
loop_
_space_group_symop_operation_xyz
x,y,z
-x,-y,-z
loop_
_atom_site_type_symbol
_atom_site_label
_atom_site_fract_x
_atom_site_fract_y
_atom_site_fract_z
Si Si1 0.105547 0.075712 0.911025
Si Si2 0.696694 0.763524 0.126993
Si Si3 0.505949 0.173053 0.984226
Si Si4 0.155424 0.567492 0.751185
Si Si5 0.356516 0.303553 0.666643
Si Si6 0.102396 0.084222 0.325240
Si Si7 0.978908 0.395879 0.812926
Si Si8 0.321753 0.891249 0.225101
O O1 0.191821 0.076151 0.815833
O O2 0.136726 0.891424 0.915014
O O3 0.097790 0.396089 0.133559
O O4 0.989939 0.955237 0.793085
O O5 0.606834 0.873653 0.107486
O O6 0.678097 0.852122 0.305853
O O7 0.695095 0.431598 0.923616
O O8 0.592144 0.057024 0.839974
O O9 0.532746 0.504955 0.200414
O O10 0.500000 0.000000 0.000000
O O11 0.276855 0.534509 0.763479
O O12 0.120849 0.409230 0.542667
O O13 0.089812 0.419713 0.767994
O O14 0.362368 0.075140 0.440252
O O15 0.074808 0.920601 0.352516
O O16 0.210312 0.979193 0.222002
O O17 0.000000 0.500000 0.000000
#
# Coordination Sequence:
#
# PCOD8002188 Si02
#       8
#     2   2   2   2   2   2   2   2
#     4  11  22  38  60  91 131 164 205 263 320 367
#     4  11  23  43  65  92 126 168 220 257 314 389
#     4  11  25  43  66  94 128 163 208 271 325 376
#     4  11  22  37  60  93 129 163 208 260 322 369
#     4  10  22  41  69  91 125 170 211 269 311 379
#     4  10  21  39  62  90 124 166 210 259 308 384
#     4  10  20  35  57  82 118 166 205 245 298 378
#     4  10  22  42  67  96 120 166 222 256 316 383
#
# _framework density 22.287770999999999
#
# number of rings (size 3 to 8) (size 9 to 14) (size 15 to 20)
#    0.000    1.500    1.250    4.875    5.250    3.500 
#    2.250    2.500    0.000    0.000    0.000    0.000 
#    0.000    0.000    0.000    0.000    0.000    0.000 
#
# Total GULP energy -198369.522793 kJ/mol
# GULP energy per Si atom -12398.095175 kJ/mol
# Density = 2.223704 g / cm^3
# Si number density = 22.287771 Si / 1000 Ang^3
#
#
#
# Elastic Constant Matrix: (Units=GPa)
#
#
# Indices 1 2 3 4 5 6 
#
# 1 95.9652 18.7464 32.9840 -15.9948 -1.6148 1.8107
# 2 18.7464 87.7672 24.3810 -6.6542 -8.8389 -8.3762
# 3 32.9840 24.3810 81.0565 -15.4418 -6.9930 -1.1941
# 4 -15.9948 -6.6542 -15.4418 30.8195 -2.6066 -3.6835
# 5 -1.6148 -8.8389 -6.9930 -2.6066 27.1839 -6.0867
# 6 1.8107 -8.3762 -1.1941 -3.6835 -6.0867 37.6170
#
#
#
# Elastic Compliance Matrix: (Units=1/GPa)
#
#
# Indices 1 2 3 4 5 6 
#
# 1 0.012785 -0.001413 -0.004036 0.004179 -0.000501 -0.000730
# 2 -0.001413 0.013402 -0.002683 0.001669 0.004612 0.003877
# 3 -0.004036 -0.002683 0.016286 0.005980 0.003951 0.001339
# 4 0.004179 0.001669 0.005980 0.039233 0.007297 0.005383
# 5 -0.000501 0.004612 0.003951 0.007297 0.041914 0.008673
# 6 -0.000730 0.003877 0.001339 0.005383 0.008673 0.029455
#
#
# Mechanical properties :
#
#
# Convention : Reuss Voigt Hill
#
# Bulk Modulus (GPa) = 38.15370 46.33461 42.24416
# Shear Modulus (GPa) = 28.07796 31.70259 29.89027
#
# Velocity S-wave (km/s) = 3.55321 3.77559 3.66608
# Velocity P-wave (km/s) = 5.83005 6.31199 6.07580
#
# Compressibility (1/GPa) = 0.02620978
#
# Stress axis : x y z
#
# Youngs Moduli (GPa) = 78.21446 74.61614 61.40183
#
# Poissons Ratio (x) = 0.10544 0.24779
# Poissons Ratio (y) = 0.11053 0.16475
# Poissons Ratio (z) = 0.31564 0.20021
#
# Static dielectric constant tensor:
#      x y z
#    x 4.197370 0.051310 -0.048550 
#    y 0.051310 4.192950 0.305270 
#    z -0.048550 0.305270 4.125150 
# 
# 
# High freq. dielectric constant tensor:
#      x y z
#    x 1.885910 -0.000210 -0.005720 
#    y -0.000210 1.872270 0.000360 
#    z -0.005720 0.000360 1.866680 
# 
# From -- ./inp_files/418613.got.cif
#   From: 2010.06.25/outbox.cif.g09.slc.cpg/sg2_210_cif.got.tgz:418613.got - 2010.06.27 13:26:56.
