data_PCOD8002029
_publ_section_title
;
Structure prediction by ZEFSAII (Michael W. Deem and Ramdas Pophale) SiO2 
 PCOD8002029
Probable space group: P -1
;
_chemical_formula_sum "Si O2"
_cell_formula_units_Z 16
_cell_length_a 11.556644
_cell_length_b 11.448228
_cell_length_c 12.004389
_cell_angle_alpha 93.330757
_cell_angle_beta 148.171959
_cell_angle_gamma 85.754384
_cell_volume 835.247855
_symmetry_space_group_name_H-M "P -1"
_symmetry_group_IT_number 2
_symmetry_cell_setting 'triclinic'
loop_
_space_group_symop_operation_xyz
x,y,z
-x,-y,-z
loop_
_atom_site_type_symbol
_atom_site_label
_atom_site_fract_x
_atom_site_fract_y
_atom_site_fract_z
Si Si1 0.139372 0.558464 0.711924
Si Si2 0.346197 0.906787 0.423741
Si Si3 0.086018 0.999517 0.942776
Si Si4 0.920441 0.611524 0.871298
Si Si5 0.345450 0.221028 0.171098
Si Si6 0.707624 0.608910 0.470199
Si Si7 0.700771 0.229777 0.840610
Si Si8 0.519755 0.586180 0.872665
O O1 0.339128 0.625352 0.821746
O O2 0.000000 0.500000 0.500000
O O3 0.949627 0.638331 0.622615
O O4 0.257191 0.468271 0.891422
O O5 0.437646 0.829962 0.594878
O O6 0.279218 0.812102 0.272413
O O7 0.500000 0.000000 0.500000
O O8 0.139879 0.984237 0.310243
O O9 0.227476 0.879634 0.026025
O O10 0.222623 0.108625 0.024150
O O11 0.000000 0.000000 0.000000
O O12 0.803078 0.705620 0.860239
O O13 0.749004 0.577262 0.632619
O O14 0.000000 0.500000 0.000000
O O15 0.136628 0.666002 0.998803
O O16 0.412152 0.296950 0.125145
O O17 0.547711 0.724493 0.332038
O O18 0.591984 0.501305 0.310338
#
# Coordination Sequence:
#
# PCOD8002029 Si02
#       8
#     2   2   2   2   2   2   2   2
#     4   9  20  43  63  80 111 146 196 240 292 346
#     4  11  19  34  54  77 114 160 199 224 270 331
#     4  10  20  35  52  75 113 158 197 231 265 329
#     4  12  24  33  49  83 127 155 182 228 285 347
#     4  12  21  35  56  85 120 152 195 232 275 341
#     4  11  22  36  57  83 115 154 189 231 289 343
#     4  11  21  34  51  79 115 155 195 224 275 337
#     4  10  23  39  61  88 111 149 194 242 287 339
#
# _framework density 19.155991
#
# number of rings (size 3 to 8) (size 9 to 14) (size 15 to 20)
#    0.000    1.250    6.250    2.250    1.750    3.000 
#    0.000    0.000    0.000    0.750    0.000   13.125 
#    0.000    0.000    0.000    0.000    0.000    0.000 
#
# Total GULP energy -198233.297386 kJ/mol
# GULP energy per Si atom -12389.581087 kJ/mol
# Density = 1.911239 g / cm^3
# Si number density = 19.155991 Si / 1000 Ang^3
#
#
#
# Elastic Constant Matrix: (Units=GPa)
#
#
# Indices 1 2 3 4 5 6 
#
# 1 78.2620 57.9070 41.7767 -22.6717 21.1155 9.3970
# 2 57.9070 125.7527 72.4780 -21.8893 13.2551 11.4427
# 3 41.7767 72.4780 142.8349 -28.5812 16.9822 2.7415
# 4 -22.6717 -21.8893 -28.5812 42.1771 -11.4097 8.9285
# 5 21.1155 13.2551 16.9822 -11.4097 35.9494 -6.2652
# 6 9.3970 11.4427 2.7415 8.9285 -6.2652 25.0708
#
#
#
# Elastic Compliance Matrix: (Units=1/GPa)
#
#
# Indices 1 2 3 4 5 6 
#
# 1 0.025970 -0.007966 -0.000106 0.009244 -0.011467 -0.012244
# 2 -0.007966 0.014914 -0.005126 0.001050 0.001361 -0.003294
# 3 -0.000106 -0.005126 0.010713 0.004186 -0.001913 -0.000761
# 4 0.009244 0.001050 0.004186 0.035826 0.000612 -0.017008
# 5 -0.011467 0.001361 -0.001913 0.000612 0.037417 0.013019
# 6 -0.012244 -0.003294 -0.000761 -0.017008 0.013019 0.055374
#
#
# Mechanical properties :
#
#
# Convention : Reuss Voigt Hill
#
# Bulk Modulus (GPa) = 39.68075 76.79698 58.23886
# Shear Modulus (GPa) = 23.25481 32.28533 27.77007
#
# Velocity S-wave (km/s) = 3.48799 4.10980 3.81160
# Velocity P-wave (km/s) = 6.08119 7.91821 7.05971
#
# Compressibility (1/GPa) = 0.02520114
#
# Stress axis : x y z
#
# Youngs Moduli (GPa) = 38.50599 67.05134 93.34667
#
# Poissons Ratio (x) = 0.53413 0.00985
# Poissons Ratio (y) = 0.30674 0.47852
# Poissons Ratio (z) = 0.00406 0.34372
#
# Static dielectric constant tensor:
#      x y z
#    x 3.570150 -0.126600 0.300640 
#    y -0.126600 3.738410 -0.117900 
#    z 0.300640 -0.117900 4.145880 
# 
# 
# High freq. dielectric constant tensor:
#      x y z
#    x 1.710800 -0.003010 0.020760 
#    y -0.003010 1.731090 -0.014150 
#    z 0.020760 -0.014150 1.774000 
# 
# From -- ./inp_files/66840.got.cif
#   From: 2010.06.25/outbox.cif.g09.slc.cpg/sg2_34_cif.got.tgz:66840.got - 2010.06.27 13:26:56.
