data_PCOD8002376
_publ_section_title
;
Structure prediction by ZEFSAII (Michael W. Deem and Ramdas Pophale) SiO2 
 PCOD8002376
Probable space group: P -1
;
_chemical_formula_sum "Si O2"
_cell_formula_units_Z 16
_cell_length_a 8.772293
_cell_length_b 15.328385
_cell_length_c 17.688467
_cell_angle_alpha 32.516688
_cell_angle_beta 142.634646
_cell_angle_gamma 141.612465
_cell_volume 727.341681
_symmetry_space_group_name_H-M "P -1"
_symmetry_group_IT_number 2
_symmetry_cell_setting 'triclinic'
loop_
_space_group_symop_operation_xyz
x,y,z
-x,-y,-z
loop_
_atom_site_type_symbol
_atom_site_label
_atom_site_fract_x
_atom_site_fract_y
_atom_site_fract_z
Si Si1 0.623001 0.774141 0.004469
Si Si2 0.557500 0.217111 0.444736
Si Si3 0.911785 0.573865 0.336191
Si Si4 0.778051 0.357548 0.182689
Si Si5 0.297836 0.097800 0.279088
Si Si6 0.005589 0.746050 0.043757
Si Si7 0.201660 0.182224 0.471455
Si Si8 0.385564 0.848632 0.237206
O O1 0.337335 0.664233 0.933088
O O2 0.628872 0.963741 0.888765
O O3 0.696274 0.677529 0.177496
O O4 0.857127 0.787873 0.027368
O O5 0.753620 0.398454 0.354787
O O6 0.329042 0.117656 0.367016
O O7 0.428155 0.252487 0.445316
O O8 0.729319 0.093507 0.619733
O O9 0.000000 0.500000 0.500000
O O10 0.181363 0.693145 0.317705
O O11 0.552687 0.234666 0.238198
O O12 0.860307 0.552616 0.100105
O O13 0.048722 0.315504 0.324219
O O14 0.023395 0.129377 0.126084
O O15 0.314210 0.798655 0.156303
O O16 0.326295 0.156063 0.620783
O O17 0.000000 0.000000 0.500000
#
# Coordination Sequence:
#
# PCOD8002376 Si02
#       8
#     2   2   2   2   2   2   2   2
#     4  10  20  37  63  93 121 165 208 254 306 370
#     4  11  22  37  60  95 124 159 198 268 311 362
#     4  11  21  33  58  93 127 145 201 262 313 342
#     4  11  21  38  65  88 123 165 213 250 296 381
#     4  10  20  37  63  90 121 157 205 259 321 349
#     4  10  20  35  60  90 121 152 212 260 303 359
#     4  12  22  41  62  89 123 172 217 236 304 388
#     4  11  22  39  65  92 124 168 207 257 305 374
#
# _framework density 21.997914999999999
#
# number of rings (size 3 to 8) (size 9 to 14) (size 15 to 20)
#    0.000    1.250    3.750    6.000    1.750    0.500 
#    0.000    2.500    0.000    0.750    0.000    0.000 
#    0.000    0.000    0.000    0.000    0.000    0.000 
#
# Total GULP energy -198220.723729 kJ/mol
# GULP energy per Si atom -12388.795233 kJ/mol
# Density = 2.194785 g / cm^3
# Si number density = 21.997915 Si / 1000 Ang^3
#
#
#
# Elastic Constant Matrix: (Units=GPa)
#
#
# Indices 1 2 3 4 5 6 
#
# 1 14.7880 1.6789 10.2694 3.8680 1.2537 -6.6747
# 2 1.6789 116.1621 46.7098 12.5833 -3.1716 0.8217
# 3 10.2694 46.7098 169.7655 24.7610 -2.7416 2.1498
# 4 3.8680 12.5833 24.7610 49.1350 -0.1444 -0.3963
# 5 1.2537 -3.1716 -2.7416 -0.1444 18.5101 4.5475
# 6 -6.6747 0.8217 2.1498 -0.3963 4.5475 16.0363
#
#
#
# Elastic Compliance Matrix: (Units=1/GPa)
#
#
# Indices 1 2 3 4 5 6 
#
# 1 0.095050 0.000759 -0.006215 -0.004232 -0.018435 0.045479
# 2 0.000759 0.009791 -0.002527 -0.001292 0.001303 -0.000249
# 3 -0.006215 -0.002527 0.007432 -0.002636 0.002077 -0.004108
# 4 -0.004232 -0.001292 -0.002636 0.022338 0.000047 -0.000803
# 5 -0.018435 0.001303 0.002077 0.000047 0.062101 -0.025627
# 6 0.045479 -0.000249 -0.004108 -0.000803 -0.025627 0.089099
#
#
# Mechanical properties :
#
#
# Convention : Reuss Voigt Hill
#
# Bulk Modulus (GPa) = 10.38359 46.44797 28.41578
# Shear Modulus (GPa) = 14.97550 32.87346 23.92448
#
# Velocity S-wave (km/s) = 2.61199 3.86993 3.30142
# Velocity P-wave (km/s) = 3.71849 6.41319 5.24195
#
# Compressibility (1/GPa) = 0.09630580
#
# Stress axis : x y z
#
# Youngs Moduli (GPa) = 10.52083 102.13260 134.55725
#
# Poissons Ratio (x) = -0.07749 0.83625
# Poissons Ratio (y) = -0.00798 0.34006
# Poissons Ratio (z) = 0.06538 0.25812
#
# Static dielectric constant tensor:
#      x y z
#    x 4.031180 -0.047800 0.228240 
#    y -0.047800 4.657490 0.713960 
#    z 0.228240 0.713960 5.546200 
# 
# 
# High freq. dielectric constant tensor:
#      x y z
#    x 1.793010 -0.013400 -0.001880 
#    y -0.013400 1.885180 0.010120 
#    z -0.001880 0.010120 1.900150 
# 
# From -- ./inp_files/353566.got.cif
#   From: 2010.06.25/outbox.cif.g09.slc.cpg/sg2_177_cif.got.tgz:353566.got - 2010.06.27 13:26:56.
