data_PCOD8002943
_publ_section_title
;
Structure prediction by ZEFSAII (Michael W. Deem and Ramdas Pophale) SiO2 
 PCOD8002943
Probable space group: P -1
;
_chemical_formula_sum "Si O2"
_cell_formula_units_Z 16
_cell_length_a 9.382925
_cell_length_b 9.009126
_cell_length_c 8.319328
_cell_angle_alpha 95.797282
_cell_angle_beta 86.548616
_cell_angle_gamma 95.491546
_cell_volume 695.533761
_symmetry_space_group_name_H-M "P -1"
_symmetry_group_IT_number 2
_symmetry_cell_setting 'triclinic'
loop_
_space_group_symop_operation_xyz
x,y,z
-x,-y,-z
loop_
_atom_site_type_symbol
_atom_site_label
_atom_site_fract_x
_atom_site_fract_y
_atom_site_fract_z
Si Si1 0.702716 0.091899 0.602832
Si Si2 0.183013 0.948028 0.945260
Si Si3 0.930990 0.935009 0.729931
Si Si4 0.666995 0.433023 0.640516
Si Si5 0.876677 0.386527 0.074176
Si Si6 0.611805 0.432550 0.281183
Si Si7 0.438091 0.912927 0.724311
Si Si8 0.941761 0.611419 0.643247
O O1 0.693470 0.264632 0.656863
O O2 0.653237 0.048867 0.422374
O O3 0.866404 0.052910 0.623655
O O4 0.595702 0.998551 0.723295
O O5 0.144944 0.782093 0.015273
O O6 0.349633 0.966089 0.887969
O O7 0.092263 0.976525 0.790595
O O8 0.159907 0.071027 0.096279
O O9 0.909922 0.779421 0.612579
O O10 0.678076 0.480038 0.456527
O O11 0.516984 0.465084 0.735234
O O12 0.798844 0.531223 0.728389
O O13 0.725175 0.456854 0.127716
O O14 0.927192 0.351818 0.244072
O O15 0.000000 0.500000 0.000000
O O16 0.544685 0.262585 0.284270
O O17 0.000000 0.500000 0.500000
#
# Coordination Sequence:
#
# PCOD8002943 Si02
#       8
#     2   2   2   2   2   2   2   2
#     4  10  21  36  60  96 120 151 207 263 291 355
#     4   9  21  42  61  84 121 169 199 241 309 374
#     4  10  22  40  61  87 118 162 204 245 309 364
#     4  10  20  36  60  92 123 152 207 251 303 358
#     4  10  21  39  64  92 123 158 204 253 303 360
#     4   9  18  38  63  85 122 167 191 247 311 360
#     4   9  19  39  61  86 123 156 202 246 305 361
#     4  11  22  41  62  89 119 160 205 252 312 367
#
# _framework density 23.003916
#
# number of rings (size 3 to 8) (size 9 to 14) (size 15 to 20)
#    0.000    2.250    1.250    0.750    3.500    2.000 
#    6.750    0.625    0.000    0.000    0.000    0.000 
#    0.000    0.000    0.000    0.000    0.000    0.000 
#
# Total GULP energy -198208.854228 kJ/mol
# GULP energy per Si atom -12388.053389 kJ/mol
# Density = 2.295156 g / cm^3
# Si number density = 23.003916 Si / 1000 Ang^3
#
#
#
# Elastic Constant Matrix: (Units=GPa)
#
#
# Indices 1 2 3 4 5 6 
#
# 1 91.2094 46.1503 6.3131 4.0665 -19.8654 -14.5975
# 2 46.1503 105.6693 26.3277 9.3417 -15.0917 -17.2283
# 3 6.3131 26.3277 40.6001 14.6604 -16.0286 -7.0642
# 4 4.0665 9.3417 14.6604 31.9365 -1.4112 -9.1504
# 5 -19.8654 -15.0917 -16.0286 -1.4112 38.8601 -1.2563
# 6 -14.5975 -17.2283 -7.0642 -9.1504 -1.2563 39.3789
#
#
#
# Elastic Compliance Matrix: (Units=1/GPa)
#
#
# Indices 1 2 3 4 5 6 
#
# 1 0.016581 -0.006809 0.006522 -0.001512 0.008605 0.004260
# 2 -0.006809 0.014822 -0.009149 0.001418 -0.001363 0.002605
# 3 0.006522 -0.009149 0.042498 -0.016108 0.016816 0.002832
# 4 -0.001512 0.001418 -0.016108 0.040063 -0.005208 0.006313
# 5 0.008605 -0.001363 0.016816 -0.005208 0.036530 0.005565
# 6 0.004260 0.002605 0.002832 0.006313 0.005565 0.030266
#
#
# Mechanical properties :
#
#
# Convention : Reuss Voigt Hill
#
# Bulk Modulus (GPa) = 18.17290 43.89568 31.03429
# Shear Modulus (GPa) = 22.93838 32.61430 27.77634
#
# Velocity S-wave (km/s) = 3.16120 3.76942 3.47862
# Velocity P-wave (km/s) = 4.60883 6.16992 5.44560
#
# Compressibility (1/GPa) = 0.05502699
#
# Stress axis : x y z
#
# Youngs Moduli (GPa) = 60.30922 67.46856 23.53074
#
# Poissons Ratio (x) = 0.45942 -0.15347
# Poissons Ratio (y) = 0.41067 0.21529
# Poissons Ratio (z) = -0.39333 0.61729
#
# Static dielectric constant tensor:
#      x y z
#    x 4.411240 -0.148810 -0.026140 
#    y -0.148810 4.235180 0.405080 
#    z -0.026140 0.405080 4.062940 
# 
# 
# High freq. dielectric constant tensor:
#      x y z
#    x 1.921470 -0.012880 -0.006200 
#    y -0.012880 1.894100 0.017350 
#    z -0.006200 0.017350 1.887610 
# 
# From -- ./inp_files/235155.got.cif
#   From: 2010.06.25/outbox.cif.g09.slc.cpg/sg2_118_cif.got.tgz:235155.got - 2010.06.27 13:26:56.
