data_PCOD8002541
_publ_section_title
;
Structure prediction by ZEFSAII (Michael W. Deem and Ramdas Pophale) SiO2 
 PCOD8002541
Probable space group: P -1
;
_chemical_formula_sum "Si O2"
_cell_formula_units_Z 14
_cell_length_a 8.731595
_cell_length_b 10.438322
_cell_length_c 9.247831
_cell_angle_alpha 58.986885
_cell_angle_beta 131.884825
_cell_angle_gamma 102.569795
_cell_volume 527.157337
_symmetry_space_group_name_H-M "P -1"
_symmetry_group_IT_number 2
_symmetry_cell_setting 'triclinic'
loop_
_space_group_symop_operation_xyz
x,y,z
-x,-y,-z
loop_
_atom_site_type_symbol
_atom_site_label
_atom_site_fract_x
_atom_site_fract_y
_atom_site_fract_z
Si Si1 0.949227 0.079829 0.575144
Si Si2 0.125259 0.778101 0.001945
Si Si3 0.159249 0.389745 0.917110
Si Si4 0.574791 0.408872 0.884057
Si Si5 0.504376 0.839979 0.664756
Si Si6 0.170589 0.358099 0.561947
Si Si7 0.522847 0.662005 0.489671
O O1 0.073657 0.211452 0.619960
O O2 0.706351 0.162658 0.378539
O O3 0.000000 0.000000 0.500000
O O4 0.994485 0.950404 0.804491
O O5 0.245677 0.740430 0.945048
O O6 0.298581 0.766395 0.244541
O O7 0.981464 0.652047 0.013117
O O8 0.999804 0.480113 0.644181
O O9 0.331265 0.495023 0.994899
O O10 0.303814 0.223012 0.064277
O O11 0.340932 0.375378 0.788075
O O12 0.534048 0.481172 0.648370
O O13 0.556652 0.717928 0.640036
O O14 0.500000 0.000000 0.500000
O O15 0.283448 0.316995 0.501934
#
# Coordination Sequence:
#
# PCOD8002541 Si02
#       7
#     2   2   2   2   2   2   2
#     4  12  27  43  65  97 138 175 213 277 344 382
#     4  11  20  40  69 101 127 177 220 267 328 384
#     4  11  21  39  74  94 128 177 223 270 319 384
#     4  10  20  35  68 105 122 166 231 263 311 395
#     4  11  24  42  65 101 129 172 228 269 320 403
#     4  11  22  42  66 100 137 169 214 277 326 388
#     4  10  21  39  70 101 127 169 233 266 310 402
#
# _framework density 26.557534
#
# number of rings (size 3 to 8) (size 9 to 14) (size 15 to 20)
#    0.000    1.143    4.286    3.000    4.000    3.429 
#    0.000    4.286    0.000    0.000    0.000    0.000 
#    0.000    0.000    0.000    0.000    0.000    0.000 
#
# Total GULP energy -173459.830208 kJ/mol
# GULP energy per Si atom -12389.987872 kJ/mol
# Density = 2.649709 g / cm^3
# Si number density = 26.557534 Si / 1000 Ang^3
#
#
#
# Elastic Constant Matrix: (Units=GPa)
#
#
# Indices 1 2 3 4 5 6 
#
# 1 81.0827 23.6345 55.9485 2.0618 21.9096 22.0285
# 2 23.6345 119.4372 57.6432 -10.4361 9.5004 35.9529
# 3 55.9485 57.6432 154.4767 -9.1241 32.9379 3.5219
# 4 2.0618 -10.4361 -9.1241 41.8142 3.7044 8.4394
# 5 21.9096 9.5004 32.9379 3.7044 54.4793 4.6554
# 6 22.0285 35.9529 3.5219 8.4394 4.6554 34.7504
#
#
#
# Elastic Compliance Matrix: (Units=1/GPa)
#
#
# Indices 1 2 3 4 5 6 
#
# 1 0.023828 0.007211 -0.009961 0.003151 -0.003161 -0.021897
# 2 0.007211 0.019868 -0.009153 0.007819 0.000878 -0.026215
# 3 -0.009961 -0.009153 0.013917 -0.001483 -0.004016 0.015272
# 4 0.003151 0.007819 -0.001483 0.028953 -0.002279 -0.016663
# 5 -0.003161 0.000878 -0.004016 -0.002279 0.022134 -0.000909
# 6 -0.021897 -0.026215 0.015272 -0.016663 -0.000909 0.072400
#
#
# Mechanical properties :
#
#
# Convention : Reuss Voigt Hill
#
# Bulk Modulus (GPa) = 29.58113 69.93877 49.75995
# Shear Modulus (GPa) = 23.12934 40.72680 31.92807
#
# Velocity S-wave (km/s) = 2.95433 3.92028 3.47107
# Velocity P-wave (km/s) = 4.77494 6.84715 5.90269
#
# Compressibility (1/GPa) = 0.03380533
#
# Stress axis : x y z
#
# Youngs Moduli (GPa) = 41.96810 50.33283 71.85322
#
# Poissons Ratio (x) = -0.36293 0.71575
# Poissons Ratio (y) = -0.30261 0.65766
# Poissons Ratio (z) = 0.41806 0.46069
#
# Static dielectric constant tensor:
#      x y z
#    x 4.616970 0.545870 0.055120 
#    y 0.545870 3.775940 0.391360 
#    z 0.055120 0.391360 4.866480 
# 
# 
# High freq. dielectric constant tensor:
#      x y z
#    x 2.079150 0.012170 0.006470 
#    y 0.012170 2.047310 -0.008570 
#    z 0.006470 -0.008570 2.100970 
# 
# From -- ./inp_files/295583.got.cif
#   From: 2010.06.25/outbox.cif.g09.slc.cpg/sg2_148_cif.got.tgz:295583.got - 2010.06.27 13:26:56.
