data_PCOD8002537
_publ_section_title
;
Structure prediction by ZEFSAII (Michael W. Deem and Ramdas Pophale) SiO2 
 PCOD8002537
Probable space group: P -1
;
_chemical_formula_sum "Si O2"
_cell_formula_units_Z 16
_cell_length_a 9.411197
_cell_length_b 12.023996
_cell_length_c 11.454193
_cell_angle_alpha 116.007116
_cell_angle_beta 127.142227
_cell_angle_gamma 96.331585
_cell_volume 791.194424
_symmetry_space_group_name_H-M "P -1"
_symmetry_group_IT_number 2
_symmetry_cell_setting 'triclinic'
loop_
_space_group_symop_operation_xyz
x,y,z
-x,-y,-z
loop_
_atom_site_type_symbol
_atom_site_label
_atom_site_fract_x
_atom_site_fract_y
_atom_site_fract_z
Si Si1 0.729521 0.353397 0.416264
Si Si2 0.403869 0.099306 0.995288
Si Si3 0.019836 0.799965 0.946903
Si Si4 0.339219 0.514534 0.347458
Si Si5 0.643676 0.273758 0.981385
Si Si6 0.584734 0.703072 0.337969
Si Si7 0.065314 0.051828 0.230926
Si Si8 0.828397 0.555999 0.349963
O O1 0.727859 0.388892 0.567747
O O2 0.767537 0.489899 0.419617
O O3 0.921386 0.328142 0.476183
O O4 0.509296 0.212738 0.206768
O O5 0.454992 0.181633 0.935102
O O6 0.156834 0.011352 0.846512
O O7 0.500000 0.000000 0.000000
O O8 0.858568 0.644481 0.851749
O O9 0.907540 0.836320 0.805393
O O10 0.218099 0.799730 0.993164
O O11 0.094251 0.923139 0.139236
O O12 0.500000 0.500000 0.500000
O O13 0.431180 0.590337 0.305707
O O14 0.555109 0.273115 0.810978
O O15 0.781217 0.436747 0.173394
O O16 0.750668 0.859169 0.545008
O O17 0.706687 0.638010 0.300849
#
# Coordination Sequence:
#
# PCOD8002537 Si02
#       8
#     2   2   2   2   2   2   2   2
#     4  10  20  35  66  96 116 163 220 263 304 364
#     4  11  22  39  67  94 127 167 214 260 316 377
#     4  11  23  43  64  94 130 162 218 266 309 374
#     4  12  21  39  67  95 122 165 217 259 310 374
#     4  11  25  43  63  95 132 168 207 264 322 375
#     4  12  26  41  65  95 133 170 206 261 325 376
#     4  11  24  41  66  96 126 170 215 261 309 377
#     4  10  20  40  63  92 129 160 211 268 314 367
#
# _framework density 20.22259
#
# number of rings (size 3 to 8) (size 9 to 14) (size 15 to 20)
#    0.000    1.000    5.000    1.875    5.250    1.500 
#    0.000    0.000    0.000    0.000    0.000    0.000 
#    0.000    0.000    0.000    0.000    0.000    0.000 
#
# Total GULP energy -198471.771271 kJ/mol
# GULP energy per Si atom -12404.485704 kJ/mol
# Density = 2.017656 g / cm^3
# Si number density = 20.222590 Si / 1000 Ang^3
#
#
#
# Elastic Constant Matrix: (Units=GPa)
#
#
# Indices 1 2 3 4 5 6 
#
# 1 92.6618 30.3242 42.7733 14.7574 -10.6402 -2.7445
# 2 30.3242 65.1012 41.2603 4.3106 -12.2523 4.6801
# 3 42.7733 41.2603 105.4006 7.0659 -9.0455 10.1901
# 4 14.7574 4.3106 7.0659 32.2835 3.2748 0.4419
# 5 -10.6402 -12.2523 -9.0455 3.2748 31.4993 10.7085
# 6 -2.7445 4.6801 10.1901 0.4419 10.7085 37.0945
#
#
#
# Elastic Compliance Matrix: (Units=1/GPa)
#
#
# Indices 1 2 3 4 5 6 
#
# 1 0.015273 -0.003671 -0.004385 -0.005798 0.002329 0.002194
# 2 -0.003671 0.022755 -0.006453 -0.000609 0.006968 -0.003374
# 3 -0.004385 -0.006453 0.014317 -0.000364 0.001472 -0.003864
# 4 -0.005798 -0.000609 -0.000364 0.034407 -0.006267 0.001147
# 5 0.002329 0.006968 0.001472 -0.006267 0.040661 -0.012775
# 6 0.002194 -0.003374 -0.003864 0.001147 -0.012775 0.032282
#
#
# Mechanical properties :
#
#
# Convention : Reuss Voigt Hill
#
# Bulk Modulus (GPa) = 42.86628 54.65324 48.75976
# Shear Modulus (GPa) = 25.44691 30.09584 27.77137
#
# Velocity S-wave (km/s) = 3.55116 3.86194 3.70981
# Velocity P-wave (km/s) = 6.16908 6.85351 6.52028
#
# Compressibility (1/GPa) = 0.02332836
#
# Stress axis : x y z
#
# Youngs Moduli (GPa) = 65.47476 43.94709 69.84552
#
# Poissons Ratio (x) = 0.16132 0.30625
# Poissons Ratio (y) = 0.24034 0.45070
# Poissons Ratio (z) = 0.28709 0.28358
#
# Static dielectric constant tensor:
#      x y z
#    x 3.945190 -0.027960 -0.038420 
#    y -0.027960 3.514330 0.255930 
#    z -0.038420 0.255930 3.739650 
# 
# 
# High freq. dielectric constant tensor:
#      x y z
#    x 1.806650 -0.005220 0.001120 
#    y -0.005220 1.766290 0.019560 
#    z 0.001120 0.019560 1.788240 
# 
# From -- ./inp_files/187767.got.cif
#   From: 2010.06.25/outbox.cif.g09.slc.cpg/sg2_94_cif.got.tgz:187767.got - 2010.06.27 13:26:56.
