data_PCOD8002016
_publ_section_title
;
Structure prediction by ZEFSAII (Michael W. Deem and Ramdas Pophale) SiO2 
 PCOD8002016
Probable space group: P -1
;
_chemical_formula_sum "Si O2"
_cell_formula_units_Z 12
_cell_length_a 8.971817
_cell_length_b 4.982017
_cell_length_c 13.614102
_cell_angle_alpha 67.705703
_cell_angle_beta 68.669904
_cell_angle_gamma 94.077449
_cell_volume 508.795315
_symmetry_space_group_name_H-M "P -1"
_symmetry_group_IT_number 2
_symmetry_cell_setting 'triclinic'
loop_
_space_group_symop_operation_xyz
x,y,z
-x,-y,-z
loop_
_atom_site_type_symbol
_atom_site_label
_atom_site_fract_x
_atom_site_fract_y
_atom_site_fract_z
Si Si1 0.801787 0.626131 0.945923
Si Si2 0.829036 0.243850 0.801249
Si Si3 0.382785 0.060675 0.434366
Si Si4 0.677861 0.399507 0.206042
Si Si5 0.189639 0.519687 0.433683
Si Si6 0.125379 0.044800 0.803723
O O1 0.820417 0.436745 0.872452
O O2 0.984285 0.781540 0.927503
O O3 0.722795 0.901891 0.892929
O O4 0.688003 0.417514 0.082463
O O5 0.763770 0.383681 0.703213
O O6 0.021982 0.229207 0.736102
O O7 0.489448 0.301256 0.299205
O O8 0.234181 0.202873 0.486954
O O9 0.760617 0.728597 0.180437
O O10 0.500000 0.000000 0.500000
O O11 0.304635 0.748133 0.446917
O O12 0.763135 0.134933 0.259398
O O13 0.000000 0.500000 0.500000
#
# Coordination Sequence:
#
# PCOD8002016 Si02
#       6
#     2   2   2   2   2   2
#     4  10  20  36  62 106 135 183 222 278 328 414
#     4  10  22  38  67  99 130 172 245 264 326 404
#     4  12  30  48  72 106 139 178 232 293 355 398
#     4  12  22  38  64  99 147 176 219 287 345 397
#     4  12  28  52  75  98 136 186 238 282 343 425
#     4  10  20  34  65  98 140 180 228 266 335 403
#
# _framework density 23.585124
#
# number of rings (size 3 to 8) (size 9 to 14) (size 15 to 20)
#    1.000    0.000    1.667    5.000    4.667    0.000 
#    0.000    5.000    0.000    0.000    0.000    0.000 
#    0.000    0.000    0.000    0.000    0.000    0.000 
#
# Total GULP energy -148707.840056 kJ/mol
# GULP energy per Si atom -12392.320005 kJ/mol
# Density = 2.353144 g / cm^3
# Si number density = 23.585124 Si / 1000 Ang^3
#
#
#
# Elastic Constant Matrix: (Units=GPa)
#
#
# Indices 1 2 3 4 5 6 
#
# 1 79.2085 24.5612 41.2015 6.5674 11.8322 -3.4005
# 2 24.5612 146.2509 25.3289 15.7003 12.3740 -0.5150
# 3 41.2015 25.3289 69.5537 4.2097 -3.4476 0.4809
# 4 6.5674 15.7003 4.2097 27.6958 -2.2565 5.0406
# 5 11.8322 12.3740 -3.4476 -2.2565 24.9577 3.1189
# 6 -3.4005 -0.5150 0.4809 5.0406 3.1189 43.4652
#
#
#
# Elastic Compliance Matrix: (Units=1/GPa)
#
#
# Indices 1 2 3 4 5 6 
#
# 1 0.022213 0.000337 -0.013664 -0.005108 -0.013479 0.003453
# 2 0.000337 0.008320 -0.003201 -0.004946 -0.005313 0.001115
# 3 -0.013664 -0.003201 0.024076 0.002836 0.011967 -0.002561
# 4 -0.005108 -0.004946 0.002836 0.041581 0.009776 -0.006013
# 5 -0.013479 -0.005313 0.011967 0.009776 0.052397 -0.006143
# 6 0.003453 0.001115 -0.002561 -0.006013 -0.006143 0.024457
#
#
# Mechanical properties :
#
#
# Convention : Reuss Voigt Hill
#
# Bulk Modulus (GPa) = 46.39694 53.02182 49.70938
# Shear Modulus (GPa) = 23.44284 32.81851 28.13067
#
# Velocity S-wave (km/s) = 3.15614 3.73432 3.45734
# Velocity P-wave (km/s) = 5.74426 6.41275 6.08769
#
# Compressibility (1/GPa) = 0.02155315
#
# Stress axis : x y z
#
# Youngs Moduli (GPa) = 45.01844 120.19571 41.53445
#
# Poissons Ratio (x) = -0.04050 0.56752
# Poissons Ratio (y) = -0.01517 0.13296
# Poissons Ratio (z) = 0.61513 0.38476
#
# Static dielectric constant tensor:
#      x y z
#    x 4.021820 -0.126960 -0.129930 
#    y -0.126960 4.494040 -0.043410 
#    z -0.129930 -0.043410 4.084380 
# 
# 
# High freq. dielectric constant tensor:
#      x y z
#    x 1.912530 -0.002800 0.000220 
#    y -0.002800 1.959300 0.002260 
#    z 0.000220 0.002260 1.916670 
# 
# From -- ./inp_files/481910.got.cif
#   From: 2010.06.25/outbox.cif.g09.slc.cpg/sg2_241_cif.got.tgz:481910.got - 2010.06.27 13:26:56.
