data_PCOD8002264
_publ_section_title
;
Structure prediction by ZEFSAII (Michael W. Deem and Ramdas Pophale) SiO2 
 PCOD8002264
Probable space group: P -1
;
_chemical_formula_sum "Si O2"
_cell_formula_units_Z 14
_cell_length_a 12.761060
_cell_length_b 9.547700
_cell_length_c 8.968548
_cell_angle_alpha 113.146016
_cell_angle_beta 132.010984
_cell_angle_gamma 58.575965
_cell_volume 691.145288
_symmetry_space_group_name_H-M "P -1"
_symmetry_group_IT_number 2
_symmetry_cell_setting 'triclinic'
loop_
_space_group_symop_operation_xyz
x,y,z
-x,-y,-z
loop_
_atom_site_type_symbol
_atom_site_label
_atom_site_fract_x
_atom_site_fract_y
_atom_site_fract_z
Si Si1 0.355851 0.484937 0.777781
Si Si2 0.198736 0.265784 0.161996
Si Si3 0.490364 0.101143 0.182830
Si Si4 0.912044 0.351030 0.754230
Si Si5 0.975370 0.342130 0.470482
Si Si6 0.728099 0.822329 0.466114
Si Si7 0.604029 0.381785 0.428039
O O1 0.196924 0.637278 0.734021
O O2 0.333971 0.313964 0.714352
O O3 0.384225 0.493881 0.634308
O O4 0.500000 0.500000 0.000000
O O5 0.321964 0.163749 0.115254
O O6 0.172538 0.456344 0.207689
O O7 0.249280 0.188683 0.339999
O O8 0.038798 0.253654 0.955892
O O9 0.532915 0.256106 0.245030
O O10 0.604351 0.997795 0.376968
O O11 0.500000 0.000000 0.000000
O O12 0.991209 0.329062 0.658485
O O13 0.777642 0.279853 0.607103
O O14 0.000000 0.500000 0.500000
O O15 0.111584 0.190174 0.462257
O O16 0.500000 0.500000 0.500000
#
# Coordination Sequence:
#
# PCOD8002264 Si02
#       7
#     2   2   2   2   2   2   2
#     4  10  20  35  58  88 120 156 204 248 293 355
#     4  11  21  38  62  89 117 161 204 251 297 362
#     4  12  25  40  61  92 129 163 196 247 319 365
#     4  10  20  37  63  90 116 153 212 253 292 350
#     4   9  17  35  57  85 118 151 205 243 296 356
#     4  11  21  40  60  90 122 161 201 250 306 362
#     4  11  21  41  60  90 120 159 206 250 294 356
#
# _framework density 20.256233000000002
#
# number of rings (size 3 to 8) (size 9 to 14) (size 15 to 20)
#    0.000    1.429    5.714    2.143    0.000    2.286 
#    0.000    8.571    0.000    0.000    0.000    0.000 
#    0.000    0.000    0.000    0.000    0.000    0.000 
#
# Total GULP energy -173515.578433 kJ/mol
# GULP energy per Si atom -12393.969888 kJ/mol
# Density = 2.021013 g / cm^3
# Si number density = 20.256233 Si / 1000 Ang^3
#
#
#
# Elastic Constant Matrix: (Units=GPa)
#
#
# Indices 1 2 3 4 5 6 
#
# 1 133.7294 31.5526 52.1259 1.7430 6.4236 -28.6430
# 2 31.5526 57.4746 17.5878 -5.2982 -2.5606 -13.6202
# 3 52.1259 17.5878 132.1959 -9.7758 13.4283 -13.7738
# 4 1.7430 -5.2982 -9.7758 36.4676 -3.3127 0.6350
# 5 6.4236 -2.5606 13.4283 -3.3127 31.4694 0.0959
# 6 -28.6430 -13.6202 -13.7738 0.6350 0.0959 29.9264
#
#
#
# Elastic Compliance Matrix: (Units=1/GPa)
#
#
# Indices 1 2 3 4 5 6 
#
# 1 0.011357 -0.003688 -0.003187 -0.002206 -0.001514 0.007777
# 2 -0.003688 0.021506 -0.000891 0.003253 0.003208 0.005769
# 3 -0.003187 -0.000891 0.009531 0.002267 -0.003253 0.000893
# 4 -0.002206 0.003253 0.002267 0.028864 0.002787 -0.000209
# 5 -0.001514 0.003208 -0.003253 0.002787 0.034034 -0.001655
# 6 0.007777 0.005769 0.000893 -0.000209 -0.001655 0.043905
#
#
# Mechanical properties :
#
#
# Convention : Reuss Voigt Hill
#
# Bulk Modulus (GPa) = 37.22638 58.43694 47.83166
# Shear Modulus (GPa) = 28.78826 34.38158 31.58492
#
# Velocity S-wave (km/s) = 3.77398 4.12434 3.95304
# Velocity P-wave (km/s) = 6.11622 7.18274 6.67083
#
# Compressibility (1/GPa) = 0.02686267
#
# Stress axis : x y z
#
# Youngs Moduli (GPa) = 88.05058 46.49852 104.92339
#
# Poissons Ratio (x) = 0.17147 0.33435
# Poissons Ratio (y) = 0.32470 0.09353
# Poissons Ratio (z) = 0.28058 0.04145
#
# Static dielectric constant tensor:
#      x y z
#    x 4.244760 -0.133890 0.447000 
#    y -0.133890 3.540250 -0.382980 
#    z 0.447000 -0.382980 4.126440 
# 
# 
# High freq. dielectric constant tensor:
#      x y z
#    x 1.807850 -0.013960 0.009210 
#    y -0.013960 1.759370 -0.017940 
#    z 0.009210 -0.017940 1.796730 
# 
# From -- ./inp_files/174914.got.cif
#   From: 2010.06.25/outbox.cif.g09.slc.cpg/sg2_88_cif.got.tgz:174914.got - 2010.06.27 13:26:56.
