data_PCOD8002851
_publ_section_title
;
Structure prediction by ZEFSAII (Michael W. Deem and Ramdas Pophale) SiO2 
 PCOD8002851
Probable space group: P -1
;
_chemical_formula_sum "Si O2"
_cell_formula_units_Z 16
_cell_length_a 8.616995
_cell_length_b 14.937826
_cell_length_c 12.546111
_cell_angle_alpha 58.523285
_cell_angle_beta 34.852721
_cell_angle_gamma 74.530160
_cell_volume 742.465010
_symmetry_space_group_name_H-M "P -1"
_symmetry_group_IT_number 2
_symmetry_cell_setting 'triclinic'
loop_
_space_group_symop_operation_xyz
x,y,z
-x,-y,-z
loop_
_atom_site_type_symbol
_atom_site_label
_atom_site_fract_x
_atom_site_fract_y
_atom_site_fract_z
Si Si1 0.281407 0.100558 0.033598
Si Si2 0.970707 0.358880 0.528492
Si Si3 0.168183 0.211361 0.231945
Si Si4 0.925860 0.127308 0.636435
Si Si5 0.710227 0.406910 0.854055
Si Si6 0.223359 0.660895 0.690929
Si Si7 0.406374 0.314329 0.726587
Si Si8 0.927665 0.416805 0.954808
O O1 0.308882 0.149279 0.108059
O O2 0.043067 0.975848 0.246175
O O3 0.586260 0.095469 0.825281
O O4 0.200526 0.187220 0.947704
O O5 0.240764 0.460499 0.265763
O O6 0.052158 0.246393 0.549252
O O7 0.923995 0.381462 0.663691
O O8 0.691258 0.346543 0.620198
O O9 0.089131 0.133563 0.428772
O O10 0.886925 0.234660 0.331131
O O11 0.385604 0.333899 0.059128
O O12 0.786652 0.373543 0.948267
O O13 0.512016 0.679147 0.448208
O O14 0.982047 0.546925 0.859082
O O15 0.281452 0.651727 0.789986
O O16 0.236801 0.397902 0.798674
#
# Coordination Sequence:
#
# PCOD8002851 Si02
#       8
#     2   2   2   2   2   2   2   2
#     4  10  20  36  62  88 111 149 198 256 280 323
#     4  10  20  38  59  87 119 153 191 237 291 346
#     4  12  20  38  60  90 122 147 191 244 299 340
#     4  10  20  36  59  91 110 148 205 242 286 334
#     4  11  22  36  58  91 124 157 176 238 306 353
#     4  11  22  36  56  86 113 160 196 229 281 349
#     4  11  19  41  59  83 116 154 199 240 278 333
#     4  11  23  37  56  82 125 156 194 231 283 355
#
# _framework density 21.549837
#
# number of rings (size 3 to 8) (size 9 to 14) (size 15 to 20)
#    0.000    1.250    7.500    0.750    0.000    2.000 
#    4.500    0.000    0.000    1.500    0.000    0.000 
#    0.000    0.000    0.000    0.000    0.000    0.000 
#
# Total GULP energy -198335.215224 kJ/mol
# GULP energy per Si atom -12395.950952 kJ/mol
# Density = 2.150079 g / cm^3
# Si number density = 21.549837 Si / 1000 Ang^3
#
#
#
# Elastic Constant Matrix: (Units=GPa)
#
#
# Indices 1 2 3 4 5 6 
#
# 1 44.9354 26.1525 24.2281 2.9248 23.9417 16.0315
# 2 26.1525 83.4574 44.4407 -12.3850 9.0085 7.6123
# 3 24.2281 44.4407 141.3950 -6.0401 35.9295 12.8570
# 4 2.9248 -12.3850 -6.0401 46.6568 7.6167 6.9104
# 5 23.9417 9.0085 35.9295 7.6167 32.9506 8.5748
# 6 16.0315 7.6123 12.8570 6.9104 8.5748 20.8098
#
#
#
# Elastic Compliance Matrix: (Units=1/GPa)
#
#
# Indices 1 2 3 4 5 6 
#
# 1 0.057986 -0.014644 0.007620 0.004270 -0.039875 -0.029009
# 2 -0.014644 0.018956 -0.006375 0.002915 0.011012 0.002781
# 3 0.007620 -0.006375 0.012694 0.003039 -0.016929 -0.005414
# 4 0.004270 0.002915 0.003039 0.025578 -0.010410 -0.010438
# 5 -0.039875 0.011012 -0.016929 -0.010410 0.074610 0.009863
# 6 -0.029009 0.002781 -0.005414 -0.010438 0.009863 0.072133
#
#
# Mechanical properties :
#
#
# Convention : Reuss Voigt Hill
#
# Bulk Modulus (GPa) = 15.91424 51.04782 33.48103
# Shear Modulus (GPa) = 16.14452 31.74787 23.94620
#
# Velocity S-wave (km/s) = 2.74007 3.84243 3.33708
# Velocity P-wave (km/s) = 4.17271 6.58980 5.51529
#
# Compressibility (1/GPa) = 0.06283682
#
# Stress axis : x y z
#
# Youngs Moduli (GPa) = 17.24550 52.75312 78.77460
#
# Poissons Ratio (x) = 0.77253 -0.60022
# Poissons Ratio (y) = 0.25255 0.50221
# Poissons Ratio (z) = -0.13140 0.33631
#
# Static dielectric constant tensor:
#      x y z
#    x 3.380220 -0.022710 0.469200 
#    y -0.022710 4.120590 -0.152800 
#    z 0.469200 -0.152800 4.317300 
# 
# 
# High freq. dielectric constant tensor:
#      x y z
#    x 1.787080 -0.003640 0.036370 
#    y -0.003640 1.849260 0.009330 
#    z 0.036370 0.009330 1.863590 
# 
# From -- ./inp_files/348887.got.cif
#   From: 2010.06.25/outbox.cif.g09.slc.cpg/sg2_175_cif.got.tgz:348887.got - 2010.06.27 13:26:56.
