data_PCOD8002445
_publ_section_title
;
Structure prediction by ZEFSAII (Michael W. Deem and Ramdas Pophale) SiO2 
 PCOD8002445
Probable space group: P -1
;
_chemical_formula_sum "Si O2"
_cell_formula_units_Z 14
_cell_length_a 11.879482
_cell_length_b 8.695886
_cell_length_c 18.249131
_cell_angle_alpha 48.580229
_cell_angle_beta 148.902291
_cell_angle_gamma 133.392202
_cell_volume 693.924671
_symmetry_space_group_name_H-M "P -1"
_symmetry_group_IT_number 2
_symmetry_cell_setting 'triclinic'
loop_
_space_group_symop_operation_xyz
x,y,z
-x,-y,-z
loop_
_atom_site_type_symbol
_atom_site_label
_atom_site_fract_x
_atom_site_fract_y
_atom_site_fract_z
Si Si1 0.885325 0.423818 0.345688
Si Si2 0.576372 0.780517 0.931363
Si Si3 0.282515 0.838394 0.880133
Si Si4 0.040705 0.423814 0.809293
Si Si5 0.893034 0.240369 0.928551
Si Si6 0.681225 0.418799 0.881772
Si Si7 0.816141 0.721665 0.335574
O O1 0.634092 0.273209 0.226765
O O2 0.051196 0.541813 0.332930
O O3 0.883184 0.625679 0.329553
O O4 0.999986 0.267750 0.501314
O O5 0.495256 0.839658 0.946093
O O6 0.792702 0.987612 0.965779
O O7 0.700452 0.593483 0.058034
O O8 0.064849 0.640047 0.800015
O O9 0.193142 0.041585 0.760022
O O10 0.348123 0.792949 0.014659
O O11 0.875697 0.248456 0.826816
O O12 0.758958 0.374206 0.858024
O O13 0.159275 0.355225 0.065343
O O14 0.429771 0.439749 0.724950
#
# Coordination Sequence:
#
# PCOD8002445 Si02
#       7
#     2   2   2   2   2   2   2
#     4  10  23  37  60  82 115 142 192 232 280 327
#     4  11  20  37  59  88 110 147 186 237 274 323
#     4  10  20  35  62  81 110 145 192 233 274 316
#     4  10  21  37  55  88 114 146 186 231 272 337
#     4  10  21  35  58  85 115 147 183 227 285 320
#     4  10  20  36  59  89 110 143 191 232 268 340
#     4  11  21  38  60  84 110 150 185 236 278 327
#
# _framework density 20.1751
#
# number of rings (size 3 to 8) (size 9 to 14) (size 15 to 20)
#    0.000    1.714    1.429    5.143    2.000    2.286 
#    0.000    0.714    6.286    2.571    0.000    0.000 
#    0.000    0.000    0.000    0.000    0.000    0.000 
#
# Total GULP energy -173433.527759 kJ/mol
# GULP energy per Si atom -12388.109126 kJ/mol
# Density = 2.012918 g / cm^3
# Si number density = 20.175100 Si / 1000 Ang^3
#
#
#
# Elastic Constant Matrix: (Units=GPa)
#
#
# Indices 1 2 3 4 5 6 
#
# 1 114.4566 12.9357 29.5645 -1.2554 -15.7063 3.3242
# 2 12.9357 78.9750 44.6173 -3.3006 3.8620 -4.1531
# 3 29.5645 44.6173 82.7674 7.8432 -0.8393 -4.9251
# 4 -1.2554 -3.3006 7.8432 19.0083 -7.8635 0.7606
# 5 -15.7063 3.8620 -0.8393 -7.8635 18.8590 2.6193
# 6 3.3242 -4.1531 -4.9251 0.7606 2.6193 28.7727
#
#
#
# Elastic Compliance Matrix: (Units=1/GPa)
#
#
# Indices 1 2 3 4 5 6 
#
# 1 0.012324 0.000732 -0.005772 0.009397 0.014311 -0.003857
# 2 0.000732 0.019390 -0.011425 0.007817 -0.000695 0.000615
# 3 -0.005772 -0.011425 0.021870 -0.014971 -0.008279 0.003911
# 4 0.009397 0.007817 -0.014971 0.077163 0.038858 -0.008097
# 5 0.014311 -0.000695 -0.008279 0.038858 0.082547 -0.011713
# 6 -0.003857 0.000615 0.003911 -0.008097 -0.011713 0.037239
#
#
# Mechanical properties :
#
#
# Convention : Reuss Voigt Hill
#
# Bulk Modulus (GPa) = 48.41563 50.04822 49.23193
# Shear Modulus (GPa) = 17.22070 25.93344 21.57707
#
# Velocity S-wave (km/s) = 2.92475 3.58916 3.27385
# Velocity P-wave (km/s) = 5.95444 6.48359 6.22464
#
# Compressibility (1/GPa) = 0.02065449
#
# Stress axis : x y z
#
# Youngs Moduli (GPa) = 81.14257 51.57236 45.72423
#
# Poissons Ratio (x) = -0.03776 0.26391
# Poissons Ratio (y) = -0.05942 0.52242
# Poissons Ratio (z) = 0.46834 0.58924
#
# Static dielectric constant tensor:
#      x y z
#    x 3.965410 0.019450 -0.125060 
#    y 0.019450 3.775630 0.064330 
#    z -0.125060 0.064330 3.448000 
# 
# 
# High freq. dielectric constant tensor:
#      x y z
#    x 1.807670 -0.007990 -0.010330 
#    y -0.007990 1.797200 0.000190 
#    z -0.010330 0.000190 1.746200 
# 
# From -- ./inp_files/225604.got.cif
#   From: 2010.06.25/outbox.cif.g09.slc.cpg/sg2_113_cif.got.tgz:225604.got - 2010.06.27 13:26:56.
