data_PCOD8002241
_publ_section_title
;
Structure prediction by ZEFSAII (Michael W. Deem and Ramdas Pophale) SiO2 
 PCOD8002241
Probable space group: P -1
;
_chemical_formula_sum "Si O2"
_cell_formula_units_Z 14
_cell_length_a 9.046578
_cell_length_b 18.256119
_cell_length_c 11.265235
_cell_angle_alpha 38.017468
_cell_angle_beta 38.480760
_cell_angle_gamma 65.859337
_cell_volume 599.190285
_symmetry_space_group_name_H-M "P -1"
_symmetry_group_IT_number 2
_symmetry_cell_setting 'triclinic'
loop_
_space_group_symop_operation_xyz
x,y,z
-x,-y,-z
loop_
_atom_site_type_symbol
_atom_site_label
_atom_site_fract_x
_atom_site_fract_y
_atom_site_fract_z
Si Si1 0.495524 0.639779 0.837510
Si Si2 0.407192 0.927027 0.279002
Si Si3 0.819799 0.787412 0.896306
Si Si4 0.952621 0.561652 0.166541
Si Si5 0.876091 0.178135 0.780853
Si Si6 0.626869 0.326422 0.864327
Si Si7 0.291391 0.707810 0.465581
O O1 0.808414 0.779371 0.440154
O O2 0.500000 0.500000 0.000000
O O3 0.376325 0.639703 0.041138
O O4 0.292937 0.644920 0.859981
O O5 0.292747 0.759809 0.534340
O O6 0.139685 0.925883 0.505570
O O7 0.500000 0.000000 0.000000
O O8 0.668163 0.008236 0.103185
O O9 0.838718 0.663037 0.102229
O O10 0.687389 0.748896 0.896925
O O11 0.615448 0.807415 0.085654
O O12 0.827441 0.468813 0.482830
O O13 0.836202 0.459493 0.252488
O O14 0.746226 0.223719 0.909428
O O15 0.899700 0.262148 0.538246
#
# Coordination Sequence:
#
# PCOD8002241 Si02
#       7
#     2   2   2   2   2   2   2
#     4  12  21  37  60  86 115 153 190 232 284 342
#     4  10  20  35  58  84 114 151 196 233 278 334
#     4  10  21  37  56  87 121 149 183 239 291 335
#     4  10  21  37  56  90 122 144 187 233 295 342
#     4   9  20  35  55  86 108 147 201 230 269 337
#     4  10  20  36  61  84 116 148 189 238 283 337
#     4   9  18  35  57  86 114 145 187 237 283 334
#
# _framework density 23.364863
#
# number of rings (size 3 to 8) (size 9 to 14) (size 15 to 20)
#    0.000    2.286    2.857    3.857    0.000    6.857 
#    2.571    0.714    0.000    1.714    0.000    0.000 
#    0.000    0.000    0.000    0.000    0.000    0.000 
#
# Total GULP energy -173494.749052 kJ/mol
# GULP energy per Si atom -12392.482075 kJ/mol
# Density = 2.331168 g / cm^3
# Si number density = 23.364863 Si / 1000 Ang^3
#
#
#
# Elastic Constant Matrix: (Units=GPa)
#
#
# Indices 1 2 3 4 5 6 
#
# 1 52.3407 26.8959 37.9119 10.9897 -16.8371 6.8253
# 2 26.8959 82.0759 14.0319 19.1352 -6.5313 31.0855
# 3 37.9119 14.0319 102.3585 11.8450 -53.4754 10.3149
# 4 10.9897 19.1352 11.8450 31.9771 0.9304 -1.3012
# 5 -16.8371 -6.5313 -53.4754 0.9304 38.3539 -1.5024
# 6 6.8253 31.0855 10.3149 -1.3012 -1.5024 30.2393
#
#
#
# Elastic Compliance Matrix: (Units=1/GPa)
#
#
# Indices 1 2 3 4 5 6 
#
# 1 0.035085 -0.018332 -0.025071 0.009609 -0.022172 0.018790
# 2 -0.018332 0.044393 0.034442 -0.036508 0.046362 -0.052514
# 3 -0.025071 0.034442 0.081354 -0.047458 0.107316 -0.054208
# 4 0.009609 -0.036508 -0.047458 0.071457 -0.067893 0.051251
# 5 -0.022172 0.046362 0.107316 -0.067893 0.172625 -0.073607
# 6 0.018790 -0.052514 -0.054208 0.051251 -0.073607 0.099851
#
#
# Mechanical properties :
#
#
# Convention : Reuss Voigt Hill
#
# Bulk Modulus (GPa) = 6.99740 43.82828 25.41284
# Shear Modulus (GPa) = 8.76696 30.64307 19.70502
#
# Velocity S-wave (km/s) = 1.93916 3.62540 2.90722
# Velocity P-wave (km/s) = 2.83110 6.02690 4.70843
#
# Compressibility (1/GPa) = 0.14291030
#
# Stress axis : x y z
#
# Youngs Moduli (GPa) = 28.50198 22.52616 12.29202
#
# Poissons Ratio (x) = 0.41295 0.30817
# Poissons Ratio (y) = 0.52250 -0.42336
# Poissons Ratio (z) = 0.71456 -0.77585
#
# Static dielectric constant tensor:
#      x y z
#    x 3.890390 0.154360 -0.521680 
#    y 0.154360 4.682580 -0.252910 
#    z -0.521680 -0.252910 4.450570 
# 
# 
# High freq. dielectric constant tensor:
#      x y z
#    x 1.889740 0.005620 -0.026200 
#    y 0.005620 1.928200 0.004540 
#    z -0.026200 0.004540 1.934750 
# 
# From -- ./inp_files/405369.got.cif
#   From: 2010.06.25/outbox.cif.g09.slc.cpg/sg2_203_cif.got.tgz:405369.got - 2010.06.27 13:26:56.
