data_PCOD8002435
_publ_section_title
;
Structure prediction by ZEFSAII (Michael W. Deem and Ramdas Pophale) SiO2 
 PCOD8002435
Probable space group: P -1
;
_chemical_formula_sum "Si O2"
_cell_formula_units_Z 16
_cell_length_a 9.722598
_cell_length_b 14.062695
_cell_length_c 21.594241
_cell_angle_alpha 19.435979
_cell_angle_beta 108.405159
_cell_angle_gamma 118.948576
_cell_volume 752.658031
_symmetry_space_group_name_H-M "P -1"
_symmetry_group_IT_number 2
_symmetry_cell_setting 'triclinic'
loop_
_space_group_symop_operation_xyz
x,y,z
-x,-y,-z
loop_
_atom_site_type_symbol
_atom_site_label
_atom_site_fract_x
_atom_site_fract_y
_atom_site_fract_z
Si Si1 0.562990 0.714076 0.313093
Si Si2 0.536501 0.269210 0.022864
Si Si3 0.014259 0.286642 0.431398
Si Si4 0.886781 0.650151 0.899215
Si Si5 0.631214 0.882905 0.580516
Si Si6 0.619328 0.428715 0.745901
Si Si7 0.937095 0.878253 0.258794
Si Si8 0.133118 0.735287 0.288851
O O1 0.500000 0.500000 0.500000
O O2 0.431633 0.475154 0.385315
O O3 0.762354 0.860910 0.232894
O O4 0.558441 0.052585 0.106571
O O5 0.673113 0.340337 0.053673
O O6 0.595862 0.649453 0.778005
O O7 0.330330 0.054215 0.143164
O O8 0.167631 0.391071 0.338420
O O9 0.099993 0.634863 0.273458
O O10 0.957604 0.952447 0.671154
O O11 0.843363 0.211853 0.414077
O O12 0.909628 0.766578 0.902343
O O13 0.000000 0.500000 0.000000
O O14 0.586123 0.634257 0.666884
O O15 0.500000 0.000000 0.500000
O O16 0.500000 0.000000 0.000000
O O17 0.900596 0.582227 0.481940
O O18 0.002818 0.843483 0.222993
#
# Coordination Sequence:
#
# PCOD8002435 Si02
#       8
#     2   2   2   2   2   2   2   2
#     4  12  21  39  70  99 128 168 229 277 320 396
#     4  11  21  41  65  90 131 171 224 274 327 397
#     4  10  22  42  67  89 131 170 218 279 332 388
#     4  10  20  35  61  94 129 169 211 272 332 394
#     4  11  26  47  63  95 136 175 221 283 340 389
#     4  12  24  45  73  97 128 180 231 270 329 404
#     4  10  21  35  59  92 132 169 213 262 335 395
#     4  10  20  39  59  93 130 169 212 273 332 391
#
# _framework density 21.257994
#
# number of rings (size 3 to 8) (size 9 to 14) (size 15 to 20)
#    0.000    1.250    5.000    1.125    1.750    0.500 
#    4.500    1.250    0.000    0.000    0.000    0.000 
#    0.000    0.000    0.000    0.000    0.000    0.000 
#
# Total GULP energy -198245.299707 kJ/mol
# GULP energy per Si atom -12390.331232 kJ/mol
# Density = 2.120961 g / cm^3
# Si number density = 21.257994 Si / 1000 Ang^3
#
#
#
# Elastic Constant Matrix: (Units=GPa)
#
#
# Indices 1 2 3 4 5 6 
#
# 1 193.1161 65.3455 34.2558 -31.3366 24.6287 10.7700
# 2 65.3455 118.3975 27.3663 -30.9855 7.3291 14.0494
# 3 34.2558 27.3663 58.2661 -13.9422 -0.8661 6.5951
# 4 -31.3366 -30.9855 -13.9422 40.2313 -2.4410 -2.2507
# 5 24.6287 7.3291 -0.8661 -2.4410 43.4733 -10.9536
# 6 10.7700 14.0494 6.5951 -2.2507 -10.9536 40.5927
#
#
#
# Elastic Compliance Matrix: (Units=1/GPa)
#
#
# Indices 1 2 3 4 5 6 
#
# 1 0.007508 -0.002366 -0.002496 0.002810 -0.004186 -0.001741
# 2 -0.002366 0.012560 -0.002557 0.006684 -0.001279 -0.003279
# 3 -0.002496 -0.002557 0.020788 0.003364 0.002182 -0.001055
# 4 0.002810 0.006684 0.003364 0.033159 -0.001325 -0.002124
# 5 -0.004186 -0.001279 0.002182 -0.001325 0.027727 0.008607
# 6 -0.001741 -0.003279 -0.001055 -0.002124 0.008607 0.028608
#
#
# Mechanical properties :
#
#
# Convention : Reuss Voigt Hill
#
# Bulk Modulus (GPa) = 38.43348 69.30164 53.86756
# Shear Modulus (GPa) = 32.49683 41.04695 36.77189
#
# Velocity S-wave (km/s) = 3.91409 4.39896 4.16359
# Velocity P-wave (km/s) = 6.20851 7.64671 6.96483
#
# Compressibility (1/GPa) = 0.02601898
#
# Stress axis : x y z
#
# Youngs Moduli (GPa) = 133.18398 79.61541 48.10532
#
# Poissons Ratio (x) = 0.18837 0.12006
# Poissons Ratio (y) = 0.31512 0.12300
# Poissons Ratio (z) = 0.33241 0.20357
#
# Static dielectric constant tensor:
#      x y z
#    x 4.003920 -0.036230 0.115060 
#    y -0.036230 3.865410 -0.184100 
#    z 0.115060 -0.184100 3.664220 
# 
# 
# High freq. dielectric constant tensor:
#      x y z
#    x 1.840140 0.010890 0.001180 
#    y 0.010890 1.835560 -0.022150 
#    z 0.001180 -0.022150 1.819600 
# 
# From -- ./inp_files/608036.got.cif
#   From: 2010.06.25/outbox.cif.g09.slc.cpg/sg2_305_cif.got.tgz:608036.got - 2010.06.27 13:26:56.
