data_PCOD8002514
_publ_section_title
;
Structure prediction by ZEFSAII (Michael W. Deem and Ramdas Pophale) SiO2 
 PCOD8002514
Probable space group: P -1
;
_chemical_formula_sum "Si O2"
_cell_formula_units_Z 16
_cell_length_a 14.192392
_cell_length_b 9.320372
_cell_length_c 14.512739
_cell_angle_alpha 42.574359
_cell_angle_beta 51.010358
_cell_angle_gamma 82.693040
_cell_volume 776.309849
_symmetry_space_group_name_H-M "P -1"
_symmetry_group_IT_number 2
_symmetry_cell_setting 'triclinic'
loop_
_space_group_symop_operation_xyz
x,y,z
-x,-y,-z
loop_
_atom_site_type_symbol
_atom_site_label
_atom_site_fract_x
_atom_site_fract_y
_atom_site_fract_z
Si Si1 0.716177 0.344833 0.961052
Si Si2 0.921621 0.277881 0.457037
Si Si3 0.322310 0.329382 0.039906
Si Si4 0.890286 0.658613 0.391392
Si Si5 0.213962 0.222159 0.961656
Si Si6 0.439596 0.215815 0.714260
Si Si7 0.224976 0.523113 0.636256
Si Si8 0.413384 0.718364 0.129913
O O1 0.669697 0.051854 0.160364
O O2 0.630543 0.423785 0.039239
O O3 0.647971 0.264429 0.937705
O O4 0.901473 0.594106 0.734554
O O5 0.916514 0.431545 0.475990
O O6 0.847798 0.319704 0.393514
O O7 0.821991 0.958651 0.689973
O O8 0.266752 0.369973 0.957984
O O9 0.473343 0.352774 0.922936
O O10 0.868349 0.718890 0.270264
O O11 0.736931 0.540168 0.601080
O O12 0.038140 0.936934 0.215094
O O13 0.332852 0.161769 0.893026
O O14 0.217971 0.413709 0.793076
O O15 0.500000 0.500000 0.500000
O O16 0.597152 0.256662 0.618577
O O17 0.500000 0.000000 0.000000
#
# Coordination Sequence:
#
# PCOD8002514 Si02
#       8
#     2   2   2   2   2   2   2   2
#     4  12  24  41  62  93 132 165 201 262 323 374
#     4  10  22  39  63  93 129 163 209 255 314 368
#     4  12  25  40  61  96 132 167 203 256 322 376
#     4  10  20  35  64  93 121 154 219 259 303 346
#     4  11  21  38  64  93 123 164 213 259 307 370
#     4  10  20  37  63  89 118 163 213 257 301 364
#     4   9  20  37  61  94 122 155 209 268 304 354
#     4  12  23  39  64  94 123 160 215 264 309 367
#
# _framework density 20.610329
#
# number of rings (size 3 to 8) (size 9 to 14) (size 15 to 20)
#    0.750    0.500    2.500    4.875    0.000    1.000 
#    0.000    3.125    0.000    4.500    0.000    0.000 
#    0.000    0.000    0.000    0.000    0.000    0.000 
#
# Total GULP energy -198265.239686 kJ/mol
# GULP energy per Si atom -12391.577480 kJ/mol
# Density = 2.056342 g / cm^3
# Si number density = 20.610329 Si / 1000 Ang^3
#
#
#
# Elastic Constant Matrix: (Units=GPa)
#
#
# Indices 1 2 3 4 5 6 
#
# 1 105.3329 47.8790 35.8085 4.9624 1.5555 6.1915
# 2 47.8790 119.0698 43.7631 1.6908 6.4703 -5.7710
# 3 35.8085 43.7631 119.0322 3.9221 -7.5155 -6.8412
# 4 4.9624 1.6908 3.9221 21.4152 -8.1362 -5.8525
# 5 1.5555 6.4703 -7.5155 -8.1362 33.1136 4.2712
# 6 6.1915 -5.7710 -6.8412 -5.8525 4.2712 25.4640
#
#
#
# Elastic Compliance Matrix: (Units=1/GPa)
#
#
# Indices 1 2 3 4 5 6 
#
# 1 0.012882 -0.004463 -0.002462 -0.003918 -0.000530 -0.005616
# 2 -0.004463 0.011601 -0.002927 0.000459 -0.003066 0.003548
# 3 -0.002462 -0.002927 0.010520 0.000646 0.002922 0.002420
# 4 -0.003918 0.000459 0.000646 0.055377 0.012314 0.011892
# 5 -0.000530 -0.003066 0.002922 0.012314 0.034873 -0.002800
# 6 -0.005616 0.003548 0.002420 0.011892 -0.002800 0.045294
#
#
# Mechanical properties :
#
#
# Convention : Reuss Voigt Hill
#
# Bulk Modulus (GPa) = 65.36345 66.48179 65.92262
# Shear Modulus (GPa) = 25.59499 30.39752 27.99625
#
# Velocity S-wave (km/s) = 3.52782 3.84457 3.68959
# Velocity P-wave (km/s) = 6.95534 7.21347 7.08558
#
# Compressibility (1/GPa) = 0.01529907
#
# Stress axis : x y z
#
# Youngs Moduli (GPa) = 77.62955 86.19923 95.05552
#
# Poissons Ratio (x) = 0.38470 0.23398
# Poissons Ratio (y) = 0.34645 0.27827
# Poissons Ratio (z) = 0.19109 0.25234
#
# Static dielectric constant tensor:
#      x y z
#    x 3.798250 -0.059250 -0.274610 
#    y -0.059250 3.527400 0.079840 
#    z -0.274610 0.079840 3.890870 
# 
# 
# High freq. dielectric constant tensor:
#      x y z
#    x 1.806150 -0.004630 -0.015420 
#    y -0.004630 1.777970 0.004750 
#    z -0.015420 0.004750 1.817040 
# 
# From -- ./inp_files/528162.got.cif
#   From: 2010.06.25/outbox.cif.g09.slc.cpg/sg2_265_cif.got.tgz:528162.got - 2010.06.27 13:26:56.
