data_PCOD8002867
_publ_section_title
;
Structure prediction by ZEFSAII (Michael W. Deem and Ramdas Pophale) SiO2 
 PCOD8002867
Probable space group: P -1
;
_chemical_formula_sum "Si O2"
_cell_formula_units_Z 16
_cell_length_a 31.634147
_cell_length_b 16.627767
_cell_length_c 5.079644
_cell_angle_alpha 111.097001
_cell_angle_beta 68.565028
_cell_angle_gamma 164.304131
_cell_volume 672.489822
_symmetry_space_group_name_H-M "P -1"
_symmetry_group_IT_number 2
_symmetry_cell_setting 'triclinic'
loop_
_space_group_symop_operation_xyz
x,y,z
-x,-y,-z
loop_
_atom_site_type_symbol
_atom_site_label
_atom_site_fract_x
_atom_site_fract_y
_atom_site_fract_z
Si Si1 0.714255 0.119486 0.831077
Si Si2 0.020556 0.774885 0.893264
Si Si3 0.099441 0.008174 0.475582
Si Si4 0.695804 0.758200 0.902350
Si Si5 0.320558 0.679501 0.115802
Si Si6 0.597634 0.998378 0.481346
Si Si7 0.738173 0.528106 0.474241
Si Si8 0.608559 0.748964 0.748736
O O1 0.590843 0.920808 0.651089
O O2 0.888358 0.465407 0.759885
O O3 0.718863 0.023771 0.705457
O O4 0.666670 0.077302 0.162618
O O5 0.032494 0.870830 0.756625
O O6 0.979755 0.750674 0.229299
O O7 0.186632 0.025011 0.855138
O O8 0.264746 0.256186 0.371089
O O9 0.123852 0.152538 0.518605
O O10 0.720441 0.888977 0.825213
O O11 0.513552 0.420440 0.989672
O O12 0.286770 0.713587 0.343471
O O13 0.264049 0.509445 0.266496
O O14 0.230655 0.493027 0.829318
O O15 0.500000 0.000000 0.000000
O O16 0.427282 0.726445 0.495453
O O17 0.500000 0.500000 0.500000
#
# Coordination Sequence:
#
# PCOD8002867 Si02
#       8
#     2   2   2   2   2   2   2   2
#     4  12  26  40  66  89 130 173 207 250 325 371
#     4  10  23  42  61  90 124 180 209 253 299 384
#     4  10  21  40  65  90 126 162 225 247 305 375
#     4   9  23  40  67  88 131 161 202 272 303 367
#     4  10  20  36  59  97 137 158 204 265 323 368
#     4  11  23  39  62  95 129 163 208 261 315 378
#     4  11  20  35  67  98 123 168 207 266 318 368
#     4  11  24  42  64 101 128 152 210 274 315 366
#
# _framework density 23.792180999999999
#
# number of rings (size 3 to 8) (size 9 to 14) (size 15 to 20)
#    0.750    0.750    0.000    6.750    7.000    0.500 
#    0.000    1.250    0.000   15.000    0.000    0.000 
#    0.000    0.000    0.000    0.000    0.000    0.000 
#
# Total GULP energy -198269.877647 kJ/mol
# GULP energy per Si atom -12391.867353 kJ/mol
# Density = 2.373803 g / cm^3
# Si number density = 23.792181 Si / 1000 Ang^3
#
#
#
# Elastic Constant Matrix: (Units=GPa)
#
#
# Indices 1 2 3 4 5 6 
#
# 1 83.3411 19.0002 16.5322 -9.0137 22.8064 -34.1825
# 2 19.0002 71.7791 12.5840 4.8205 5.8083 -34.1311
# 3 16.5322 12.5840 107.6085 -12.1023 21.4077 -10.7683
# 4 -9.0137 4.8205 -12.1023 24.0648 -6.4954 2.9031
# 5 22.8064 5.8083 21.4077 -6.4954 37.6673 -7.8431
# 6 -34.1825 -34.1311 -10.7683 2.9031 -7.8431 39.4528
#
#
#
# Elastic Compliance Matrix: (Units=1/GPa)
#
#
# Indices 1 2 3 4 5 6 
#
# 1 0.022749 0.005026 0.000328 0.002393 -0.009734 0.022036
# 2 0.005026 0.026403 -0.001682 -0.008024 -0.001932 0.026943
# 3 0.000328 -0.001682 0.011057 0.004522 -0.005350 0.000451
# 4 0.002393 -0.008024 0.004522 0.048235 0.004215 -0.006345
# 5 -0.009734 -0.001932 -0.005350 0.004215 0.035504 -0.004818
# 6 0.022036 0.026943 0.000451 -0.006345 -0.004818 0.067381
#
#
# Mechanical properties :
#
#
# Convention : Reuss Voigt Hill
#
# Bulk Modulus (GPa) = 14.80294 39.88461 27.34378
# Shear Modulus (GPa) = 22.07486 34.54448 28.30967
#
# Velocity S-wave (km/s) = 3.04932 3.81455 3.45320
# Velocity P-wave (km/s) = 4.31660 6.01674 5.23614
#
# Compressibility (1/GPa) = 0.06755415
#
# Stress axis : x y z
#
# Youngs Moduli (GPa) = 43.95832 37.87462 90.43870
#
# Poissons Ratio (x) = -0.19036 -0.02967
# Poissons Ratio (y) = -0.22094 0.15208
# Poissons Ratio (z) = -0.01442 0.06369
#
# Static dielectric constant tensor:
#      x y z
#    x 4.347190 -0.179400 -0.006390 
#    y -0.179400 4.125540 0.089690 
#    z -0.006390 0.089690 4.448280 
# 
# 
# High freq. dielectric constant tensor:
#      x y z
#    x 1.946080 -0.008410 0.008710 
#    y -0.008410 1.928000 0.001050 
#    z 0.008710 0.001050 1.946210 
# 
# From -- ./inp_files/128604.got.cif
#   From: 2010.06.25/outbox.cif.g09.slc.cpg/sg2_65_cif.got.tgz:128604.got - 2010.06.27 13:26:56.
