data_PCOD8002039
_publ_section_title
;
Structure prediction by ZEFSAII (Michael W. Deem and Ramdas Pophale) SiO2 
 PCOD8002039
Probable space group: P -1
;
_chemical_formula_sum "Si O2"
_cell_formula_units_Z 14
_cell_length_a 22.864845
_cell_length_b 9.900832
_cell_length_c 11.393960
_cell_angle_alpha 153.449981
_cell_angle_beta 137.232554
_cell_angle_gamma 39.389891
_cell_volume 723.275042
_symmetry_space_group_name_H-M "P -1"
_symmetry_group_IT_number 2
_symmetry_cell_setting 'triclinic'
loop_
_space_group_symop_operation_xyz
x,y,z
-x,-y,-z
loop_
_atom_site_type_symbol
_atom_site_label
_atom_site_fract_x
_atom_site_fract_y
_atom_site_fract_z
Si Si1 0.058737 0.214299 0.778593
Si Si2 0.721676 0.901223 0.619181
Si Si3 0.877057 0.919835 0.705494
Si Si4 0.248031 0.845414 0.900639
Si Si5 0.430619 0.926828 0.170458
Si Si6 0.932531 0.518838 0.251326
Si Si7 0.517110 0.347053 0.711403
O O1 0.082793 0.358831 0.808395
O O2 0.154205 0.978560 0.793174
O O3 0.000000 0.000000 0.500000
O O4 0.000000 0.500000 0.000000
O O5 0.778679 0.918396 0.601416
O O6 0.714780 0.547979 0.344438
O O7 0.618646 0.180662 0.674008
O O8 0.772840 0.986168 0.871576
O O9 0.888675 0.825444 0.512209
O O10 0.957621 0.655059 0.695752
O O11 0.879723 0.274443 0.003405
O O12 0.324587 0.954398 0.035420
O O13 0.485168 0.763254 0.242770
O O14 0.440822 0.277732 0.462850
O O15 0.482693 0.739161 0.982736
#
# Coordination Sequence:
#
# PCOD8002039 Si02
#       7
#     2   2   2   2   2   2   2
#     4  12  24  38  55  77 105 136 171 210 251 303
#     4  11  20  32  52  80 106 133 169 210 256 301
#     4  10  20  35  53  73  98 130 170 212 248 295
#     4  11  21  32  51  77 107 138 167 205 257 308
#     4   9  16  28  44  70 104 134 161 197 253 310
#     4  10  21  36  53  72  98 133 169 207 253 293
#     4   9  16  27  46  71 103 132 160 204 252 301
#
# _framework density 19.356399
#
# number of rings (size 3 to 8) (size 9 to 14) (size 15 to 20)
#    0.000    1.714    0.000    8.571    0.000    2.286 
#    0.000    0.000    0.000    0.000    0.000    6.000 
#    0.000    0.000    0.000    0.000    0.000    0.000 
#
# Total GULP energy -173559.991514 kJ/mol
# GULP energy per Si atom -12397.142251 kJ/mol
# Density = 1.931234 g / cm^3
# Si number density = 19.356399 Si / 1000 Ang^3
#
#
#
# Elastic Constant Matrix: (Units=GPa)
#
#
# Indices 1 2 3 4 5 6 
#
# 1 113.0298 29.1262 40.4425 -3.0859 2.9663 -21.6660
# 2 29.1262 33.8749 19.7112 -5.9935 3.0671 -12.1517
# 3 40.4425 19.7112 141.4511 1.4109 3.1728 -20.1642
# 4 -3.0859 -5.9935 1.4109 22.6755 -8.0175 -1.2581
# 5 2.9663 3.0671 3.1728 -8.0175 31.7652 -4.5279
# 6 -21.6660 -12.1517 -20.1642 -1.2581 -4.5279 26.3532
#
#
#
# Elastic Compliance Matrix: (Units=1/GPa)
#
#
# Indices 1 2 3 4 5 6 
#
# 1 0.012518 -0.007795 -0.001726 0.000270 0.000607 0.005494
# 2 -0.007795 0.044212 -0.002216 0.012055 0.001595 0.013131
# 3 -0.001726 -0.002216 0.008449 -0.001203 -0.000212 0.003930
# 4 0.000270 0.012055 -0.001203 0.052758 0.013633 0.009721
# 5 0.000607 0.001595 -0.000212 0.013633 0.035856 0.007884
# 6 0.005494 0.013131 0.003930 0.009721 0.007884 0.053343
#
#
# Mechanical properties :
#
#
# Convention : Reuss Voigt Hill
#
# Bulk Modulus (GPa) = 23.97888 51.87950 37.92919
# Shear Modulus (GPa) = 20.44889 29.43052 24.93971
#
# Velocity S-wave (km/s) = 3.25382 3.90353 3.59339
# Velocity P-wave (km/s) = 5.15087 6.86856 6.07077
#
# Compressibility (1/GPa) = 0.04170336
#
# Stress axis : x y z
#
# Youngs Moduli (GPa) = 79.88495 22.61850 118.35936
#
# Poissons Ratio (x) = 0.17632 0.20428
# Poissons Ratio (y) = 0.62274 0.26231
# Poissons Ratio (z) = 0.13788 0.05013
#
# Static dielectric constant tensor:
#      x y z
#    x 3.430090 -0.157460 -0.044520 
#    y -0.157460 3.138720 0.131620 
#    z -0.044520 0.131620 4.108300 
# 
# 
# High freq. dielectric constant tensor:
#      x y z
#    x 1.746150 -0.029930 -0.001530 
#    y -0.029930 1.695400 0.007110 
#    z -0.001530 0.007110 1.790740 
# 
# From -- ./inp_files/344009.got.cif
#   From: 2010.06.25/outbox.cif.g09.slc.cpg/sg2_173_cif.got.tgz:344009.got - 2010.06.27 13:26:56.
