data_PCOD8002959
_publ_section_title
;
Structure prediction by ZEFSAII (Michael W. Deem and Ramdas Pophale) SiO2 
 PCOD8002959
Probable space group: P -1
;
_chemical_formula_sum "Si O2"
_cell_formula_units_Z 14
_cell_length_a 13.381704
_cell_length_b 11.928234
_cell_length_c 5.473204
_cell_angle_alpha 86.592309
_cell_angle_beta 106.858466
_cell_angle_gamma 52.427208
_cell_volume 629.695858
_symmetry_space_group_name_H-M "P -1"
_symmetry_group_IT_number 2
_symmetry_cell_setting 'triclinic'
loop_
_space_group_symop_operation_xyz
x,y,z
-x,-y,-z
loop_
_atom_site_type_symbol
_atom_site_label
_atom_site_fract_x
_atom_site_fract_y
_atom_site_fract_z
Si Si1 0.896688 0.784668 0.773659
Si Si2 0.380625 0.100406 0.595725
Si Si3 0.986779 0.246205 0.644101
Si Si4 0.519060 0.583692 0.807296
Si Si5 0.732256 0.322161 0.666505
Si Si6 0.805370 0.049701 0.946510
Si Si7 0.536945 0.160270 0.988599
O O1 0.769153 0.787560 0.654413
O O2 0.835324 0.954861 0.735459
O O3 0.992739 0.707420 0.608959
O O4 0.979003 0.699060 0.098057
O O5 0.500000 0.000000 0.500000
O O6 0.379698 0.996406 0.793761
O O7 0.409296 0.196563 0.743655
O O8 0.826784 0.321057 0.538268
O O9 0.089862 0.065463 0.751082
O O10 0.658063 0.465615 0.766434
O O11 0.381148 0.678073 0.535794
O O12 0.534370 0.697175 0.909150
O O13 0.500000 0.500000 0.000000
O O14 0.829616 0.166072 0.906521
O O15 0.645441 0.145266 0.892912
#
# Coordination Sequence:
#
# PCOD8002959 Si02
#       7
#     2   2   2   2   2   2   2
#     4  10  21  36  58  95 126 159 210 264 320 377
#     4  11  20  36  63  92 127 162 204 274 326 369
#     4  10  23  38  62  93 132 168 209 264 322 387
#     4  11  25  41  63  87 130 171 217 259 307 392
#     4  11  24  39  60  90 125 178 210 259 318 380
#     4  10  20  36  60  95 129 158 210 262 318 386
#     4  11  22  37  62  94 126 164 212 263 326 374
#
# _framework density 22.232955
#
# number of rings (size 3 to 8) (size 9 to 14) (size 15 to 20)
#    0.857    0.571    4.286    1.286    4.000    0.571 
#    0.000    0.000    0.000    1.714    0.000    0.000 
#    0.000    0.000    0.000    0.000    0.000    0.000 
#
# Total GULP energy -173528.193932 kJ/mol
# GULP energy per Si atom -12394.870995 kJ/mol
# Density = 2.218235 g / cm^3
# Si number density = 22.232955 Si / 1000 Ang^3
#
#
#
# Elastic Constant Matrix: (Units=GPa)
#
#
# Indices 1 2 3 4 5 6 
#
# 1 92.7569 41.8405 11.6661 30.9876 -2.7333 -18.5260
# 2 41.8405 82.3874 22.4714 31.2655 13.8565 2.9595
# 3 11.6661 22.4714 77.6457 31.9109 -4.0524 -3.8970
# 4 30.9876 31.2655 31.9109 34.0539 -0.7423 -0.6688
# 5 -2.7333 13.8565 -4.0524 -0.7423 34.0270 12.6819
# 6 -18.5260 2.9595 -3.8970 -0.6688 12.6819 34.8928
#
#
#
# Elastic Compliance Matrix: (Units=1/GPa)
#
#
# Indices 1 2 3 4 5 6 
#
# 1 0.022392 -0.005292 0.008251 -0.023003 -0.000397 0.012963
# 2 -0.005292 0.022658 0.000548 -0.016736 -0.009360 -0.001589
# 3 0.008251 0.000548 0.024484 -0.030822 0.000311 0.006365
# 4 -0.023003 -0.016736 -0.030822 0.094437 0.009240 -0.015784
# 5 -0.000397 -0.009360 0.000311 0.009240 0.038298 -0.013125
# 6 0.012963 -0.001589 0.006365 -0.015784 -0.013125 0.040855
#
#
# Mechanical properties :
#
#
# Convention : Reuss Voigt Hill
#
# Bulk Modulus (GPa) = 13.06373 44.97177 29.01775
# Shear Modulus (GPa) = 19.11124 32.38220 25.74672
#
# Velocity S-wave (km/s) = 2.93506 3.82055 3.40669
# Velocity P-wave (km/s) = 4.16829 6.30345 5.34360
#
# Compressibility (1/GPa) = 0.07654784
#
# Stress axis : x y z
#
# Youngs Moduli (GPa) = 44.65851 44.13402 40.84335
#
# Poissons Ratio (x) = 0.23354 -0.33699
# Poissons Ratio (y) = 0.23631 -0.02236
# Poissons Ratio (z) = -0.36847 -0.02416
#
# Static dielectric constant tensor:
#      x y z
#    x 3.956710 -0.056670 -0.043590 
#    y -0.056670 3.728140 0.207950 
#    z -0.043590 0.207950 4.488800 
# 
# 
# High freq. dielectric constant tensor:
#      x y z
#    x 1.873200 -0.015960 0.004450 
#    y -0.015960 1.843850 0.020950 
#    z 0.004450 0.020950 1.869210 
# 
# From -- ./inp_files/69818.got.cif
#   From: 2010.06.25/outbox.cif.g09.slc.cpg/sg2_35_cif.got.tgz:69818.got - 2010.06.27 13:26:56.
