data_PCOD8002580
_publ_section_title
;
Structure prediction by ZEFSAII (Michael W. Deem and Ramdas Pophale) SiO2 
 PCOD8002580
Probable space group: P -1
;
_chemical_formula_sum "Si O2"
_cell_formula_units_Z 14
_cell_length_a 11.473869
_cell_length_b 14.689313
_cell_length_c 10.848557
_cell_angle_alpha 91.896102
_cell_angle_beta 25.758026
_cell_angle_gamma 79.412113
_cell_volume 691.543600
_symmetry_space_group_name_H-M "P -1"
_symmetry_group_IT_number 2
_symmetry_cell_setting 'triclinic'
loop_
_space_group_symop_operation_xyz
x,y,z
-x,-y,-z
loop_
_atom_site_type_symbol
_atom_site_label
_atom_site_fract_x
_atom_site_fract_y
_atom_site_fract_z
Si Si1 0.374074 0.621519 0.613601
Si Si2 0.551251 0.835650 0.785687
Si Si3 0.244261 0.916344 0.673618
Si Si4 0.129829 0.757183 0.626745
Si Si5 0.838198 0.976880 0.479228
Si Si6 0.511462 0.801797 0.088310
Si Si7 0.736266 0.732009 0.348296
O O1 0.500000 0.500000 0.500000
O O2 0.270768 0.653457 0.571811
O O3 0.644118 0.645850 0.393120
O O4 0.094391 0.686533 0.976866
O O5 0.748324 0.894615 0.615312
O O6 0.680255 0.754215 0.547477
O O7 0.600957 0.767821 0.859756
O O8 0.199012 0.921173 0.104702
O O9 0.095356 0.853639 0.745769
O O10 0.550873 0.838362 0.451721
O O11 0.331142 0.975909 0.488719
O O12 0.000000 0.000000 0.000000
O O13 0.352891 0.739407 0.296641
O O14 0.799816 0.780245 0.896054
O O15 0.734810 0.073415 0.676839
#
# Coordination Sequence:
#
# PCOD8002580 Si02
#       7
#     2   2   2   2   2   2   2
#     4  11  23  44  68  88 113 143 193 259 306 357
#     4  12  23  36  55  83 123 161 196 243 271 338
#     4  10  20  36  55  85 127 157 190 242 285 343
#     4  10  22  39  59  87 109 156 202 234 292 351
#     4  11  21  34  53  82 117 170 208 224 273 331
#     4  11  22  38  56  80 123 161 205 229 271 340
#     4  11  24  38  60  94 118 152 196 236 313 348
#
# _framework density 20.244567
#
# number of rings (size 3 to 8) (size 9 to 14) (size 15 to 20)
#    0.000    1.143    1.429    7.286    2.000    1.714 
#    0.000    0.000    0.000    5.143    0.000    0.000 
#    0.000    0.000    0.000    0.000    0.000    0.000 
#
# Total GULP energy -173654.679594 kJ/mol
# GULP energy per Si atom -12403.905685 kJ/mol
# Density = 2.019849 g / cm^3
# Si number density = 20.244567 Si / 1000 Ang^3
#
#
#
# Elastic Constant Matrix: (Units=GPa)
#
#
# Indices 1 2 3 4 5 6 
#
# 1 79.1018 16.1290 4.9869 9.5324 23.3004 -22.1495
# 2 16.1290 76.5779 13.4708 3.7763 7.2784 -22.3185
# 3 4.9869 13.4708 68.5024 -5.2632 5.8448 -9.0481
# 4 9.5324 3.7763 -5.2632 26.8690 -1.0805 -0.5419
# 5 23.3004 7.2784 5.8448 -1.0805 34.0801 -10.2313
# 6 -22.1495 -22.3185 -9.0481 -0.5419 -10.2313 22.6927
#
#
#
# Elastic Compliance Matrix: (Units=1/GPa)
#
#
# Indices 1 2 3 4 5 6 
#
# 1 0.021102 0.002083 0.000721 -0.007658 -0.009725 0.018366
# 2 0.002083 0.018880 -0.001502 -0.003246 0.000787 0.020280
# 3 0.000721 -0.001502 0.015856 0.003111 -0.001278 0.005047
# 4 -0.007658 -0.003246 0.003111 0.041067 0.004814 -0.006276
# 5 -0.009725 0.000787 -0.001278 0.004814 0.038697 0.008334
# 6 0.018366 0.020280 0.005047 -0.006276 0.008334 0.087559
#
#
# Mechanical properties :
#
#
# Convention : Reuss Voigt Hill
#
# Bulk Modulus (GPa) = 17.11090 32.59505 24.85298
# Shear Modulus (GPa) = 20.83013 29.36805 25.09909
#
# Velocity S-wave (km/s) = 3.21117 3.81289 3.52489
# Velocity P-wave (km/s) = 4.71373 5.95985 5.37303
#
# Compressibility (1/GPa) = 0.05844226
#
# Stress axis : x y z
#
# Youngs Moduli (GPa) = 47.38920 52.96604 63.06909
#
# Poissons Ratio (x) = -0.11034 -0.04549
# Poissons Ratio (y) = -0.09872 0.09474
# Poissons Ratio (z) = -0.03418 0.07956
#
# Static dielectric constant tensor:
#      x y z
#    x 3.821800 -0.255430 0.108040 
#    y -0.255430 3.480510 -0.196690 
#    z 0.108040 -0.196690 3.734210 
# 
# 
# High freq. dielectric constant tensor:
#      x y z
#    x 1.797090 -0.017800 0.002530 
#    y -0.017800 1.757890 -0.026330 
#    z 0.002530 -0.026330 1.798250 
# 
# From -- ./inp_files/366700.got.cif
#   From: 2010.06.25/outbox.cif.g09.slc.cpg/sg2_184_cif.got.tgz:366700.got - 2010.06.27 13:26:56.
