data_PCOD8002699
_publ_section_title
;
Structure prediction by ZEFSAII (Michael W. Deem and Ramdas Pophale) SiO2 
 PCOD8002699
Probable space group: P -1
;
_chemical_formula_sum "Si O2"
_cell_formula_units_Z 16
_cell_length_a 18.489570
_cell_length_b 8.134857
_cell_length_c 6.530765
_cell_angle_alpha 126.214855
_cell_angle_beta 73.685962
_cell_angle_gamma 97.947530
_cell_volume 760.124241
_symmetry_space_group_name_H-M "P -1"
_symmetry_group_IT_number 2
_symmetry_cell_setting 'triclinic'
loop_
_space_group_symop_operation_xyz
x,y,z
-x,-y,-z
loop_
_atom_site_type_symbol
_atom_site_label
_atom_site_fract_x
_atom_site_fract_y
_atom_site_fract_z
Si Si1 0.400599 0.100832 0.327841
Si Si2 0.473931 0.202576 0.943691
Si Si3 0.723159 0.204609 0.740620
Si Si4 0.109769 0.383027 0.685325
Si Si5 0.591936 0.526843 0.154998
Si Si6 0.160764 0.730256 0.639379
Si Si7 0.143527 0.937060 0.201317
Si Si8 0.059225 0.634926 0.271341
O O1 0.419304 0.092376 0.065274
O O2 0.396529 0.340631 0.554859
O O3 0.321111 0.004160 0.369294
O O4 0.465937 0.974022 0.310195
O O5 0.522296 0.381693 0.138484
O O6 0.422944 0.302073 0.881083
O O7 0.760958 0.230923 0.507580
O O8 0.785736 0.196681 0.862470
O O9 0.668426 0.400304 0.958172
O O10 0.166149 0.536814 0.644957
O O11 0.028599 0.400510 0.650205
O O12 0.147115 0.160610 0.458750
O O13 0.099154 0.438894 0.976885
O O14 0.095039 0.687361 0.498944
O O15 0.143974 0.928391 0.945736
O O16 0.067713 0.830317 0.258929
#
# Coordination Sequence:
#
# PCOD8002699 Si02
#       8
#     2   2   2   2   2   2   2   2
#     4  10  20  36  58  81 110 144 179 226 278 327
#     4   9  20  36  57  87 107 133 184 228 275 329
#     4  10  24  37  50  81 114 147 189 224 268 334
#     4  10  20  36  61  84 110 148 185 234 288 331
#     4  10  20  37  59  80 110 144 178 228 277 324
#     4  10  22  38  55  81 115 148 189 232 274 336
#     4  10  22  38  56  81 114 149 188 232 278 333
#     4   9  20  38  58  86 113 139 187 239 285 334
#
# _framework density 21.049189999999999
#
# number of rings (size 3 to 8) (size 9 to 14) (size 15 to 20)
#    0.000    2.250    0.000    1.500    0.000    9.500 
#    0.000    2.500    0.000    0.000    0.000    0.000 
#    0.000    0.000    0.000    0.000    0.000    0.000 
#
# Total GULP energy -198322.659045 kJ/mol
# GULP energy per Si atom -12395.166190 kJ/mol
# Density = 2.100128 g / cm^3
# Si number density = 21.049190 Si / 1000 Ang^3
#
#
#
# Elastic Constant Matrix: (Units=GPa)
#
#
# Indices 1 2 3 4 5 6 
#
# 1 71.9870 28.2952 30.8258 -8.9018 -8.9838 8.2101
# 2 28.2952 80.1665 30.9921 -0.3464 -13.4402 11.7573
# 3 30.8258 30.9921 112.9958 7.4793 0.2292 -2.5268
# 4 -8.9018 -0.3464 7.4793 35.9555 1.6020 -1.8606
# 5 -8.9838 -13.4402 0.2292 1.6020 22.5720 -5.0750
# 6 8.2101 11.7573 -2.5268 -1.8606 -5.0750 38.0754
#
#
#
# Elastic Compliance Matrix: (Units=1/GPa)
#
#
# Indices 1 2 3 4 5 6 
#
# 1 0.018758 -0.003791 -0.004484 0.005225 0.004358 -0.002335
# 2 -0.003791 0.017120 -0.003724 -0.000543 0.007933 -0.003685
# 3 -0.004484 -0.003724 0.011367 -0.003243 -0.003379 0.002262
# 4 0.005225 -0.000543 -0.003243 0.029800 -0.000270 0.000246
# 5 0.004358 0.007933 -0.003379 -0.000270 0.051543 0.003243
# 6 -0.002335 -0.003685 0.002262 0.000246 0.003243 0.028500
#
#
# Mechanical properties :
#
#
# Convention : Reuss Voigt Hill
#
# Bulk Modulus (GPa) = 43.01884 49.48616 46.25250
# Shear Modulus (GPa) = 26.47803 30.98966 28.73385
#
# Velocity S-wave (km/s) = 3.55055 3.84115 3.69871
# Velocity P-wave (km/s) = 6.10657 6.57521 6.34522
#
# Compressibility (1/GPa) = 0.02324563
#
# Stress axis : x y z
#
# Youngs Moduli (GPa) = 53.30966 58.41142 87.97632
#
# Poissons Ratio (x) = 0.22147 0.39452
# Poissons Ratio (y) = 0.20212 0.32761
# Poissons Ratio (z) = 0.23906 0.21751
#
# Static dielectric constant tensor:
#      x y z
#    x 3.652470 0.223270 0.007720 
#    y 0.223270 3.757950 0.052410 
#    z 0.007720 0.052410 3.806100 
# 
# 
# High freq. dielectric constant tensor:
#      x y z
#    x 1.812330 0.017910 0.001670 
#    y 0.017910 1.821550 0.003850 
#    z 0.001670 0.003850 1.827030 
# 
# From -- ./inp_files/56805.got.cif
#   From: 2010.06.25/outbox.cif.g09.slc.cpg/sg2_29_cif.got.tgz:56805.got - 2010.06.27 13:26:56.
