data_PCOD8002981
_publ_section_title
;
Structure prediction by ZEFSAII (Michael W. Deem and Ramdas Pophale) SiO2 
 PCOD8002981
Probable space group: P -1
;
_chemical_formula_sum "Si O2"
_cell_formula_units_Z 14
_cell_length_a 15.767963
_cell_length_b 10.972046
_cell_length_c 5.466463
_cell_angle_alpha 98.950683
_cell_angle_beta 98.056025
_cell_angle_gamma 137.569700
_cell_volume 582.359263
_symmetry_space_group_name_H-M "P -1"
_symmetry_group_IT_number 2
_symmetry_cell_setting 'triclinic'
loop_
_space_group_symop_operation_xyz
x,y,z
-x,-y,-z
loop_
_atom_site_type_symbol
_atom_site_label
_atom_site_fract_x
_atom_site_fract_y
_atom_site_fract_z
Si Si1 0.843957 0.431361 0.202160
Si Si2 0.073999 0.731805 0.744552
Si Si3 0.590932 0.296409 0.085930
Si Si4 0.278307 0.346253 0.003056
Si Si5 0.017827 0.192723 0.896650
Si Si6 0.490561 0.267610 0.543561
Si Si7 0.769770 0.932998 0.411342
O O1 0.865389 0.313508 0.082531
O O2 0.683809 0.277657 0.135360
O O3 0.924132 0.529477 0.522106
O O4 0.902401 0.593605 0.083231
O O5 0.181569 0.880803 0.617925
O O6 0.063031 0.851404 0.912743
O O7 0.691243 0.527624 0.174463
O O8 0.503612 0.209879 0.273718
O O9 0.499442 0.188794 0.766103
O O10 0.293289 0.224174 0.874722
O O11 0.125145 0.203230 0.995969
O O12 0.388260 0.494285 0.309557
O O13 0.902900 0.015745 0.607279
O O14 0.343935 0.169363 0.459721
#
# Coordination Sequence:
#
# PCOD8002981 Si02
#       7
#     2   2   2   2   2   2   2
#     4   9  19  39  59  88 113 157 207 244 300 357
#     4  10  21  35  61  86 122 154 197 254 300 356
#     4   9  21  39  65  86 115 161 205 243 289 357
#     4   9  21  38  60  87 120 162 200 243 296 360
#     4  10  20  36  61  85 119 153 201 250 301 352
#     4  10  22  40  63  88 122 161 201 242 298 357
#     4  11  23  36  54  94 121 155 198 248 302 353
#
# _framework density 24.040141999999999
#
# number of rings (size 3 to 8) (size 9 to 14) (size 15 to 20)
#    0.857    1.429    0.000    2.143    2.000    2.286 
#    0.000    1.429    0.000    0.000    0.000    0.000 
#    0.000    0.000    0.000    0.000    0.000    0.000 
#
# Total GULP energy -173491.215928 kJ/mol
# GULP energy per Si atom -12392.229709 kJ/mol
# Density = 2.398543 g / cm^3
# Si number density = 24.040142 Si / 1000 Ang^3
#
#
#
# Elastic Constant Matrix: (Units=GPa)
#
#
# Indices 1 2 3 4 5 6 
#
# 1 88.9528 24.2679 0.9138 -5.1847 -9.6283 22.6942
# 2 24.2679 40.2634 9.8101 -4.0891 2.0936 26.6413
# 3 0.9138 9.8101 70.0188 -19.3937 -8.3178 6.0989
# 4 -5.1847 -4.0891 -19.3937 22.8353 8.6909 -5.8516
# 5 -9.6283 2.0936 -8.3178 8.6909 29.5502 -1.5389
# 6 22.6942 26.6413 6.0989 -5.8516 -1.5389 36.4265
#
#
#
# Elastic Compliance Matrix: (Units=1/GPa)
#
#
# Indices 1 2 3 4 5 6 
#
# 1 0.014783 -0.006809 0.001953 0.000643 0.005440 -0.004225
# 2 -0.006809 0.053620 -0.006210 -0.002792 -0.008754 -0.034753
# 3 0.001953 -0.006210 0.019516 0.015810 0.002060 0.002684
# 4 0.000643 -0.002792 0.015810 0.064280 -0.013592 0.008746
# 5 0.005440 -0.008754 0.002060 -0.013592 0.040926 0.002214
# 6 -0.004225 -0.034753 0.002684 0.008746 0.002214 0.056551
#
#
# Mechanical properties :
#
#
# Convention : Reuss Voigt Hill
#
# Bulk Modulus (GPa) = 15.19985 29.91317 22.55651
# Shear Modulus (GPa) = 17.02206 28.71195 22.86700
#
# Velocity S-wave (km/s) = 2.66384 3.45966 3.08750
# Velocity P-wave (km/s) = 3.97465 5.33189 4.70249
#
# Compressibility (1/GPa) = 0.06579013
#
# Stress axis : x y z
#
# Youngs Moduli (GPa) = 67.64306 18.64973 51.23870
#
# Poissons Ratio (x) = 0.12698 -0.10009
# Poissons Ratio (y) = 0.46055 0.31818
# Poissons Ratio (z) = -0.13214 0.11581
#
# Static dielectric constant tensor:
#      x y z
#    x 4.162410 0.204580 0.005140 
#    y 0.204580 4.000310 -0.028150 
#    z 0.005140 -0.028150 3.888360 
# 
# 
# High freq. dielectric constant tensor:
#      x y z
#    x 1.948920 0.016360 0.002140 
#    y 0.016360 1.939280 -0.003230 
#    z 0.002140 -0.003230 1.927670 
# 
# From -- ./inp_files/78509.got.cif
#   From: 2010.06.25/outbox.cif.g09.slc.cpg/sg2_40_cif.got.tgz:78509.got - 2010.06.27 13:26:56.
