data_PCOD8002218
_publ_section_title
;
Structure prediction by ZEFSAII (Michael W. Deem and Ramdas Pophale) SiO2 
 PCOD8002218
Probable space group: P -1
;
_chemical_formula_sum "Si O2"
_cell_formula_units_Z 14
_cell_length_a 18.399211
_cell_length_b 11.724270
_cell_length_c 10.146476
_cell_angle_alpha 39.063896
_cell_angle_beta 132.080969
_cell_angle_gamma 151.448553
_cell_volume 658.740038
_symmetry_space_group_name_H-M "P -1"
_symmetry_group_IT_number 2
_symmetry_cell_setting 'triclinic'
loop_
_space_group_symop_operation_xyz
x,y,z
-x,-y,-z
loop_
_atom_site_type_symbol
_atom_site_label
_atom_site_fract_x
_atom_site_fract_y
_atom_site_fract_z
Si Si1 0.677889 0.889036 0.471258
Si Si2 0.935323 0.657822 0.827303
Si Si3 0.529377 0.717376 0.161201
Si Si4 0.717400 0.367362 0.484720
Si Si5 0.953360 0.064514 0.555322
Si Si6 0.431233 0.919342 0.703366
Si Si7 0.203466 0.825846 0.080578
O O1 0.595285 0.815761 0.299775
O O2 0.592899 0.615006 0.698200
O O3 0.679072 0.078736 0.381085
O O4 0.850882 0.063024 0.510507
O O5 0.803487 0.345285 0.887350
O O6 0.048510 0.876798 0.650894
O O7 0.876282 0.753955 0.745517
O O8 0.041873 0.693576 0.023309
O O9 0.459010 0.812211 0.948797
O O10 0.661765 0.853744 0.093636
O O11 0.587726 0.232070 0.557735
O O12 0.757388 0.211339 0.698995
O O13 0.872623 0.702525 0.389292
O O14 0.654245 0.306168 0.316739
#
# Coordination Sequence:
#
# PCOD8002218 Si02
#       7
#     2   2   2   2   2   2   2
#     4  11  23  37  60  90 119 152 192 238 296 345
#     4   9  18  32  58  87 118 141 192 243 289 336
#     4  10  22  38  59  87 117 152 195 234 293 349
#     4   9  21  40  61  83 113 154 199 237 286 343
#     4  10  20  35  57  90 117 147 191 244 289 341
#     4  10  22  43  60  82 119 157 195 239 284 349
#     4   9  17  35  59  87 110 151 192 237 290 335
#
# _framework density 21.252693000000001
#
# number of rings (size 3 to 8) (size 9 to 14) (size 15 to 20)
#    0.000    2.286    1.429    0.429    2.000    7.429 
#    2.571    2.857    0.000    0.000    0.000    0.000 
#    0.000    0.000    0.000    0.000    0.000    0.000 
#
# Total GULP energy -173481.172592 kJ/mol
# GULP energy per Si atom -12391.512328 kJ/mol
# Density = 2.120432 g / cm^3
# Si number density = 21.252693 Si / 1000 Ang^3
#
#
#
# Elastic Constant Matrix: (Units=GPa)
#
#
# Indices 1 2 3 4 5 6 
#
# 1 85.4340 14.7398 24.3317 6.8883 23.4170 10.1268
# 2 14.7398 75.6884 24.2378 4.4147 5.6160 11.1403
# 3 24.3317 24.2378 80.6189 -4.8053 5.6233 1.8709
# 4 6.8883 4.4147 -4.8053 29.3766 1.9189 5.5474
# 5 23.4170 5.6160 5.6233 1.9189 23.1598 2.6073
# 6 10.1268 11.1403 1.8709 5.5474 2.6073 19.2353
#
#
#
# Elastic Compliance Matrix: (Units=1/GPa)
#
#
# Indices 1 2 3 4 5 6 
#
# 1 0.018518 0.000170 -0.004494 -0.002815 -0.016728 -0.006331
# 2 0.000170 0.016121 -0.004666 -0.001540 -0.001889 -0.008272
# 3 -0.004494 -0.004666 0.015233 0.003716 0.001407 0.002324
# 4 -0.002815 -0.001540 0.003716 0.037176 0.000221 -0.008739
# 5 -0.016728 -0.001889 0.001407 0.000221 0.060014 0.001565
# 6 -0.006331 -0.008272 0.002324 -0.008739 0.001565 0.062194
#
#
# Mechanical properties :
#
#
# Convention : Reuss Voigt Hill
#
# Bulk Modulus (GPa) = 31.35664 40.92889 36.14277
# Shear Modulus (GPa) = 21.02035 26.24979 23.63507
#
# Velocity S-wave (km/s) = 3.14836 3.51825 3.33843
# Velocity P-wave (km/s) = 5.29173 5.98366 5.64830
#
# Compressibility (1/GPa) = 0.03189117
#
# Stress axis : x y z
#
# Youngs Moduli (GPa) = 54.00192 62.03209 65.64863
#
# Poissons Ratio (x) = -0.01055 0.29503
# Poissons Ratio (y) = -0.00919 0.30632
# Poissons Ratio (z) = 0.24269 0.28944
#
# Static dielectric constant tensor:
#      x y z
#    x 3.511350 0.187550 0.212710 
#    y 0.187550 3.675390 -0.039070 
#    z 0.212710 -0.039070 4.026150 
# 
# 
# High freq. dielectric constant tensor:
#      x y z
#    x 1.797380 0.021220 0.018200 
#    y 0.021220 1.823460 -0.000130 
#    z 0.018200 -0.000130 1.835560 
# 
# From -- ./inp_files/332753.got.cif
#   From: 2010.06.25/outbox.cif.g09.slc.cpg/sg2_167_cif.got.tgz:332753.got - 2010.06.27 13:26:56.
