data_PCOD8002792
_publ_section_title
;
Structure prediction by ZEFSAII (Michael W. Deem and Ramdas Pophale) SiO2 
 PCOD8002792
Probable space group: P -1
;
_chemical_formula_sum "Si O2"
_cell_formula_units_Z 16
_cell_length_a 9.232346
_cell_length_b 5.992695
_cell_length_c 20.800572
_cell_angle_alpha 70.784251
_cell_angle_beta 62.246855
_cell_angle_gamma 49.251342
_cell_volume 771.003949
_symmetry_space_group_name_H-M "P -1"
_symmetry_group_IT_number 2
_symmetry_cell_setting 'triclinic'
loop_
_space_group_symop_operation_xyz
x,y,z
-x,-y,-z
loop_
_atom_site_type_symbol
_atom_site_label
_atom_site_fract_x
_atom_site_fract_y
_atom_site_fract_z
Si Si1 0.947759 0.613044 0.848115
Si Si2 0.727540 0.390840 0.972452
Si Si3 0.771427 0.955913 0.232231
Si Si4 0.323319 0.322075 0.334335
Si Si5 0.162471 0.562523 0.471336
Si Si6 0.046012 0.959868 0.275381
Si Si7 0.098903 0.759739 0.914963
Si Si8 0.001011 0.805950 0.605812
O O1 0.765667 0.583098 0.899731
O O2 0.115477 0.370756 0.787222
O O3 0.057701 0.565259 0.898361
O O4 0.861928 0.931076 0.805443
O O5 0.500000 0.500000 0.000000
O O6 0.763694 0.435547 0.034577
O O7 0.880638 0.048949 0.954957
O O8 0.876882 0.944717 0.277766
O O9 0.541174 0.080553 0.282164
O O10 0.774520 0.157980 0.159374
O O11 0.348290 0.333927 0.406349
O O12 0.232169 0.641664 0.292670
O O13 0.179722 0.228951 0.354108
O O14 0.000000 0.500000 0.500000
O O15 0.192447 0.552200 0.544404
O O16 0.078411 0.884267 0.436285
O O17 0.933238 0.199895 0.333938
#
# Coordination Sequence:
#
# PCOD8002792 Si02
#       8
#     2   2   2   2   2   2   2   2
#     4  10  21  39  59  82 118 153 185 232 286 337
#     4  10  21  39  61  85 112 144 187 235 281 334
#     4  10  22  38  56  83 118 151 189 236 282 336
#     4  10  20  36  59  84 114 152 193 235 285 340
#     4   8  16  32  55  84 114 148 191 237 283 334
#     4  10  21  37  56  83 117 151 191 238 286 337
#     4   9  21  39  57  82 115 148 184 231 282 335
#     4   9  17  32  58  83 111 152 192 235 287 335
#
# _framework density 20.752165999999999
#
# number of rings (size 3 to 8) (size 9 to 14) (size 15 to 20)
#    0.000    2.500    0.000    1.125    0.000    8.500 
#    0.000    6.875    0.000   30.750    0.000    0.000 
#    0.000    0.000    0.000    0.000    0.000    0.000 
#
# Total GULP energy -198251.698031 kJ/mol
# GULP energy per Si atom -12390.731127 kJ/mol
# Density = 2.070493 g / cm^3
# Si number density = 20.752166 Si / 1000 Ang^3
#
#
#
# Elastic Constant Matrix: (Units=GPa)
#
#
# Indices 1 2 3 4 5 6 
#
# 1 110.3256 54.4683 70.6234 12.2892 10.8430 9.8441
# 2 54.4683 59.1826 44.3174 5.0212 -10.6214 12.3196
# 3 70.6234 44.3174 123.1247 20.3038 2.7527 -1.8570
# 4 12.2892 5.0212 20.3038 32.2877 11.0252 1.5911
# 5 10.8430 -10.6214 2.7527 11.0252 44.8523 7.3167
# 6 9.8441 12.3196 -1.8570 1.5911 7.3167 29.3295
#
#
#
# Elastic Compliance Matrix: (Units=1/GPa)
#
#
# Indices 1 2 3 4 5 6 
#
# 1 0.023285 -0.019090 -0.006490 0.001672 -0.010543 0.002332
# 2 -0.019090 0.046593 -0.006235 -0.001802 0.019462 -0.018316
# 3 -0.006490 -0.006235 0.015235 -0.006346 -0.000291 0.006179
# 4 0.001672 -0.001802 -0.006346 0.037942 -0.009798 0.000180
# 5 -0.010543 0.019462 -0.000291 -0.009798 0.033933 -0.012588
# 6 0.002332 -0.018316 0.006179 0.000180 -0.012588 0.044528
#
#
# Mechanical properties :
#
#
# Convention : Reuss Voigt Hill
#
# Bulk Modulus (GPa) = 46.54714 70.16122 58.35418
# Shear Modulus (GPa) = 18.36162 29.50883 23.93523
#
# Velocity S-wave (km/s) = 2.97779 3.77498 3.39984
# Velocity P-wave (km/s) = 5.85677 7.27208 6.60246
#
# Compressibility (1/GPa) = 0.02148360
#
# Stress axis : x y z
#
# Youngs Moduli (GPa) = 42.94612 21.46225 65.63914
#
# Poissons Ratio (x) = 0.40971 0.42599
# Poissons Ratio (y) = 0.81983 0.40928
# Poissons Ratio (z) = 0.27871 0.13382
#
# Static dielectric constant tensor:
#      x y z
#    x 3.588230 0.439000 0.354280 
#    y 0.439000 3.546130 0.124580 
#    z 0.354280 0.124580 4.424510 
# 
# 
# High freq. dielectric constant tensor:
#      x y z
#    x 1.793100 0.043960 0.010600 
#    y 0.043960 1.789190 -0.001840 
#    z 0.010600 -0.001840 1.842260 
# 
# From -- ./inp_files/9919.got.cif
#   From: 2010.06.25/outbox.cif.g09.slc.cpg/sg2_5_cif.got.tgz:9919.got - 2010.06.27 13:26:56.
