data_PCOD8002433
_publ_section_title
;
Structure prediction by ZEFSAII (Michael W. Deem and Ramdas Pophale) SiO2 
 PCOD8002433
Probable space group: P -1
;
_chemical_formula_sum "Si O2"
_cell_formula_units_Z 16
_cell_length_a 15.098627
_cell_length_b 12.065484
_cell_length_c 11.435583
_cell_angle_alpha 77.508435
_cell_angle_beta 58.865074
_cell_angle_gamma 29.406896
_cell_volume 727.091510
_symmetry_space_group_name_H-M "P -1"
_symmetry_group_IT_number 2
_symmetry_cell_setting 'triclinic'
loop_
_space_group_symop_operation_xyz
x,y,z
-x,-y,-z
loop_
_atom_site_type_symbol
_atom_site_label
_atom_site_fract_x
_atom_site_fract_y
_atom_site_fract_z
Si Si1 0.871167 0.614497 0.686067
Si Si2 0.043036 0.223911 0.381345
Si Si3 0.195685 0.509871 0.756549
Si Si4 0.427451 0.264743 0.252887
Si Si5 0.727406 0.809197 0.309781
Si Si6 0.820825 0.142389 0.243787
Si Si7 0.844370 0.999123 0.024740
Si Si8 0.615620 0.250274 0.586997
O O1 0.635677 0.765099 0.798088
O O2 0.000000 0.500000 0.500000
O O3 0.803472 0.810305 0.726602
O O4 0.048012 0.380503 0.715109
O O5 0.931543 0.305270 0.312762
O O6 0.818403 0.458882 0.572657
O O7 0.224973 0.943130 0.363866
O O8 0.199845 0.369917 0.780829
O O9 0.474012 0.280906 0.626889
O O10 0.039414 0.703398 0.932303
O O11 0.568410 0.236163 0.113453
O O12 0.644709 0.998262 0.247654
O O13 0.500000 0.000000 0.500000
O O14 0.838971 0.026008 0.161456
O O15 0.804865 0.103753 0.391479
O O16 0.575076 0.461650 0.311438
O O17 0.066520 0.975938 0.108815
#
# Coordination Sequence:
#
# PCOD8002433 Si02
#       8
#     2   2   2   2   2   2   2   2
#     4   9  18  31  53  89 118 147 189 237 284 337
#     4  10  20  35  61  94 114 149 201 247 289 345
#     4  10  21  38  61  90 124 156 193 240 295 359
#     4  11  21  35  59  86 121 160 192 238 293 353
#     4  11  19  34  59  91 121 152 195 243 281 338
#     4   9  21  42  64  85 113 154 205 257 302 347
#     4  10  22  41  58  84 124 160 195 241 308 365
#     4  10  20  39  68  89 110 149 206 261 292 340
#
# _framework density 22.005482000000001
#
# number of rings (size 3 to 8) (size 9 to 14) (size 15 to 20)
#    0.000    2.000    3.750    1.500    1.750    0.500 
#    0.000   20.000    0.000    0.000    0.000    0.000 
#    0.000    0.000    0.000    0.000    0.000    0.000 
#
# Total GULP energy -198331.849276 kJ/mol
# GULP energy per Si atom -12395.740580 kJ/mol
# Density = 2.195540 g / cm^3
# Si number density = 22.005482 Si / 1000 Ang^3
#
#
#
# Elastic Constant Matrix: (Units=GPa)
#
#
# Indices 1 2 3 4 5 6 
#
# 1 108.6460 17.7330 48.5884 10.5759 -19.0059 -4.2687
# 2 17.7330 117.0969 12.0541 2.6836 2.0113 -16.6542
# 3 48.5884 12.0541 88.2505 5.6703 -12.4343 0.3278
# 4 10.5759 2.6836 5.6703 13.1040 2.8178 5.1953
# 5 -19.0059 2.0113 -12.4343 2.8178 44.3689 8.5690
# 6 -4.2687 -16.6542 0.3278 5.1953 8.5690 22.9172
#
#
#
# Elastic Compliance Matrix: (Units=1/GPa)
#
#
# Indices 1 2 3 4 5 6 
#
# 1 0.014100 -0.000924 -0.006348 -0.010494 0.004435 0.002766
# 2 -0.000924 0.010229 -0.001045 -0.003959 -0.002672 0.009173
# 3 -0.006348 -0.001045 0.015333 -0.000647 0.002215 -0.002842
# 4 -0.010494 -0.003959 -0.000647 0.096887 -0.005903 -0.024580
# 5 0.004435 -0.002672 0.002215 -0.005903 0.027504 -0.010094
# 6 0.002766 0.009173 -0.002842 -0.024580 -0.010094 0.060204
#
#
# Mechanical properties :
#
#
# Convention : Reuss Voigt Hill
#
# Bulk Modulus (GPa) = 43.42396 52.30494 47.86445
# Shear Modulus (GPa) = 20.11530 31.78589 25.95059
#
# Velocity S-wave (km/s) = 3.02670 3.80472 3.43779
# Velocity P-wave (km/s) = 5.65602 6.56672 6.12831
#
# Compressibility (1/GPa) = 0.02302876
#
# Stress axis : x y z
#
# Youngs Moduli (GPa) = 70.92209 97.76445 65.21728
#
# Poissons Ratio (x) = 0.09034 0.41400
# Poissons Ratio (y) = 0.06554 0.06813
# Poissons Ratio (z) = 0.45021 0.10212
#
# Static dielectric constant tensor:
#      x y z
#    x 4.470890 0.014860 -0.144890 
#    y 0.014860 3.508520 0.157130 
#    z -0.144890 0.157130 3.830740 
# 
# 
# High freq. dielectric constant tensor:
#      x y z
#    x 1.879050 0.003620 -0.005260 
#    y 0.003620 1.836730 0.004150 
#    z -0.005260 0.004150 1.852340 
# 
# From -- ./inp_files/452270.got.cif
#   From: 2010.06.25/outbox.cif.g09.slc.cpg/sg2_227_cif.got.tgz:452270.got - 2010.06.27 13:26:56.
