data_PCOD8002732
_publ_section_title
;
Structure prediction by ZEFSAII (Michael W. Deem and Ramdas Pophale) SiO2 
 PCOD8002732
Probable space group: P -1
;
_chemical_formula_sum "Si O2"
_cell_formula_units_Z 14
_cell_length_a 16.702028
_cell_length_b 6.425990
_cell_length_c 6.492679
_cell_angle_alpha 89.898027
_cell_angle_beta 102.654950
_cell_angle_gamma 89.949495
_cell_volume 679.910258
_symmetry_space_group_name_H-M "P -1"
_symmetry_group_IT_number 2
_symmetry_cell_setting 'triclinic'
loop_
_space_group_symop_operation_xyz
x,y,z
-x,-y,-z
loop_
_atom_site_type_symbol
_atom_site_label
_atom_site_fract_x
_atom_site_fract_y
_atom_site_fract_z
Si Si1 0.250227 0.192038 0.751654
Si Si2 0.459415 0.690342 0.363419
Si Si3 0.170908 0.396833 0.330096
Si Si4 0.387677 0.070161 0.539401
Si Si5 0.112756 0.069712 0.963401
Si Si6 0.959867 0.310313 0.862707
Si Si7 0.328585 0.397978 0.171997
O O1 0.194738 0.333298 0.573138
O O2 0.311292 0.051436 0.650956
O O3 0.189650 0.050965 0.853688
O O4 0.305202 0.334562 0.929090
O O5 0.500000 0.500000 0.500000
O O6 0.533134 0.824106 0.301349
O O7 0.392811 0.587877 0.172916
O O8 0.410161 0.835893 0.494407
O O9 0.106182 0.586000 0.328905
O O10 0.249555 0.483777 0.250558
O O11 0.134208 0.201579 0.181077
O O12 0.365650 0.202877 0.321801
O O13 0.033972 0.176460 0.802648
O O14 0.090005 0.835487 0.007873
O O15 0.000000 0.500000 0.000000
#
# Coordination Sequence:
#
# PCOD8002732 Si02
#       7
#     2   2   2   2   2   2   2
#     4  10  20  36  58  86 116 148 190 234 280 334
#     4   9  18  37  59  78 110 151 186 228 281 332
#     4   9  19  35  55  83 115 147 187 232 277 329
#     4   9  19  37  57  80 113 148 185 233 282 330
#     4   9  19  37  57  80 113 148 185 233 282 330
#     4   9  18  37  59  78 110 151 186 228 281 332
#     4   9  19  35  55  83 115 147 187 232 277 329
#
# _framework density 20.590952999999999
#
# number of rings (size 3 to 8) (size 9 to 14) (size 15 to 20)
#    0.000    2.857    0.000    0.000    0.000    4.571 
#    0.000   35.714    0.000    0.000    0.000    0.000 
#    0.000    0.000    0.000    0.000    0.000    0.000 
#
# Total GULP energy -173466.677397 kJ/mol
# GULP energy per Si atom -12390.476957 kJ/mol
# Density = 2.054409 g / cm^3
# Si number density = 20.590953 Si / 1000 Ang^3
#
#
#
# Elastic Constant Matrix: (Units=GPa)
#
#
# Indices 1 2 3 4 5 6 
#
# 1 143.1887 70.2125 48.9615 0.8450 5.5260 1.0981
# 2 70.2125 118.0814 40.5114 0.5981 4.4490 0.7294
# 3 48.9615 40.5114 90.5831 0.5643 7.0457 0.5703
# 4 0.8450 0.5981 0.5643 3.3369 0.1029 -5.2315
# 5 5.5260 4.4490 7.0457 0.1029 30.9870 0.2189
# 6 1.0981 0.7294 0.5703 -5.2315 0.2189 15.5059
#
#
#
# Elastic Compliance Matrix: (Units=1/GPa)
#
#
# Indices 1 2 3 4 5 6 
#
# 1 0.010740 -0.005165 -0.003432 -0.003837 -0.000369 -0.001681
# 2 -0.005165 0.012510 -0.002773 -0.001364 -0.000236 -0.000577
# 3 -0.003432 -0.002773 0.014330 -0.002504 -0.002233 -0.000967
# 4 -0.003837 -0.001364 -0.002504 0.641350 -0.002213 0.216841
# 5 -0.000369 -0.000236 -0.002233 -0.002213 0.032894 -0.001092
# 6 -0.001681 -0.000577 -0.000967 0.216841 -0.001092 0.137847
#
#
# Mechanical properties :
#
#
# Convention : Reuss Voigt Hill
#
# Bulk Modulus (GPa) = 67.38106 74.58043 70.98075
# Shear Modulus (GPa) = 5.69893 22.77713 14.23803
#
# Velocity S-wave (km/s) = 1.66544 3.32952 2.63243
# Velocity P-wave (km/s) = 6.04094 7.14700 6.61712
#
# Compressibility (1/GPa) = 0.01484097
#
# Stress axis : x y z
#
# Youngs Moduli (GPa) = 93.11348 79.93316 69.78317
#
# Poissons Ratio (x) = 0.41283 0.23949
# Poissons Ratio (y) = 0.48091 0.19350
# Poissons Ratio (z) = 0.31956 0.22165
#
# Static dielectric constant tensor:
#      x y z
#    x 4.476280 0.001410 0.450540 
#    y 0.001410 3.760380 0.001900 
#    z 0.450540 0.001900 3.442990 
# 
# 
# High freq. dielectric constant tensor:
#      x y z
#    x 1.835390 0.000100 0.022760 
#    y 0.000100 1.798510 0.000190 
#    z 0.022760 0.000190 1.763730 
# 
# From -- ./inp_files/7995.got.cif
#   From: 2010.06.25/outbox.cif.g09.slc.cpg/sg2_4_cif.got.tgz:7995.got - 2010.06.27 13:26:56.
