data_PCOD8002658
_publ_section_title
;
Structure prediction by ZEFSAII (Michael W. Deem and Ramdas Pophale) SiO2 
 PCOD8002658
Probable space group: P -1
;
_chemical_formula_sum "Si O2"
_cell_formula_units_Z 16
_cell_length_a 9.534771
_cell_length_b 8.160257
_cell_length_c 14.746384
_cell_angle_alpha 71.792477
_cell_angle_beta 44.405989
_cell_angle_gamma 81.116436
_cell_volume 758.557818
_symmetry_space_group_name_H-M "P -1"
_symmetry_group_IT_number 2
_symmetry_cell_setting 'triclinic'
loop_
_space_group_symop_operation_xyz
x,y,z
-x,-y,-z
loop_
_atom_site_type_symbol
_atom_site_label
_atom_site_fract_x
_atom_site_fract_y
_atom_site_fract_z
Si Si1 0.431094 0.987144 0.136166
Si Si2 0.608847 0.237575 0.340808
Si Si3 0.277156 0.149112 0.841382
Si Si4 0.600780 0.129312 0.561478
Si Si5 0.518864 0.369729 0.095452
Si Si6 0.713033 0.586588 0.628092
Si Si7 0.872976 0.226984 0.581595
Si Si8 0.128298 0.755152 0.945147
O O1 0.428279 0.176524 0.146310
O O2 0.579918 0.863994 0.136078
O O3 0.208425 0.888177 0.273558
O O4 0.500000 0.000000 0.000000
O O5 0.669006 0.226489 0.419988
O O6 0.455185 0.381815 0.374486
O O7 0.812282 0.286028 0.179193
O O8 0.482846 0.067094 0.387472
O O9 0.416609 0.217625 0.679671
O O10 0.174398 0.958656 0.902198
O O11 0.111875 0.283559 0.917352
O O12 0.791484 0.134756 0.541018
O O13 0.389965 0.442772 0.221845
O O14 0.750431 0.358173 0.021896
O O15 0.500000 0.500000 0.000000
O O16 0.802349 0.417043 0.582495
O O17 0.885361 0.750301 0.527881
#
# Coordination Sequence:
#
# PCOD8002658 Si02
#       8
#     2   2   2   2   2   2   2   2
#     4  10  20  36  57  85 113 148 190 236 287 342
#     4   9  18  34  55  83 113 146 186 233 293 338
#     4   8  15  31  52  79 108 143 184 226 276 333
#     4   9  18  34  56  82 111 146 188 236 283 346
#     4  10  20  36  59  82 116 152 185 235 290 341
#     4  10  21  38  57  81 113 155 192 239 289 331
#     4  10  21  38  57  81 115 150 196 238 282 339
#     4   8  15  31  53  77 109 144 182 225 275 338
#
# _framework density 21.092656000000002
#
# number of rings (size 3 to 8) (size 9 to 14) (size 15 to 20)
#    0.000    2.750    0.000    3.000    0.000    2.500 
#   18.000    0.000    0.000    6.750    0.000    0.000 
#    0.000    0.000    0.000    0.000    0.000    0.000 
#
# Total GULP energy -198278.852792 kJ/mol
# GULP energy per Si atom -12392.428299 kJ/mol
# Density = 2.104465 g / cm^3
# Si number density = 21.092656 Si / 1000 Ang^3
#
#
#
# Elastic Constant Matrix: (Units=GPa)
#
#
# Indices 1 2 3 4 5 6 
#
# 1 56.6352 12.2988 43.6121 5.5689 15.4743 -4.2287
# 2 12.2988 36.7142 15.3702 3.1515 3.5684 -9.5230
# 3 43.6121 15.3702 100.6879 6.4314 14.6973 -14.1202
# 4 5.5689 3.1515 6.4314 27.8410 -2.2508 -2.0979
# 5 15.4743 3.5684 14.6973 -2.2508 40.6652 2.1559
# 6 -4.2287 -9.5230 -14.1202 -2.0979 2.1559 31.6115
#
#
#
# Elastic Compliance Matrix: (Units=1/GPa)
#
#
# Indices 1 2 3 4 5 6 
#
# 1 0.029215 -0.004792 -0.011022 -0.003472 -0.006787 -0.002226
# 2 -0.004792 0.031812 -0.001356 -0.001787 -0.001016 0.008287
# 3 -0.011022 -0.001356 0.015991 -0.001082 -0.001807 0.005311
# 4 -0.003472 -0.001787 -0.001082 0.037435 0.003902 0.000732
# 5 -0.006787 -0.001016 -0.001807 0.003902 0.028328 -0.003694
# 6 -0.002226 0.008287 0.005311 0.000732 -0.003694 0.036506
#
#
# Mechanical properties :
#
#
# Convention : Reuss Voigt Hill
#
# Bulk Modulus (GPa) = 23.43185 37.39995 30.41590
# Shear Modulus (GPa) = 21.94397 28.20730 25.07564
#
# Velocity S-wave (km/s) = 3.22896 3.66088 3.45169
# Velocity P-wave (km/s) = 5.00347 5.96986 5.50790
#
# Compressibility (1/GPa) = 0.04267696
#
# Stress axis : x y z
#
# Youngs Moduli (GPa) = 34.22913 31.43458 62.53638
#
# Poissons Ratio (x) = 0.15063 0.68931
# Poissons Ratio (y) = 0.16403 0.08479
# Poissons Ratio (z) = 0.37729 0.04262
#
# Static dielectric constant tensor:
#      x y z
#    x 5.015840 0.133050 0.783720 
#    y 0.133050 3.702730 0.243320 
#    z 0.783720 0.243320 4.953560 
# 
# 
# High freq. dielectric constant tensor:
#      x y z
#    x 1.808020 -0.000820 -0.002550 
#    y -0.000820 1.821970 0.009710 
#    z -0.002550 0.009710 1.829060 
# 
# From -- ./inp_files/494601.got.cif
#   From: 2010.06.25/outbox.cif.g09.slc.cpg/sg2_248_cif.got.tgz:494601.got - 2010.06.27 13:26:56.
