data_PCOD8002470
_publ_section_title
;
Structure prediction by ZEFSAII (Michael W. Deem and Ramdas Pophale) SiO2 
 PCOD8002470
Probable space group: P -1
;
_chemical_formula_sum "Si O2"
_cell_formula_units_Z 16
_cell_length_a 14.713617
_cell_length_b 18.036332
_cell_length_c 23.387045
_cell_angle_alpha 159.292062
_cell_angle_beta 159.722720
_cell_angle_gamma 29.076727
_cell_volume 760.275664
_symmetry_space_group_name_H-M "P -1"
_symmetry_group_IT_number 2
_symmetry_cell_setting 'triclinic'
loop_
_space_group_symop_operation_xyz
x,y,z
-x,-y,-z
loop_
_atom_site_type_symbol
_atom_site_label
_atom_site_fract_x
_atom_site_fract_y
_atom_site_fract_z
Si Si1 0.494211 0.958741 0.305066
Si Si2 0.427757 0.331458 0.675905
Si Si3 0.959673 0.655875 0.355359
Si Si4 0.506897 0.242423 0.194094
Si Si5 0.818660 0.078695 0.790527
Si Si6 0.227805 0.395517 0.242700
Si Si7 0.601026 0.587587 0.409828
Si Si8 0.829363 0.372787 0.178585
O O1 0.771164 0.850175 0.382294
O O2 0.378266 0.918106 0.270083
O O3 0.542729 0.207104 0.502385
O O4 0.288686 0.863071 0.068373
O O5 0.695293 0.214702 0.764366
O O6 0.459868 0.448623 0.718752
O O7 0.380744 0.497247 0.817039
O O8 0.178826 0.163381 0.403884
O O9 0.849445 0.470620 0.197564
O O10 0.234853 0.731031 0.597208
O O11 0.006947 0.563460 0.252085
O O12 0.260990 0.330030 0.148735
O O13 0.505668 0.376974 0.232801
O O14 0.500000 0.000000 0.000000
O O15 0.113941 0.176019 0.046890
O O16 0.500000 0.500000 0.500000
O O17 0.908002 0.635023 0.635669
#
# Coordination Sequence:
#
# PCOD8002470 Si02
#       8
#     2   2   2   2   2   2   2   2
#     4  11  20  38  64  95 123 159 195 265 321 355
#     4  10  21  35  58  95 128 156 197 257 322 367
#     4  10  20  37  63  92 121 153 212 249 303 370
#     4  10  24  43  64  84 117 172 213 250 296 365
#     4  10  20  35  62  95 124 159 203 257 311 367
#     4  10  21  39  60  89 119 161 218 251 289 362
#     4  10  24  39  55  92 129 158 206 250 310 369
#     4  11  19  35  59  92 129 157 191 244 320 377
#
# _framework density 21.044999000000001
#
# number of rings (size 3 to 8) (size 9 to 14) (size 15 to 20)
#    0.000    1.750    2.500    1.875    3.500    0.000 
#    0.000    4.375    0.000    0.000    0.000    0.000 
#    0.000    0.000    0.000    0.000    0.000    0.000 
#
# Total GULP energy -198230.186145 kJ/mol
# GULP energy per Si atom -12389.386634 kJ/mol
# Density = 2.099710 g / cm^3
# Si number density = 21.044999 Si / 1000 Ang^3
#
#
#
# Elastic Constant Matrix: (Units=GPa)
#
#
# Indices 1 2 3 4 5 6 
#
# 1 128.1017 49.7195 42.2513 14.3113 -4.6999 -8.6204
# 2 49.7195 86.1430 21.2959 14.6781 3.4444 1.9971
# 3 42.2513 21.2959 95.2430 29.8887 5.2481 -1.7430
# 4 14.3113 14.6781 29.8887 28.3664 -4.6560 0.1864
# 5 -4.6999 3.4444 5.2481 -4.6560 24.9423 1.4832
# 6 -8.6204 1.9971 -1.7430 0.1864 1.4832 29.6886
#
#
#
# Elastic Compliance Matrix: (Units=1/GPa)
#
#
# Indices 1 2 3 4 5 6 
#
# 1 0.012069 -0.006550 -0.005196 0.003529 0.004730 0.003382
# 2 -0.006550 0.016569 0.002050 -0.008290 -0.005348 -0.002577
# 3 -0.005196 0.002050 0.019156 -0.020110 -0.009050 0.000057
# 4 0.003529 -0.008290 -0.020110 0.061852 0.017638 -0.000868
# 5 0.004730 -0.005348 -0.009050 0.017638 0.046994 -0.001257
# 6 0.003382 -0.002577 0.000057 -0.000868 -0.001257 0.034910
#
#
# Mechanical properties :
#
#
# Convention : Reuss Voigt Hill
#
# Bulk Modulus (GPa) = 35.20835 59.55792 47.38314
# Shear Modulus (GPa) = 22.68515 29.68086 26.18301
#
# Velocity S-wave (km/s) = 3.28675 3.75954 3.53107
# Velocity P-wave (km/s) = 5.58301 6.87075 6.26008
#
# Compressibility (1/GPa) = 0.02840235
#
# Stress axis : x y z
#
# Youngs Moduli (GPa) = 82.85598 60.35533 52.20202
#
# Poissons Ratio (x) = 0.39535 0.27122
# Poissons Ratio (y) = 0.54274 -0.10702
# Poissons Ratio (z) = 0.43048 -0.12373
#
# Static dielectric constant tensor:
#      x y z
#    x 4.178600 -0.282020 -0.662870 
#    y -0.282020 3.707100 0.198660 
#    z -0.662870 0.198660 5.437430 
# 
# 
# High freq. dielectric constant tensor:
#      x y z
#    x 1.821290 -0.020430 -0.018620 
#    y -0.020430 1.803270 0.007100 
#    z -0.018620 0.007100 1.830710 
# 
# From -- ./inp_files/185972.got.cif
#   From: 2010.06.25/outbox.cif.g09.slc.cpg/sg2_93_cif.got.tgz:185972.got - 2010.06.27 13:26:56.
