data_PCOD8002728
_publ_section_title
;
Structure prediction by ZEFSAII (Michael W. Deem and Ramdas Pophale) SiO2 
 PCOD8002728
Probable space group: P -1
;
_chemical_formula_sum "Si O2"
_cell_formula_units_Z 10
_cell_length_a 19.543148
_cell_length_b 16.364990
_cell_length_c 11.422906
_cell_angle_alpha 30.318328
_cell_angle_beta 22.053506
_cell_angle_gamma 20.735881
_cell_volume 485.496868
_symmetry_space_group_name_H-M "P -1"
_symmetry_group_IT_number 2
_symmetry_cell_setting 'triclinic'
loop_
_space_group_symop_operation_xyz
x,y,z
-x,-y,-z
loop_
_atom_site_type_symbol
_atom_site_label
_atom_site_fract_x
_atom_site_fract_y
_atom_site_fract_z
Si Si1 0.918861 0.365961 0.799242
Si Si2 0.598038 0.187317 0.874848
Si Si3 0.791924 0.630002 0.065421
Si Si4 0.289722 0.102116 0.341484
Si Si5 0.968794 0.211894 0.162726
O O1 0.000000 0.500000 0.500000
O O2 0.057355 0.190489 0.686343
O O3 0.604417 0.559993 0.054128
O O4 0.021871 0.215591 0.938965
O O5 0.795833 0.160491 0.512323
O O6 0.443745 0.160784 0.072008
O O7 0.749366 0.992977 0.974698
O O8 0.818889 0.452248 0.166200
O O9 0.496013 0.824938 0.343312
O O10 0.834586 0.762892 0.752301
O O11 0.000000 0.500000 0.000000
#
# Coordination Sequence:
#
# PCOD8002728 Si02
#       5
#     2   2   2   2   2
#     4  10  20  36  58  86 110 144 189 236 269 324
#     4  10  21  36  59  87 111 144 192 227 275 329
#     4  11  21  36  57  83 114 148 182 228 280 335
#     4  10  22  37  58  86 108 147 189 228 279 328
#     4  11  21  36  62  85 110 149 186 232 275 325
#
# _framework density 20.597455
#
# number of rings (size 3 to 8) (size 9 to 14) (size 15 to 20)
#    0.000    1.600    6.000    0.600    0.000    4.800 
#    0.000    1.000    0.000    3.600    0.000    0.000 
#    0.000    0.000    0.000    0.000    0.000    0.000 
#
# Total GULP energy -123972.883752 kJ/mol
# GULP energy per Si atom -12397.288375 kJ/mol
# Density = 2.055057 g / cm^3
# Si number density = 20.597455 Si / 1000 Ang^3
#
#
#
# Elastic Constant Matrix: (Units=GPa)
#
#
# Indices 1 2 3 4 5 6 
#
# 1 75.6725 56.5863 30.7363 12.2962 32.3006 -16.1019
# 2 56.5863 124.4925 20.3269 11.3990 28.1278 -27.8600
# 3 30.7363 20.3269 61.9419 4.9582 28.5505 -14.1227
# 4 12.2962 11.3990 4.9582 28.9542 5.4703 6.0006
# 5 32.3006 28.1278 28.5505 5.4703 40.2064 -1.2232
# 6 -16.1019 -27.8600 -14.1227 6.0006 -1.2232 43.7353
#
#
#
# Elastic Compliance Matrix: (Units=1/GPa)
#
#
# Indices 1 2 3 4 5 6 
#
# 1 0.028359 -0.007330 -0.003400 -0.006991 -0.014130 0.005237
# 2 -0.007330 0.014212 0.003869 -0.003643 -0.006064 0.007934
# 3 -0.003400 0.003869 0.027921 -0.003370 -0.019034 0.010159
# 4 -0.006991 -0.003643 -0.003370 0.041023 0.004627 -0.011482
# 5 -0.014130 -0.006064 -0.019034 0.004627 0.052915 -0.014366
# 6 0.005237 0.007934 0.010159 -0.011482 -0.014366 0.034301
#
#
# Mechanical properties :
#
#
# Convention : Reuss Voigt Hill
#
# Bulk Modulus (GPa) = 17.61513 53.04510 35.33011
# Shear Modulus (GPa) = 21.60976 32.87632 27.24304
#
# Velocity S-wave (km/s) = 3.24257 3.99950 3.64076
# Velocity P-wave (km/s) = 4.75286 6.86565 5.90452
#
# Compressibility (1/GPa) = 0.05676939
#
# Stress axis : x y z
#
# Youngs Moduli (GPa) = 35.26213 70.36289 35.81533
#
# Poissons Ratio (x) = 0.51579 0.12178
# Poissons Ratio (y) = 0.25849 -0.13858
# Poissons Ratio (z) = 0.11990 -0.27225
#
# Static dielectric constant tensor:
#      x y z
#    x 3.732610 0.044790 0.438580 
#    y 0.044790 4.367150 0.447990 
#    z 0.438580 0.447990 3.820070 
# 
# 
# High freq. dielectric constant tensor:
#      x y z
#    x 1.791910 -0.011870 0.023090 
#    y -0.011870 1.826350 0.011520 
#    z 0.023090 0.011520 1.784660 
# 
# From -- ./inp_files/148118.got.cif
#   From: 2010.06.25/outbox.cif.g09.slc.cpg/sg2_75_cif.got.tgz:148118.got - 2010.06.27 13:26:56.
