data_PCOD8002556
_publ_section_title
;
Structure prediction by ZEFSAII (Michael W. Deem and Ramdas Pophale) SiO2 
 PCOD8002556
Probable space group: P -1
;
_chemical_formula_sum "Si O2"
_cell_formula_units_Z 16
_cell_length_a 16.929971
_cell_length_b 16.865415
_cell_length_c 16.836906
_cell_angle_alpha 25.896954
_cell_angle_beta 30.029566
_cell_angle_gamma 23.913564
_cell_volume 825.141208
_symmetry_space_group_name_H-M "P -1"
_symmetry_group_IT_number 2
_symmetry_cell_setting 'triclinic'
loop_
_space_group_symop_operation_xyz
x,y,z
-x,-y,-z
loop_
_atom_site_type_symbol
_atom_site_label
_atom_site_fract_x
_atom_site_fract_y
_atom_site_fract_z
Si Si1 0.838031 0.251493 0.948321
Si Si2 0.462185 0.211011 0.108148
Si Si3 0.248381 0.051499 0.041282
Si Si4 0.410736 0.322042 0.674134
Si Si5 0.980796 0.395042 0.833750
Si Si6 0.378097 0.285717 0.559571
Si Si7 0.458580 0.468885 0.174792
Si Si8 0.207897 0.840067 0.417224
O O1 0.665346 0.264826 0.134885
O O2 0.731560 0.435102 0.802826
O O3 0.947411 0.316124 0.851337
O O4 0.000000 0.000000 0.000000
O O5 0.222072 0.376013 0.160794
O O6 0.538689 0.973931 0.297749
O O7 0.535335 0.321835 0.000284
O O8 0.552496 0.163512 0.983506
O O9 0.180804 0.955411 0.251885
O O10 0.295502 0.215959 0.889504
O O11 0.070589 0.193477 0.003024
O O12 0.468712 0.294758 0.555234
O O13 0.263562 0.589818 0.585246
O O14 0.617826 0.178358 0.671357
O O15 0.136144 0.448119 0.633434
O O16 0.443393 0.371408 0.356700
O O17 0.000000 0.000000 0.500000
#
# Coordination Sequence:
#
# PCOD8002556 Si02
#       8
#     2   2   2   2   2   2   2   2
#     4  10  20  36  54  80 115 147 182 224 271 321
#     4   9  19  38  57  79 111 143 182 227 270 318
#     4  10  21  38  58  79 111 147 178 223 274 319
#     4   9  22  39  55  82 112 139 180 224 270 327
#     4   9  20  36  57  83 108 143 187 223 267 328
#     4  10  21  38  59  83 108 141 184 227 271 320
#     4  10  21  36  57  81 110 147 183 224 273 321
#     4  11  23  37  57  84 111 142 181 223 268 324
#
# _framework density 19.390619999999998
#
# number of rings (size 3 to 8) (size 9 to 14) (size 15 to 20)
#    0.000    2.500    0.000    2.625    0.000   10.000 
#    0.000    8.750    0.000    0.000    0.000    0.000 
#    0.000    0.000    0.000    0.000    0.000    0.000 
#
# Total GULP energy -198399.653571 kJ/mol
# GULP energy per Si atom -12399.978348 kJ/mol
# Density = 1.934649 g / cm^3
# Si number density = 19.390620 Si / 1000 Ang^3
#
#
#
# Elastic Constant Matrix: (Units=GPa)
#
#
# Indices 1 2 3 4 5 6 
#
# 1 93.8593 26.7289 14.8050 -10.2323 -1.4555 -0.5915
# 2 26.7289 137.9030 33.0170 -3.5088 -1.7508 4.1342
# 3 14.8050 33.0170 51.2150 -2.0083 8.0530 4.9037
# 4 -10.2323 -3.5088 -2.0083 19.2324 7.0742 1.8220
# 5 -1.4555 -1.7508 8.0530 7.0742 28.0953 0.3636
# 6 -0.5915 4.1342 4.9037 1.8220 0.3636 26.4747
#
#
#
# Elastic Compliance Matrix: (Units=1/GPa)
#
#
# Indices 1 2 3 4 5 6 
#
# 1 0.012133 -0.001701 -0.002167 0.006006 -0.000376 0.000530
# 2 -0.001701 0.008950 -0.005621 -0.000650 0.002250 -0.000381
# 3 -0.002167 -0.005621 0.025718 0.004141 -0.008824 -0.004098
# 4 0.006006 -0.000650 0.004141 0.061995 -0.016467 -0.004572
# 5 -0.000376 0.002250 -0.008824 -0.016467 0.042366 0.001826
# 6 0.000530 -0.000381 -0.004098 -0.004572 0.001826 0.038892
#
#
# Mechanical properties :
#
#
# Convention : Reuss Voigt Hill
#
# Bulk Modulus (GPa) = 35.94113 48.00878 41.97496
# Shear Modulus (GPa) = 22.90366 28.65558 25.77962
#
# Velocity S-wave (km/s) = 3.44055 3.84840 3.65017
# Velocity P-wave (km/s) = 5.86163 6.67528 6.28164
#
# Compressibility (1/GPa) = 0.02782327
#
# Stress axis : x y z
#
# Youngs Moduli (GPa) = 82.42206 111.72728 38.88319
#
# Poissons Ratio (x) = 0.19000 0.08426
# Poissons Ratio (y) = 0.14017 0.21857
# Poissons Ratio (z) = 0.17862 0.62805
#
# Static dielectric constant tensor:
#      x y z
#    x 3.713110 0.003020 -0.001460 
#    y 0.003020 3.675700 -0.005890 
#    z -0.001460 -0.005890 3.314740 
# 
# 
# High freq. dielectric constant tensor:
#      x y z
#    x 1.768070 0.001260 0.001620 
#    y 0.001260 1.763090 -0.001470 
#    z 0.001620 -0.001470 1.735740 
# 
# From -- ./inp_files/534104.got.cif
#   From: 2010.06.25/outbox.cif.g09.slc.cpg/sg2_268_cif.got.tgz:534104.got - 2010.06.27 13:26:56.
