data_PCOD8002600
_publ_section_title
;
Structure prediction by ZEFSAII (Michael W. Deem and Ramdas Pophale) SiO2 
 PCOD8002600
Probable space group: P -1
;
_chemical_formula_sum "Si O2"
_cell_formula_units_Z 10
_cell_length_a 9.614009
_cell_length_b 11.176670
_cell_length_c 10.128416
_cell_angle_alpha 38.334047
_cell_angle_beta 121.267180
_cell_angle_gamma 141.128738
_cell_volume 411.711923
_symmetry_space_group_name_H-M "P -1"
_symmetry_group_IT_number 2
_symmetry_cell_setting 'triclinic'
loop_
_space_group_symop_operation_xyz
x,y,z
-x,-y,-z
loop_
_atom_site_type_symbol
_atom_site_label
_atom_site_fract_x
_atom_site_fract_y
_atom_site_fract_z
Si Si1 0.318924 0.782420 0.787008
Si Si2 0.312112 0.129402 0.642817
Si Si3 0.765602 0.059662 0.642425
Si Si4 0.634142 0.601602 0.810682
Si Si5 0.755327 0.682749 0.317050
O O1 0.593240 0.023554 0.687765
O O2 0.267841 0.865505 0.821674
O O3 0.189538 0.767177 0.611841
O O4 0.240137 0.496828 0.015448
O O5 0.225506 0.181252 0.427972
O O6 0.586599 0.395422 0.560780
O O7 0.187358 0.092463 0.748030
O O8 0.639009 0.751657 0.807673
O O9 0.009012 0.223635 0.688822
O O10 0.369804 0.346869 0.852966
#
# Coordination Sequence:
#
# PCOD8002600 Si02
#       5
#     2   2   2   2   2
#     4  10  20  36  56  80 110 135 180 219 260 312
#     4   8  19  39  54  77 109 139 174 224 256 313
#     4  10  21  37  54  80 109 142 170 222 266 310
#     4   9  19  37  55  78 109 138 176 221 257 315
#     4   9  19  40  56  73 113 141 172 218 271 303
#
# _framework density 24.288826
#
# number of rings (size 3 to 8) (size 9 to 14) (size 15 to 20)
#    1.200    1.600    0.000    0.600    0.000    5.600 
#    3.600    2.000    0.000    0.000    0.000    0.000 
#    0.000    0.000    0.000    0.000    0.000    0.000 
#
# Total GULP energy -123933.512775 kJ/mol
# GULP energy per Si atom -12393.351278 kJ/mol
# Density = 2.423354 g / cm^3
# Si number density = 24.288826 Si / 1000 Ang^3
#
#
#
# Elastic Constant Matrix: (Units=GPa)
#
#
# Indices 1 2 3 4 5 6 
#
# 1 67.5552 0.5477 8.9449 7.1943 12.2442 -9.6132
# 2 0.5477 25.2370 25.6660 11.3914 9.8935 -4.5305
# 3 8.9449 25.6660 93.6554 0.5303 44.3954 -16.4452
# 4 7.1943 11.3914 0.5303 18.1892 -5.4003 1.1596
# 5 12.2442 9.8935 44.3954 -5.4003 30.6845 -5.8265
# 6 -9.6132 -4.5305 -16.4452 1.1596 -5.8265 39.0001
#
#
#
# Elastic Compliance Matrix: (Units=1/GPa)
#
#
# Indices 1 2 3 4 5 6 
#
# 1 0.024632 0.018523 0.012024 -0.033357 -0.037418 0.008695
# 2 0.018523 0.104664 -0.007863 -0.086048 -0.043096 0.009529
# 3 0.012024 -0.007863 0.051282 -0.025450 -0.078527 0.012700
# 4 -0.033357 -0.086048 -0.025450 0.154112 0.101513 -0.018367
# 5 -0.037418 -0.043096 -0.078527 0.101513 0.188688 -0.022171
# 6 0.008695 0.009529 0.012700 -0.018367 -0.022171 0.031480
#
#
# Mechanical properties :
#
#
# Convention : Reuss Voigt Hill
#
# Bulk Modulus (GPa) = 4.42581 28.52941 16.47761
# Shear Modulus (GPa) = 8.54986 27.66069 18.10528
#
# Velocity S-wave (km/s) = 1.87822 3.37831 2.73319
# Velocity P-wave (km/s) = 2.55534 5.19506 4.09380
#
# Compressibility (1/GPa) = 0.22594730
#
# Stress axis : x y z
#
# Youngs Moduli (GPa) = 40.59747 9.55437 19.49998
#
# Poissons Ratio (x) = -0.17698 -0.23447
# Poissons Ratio (y) = -0.75200 0.15332
# Poissons Ratio (z) = -0.48814 0.07512
#
# Static dielectric constant tensor:
#      x y z
#    x 4.098680 -0.168190 0.183360 
#    y -0.168190 3.959430 0.064010 
#    z 0.183360 0.064010 4.016290 
# 
# 
# High freq. dielectric constant tensor:
#      x y z
#    x 1.958810 -0.006050 0.010810 
#    y -0.006050 1.942820 0.001710 
#    z 0.010810 0.001710 1.941440 
# 
# From -- ./inp_files/27381.got.cif
#   From: 2010.06.25/outbox.cif.g09.slc.cpg/sg2_14_cif.got.tgz:27381.got - 2010.06.27 13:26:56.
