data_PCOD8002965
_publ_section_title
;
Structure prediction by ZEFSAII (Michael W. Deem and Ramdas Pophale) SiO2 
 PCOD8002965
Probable space group: P -1
;
_chemical_formula_sum "Si O2"
_cell_formula_units_Z 14
_cell_length_a 6.604668
_cell_length_b 19.628548
_cell_length_c 12.727775
_cell_angle_alpha 34.892862
_cell_angle_beta 117.673350
_cell_angle_gamma 133.495484
_cell_volume 664.493509
_symmetry_space_group_name_H-M "P -1"
_symmetry_group_IT_number 2
_symmetry_cell_setting 'triclinic'
loop_
_space_group_symop_operation_xyz
x,y,z
-x,-y,-z
loop_
_atom_site_type_symbol
_atom_site_label
_atom_site_fract_x
_atom_site_fract_y
_atom_site_fract_z
Si Si1 0.438499 0.929056 0.187976
Si Si2 0.787729 0.818475 0.456396
Si Si3 0.796601 0.436731 0.633600
Si Si4 0.170877 0.303801 0.582189
Si Si5 0.209838 0.788635 0.940991
Si Si6 0.409538 0.095022 0.305459
Si Si7 0.793167 0.819760 0.687886
O O1 0.530736 0.819644 0.348129
O O2 0.103452 0.843913 0.241590
O O3 0.627462 0.052652 0.164420
O O4 0.500000 0.000000 0.000000
O O5 0.834460 0.720447 0.514247
O O6 0.693343 0.744490 0.643742
O O7 0.082144 0.986070 0.323586
O O8 0.458826 0.332228 0.658055
O O9 0.852440 0.564350 0.563740
O O10 0.000000 0.500000 0.500000
O O11 0.873070 0.340716 0.834698
O O12 0.406603 0.802275 0.877755
O O13 0.924775 0.749073 0.868994
O O14 0.462697 0.212748 0.258669
O O15 0.500000 0.000000 0.500000
O O16 0.000000 0.000000 0.500000
#
# Coordination Sequence:
#
# PCOD8002965 Si02
#       7
#     2   2   2   2   2   2   2
#     4  12  24  37  63 102 130 162 218 278 327 383
#     4  11  21  37  62  96 135 163 203 267 330 378
#     4  11  27  49  65  88 131 182 226 265 320 387
#     4  11  25  44  66  88 130 179 216 269 328 379
#     4  12  22  39  68  98 129 170 216 263 330 390
#     4  11  19  35  62 100 134 164 204 260 332 388
#     4  10  20  36  60  99 135 168 194 265 330 388
#
# _framework density 21.068680000000001
#
# number of rings (size 3 to 8) (size 9 to 14) (size 15 to 20)
#    0.000    0.857    7.143    2.571    2.000    3.429 
#    0.000    0.714    0.000    4.286    0.000    0.000 
#    0.000    0.000    0.000    0.000    0.000    0.000 
#
# Total GULP energy -173545.202922 kJ/mol
# GULP energy per Si atom -12396.085923 kJ/mol
# Density = 2.102073 g / cm^3
# Si number density = 21.068680 Si / 1000 Ang^3
#
#
#
# Elastic Constant Matrix: (Units=GPa)
#
#
# Indices 1 2 3 4 5 6 
#
# 1 169.0178 62.4841 57.3036 16.7499 -9.4788 -25.1692
# 2 62.4841 91.3034 37.3029 14.9719 -4.7573 -23.6271
# 3 57.3036 37.3029 117.2112 19.3106 0.8541 0.4033
# 4 16.7499 14.9719 19.3106 22.7476 -2.5672 5.4737
# 5 -9.4788 -4.7573 0.8541 -2.5672 36.3845 10.0104
# 6 -25.1692 -23.6271 0.4033 5.4737 10.0104 50.0640
#
#
#
# Elastic Compliance Matrix: (Units=1/GPa)
#
#
# Indices 1 2 3 4 5 6 
#
# 1 0.008989 -0.003869 -0.002811 -0.002240 0.000983 0.002764
# 2 -0.003869 0.018004 -0.002367 -0.009035 -0.001392 0.007837
# 3 -0.002811 -0.002367 0.011663 -0.006004 -0.001268 -0.001714
# 4 -0.002240 -0.009035 -0.006004 0.060543 0.006284 -0.013218
# 5 0.000983 -0.001392 -0.001268 0.006284 0.029908 -0.006820
# 6 0.002764 0.007837 -0.001714 -0.013218 -0.006820 0.027885
#
#
# Mechanical properties :
#
#
# Convention : Reuss Voigt Hill
#
# Bulk Modulus (GPa) = 48.63103 76.85704 62.74403
# Shear Modulus (GPa) = 27.48159 36.53534 32.00847
#
# Velocity S-wave (km/s) = 3.61554 4.16878 3.90198
# Velocity P-wave (km/s) = 6.36881 7.72852 7.08138
#
# Compressibility (1/GPa) = 0.02056300
#
# Stress axis : x y z
#
# Youngs Moduli (GPa) = 111.25177 55.54209 85.73927
#
# Poissons Ratio (x) = 0.21491 0.24098
# Poissons Ratio (y) = 0.43047 0.20291
# Poissons Ratio (z) = 0.31269 0.13145
#
# Static dielectric constant tensor:
#      x y z
#    x 4.215100 -0.024770 0.093240 
#    y -0.024770 3.611890 0.008650 
#    z 0.093240 0.008650 3.300090 
# 
# 
# High freq. dielectric constant tensor:
#      x y z
#    x 1.854520 -0.017990 0.000490 
#    y -0.017990 1.815790 0.028220 
#    z 0.000490 0.028220 1.797350 
# 
# From -- ./inp_files/369121.got.cif
#   From: 2010.06.25/outbox.cif.g09.slc.cpg/sg2_185_cif.got.tgz:369121.got - 2010.06.27 13:26:56.
