data_PCOD8002087
_publ_section_title
;
Structure prediction by ZEFSAII (Michael W. Deem and Ramdas Pophale) SiO2 
 PCOD8002087
Probable space group: P -1
;
_chemical_formula_sum "Si O2"
_cell_formula_units_Z 12
_cell_length_a 8.819449
_cell_length_b 10.592568
_cell_length_c 6.507457
_cell_angle_alpha 90.221149
_cell_angle_beta 98.272751
_cell_angle_gamma 72.769921
_cell_volume 574.123121
_symmetry_space_group_name_H-M "P -1"
_symmetry_group_IT_number 2
_symmetry_cell_setting 'triclinic'
loop_
_space_group_symop_operation_xyz
x,y,z
-x,-y,-z
loop_
_atom_site_type_symbol
_atom_site_label
_atom_site_fract_x
_atom_site_fract_y
_atom_site_fract_z
Si Si1 0.248729 0.775277 0.815519
Si Si2 0.303575 0.054666 0.806079
Si Si3 0.070225 0.112461 0.438918
Si Si4 0.632546 0.904727 0.737207
Si Si5 0.548095 0.660120 0.582925
Si Si6 0.405998 0.582489 0.170223
O O1 0.379581 0.702872 0.672698
O O2 0.074079 0.774692 0.693165
O O3 0.259934 0.921905 0.860262
O O4 0.266289 0.701049 0.039228
O O5 0.154475 0.156192 0.656067
O O6 0.457869 0.015367 0.677772
O O7 0.347065 0.125058 0.014118
O O8 0.217189 0.048818 0.309090
O O9 0.000000 0.000000 0.500000
O O10 0.643817 0.766089 0.629251
O O11 0.516625 0.646323 0.334285
O O12 0.654560 0.517656 0.695630
O O13 0.500000 0.500000 0.000000
#
# Coordination Sequence:
#
# PCOD8002087 Si02
#       6
#     2   2   2   2   2   2
#     4   9  19  33  52  79 108 140 175 215 264 316
#     4   9  20  35  54  80 109 144 180 215 262 315
#     4  10  21  34  50  78 114 147 177 214 263 316
#     4  10  20  35  55  80 108 143 181 219 261 315
#     4   9  19  35  57  79 102 136 179 224 263 310
#     4   9  18  35  58  79 100 133 180 224 266 312
#
# _framework density 20.901440999999998
#
# number of rings (size 3 to 8) (size 9 to 14) (size 15 to 20)
#    0.000    2.667    0.000    0.500    0.000   13.333 
#    0.000    0.833    0.000   10.000    0.000    0.000 
#    0.000    0.000    0.000    0.000    0.000    0.000 
#
# Total GULP energy -148674.888594 kJ/mol
# GULP energy per Si atom -12389.574050 kJ/mol
# Density = 2.085387 g / cm^3
# Si number density = 20.901441 Si / 1000 Ang^3
#
#
#
# Elastic Constant Matrix: (Units=GPa)
#
#
# Indices 1 2 3 4 5 6 
#
# 1 117.9875 30.9675 39.9507 -15.4360 6.1433 -4.4683
# 2 30.9675 74.5943 54.2629 -13.2105 14.6401 1.8187
# 3 39.9507 54.2629 129.2208 -6.0538 24.5406 -0.7728
# 4 -15.4360 -13.2105 -6.0538 46.4426 -5.8363 13.9784
# 5 6.1433 14.6401 24.5406 -5.8363 33.8376 -6.7437
# 6 -4.4683 1.8187 -0.7728 13.9784 -6.7437 19.3517
#
#
#
# Elastic Compliance Matrix: (Units=1/GPa)
#
#
# Indices 1 2 3 4 5 6 
#
# 1 0.010160 -0.002545 -0.002262 0.002095 0.001563 0.001526
# 2 -0.002545 0.022153 -0.007409 0.006759 -0.004457 -0.009401
# 3 -0.002262 -0.007409 0.012562 -0.001975 -0.005821 0.000074
# 4 0.002095 0.006759 -0.001975 0.030590 -0.001124 -0.022718
# 5 0.001563 -0.004457 -0.005821 -0.001124 0.038145 0.014652
# 6 0.001526 -0.009401 0.000074 -0.022718 0.014652 0.074430
#
#
# Mechanical properties :
#
#
# Convention : Reuss Voigt Hill
#
# Bulk Modulus (GPa) = 48.91506 63.57386 56.24446
# Shear Modulus (GPa) = 22.80120 33.03448 27.91784
#
# Velocity S-wave (km/s) = 3.30645 3.97985 3.65867
# Velocity P-wave (km/s) = 6.16687 7.18338 6.69445
#
# Compressibility (1/GPa) = 0.02044360
#
# Stress axis : x y z
#
# Youngs Moduli (GPa) = 98.42633 45.14054 79.60317
#
# Poissons Ratio (x) = 0.11490 0.18004
# Poissons Ratio (y) = 0.25054 0.58976
# Poissons Ratio (z) = 0.22261 0.33443
#
# Static dielectric constant tensor:
#      x y z
#    x 3.869180 -0.159700 0.319140 
#    y -0.159700 3.860800 -0.399760 
#    z 0.319140 -0.399760 4.243460 
# 
# 
# High freq. dielectric constant tensor:
#      x y z
#    x 1.790230 0.004970 0.010750 
#    y 0.004970 1.786850 -0.016830 
#    z 0.010750 -0.016830 1.848090 
# 
# From -- ./inp_files/25208.got.cif
#   From: 2010.06.25/outbox.cif.g09.slc.cpg/sg2_13_cif.got.tgz:25208.got - 2010.06.27 13:26:56.
