data_PCOD8002014
_publ_section_title
;
Structure prediction by ZEFSAII (Michael W. Deem and Ramdas Pophale) SiO2 
 PCOD8002014
Probable space group: P -1
;
_chemical_formula_sum "Si O2"
_cell_formula_units_Z 16
_cell_length_a 12.005991
_cell_length_b 9.884878
_cell_length_c 22.462176
_cell_angle_alpha 25.334305
_cell_angle_beta 135.944141
_cell_angle_gamma 142.079442
_cell_volume 700.860886
_symmetry_space_group_name_H-M "P -1"
_symmetry_group_IT_number 2
_symmetry_cell_setting 'triclinic'
loop_
_space_group_symop_operation_xyz
x,y,z
-x,-y,-z
loop_
_atom_site_type_symbol
_atom_site_label
_atom_site_fract_x
_atom_site_fract_y
_atom_site_fract_z
Si Si1 0.191742 0.170168 0.535855
Si Si2 0.712814 0.151320 0.400213
Si Si3 0.128131 0.741001 0.338034
Si Si4 0.527823 0.819029 0.163242
Si Si5 0.971883 0.707162 0.962776
Si Si6 0.857203 0.093758 0.252567
Si Si7 0.363145 0.255398 0.892283
Si Si8 0.783991 0.935661 0.633409
O O1 0.248970 0.576677 0.418252
O O2 0.325163 0.156694 0.541340
O O3 0.172425 0.905057 0.688601
O O4 0.000000 0.000000 0.500000
O O5 0.583574 0.324727 0.261555
O O6 0.919185 0.460489 0.359886
O O7 0.668635 0.989925 0.514019
O O8 0.162993 0.126802 0.172620
O O9 0.180876 0.786401 0.410164
O O10 0.633595 0.893322 0.112560
O O11 0.333604 0.467651 0.228079
O O12 0.662294 0.791896 0.274099
O O13 0.492296 0.165833 0.020776
O O14 0.891008 0.458748 0.088197
O O15 0.159610 0.032873 0.926719
O O16 0.000000 0.500000 0.000000
O O17 0.020461 0.002036 0.339354
#
# Coordination Sequence:
#
# PCOD8002014 Si02
#       8
#     2   2   2   2   2   2   2   2
#     4  10  22  42  65  91 130 173 216 261 320 376
#     4  10  22  42  66  89 131 176 212 265 317 379
#     4  10  20  34  64  99 123 163 214 265 319 379
#     4  11  24  38  63 103 130 163 209 273 317 382
#     4  11  18  35  62  95 127 164 203 262 324 373
#     4  12  22  40  66  96 132 165 214 264 318 383
#     4  10  21  39  60  93 137 162 209 262 325 374
#     4  12  22  39  69  98 129 164 215 266 324 377
#
# _framework density 22.829066999999998
#
# number of rings (size 3 to 8) (size 9 to 14) (size 15 to 20)
#    0.000    1.250    6.250    1.125    3.500    0.500 
#    0.000    8.125    0.000    0.000    0.000    0.000 
#    0.000    0.000    0.000    0.000    0.000    0.000 
#
# Total GULP energy -198264.715695 kJ/mol
# GULP energy per Si atom -12391.544731 kJ/mol
# Density = 2.277711 g / cm^3
# Si number density = 22.829067 Si / 1000 Ang^3
#
#
#
# Elastic Constant Matrix: (Units=GPa)
#
#
# Indices 1 2 3 4 5 6 
#
# 1 71.5272 33.3783 43.3472 1.4607 18.9454 -23.8363
# 2 33.3783 68.4482 27.6957 11.4933 1.4152 -16.6466
# 3 43.3472 27.6957 149.2636 2.3315 16.1967 -23.9371
# 4 1.4607 11.4933 2.3315 25.7326 -5.9072 2.1751
# 5 18.9454 1.4152 16.1967 -5.9072 35.7064 1.1628
# 6 -23.8363 -16.6466 -23.9371 2.1751 1.1628 37.4890
#
#
#
# Elastic Compliance Matrix: (Units=1/GPa)
#
#
# Indices 1 2 3 4 5 6 
#
# 1 0.027550 -0.008721 -0.002908 -0.001570 -0.013613 0.012301
# 2 -0.008721 0.021627 -0.001015 -0.008788 0.002652 0.003838
# 3 -0.002908 -0.001015 0.008558 -0.001028 -0.002576 0.003304
# 4 -0.001570 -0.008788 -0.001028 0.045872 0.009514 -0.008513
# 5 -0.013613 0.002652 -0.002576 0.009514 0.038220 -0.010860
# 6 0.012301 0.003838 0.003304 -0.008513 -0.010860 0.039140
#
#
# Mechanical properties :
#
#
# Convention : Reuss Voigt Hill
#
# Bulk Modulus (GPa) = 30.82058 55.34235 43.08147
# Shear Modulus (GPa) = 23.03389 32.10681 27.57035
#
# Velocity S-wave (km/s) = 3.17988 3.75427 3.47895
# Velocity P-wave (km/s) = 5.19731 6.56410 5.92028
#
# Compressibility (1/GPa) = 0.03244585
#
# Stress axis : x y z
#
# Youngs Moduli (GPa) = 36.29803 46.23774 116.85063
#
# Poissons Ratio (x) = 0.40325 0.33982
# Poissons Ratio (y) = 0.31656 0.11864
# Poissons Ratio (z) = 0.10556 0.04694
#
# Static dielectric constant tensor:
#      x y z
#    x 3.915230 0.122540 0.360960 
#    y 0.122540 3.857380 0.100690 
#    z 0.360960 0.100690 4.591080 
# 
# 
# High freq. dielectric constant tensor:
#      x y z
#    x 1.871560 0.015890 0.004660 
#    y 0.015890 1.882440 0.010130 
#    z 0.004660 0.010130 1.920110 
# 
# From -- ./inp_files/593921.got.cif
#   From: 2010.06.25/outbox.cif.g09.slc.cpg/sg2_297_cif.got.tgz:593921.got - 2010.06.27 13:26:56.
