data_PCOD8002654
_publ_section_title
;
Structure prediction by ZEFSAII (Michael W. Deem and Ramdas Pophale) SiO2 
 PCOD8002654
Probable space group: P -1
;
_chemical_formula_sum "Si O2"
_cell_formula_units_Z 14
_cell_length_a 14.604658
_cell_length_b 12.678309
_cell_length_c 13.925327
_cell_angle_alpha 46.017137
_cell_angle_beta 20.333901
_cell_angle_gamma 49.680244
_cell_volume 644.617002
_symmetry_space_group_name_H-M "P -1"
_symmetry_group_IT_number 2
_symmetry_cell_setting 'triclinic'
loop_
_space_group_symop_operation_xyz
x,y,z
-x,-y,-z
loop_
_atom_site_type_symbol
_atom_site_label
_atom_site_fract_x
_atom_site_fract_y
_atom_site_fract_z
Si Si1 0.242253 0.951781 0.729910
Si Si2 0.756255 0.533177 0.599332
Si Si3 0.536523 0.331213 0.369408
Si Si4 0.832903 0.973706 0.455574
Si Si5 0.354205 0.156469 0.843687
Si Si6 0.749577 0.645357 0.742337
Si Si7 0.741625 0.552147 0.167583
O O1 0.246734 0.775755 0.822238
O O2 0.500000 0.000000 0.500000
O O3 0.244247 0.032756 0.575494
O O4 0.000000 0.000000 0.000000
O O5 0.681496 0.625739 0.520990
O O6 0.774203 0.640869 0.605252
O O7 0.040562 0.462497 0.347106
O O8 0.543124 0.403379 0.908681
O O9 0.377007 0.245502 0.664778
O O10 0.703903 0.474379 0.150542
O O11 0.807288 0.808012 0.623474
O O12 0.630594 0.078941 0.644895
O O13 0.129981 0.031799 0.138047
O O14 0.272771 0.270499 0.936196
O O15 0.500000 0.500000 0.500000
O O16 0.000000 0.500000 0.000000
#
# Coordination Sequence:
#
# PCOD8002654 Si02
#       7
#     2   2   2   2   2   2   2
#     4  11  22  33  51  82 114 141 175 225 280 335
#     4  10  22  38  57  81 111 150 196 230 268 327
#     4  10  22  38  60  86 116 148 186 233 287 334
#     4  11  21  37  57  79 113 150 185 224 284 340
#     4  10  21  36  59  87 110 142 182 234 290 338
#     4  10  22  38  56  79 111 155 193 229 268 324
#     4  10  20  36  57  84 116 144 182 230 285 343
#
# _framework density 21.718323999999999
#
# number of rings (size 3 to 8) (size 9 to 14) (size 15 to 20)
#    0.000    1.714    0.000    6.000    0.000   10.286 
#    0.000    0.000    0.000    5.143    0.000    0.000 
#    0.000    0.000    0.000    0.000    0.000    0.000 
#
# Total GULP energy -173593.959925 kJ/mol
# GULP energy per Si atom -12399.568566 kJ/mol
# Density = 2.166889 g / cm^3
# Si number density = 21.718324 Si / 1000 Ang^3
#
#
#
# Elastic Constant Matrix: (Units=GPa)
#
#
# Indices 1 2 3 4 5 6 
#
# 1 58.6350 30.6646 9.1557 10.8018 -13.4715 1.8029
# 2 30.6646 150.7115 33.1699 6.3337 1.4393 18.8398
# 3 9.1557 33.1699 96.1485 11.6627 -23.5531 11.3010
# 4 10.8018 6.3337 11.6627 40.5911 -2.1831 -1.8906
# 5 -13.4715 1.4393 -23.5531 -2.1831 21.0994 1.7887
# 6 1.8029 18.8398 11.3010 -1.8906 1.7887 32.7727
#
#
#
# Elastic Compliance Matrix: (Units=1/GPa)
#
#
# Indices 1 2 3 4 5 6 
#
# 1 0.026258 -0.006551 0.006673 -0.006664 0.024114 -0.001680
# 2 -0.006551 0.009437 -0.004850 0.001002 -0.009901 -0.002794
# 3 0.006673 -0.004850 0.019127 -0.005397 0.025884 -0.005899
# 4 -0.006664 0.001002 -0.005397 0.027555 -0.007808 0.003668
# 5 0.024114 -0.009901 0.025884 -0.007808 0.092405 -0.010055
# 6 -0.001680 -0.002794 -0.005899 0.003668 -0.010055 0.035006
#
#
# Mechanical properties :
#
#
# Convention : Reuss Voigt Hill
#
# Bulk Modulus (GPa) = 22.04368 50.16394 36.10381
# Shear Modulus (GPa) = 21.33388 34.39297 27.86343
#
# Velocity S-wave (km/s) = 3.13756 3.98375 3.58571
# Velocity P-wave (km/s) = 4.82676 6.65643 5.81402
#
# Compressibility (1/GPa) = 0.04536447
#
# Stress axis : x y z
#
# Youngs Moduli (GPa) = 38.08296 105.96097 52.28145
#
# Poissons Ratio (x) = 0.69420 -0.34885
# Poissons Ratio (y) = 0.24950 0.25358
# Poissons Ratio (z) = -0.25411 0.51395
#
# Static dielectric constant tensor:
#      x y z
#    x 4.033090 0.762390 -0.148390 
#    y 0.762390 4.830550 0.039060 
#    z -0.148390 0.039060 3.640160 
# 
# 
# High freq. dielectric constant tensor:
#      x y z
#    x 1.818790 0.011140 -0.022130 
#    y 0.011140 1.868840 0.008140 
#    z -0.022130 0.008140 1.856950 
# 
# From -- ./inp_files/65568.got.cif
#   From: 2010.06.25/outbox.cif.g09.slc.cpg/sg2_33_cif.got.tgz:65568.got - 2010.06.27 13:26:56.
