data_PCOD8002586
_publ_section_title
;
Structure prediction by ZEFSAII (Michael W. Deem and Ramdas Pophale) SiO2 
 PCOD8002586
Probable space group: P -1
;
_chemical_formula_sum "Si O2"
_cell_formula_units_Z 14
_cell_length_a 7.019575
_cell_length_b 20.069291
_cell_length_c 9.521413
_cell_angle_alpha 135.276279
_cell_angle_beta 49.128341
_cell_angle_gamma 128.872739
_cell_volume 679.588303
_symmetry_space_group_name_H-M "P -1"
_symmetry_group_IT_number 2
_symmetry_cell_setting 'triclinic'
loop_
_space_group_symop_operation_xyz
x,y,z
-x,-y,-z
loop_
_atom_site_type_symbol
_atom_site_label
_atom_site_fract_x
_atom_site_fract_y
_atom_site_fract_z
Si Si1 0.249442 0.081324 0.347379
Si Si2 0.946462 0.890976 0.796792
Si Si3 0.021783 0.612936 0.679860
Si Si4 0.288569 0.760516 0.540335
Si Si5 0.382027 0.744330 0.929723
Si Si6 0.602322 0.708512 0.055861
Si Si7 0.948953 0.127352 0.809476
O O1 0.038780 0.092377 0.352342
O O2 0.523728 0.169474 0.326594
O O3 0.154932 0.091446 0.565242
O O4 0.269514 0.968090 0.158503
O O5 0.663101 0.816693 0.859352
O O6 0.161382 0.836288 0.640957
O O7 0.000000 0.000000 0.000000
O O8 0.000000 0.500000 0.500000
O O9 0.089231 0.669385 0.582051
O O10 0.253173 0.656748 0.749067
O O11 0.729296 0.617716 0.872881
O O12 0.441614 0.713931 0.282576
O O13 0.410302 0.696958 0.996860
O O14 0.184828 0.810617 0.133541
O O15 0.869479 0.804524 0.053823
#
# Coordination Sequence:
#
# PCOD8002586 Si02
#       7
#     2   2   2   2   2   2   2
#     4  10  20  36  55  88 124 168 203 245 294 364
#     4  12  23  33  61  95 128 164 205 238 300 371
#     4  11  25  45  67  90 118 159 211 264 315 360
#     4  11  23  42  63  89 128 165 204 252 305 368
#     4  11  21  39  61  88 126 160 199 257 302 358
#     4  10  22  42  64  91 125 158 205 257 307 366
#     4   9  20  35  58  85 126 165 205 241 299 361
#
# _framework density 20.600708999999998
#
# number of rings (size 3 to 8) (size 9 to 14) (size 15 to 20)
#    0.000    1.429    2.857    2.571    2.000    2.286 
#    0.000    6.429    0.000    0.000    0.000    0.000 
#    0.000    0.000    0.000    0.000    0.000    0.000 
#
# Total GULP energy -173505.092605 kJ/mol
# GULP energy per Si atom -12393.220900 kJ/mol
# Density = 2.055382 g / cm^3
# Si number density = 20.600709 Si / 1000 Ang^3
#
#
#
# Elastic Constant Matrix: (Units=GPa)
#
#
# Indices 1 2 3 4 5 6 
#
# 1 138.8269 30.1455 53.9643 15.4808 4.5579 -13.9847
# 2 30.1455 75.7216 45.1715 22.4463 -0.7064 -8.2172
# 3 53.9643 45.1715 106.9002 25.8166 -7.5985 -6.7800
# 4 15.4808 22.4463 25.8166 31.0019 -5.4015 -4.0259
# 5 4.5579 -0.7064 -7.5985 -5.4015 35.1290 -2.8563
# 6 -13.9847 -8.2172 -6.7800 -4.0259 -2.8563 27.7352
#
#
#
# Elastic Compliance Matrix: (Units=1/GPa)
#
#
# Indices 1 2 3 4 5 6 
#
# 1 0.009478 -0.000717 -0.004279 -0.000579 -0.001996 0.003231
# 2 -0.000717 0.019970 -0.005815 -0.009267 -0.001978 0.002584
# 3 -0.004279 -0.005815 0.015644 -0.006281 0.002801 -0.000679
# 4 -0.000579 -0.009267 -0.006281 0.045843 0.005797 0.002679
# 5 -0.001996 -0.001978 0.002801 0.005797 0.030432 0.003068
# 6 0.003231 0.002584 -0.000679 0.002679 0.003068 0.038989
#
#
# Mechanical properties :
#
#
# Convention : Reuss Voigt Hill
#
# Bulk Modulus (GPa) = 42.60683 64.44569 53.52626
# Shear Modulus (GPa) = 26.34336 31.58440 28.96388
#
# Velocity S-wave (km/s) = 3.57985 3.91982 3.75369
# Velocity P-wave (km/s) = 6.14933 7.19985 6.69522
#
# Compressibility (1/GPa) = 0.02347042
#
# Stress axis : x y z
#
# Youngs Moduli (GPa) = 105.51188 50.07561 63.92032
#
# Poissons Ratio (x) = 0.03592 0.27348
# Poissons Ratio (y) = 0.07568 0.37169
# Poissons Ratio (z) = 0.45143 0.29119
#
# Static dielectric constant tensor:
#      x y z
#    x 4.146870 -0.001830 0.023170 
#    y -0.001830 3.563350 0.108960 
#    z 0.023170 0.108960 3.760770 
# 
# 
# High freq. dielectric constant tensor:
#      x y z
#    x 1.815910 -0.002200 0.002490 
#    y -0.002200 1.783410 -0.001660 
#    z 0.002490 -0.001660 1.810940 
# 
# From -- ./inp_files/27477.got.cif
#   From: 2010.06.25/outbox.cif.g09.slc.cpg/sg2_14_cif.got.tgz:27477.got - 2010.06.27 13:26:56.
