data_PCOD8002384
_publ_section_title
;
Structure prediction by ZEFSAII (Michael W. Deem and Ramdas Pophale) SiO2 
 PCOD8002384
Probable space group: P -1
;
_chemical_formula_sum "Si O2"
_cell_formula_units_Z 16
_cell_length_a 11.236260
_cell_length_b 18.048628
_cell_length_c 11.978801
_cell_angle_alpha 36.205661
_cell_angle_beta 36.344812
_cell_angle_gamma 42.923526
_cell_volume 826.556597
_symmetry_space_group_name_H-M "P -1"
_symmetry_group_IT_number 2
_symmetry_cell_setting 'triclinic'
loop_
_space_group_symop_operation_xyz
x,y,z
-x,-y,-z
loop_
_atom_site_type_symbol
_atom_site_label
_atom_site_fract_x
_atom_site_fract_y
_atom_site_fract_z
Si Si1 0.919729 0.225765 0.980990
Si Si2 0.469651 0.132536 0.928622
Si Si3 0.903662 0.063033 0.784324
Si Si4 0.480957 0.834099 0.544930
Si Si5 0.179287 0.225691 0.460462
Si Si6 0.761379 0.891956 0.663297
Si Si7 0.090389 0.577857 0.430302
Si Si8 0.701736 0.682566 0.353867
O O1 0.716855 0.221238 0.208716
O O2 0.849830 0.301965 0.824593
O O3 0.059773 0.083128 0.021898
O O4 0.066307 0.294813 0.860397
O O5 0.664157 0.129451 0.865597
O O6 0.440791 0.252147 0.720140
O O7 0.265504 0.156964 0.131907
O O8 0.500000 0.000000 0.000000
O O9 0.005370 0.140913 0.704177
O O10 0.020178 0.068010 0.569820
O O11 0.619971 0.837359 0.543882
O O12 0.609524 0.740932 0.469424
O O13 0.421713 0.980389 0.369779
O O14 0.252774 0.219553 0.282191
O O15 0.074689 0.368594 0.411409
O O16 0.281672 0.472672 0.469272
O O17 0.000000 0.500000 0.500000
#
# Coordination Sequence:
#
# PCOD8002384 Si02
#       8
#     2   2   2   2   2   2   2   2
#     4  10  20  35  60  92 117 155 192 242 319 345
#     4  12  21  39  65  85 122 163 206 237 298 354
#     4   9  22  37  59  96 118 155 196 250 306 341
#     4  11  19  37  61  94 122 149 192 254 315 350
#     4  10  21  40  59  88 133 148 192 260 297 358
#     4   9  22  36  56  93 123 148 196 247 305 342
#     4  10  21  41  60  84 128 159 196 247 295 359
#     4  11  23  40  59  91 123 156 205 250 282 361
#
# _framework density 19.357416000000001
#
# number of rings (size 3 to 8) (size 9 to 14) (size 15 to 20)
#    0.750    1.000    5.000    0.375    0.000    3.500 
#    0.000    1.250    0.000    0.000    0.000    0.000 
#    0.000    0.000    0.000    0.000    0.000    0.000 
#
# Total GULP energy -198240.962633 kJ/mol
# GULP energy per Si atom -12390.060165 kJ/mol
# Density = 1.931336 g / cm^3
# Si number density = 19.357416 Si / 1000 Ang^3
#
#
#
# Elastic Constant Matrix: (Units=GPa)
#
#
# Indices 1 2 3 4 5 6 
#
# 1 64.1317 26.0586 37.4306 -5.1241 0.8487 -8.0811
# 2 26.0586 101.1398 32.5409 -7.0408 13.8501 1.0512
# 3 37.4306 32.5409 78.5790 -0.1189 13.6641 -6.2575
# 4 -5.1241 -7.0408 -0.1189 28.6917 -4.4304 11.8423
# 5 0.8487 13.8501 13.6641 -4.4304 33.0316 3.1546
# 6 -8.0811 1.0512 -6.2575 11.8423 3.1546 32.6905
#
#
#
# Elastic Compliance Matrix: (Units=1/GPa)
#
#
# Indices 1 2 3 4 5 6 
#
# 1 0.023580 -0.003167 -0.010679 0.003328 0.005379 0.002162
# 2 -0.003167 0.012433 -0.003306 0.003079 -0.003100 -0.002632
# 3 -0.010679 -0.003306 0.020939 -0.005677 -0.008175 0.004320
# 4 0.003328 0.003079 -0.005677 0.044686 0.008625 -0.017383
# 5 0.005379 -0.003100 -0.008175 0.008625 0.036623 -0.006794
# 6 0.002162 -0.002632 0.004320 -0.017383 -0.006794 0.038989
#
#
# Mechanical properties :
#
#
# Convention : Reuss Voigt Hill
#
# Bulk Modulus (GPa) = 44.15386 48.43452 46.29419
# Shear Modulus (GPa) = 22.82032 28.73745 25.77889
#
# Velocity S-wave (km/s) = 3.43723 3.85719 3.65325
# Velocity P-wave (km/s) = 6.21386 6.70170 6.46238
#
# Compressibility (1/GPa) = 0.02264808
#
# Stress axis : x y z
#
# Youngs Moduli (GPa) = 42.40963 80.42971 47.75791
#
# Poissons Ratio (x) = 0.25471 0.50999
# Poissons Ratio (y) = 0.13431 0.15790
# Poissons Ratio (z) = 0.45288 0.26591
#
# Static dielectric constant tensor:
#      x y z
#    x 3.349770 -0.180630 0.119520 
#    y -0.180630 3.728060 -0.117450 
#    z 0.119520 -0.117450 3.570650 
# 
# 
# High freq. dielectric constant tensor:
#      x y z
#    x 1.731630 -0.006340 0.006180 
#    y -0.006340 1.752200 0.009080 
#    z 0.006180 0.009080 1.740670 
# 
# From -- ./inp_files/435447.got.cif
#   From: 2010.06.25/outbox.cif.g09.slc.cpg/sg2_218_cif.got.tgz:435447.got - 2010.06.27 13:26:56.
