data_PCOD8002457
_publ_section_title
;
Structure prediction by ZEFSAII (Michael W. Deem and Ramdas Pophale) SiO2 
 PCOD8002457
Probable space group: P -1
;
_chemical_formula_sum "Si O2"
_cell_formula_units_Z 14
_cell_length_a 8.645752
_cell_length_b 15.193469
_cell_length_c 14.832041
_cell_angle_alpha 154.381481
_cell_angle_beta 50.185029
_cell_angle_gamma 127.325704
_cell_volume 644.600239
_symmetry_space_group_name_H-M "P -1"
_symmetry_group_IT_number 2
_symmetry_cell_setting 'triclinic'
loop_
_space_group_symop_operation_xyz
x,y,z
-x,-y,-z
loop_
_atom_site_type_symbol
_atom_site_label
_atom_site_fract_x
_atom_site_fract_y
_atom_site_fract_z
Si Si1 0.509873 0.943553 0.586405
Si Si2 0.309994 0.554926 0.384209
Si Si3 0.352395 0.292299 0.847436
Si Si4 0.558509 0.190999 0.962866
Si Si5 0.110914 0.446028 0.531169
Si Si6 0.901450 0.305720 0.081490
Si Si7 0.150569 0.022587 0.047931
O O1 0.397526 0.113453 0.733280
O O2 0.348134 0.785421 0.549203
O O3 0.637042 0.805480 0.346706
O O4 0.635245 0.065309 0.732062
O O5 0.483846 0.407353 0.156821
O O6 0.284708 0.557281 0.504570
O O7 0.101497 0.461635 0.330328
O O8 0.500000 0.500000 0.000000
O O9 0.124451 0.343520 0.992791
O O10 0.752307 0.229015 0.988220
O O11 0.380541 0.060937 0.962597
O O12 0.154918 0.481890 0.655000
O O13 0.094609 0.206082 0.301272
O O14 0.879085 0.169512 0.053734
O O15 0.000000 0.000000 0.000000
#
# Coordination Sequence:
#
# PCOD8002457 Si02
#       7
#     2   2   2   2   2   2   2
#     4  11  22  42  66  85 117 160 207 256 297 350
#     4  10  20  38  62  90 119 159 203 245 300 361
#     4  11  25  43  66  89 113 158 217 257 292 351
#     4  11  24  38  61  95 129 157 191 247 312 370
#     4  10  20  35  62  90 121 158 200 246 294 358
#     4  12  24  39  60  93 129 159 196 249 309 362
#     4  11  22  39  65  94 122 162 206 243 295 365
#
# _framework density 21.718886000000001
#
# number of rings (size 3 to 8) (size 9 to 14) (size 15 to 20)
#    0.000    1.143    0.000    9.000    0.000    5.143 
#    0.000    2.857    0.000    0.000    0.000    0.000 
#    0.000    0.000    0.000    0.000    0.000    0.000 
#
# Total GULP energy -173511.287364 kJ/mol
# GULP energy per Si atom -12393.663383 kJ/mol
# Density = 2.166945 g / cm^3
# Si number density = 21.718886 Si / 1000 Ang^3
#
#
#
# Elastic Constant Matrix: (Units=GPa)
#
#
# Indices 1 2 3 4 5 6 
#
# 1 102.9633 41.9933 67.1211 -11.2781 34.3005 12.2910
# 2 41.9933 82.3139 54.5731 8.2268 6.3453 15.3456
# 3 67.1211 54.5731 166.3835 -20.5242 41.7594 1.3433
# 4 -11.2781 8.2268 -20.5242 39.1512 -12.2393 -1.3974
# 5 34.3005 6.3453 41.7594 -12.2393 40.4809 -2.6735
# 6 12.2910 15.3456 1.3433 -1.3974 -2.6735 27.5906
#
#
#
# Elastic Compliance Matrix: (Units=1/GPa)
#
#
# Indices 1 2 3 4 5 6 
#
# 1 0.018695 -0.006198 -0.002110 0.001413 -0.012657 -0.005933
# 2 -0.006198 0.022283 -0.007340 -0.008739 0.006086 -0.009128
# 3 -0.002110 -0.007340 0.011693 0.004900 -0.007380 0.003986
# 4 0.001413 -0.008739 0.004900 0.032219 0.005264 0.006134
# 5 -0.012657 0.006086 -0.007380 0.005264 0.044151 0.007158
# 6 -0.005933 -0.009128 0.003986 0.006134 0.007158 0.044774
#
#
# Mechanical properties :
#
#
# Convention : Reuss Voigt Hill
#
# Bulk Modulus (GPa) = 46.78300 75.44839 61.11569
# Shear Modulus (GPa) = 23.55860 33.97608 28.76734
#
# Velocity S-wave (km/s) = 3.29706 3.95949 3.64336
# Velocity P-wave (km/s) = 6.00676 7.46441 6.77490
#
# Compressibility (1/GPa) = 0.02137529
#
# Stress axis : x y z
#
# Youngs Moduli (GPa) = 53.48983 44.87722 85.51941
#
# Poissons Ratio (x) = 0.27815 0.18044
# Poissons Ratio (y) = 0.33154 0.62772
# Poissons Ratio (z) = 0.11286 0.32940
#
# Static dielectric constant tensor:
#      x y z
#    x 3.623190 -0.107370 0.245370 
#    y -0.107370 4.040760 -0.076730 
#    z 0.245370 -0.076730 4.401520 
# 
# 
# High freq. dielectric constant tensor:
#      x y z
#    x 1.822420 -0.004450 0.019680 
#    y -0.004450 1.851040 0.001920 
#    z 0.019680 0.001920 1.882040 
# 
# From -- ./inp_files/505688.got.cif
#   From: 2010.06.25/outbox.cif.g09.slc.cpg/sg2_253_cif.got.tgz:505688.got - 2010.06.27 13:26:56.
