data_PCOD8002882
_publ_section_title
;
Structure prediction by ZEFSAII (Michael W. Deem and Ramdas Pophale) SiO2 
 PCOD8002882
Probable space group: P -1
;
_chemical_formula_sum "Si O2"
_cell_formula_units_Z 16
_cell_length_a 9.260465
_cell_length_b 10.756261
_cell_length_c 11.504123
_cell_angle_alpha 55.178673
_cell_angle_beta 94.685739
_cell_angle_gamma 116.745895
_cell_volume 815.700725
_symmetry_space_group_name_H-M "P -1"
_symmetry_group_IT_number 2
_symmetry_cell_setting 'triclinic'
loop_
_space_group_symop_operation_xyz
x,y,z
-x,-y,-z
loop_
_atom_site_type_symbol
_atom_site_label
_atom_site_fract_x
_atom_site_fract_y
_atom_site_fract_z
Si Si1 0.172225 0.564348 0.118842
Si Si2 0.488399 0.170169 0.906138
Si Si3 0.963962 0.743910 0.552615
Si Si4 0.186027 0.010087 0.585190
Si Si5 0.834803 0.825190 0.059005
Si Si6 0.230931 0.387424 0.605290
Si Si7 0.477024 0.266707 0.595179
Si Si8 0.975812 0.727188 0.916330
O O1 0.368289 0.675777 0.092613
O O2 0.090473 0.437678 0.290245
O O3 0.142011 0.450475 0.063141
O O4 0.099857 0.696476 0.025040
O O5 0.317388 0.137591 0.968577
O O6 0.508108 0.213657 0.749810
O O7 0.500000 0.000000 0.000000
O O8 0.939635 0.691266 0.441830
O O9 0.151010 0.884700 0.536073
O O10 0.858574 0.839175 0.531068
O O11 0.076562 0.892066 0.750300
O O12 0.380991 0.103353 0.586636
O O13 0.814230 0.687809 0.229540
O O14 0.848605 0.757593 0.969892
O O15 0.000000 0.000000 0.000000
O O16 0.350807 0.341558 0.562442
O O17 0.340186 0.596853 0.516203
#
# Coordination Sequence:
#
# PCOD8002882 Si02
#       8
#     2   2   2   2   2   2   2   2
#     4  10  20  36  60  84 110 146 197 236 275 336
#     4  11  21  34  59  85 111 147 193 239 274 335
#     4   9  16  30  51  82 105 136 190 235 268 323
#     4   9  17  29  54  79 107 144 185 231 275 337
#     4  11  22  36  56  80 119 151 183 229 292 341
#     4   9  17  30  52  75 106 143 181 229 272 327
#     4   9  16  29  50  79 104 135 190 225 272 323
#     4  10  21  38  56  84 117 153 181 230 294 342
#
# _framework density 19.615037999999998
#
# number of rings (size 3 to 8) (size 9 to 14) (size 15 to 20)
#    0.000    2.250    1.250    3.750    1.750    0.500 
#    0.000    0.625    5.500    0.000    0.000    3.500 
#    0.000    0.000    0.000    0.000    0.000    0.000 
#
# Total GULP energy -198242.573806 kJ/mol
# GULP energy per Si atom -12390.160863 kJ/mol
# Density = 1.957039 g / cm^3
# Si number density = 19.615038 Si / 1000 Ang^3
#
#
#
# Elastic Constant Matrix: (Units=GPa)
#
#
# Indices 1 2 3 4 5 6 
#
# 1 64.2537 44.4735 38.0528 -0.9790 7.9129 13.8535
# 2 44.4735 137.4365 35.8064 0.2860 -5.5425 37.2999
# 3 38.0528 35.8064 82.7887 -6.0573 11.6477 5.5679
# 4 -0.9790 0.2860 -6.0573 29.8690 3.0285 0.3105
# 5 7.9129 -5.5425 11.6477 3.0285 24.7846 -1.8995
# 6 13.8535 37.2999 5.5679 0.3105 -1.8995 34.3024
#
#
#
# Elastic Compliance Matrix: (Units=1/GPa)
#
#
# Indices 1 2 3 4 5 6 
#
# 1 0.025788 -0.005426 -0.008488 -0.000211 -0.005696 -0.003450
# 2 -0.005426 0.013194 -0.003340 -0.001428 0.005562 -0.011293
# 3 -0.008488 -0.003340 0.018462 0.004164 -0.006943 0.003641
# 4 -0.000211 -0.001428 0.004164 0.034983 -0.006461 0.000288
# 5 -0.005696 0.005562 -0.006943 -0.006461 0.047468 0.000067
# 6 -0.003450 -0.011293 0.003641 0.000288 0.000067 0.042235
#
#
# Mechanical properties :
#
#
# Convention : Reuss Voigt Hill
#
# Bulk Modulus (GPa) = 43.60149 57.90494 50.75321
# Shear Modulus (GPa) = 22.29314 28.86761 25.58037
#
# Velocity S-wave (km/s) = 3.37491 3.84045 3.61518
# Velocity P-wave (km/s) = 6.12075 7.01784 6.58459
#
# Compressibility (1/GPa) = 0.02293500
#
# Stress axis : x y z
#
# Youngs Moduli (GPa) = 38.77705 75.79063 54.16663
#
# Poissons Ratio (x) = 0.41127 0.45978
# Poissons Ratio (y) = 0.21042 0.18091
# Poissons Ratio (z) = 0.32915 0.25313
#
# Static dielectric constant tensor:
#      x y z
#    x 3.282600 0.488890 0.071800 
#    y 0.488890 4.013230 0.017950 
#    z 0.071800 0.017950 3.526900 
# 
# 
# High freq. dielectric constant tensor:
#      x y z
#    x 1.710630 0.027750 0.025980 
#    y 0.027750 1.785730 -0.006260 
#    z 0.025980 -0.006260 1.771990 
# 
# From -- ./inp_files/277560.got.cif
#   From: 2010.06.25/outbox.cif.g09.slc.cpg/sg2_139_cif.got.tgz:277560.got - 2010.06.27 13:26:56.
