data_PCOD8002282
_publ_section_title
;
Structure prediction by ZEFSAII (Michael W. Deem and Ramdas Pophale) SiO2 
 PCOD8002282
Probable space group: P -1
;
_chemical_formula_sum "Si O2"
_cell_formula_units_Z 16
_cell_length_a 8.727465
_cell_length_b 14.388793
_cell_length_c 14.064742
_cell_angle_alpha 134.728884
_cell_angle_beta 136.938226
_cell_angle_gamma 66.524301
_cell_volume 831.983528
_symmetry_space_group_name_H-M "P -1"
_symmetry_group_IT_number 2
_symmetry_cell_setting 'triclinic'
loop_
_space_group_symop_operation_xyz
x,y,z
-x,-y,-z
loop_
_atom_site_type_symbol
_atom_site_label
_atom_site_fract_x
_atom_site_fract_y
_atom_site_fract_z
Si Si1 0.491569 0.740732 0.870478
Si Si2 0.455256 0.641544 0.983895
Si Si3 0.302865 0.308893 0.351626
Si Si4 0.161936 0.697019 0.049096
Si Si5 0.372187 0.338160 0.725822
Si Si6 0.003890 0.211004 0.323674
Si Si7 0.297147 0.473728 0.287842
Si Si8 0.859615 0.898564 0.025709
O O1 0.537349 0.608303 0.747263
O O2 0.229324 0.742859 0.730980
O O3 0.535549 0.741424 0.004277
O O4 0.665636 0.873762 0.002663
O O5 0.227039 0.672939 0.951272
O O6 0.656179 0.662160 0.171509
O O7 0.396786 0.489311 0.807846
O O8 0.144240 0.296347 0.363193
O O9 0.254526 0.424353 0.342774
O O10 0.575487 0.367268 0.547679
O O11 0.260176 0.167630 0.174300
O O12 0.390529 0.708957 0.226433
O O13 0.068062 0.832204 0.105566
O O14 0.961864 0.568507 0.904052
O O15 0.154793 0.237483 0.507369
O O16 0.957215 0.054649 0.164039
#
# Coordination Sequence:
#
# PCOD8002282 Si02
#       8
#     2   2   2   2   2   2   2   2
#     4  10  20  35  59  80 109 144 184 228 274 315
#     4   9  18  38  57  83 105 143 181 221 283 325
#     4   9  19  33  52  82 107 136 178 226 272 317
#     4   8  17  37  58  74 110 149 169 224 268 324
#     4   9  21  35  59  84 111 138 183 225 274 331
#     4  12  22  35  56  83 111 149 186 220 264 328
#     4   9  18  34  56  84 109 135 179 228 281 318
#     4  10  22  37  54  79 114 147 186 226 263 314
#
# _framework density 19.23115
#
# number of rings (size 3 to 8) (size 9 to 14) (size 15 to 20)
#    0.750    2.000    0.000    3.000    0.000    6.500 
#    0.000    6.250    0.000    0.000    0.000    0.000 
#    0.000    0.000    0.000    0.000    0.000    0.000 
#
# Total GULP energy -198217.906820 kJ/mol
# GULP energy per Si atom -12388.619176 kJ/mol
# Density = 1.918738 g / cm^3
# Si number density = 19.231150 Si / 1000 Ang^3
#
#
#
# Elastic Constant Matrix: (Units=GPa)
#
#
# Indices 1 2 3 4 5 6 
#
# 1 107.2550 40.8260 35.6547 -6.5717 16.5108 2.0524
# 2 40.8260 52.2813 41.2220 -4.6903 9.5424 -0.5647
# 3 35.6547 41.2220 100.5775 0.7299 -0.5241 3.4260
# 4 -6.5717 -4.6903 0.7299 28.6770 -3.0059 2.1424
# 5 16.5108 9.5424 -0.5241 -3.0059 21.9162 3.4826
# 6 2.0524 -0.5647 3.4260 2.1424 3.4826 16.6597
#
#
#
# Elastic Compliance Matrix: (Units=1/GPa)
#
#
# Indices 1 2 3 4 5 6 
#
# 1 0.014220 -0.008509 -0.001583 0.001228 -0.006806 -0.000450
# 2 -0.008509 0.038511 -0.013088 0.002962 -0.011383 0.007044
# 3 -0.001583 -0.013088 0.016091 -0.001721 0.007830 -0.004973
# 4 0.001228 0.002962 -0.001721 0.036436 0.003556 -0.005126
# 5 -0.006806 -0.011383 0.007830 0.003556 0.058590 -0.013863
# 6 -0.000450 0.007044 -0.004973 -0.005126 -0.013863 0.064899
#
#
# Mechanical properties :
#
#
# Convention : Reuss Voigt Hill
#
# Bulk Modulus (GPa) = 44.51953 55.05769 49.78861
# Shear Modulus (GPa) = 17.69321 22.94465 20.31893
#
# Velocity S-wave (km/s) = 3.03649 3.45787 3.25401
# Velocity P-wave (km/s) = 5.95765 6.68088 6.32960
#
# Compressibility (1/GPa) = 0.02246205
#
# Stress axis : x y z
#
# Youngs Moduli (GPa) = 70.32275 25.96655 62.14824
#
# Poissons Ratio (x) = 0.22095 0.09836
# Poissons Ratio (y) = 0.59838 0.81341
# Poissons Ratio (z) = 0.11129 0.33986
#
# Static dielectric constant tensor:
#      x y z
#    x 3.517250 0.046170 0.144160 
#    y 0.046170 3.191360 -0.032670 
#    z 0.144160 -0.032670 3.580840 
# 
# 
# High freq. dielectric constant tensor:
#      x y z
#    x 1.751080 0.002640 0.007420 
#    y 0.002640 1.717340 -0.003360 
#    z 0.007420 -0.003360 1.738580 
# 
# From -- ./inp_files/503125.got.cif
#   From: 2010.06.25/outbox.cif.g09.slc.cpg/sg2_252_cif.got.tgz:503125.got - 2010.06.27 13:26:56.
