data_PCOD8002861
_publ_section_title
;
Structure prediction by ZEFSAII (Michael W. Deem and Ramdas Pophale) SiO2 
 PCOD8002861
Probable space group: P -1
;
_chemical_formula_sum "Si O2"
_cell_formula_units_Z 16
_cell_length_a 16.353611
_cell_length_b 5.238765
_cell_length_c 18.355474
_cell_angle_alpha 79.895039
_cell_angle_beta 156.736485
_cell_angle_gamma 95.900937
_cell_volume 604.535154
_symmetry_space_group_name_H-M "P -1"
_symmetry_group_IT_number 2
_symmetry_cell_setting 'triclinic'
loop_
_space_group_symop_operation_xyz
x,y,z
-x,-y,-z
loop_
_atom_site_type_symbol
_atom_site_label
_atom_site_fract_x
_atom_site_fract_y
_atom_site_fract_z
Si Si1 0.986122 0.613042 0.781785
Si Si2 0.430369 0.610077 0.544562
Si Si3 0.832691 0.689682 0.186415
Si Si4 0.320510 0.876274 0.301903
Si Si5 0.085941 0.328944 0.013040
Si Si6 0.424104 0.008310 0.792173
Si Si7 0.758519 0.504338 0.287270
Si Si8 0.759559 0.097845 0.499954
O O1 0.119094 0.540979 0.821343
O O2 0.802487 0.447908 0.656175
O O3 0.133658 0.526234 0.977041
O O4 0.876692 0.912218 0.669007
O O5 0.455811 0.830451 0.490677
O O6 0.596876 0.348632 0.678894
O O7 0.421414 0.705122 0.617258
O O8 0.713153 0.583834 0.161970
O O9 0.054331 0.767329 0.390725
O O10 0.675564 0.927858 0.008543
O O11 0.308632 0.158042 0.233057
O O12 0.079817 0.868578 0.129597
O O13 0.000000 0.500000 0.000000
O O14 0.307899 0.779892 0.741827
O O15 0.351348 0.051920 0.646187
O O16 0.370330 0.282382 0.775953
O O17 0.000000 0.500000 0.500000
#
# Coordination Sequence:
#
# PCOD8002861 Si02
#       8
#     2   2   2   2   2   2   2   2
#     4  10  23  40  62  93 134 178 231 287 361 414
#     4   9  20  39  61  93 126 183 226 291 355 418
#     4  11  26  45  70 100 142 183 232 296 353 426
#     4   9  19  37  62  86 130 169 234 283 347 421
#     4  10  20  36  59  93 124 175 226 290 347 413
#     4  12  28  45  76 109 139 191 242 289 362 429
#     4  12  25  49  76 106 143 187 239 297 357 424
#     4  11  24  44  67  97 145 184 231 296 355 424
#
# _framework density 26.466615999999998
#
# number of rings (size 3 to 8) (size 9 to 14) (size 15 to 20)
#    0.000    1.500    1.250    2.625    5.250    4.000 
#    0.000    3.750    0.000    0.000    0.000    0.000 
#    0.000    0.000    0.000    0.000    0.000    0.000 
#
# Total GULP energy -198301.518891 kJ/mol
# GULP energy per Si atom -12393.844931 kJ/mol
# Density = 2.640638 g / cm^3
# Si number density = 26.466616 Si / 1000 Ang^3
#
#
#
# Elastic Constant Matrix: (Units=GPa)
#
#
# Indices 1 2 3 4 5 6 
#
# 1 126.8556 32.3610 40.4882 -13.3653 -17.3988 -15.0560
# 2 32.3610 59.5489 3.2336 -31.0355 -6.1995 0.0693
# 3 40.4882 3.2336 127.4044 -18.9773 -7.1319 -10.5914
# 4 -13.3653 -31.0355 -18.9773 48.4396 7.5294 5.9231
# 5 -17.3988 -6.1995 -7.1319 7.5294 48.8738 -4.3571
# 6 -15.0560 0.0693 -10.5914 5.9231 -4.3571 41.6754
#
#
#
# Elastic Compliance Matrix: (Units=1/GPa)
#
#
# Indices 1 2 3 4 5 6 
#
# 1 0.011638 -0.008085 -0.003595 -0.004477 0.003668 0.004324
# 2 -0.008085 0.031453 0.004307 0.020508 -0.001864 -0.004988
# 3 -0.003595 0.004307 0.009733 0.005557 -0.000137 0.000363
# 4 -0.004477 0.020508 0.005557 0.036100 -0.004261 -0.005815
# 5 0.003668 -0.001864 -0.000137 -0.004261 0.022546 0.004256
# 6 0.004324 -0.004988 0.000363 -0.005815 0.004256 0.026929
#
#
# Mechanical properties :
#
#
# Convention : Reuss Voigt Hill
#
# Bulk Modulus (GPa) = 26.26325 51.77494 39.01910
# Shear Modulus (GPa) = 30.15006 43.64617 36.89812
#
# Velocity S-wave (km/s) = 3.37883 4.06532 3.73787
# Velocity P-wave (km/s) = 5.01664 6.45295 5.77959
#
# Compressibility (1/GPa) = 0.03807602
#
# Stress axis : x y z
#
# Youngs Moduli (GPa) = 85.92841 31.79334 102.74808
#
# Poissons Ratio (x) = 0.25706 0.36940
# Poissons Ratio (y) = 0.69476 -0.44253
# Poissons Ratio (z) = 0.30893 -0.13693
#
# Static dielectric constant tensor:
#      x y z
#    x 5.345060 0.381200 0.077640 
#    y 0.381200 5.124880 -0.057280 
#    z 0.077640 -0.057280 5.762560 
# 
# 
# High freq. dielectric constant tensor:
#      x y z
#    x 2.067600 0.009260 -0.002500 
#    y 0.009260 2.057600 0.004010 
#    z -0.002500 0.004010 2.090200 
# 
# From -- ./inp_files/571675.got.cif
#   From: 2010.06.25/outbox.cif.g09.slc.cpg/sg2_286_cif.got.tgz:571675.got - 2010.06.27 13:26:56.
