data_PCOD8002279
_publ_section_title
;
Structure prediction by ZEFSAII (Michael W. Deem and Ramdas Pophale) SiO2 
 PCOD8002279
Probable space group: P -1
;
_chemical_formula_sum "Si O2"
_cell_formula_units_Z 12
_cell_length_a 9.584517
_cell_length_b 5.001917
_cell_length_c 11.157171
_cell_angle_alpha 122.459324
_cell_angle_beta 82.011813
_cell_angle_gamma 87.438772
_cell_volume 442.365844
_symmetry_space_group_name_H-M "P -1"
_symmetry_group_IT_number 2
_symmetry_cell_setting 'triclinic'
loop_
_space_group_symop_operation_xyz
x,y,z
-x,-y,-z
loop_
_atom_site_type_symbol
_atom_site_label
_atom_site_fract_x
_atom_site_fract_y
_atom_site_fract_z
Si Si1 0.166280 0.489128 0.664771
Si Si2 0.547075 0.621939 0.152169
Si Si3 0.539739 0.333511 0.326379
Si Si4 0.840663 0.438257 0.981266
Si Si5 0.859982 0.704276 0.806211
Si Si6 0.137281 0.808448 0.499535
O O1 0.291488 0.696551 0.720097
O O2 0.099752 0.620675 0.576741
O O3 0.028970 0.583336 0.788841
O O4 0.229692 0.104734 0.575735
O O5 0.474245 0.494141 0.248840
O O6 0.489032 0.993431 0.254064
O O7 0.500000 0.500000 0.000000
O O8 0.722560 0.543243 0.124424
O O9 0.500000 0.500000 0.500000
O O10 0.779502 0.657285 0.928556
O O11 0.837516 0.070223 0.856697
O O12 0.000000 0.500000 0.000000
O O13 0.793352 0.479405 0.663933
O O14 0.000000 0.000000 0.500000
#
# Coordination Sequence:
#
# PCOD8002279 Si02
#       6
#     2   2   2   2   2   2
#     4  11  21  39  64  97 139 176 228 295 349 417
#     4  12  28  51  73 106 148 189 238 301 360 426
#     4  12  27  49  75 102 136 192 249 297 353 426
#     4  12  24  41  67  97 132 179 230 285 349 421
#     4  11  21  37  62  97 134 177 222 283 355 420
#     4  10  20  35  58  95 136 177 220 279 352 418
#
# _framework density 27.126867000000001
#
# number of rings (size 3 to 8) (size 9 to 14) (size 15 to 20)
#    0.000    0.667    0.000   10.500    0.000    4.000 
#    0.000    0.000    0.000    0.000    0.000    0.000 
#    0.000    0.000    0.000    0.000    0.000    0.000 
#
# Total GULP energy -148664.979473 kJ/mol
# GULP energy per Si atom -12388.748289 kJ/mol
# Density = 2.706512 g / cm^3
# Si number density = 27.126867 Si / 1000 Ang^3
#
#
#
# Elastic Constant Matrix: (Units=GPa)
#
#
# Indices 1 2 3 4 5 6 
#
# 1 45.1791 4.0319 11.3569 1.0040 -12.0676 1.6446
# 2 4.0319 187.8360 87.4310 6.9340 -3.1695 23.3042
# 3 11.3569 87.4310 160.6001 -4.8838 3.0406 12.1342
# 4 1.0040 6.9340 -4.8838 65.0158 12.2394 5.2770
# 5 -12.0676 -3.1695 3.0406 12.2394 27.0810 -1.5143
# 6 1.6446 23.3042 12.1342 5.2770 -1.5143 17.0056
#
#
#
# Elastic Compliance Matrix: (Units=1/GPa)
#
#
# Indices 1 2 3 4 5 6 
#
# 1 0.026500 0.001080 -0.002844 -0.003354 0.013784 0.000255
# 2 0.001080 0.008234 -0.004010 -0.000887 0.001844 -0.008088
# 3 -0.002844 -0.004010 0.008852 0.001952 -0.003696 -0.001481
# 4 -0.003354 -0.000887 0.001952 0.018148 -0.010378 -0.006409
# 5 0.013784 0.001844 -0.003696 -0.010378 0.048744 0.006338
# 6 0.000255 -0.008088 -0.001481 -0.006409 0.006338 0.073473
#
#
# Mechanical properties :
#
#
# Convention : Reuss Voigt Hill
#
# Bulk Modulus (GPa) = 31.21317 66.58387 48.89852
# Shear Modulus (GPa) = 24.25079 41.20684 32.72881
#
# Velocity S-wave (km/s) = 2.99319 3.90172 3.47725
# Velocity P-wave (km/s) = 4.84530 6.70049 5.84694
#
# Compressibility (1/GPa) = 0.03203775
#
# Stress axis : x y z
#
# Youngs Moduli (GPa) = 37.73627 121.44152 112.96845
#
# Poissons Ratio (x) = -0.13112 0.32128
# Poissons Ratio (y) = -0.04074 0.45300
# Poissons Ratio (z) = 0.10732 0.48697
#
# Static dielectric constant tensor:
#      x y z
#    x 4.968080 0.498330 0.310310 
#    y 0.498330 5.957000 0.172100 
#    z 0.310310 0.172100 5.386570 
# 
# 
# High freq. dielectric constant tensor:
#      x y z
#    x 2.080350 0.013360 0.009620 
#    y 0.013360 2.118520 -0.014960 
#    z 0.009620 -0.014960 2.095890 
# 
# From -- ./inp_files/408868.got.cif
#   From: 2010.06.25/outbox.cif.g09.slc.cpg/sg2_205_cif.got.tgz:408868.got - 2010.06.27 13:26:56.
