data_PCOD8002546
_publ_section_title
;
Structure prediction by ZEFSAII (Michael W. Deem and Ramdas Pophale) SiO2 
 PCOD8002546
Probable space group: P -1
;
_chemical_formula_sum "Si O2"
_cell_formula_units_Z 16
_cell_length_a 14.477387
_cell_length_b 11.288543
_cell_length_c 11.420202
_cell_angle_alpha 64.658928
_cell_angle_beta 85.902379
_cell_angle_gamma 140.929029
_cell_volume 749.983689
_symmetry_space_group_name_H-M "P -1"
_symmetry_group_IT_number 2
_symmetry_cell_setting 'triclinic'
loop_
_space_group_symop_operation_xyz
x,y,z
-x,-y,-z
loop_
_atom_site_type_symbol
_atom_site_label
_atom_site_fract_x
_atom_site_fract_y
_atom_site_fract_z
Si Si1 0.221037 0.730675 0.422937
Si Si2 0.510755 0.084139 0.840637
Si Si3 0.254177 0.087741 0.588810
Si Si4 0.827388 0.510290 0.261923
Si Si5 0.898207 0.510906 0.995571
Si Si6 0.509020 0.737494 0.705201
Si Si7 0.822695 0.876318 0.029958
Si Si8 0.478925 0.340001 0.690882
O O1 0.280861 0.693612 0.340763
O O2 0.223329 0.681444 0.577081
O O3 0.000000 0.500000 0.500000
O O4 0.393316 0.065460 0.274045
O O5 0.503646 0.231719 0.799162
O O6 0.500000 0.000000 0.000000
O O7 0.331910 0.799355 0.896803
O O8 0.298737 0.076372 0.465119
O O9 0.410719 0.224481 0.613118
O O10 0.300803 0.303089 0.480696
O O11 0.018823 0.760227 0.788968
O O12 0.623673 0.342526 0.340701
O O13 0.899826 0.573057 0.097449
O O14 0.031851 0.832831 0.172515
O O15 0.000000 0.500000 0.000000
O O16 0.353038 0.425118 0.900729
O O17 0.698373 0.791916 0.181177
O O18 0.000000 0.000000 0.000000
#
# Coordination Sequence:
#
# PCOD8002546 Si02
#       8
#     2   2   2   2   2   2   2   2
#     4  12  28  43  63  93 134 179 224 273 331 392
#     4  12  28  46  66  93 139 183 223 274 336 403
#     4  10  20  35  70  98 130 159 220 278 329 381
#     4  11  21  40  64  96 130 161 222 270 328 393
#     4  12  22  38  69 101 127 171 221 276 329 395
#     4  10  21  40  65  94 127 166 215 273 332 391
#     4   9  19  36  67  99 129 163 211 282 333 389
#     4  10  20  39  63 101 134 170 215 274 335 389
#
# _framework density 21.333798000000002
#
# number of rings (size 3 to 8) (size 9 to 14) (size 15 to 20)
#    0.000    1.250    3.750    1.875    5.250    1.000 
#    0.000    1.250    0.000    0.000    0.000    0.000 
#    0.000    0.000    0.000    0.000    0.000    0.000 
#
# Total GULP energy -198250.745496 kJ/mol
# GULP energy per Si atom -12390.671594 kJ/mol
# Density = 2.128524 g / cm^3
# Si number density = 21.333798 Si / 1000 Ang^3
#
#
#
# Elastic Constant Matrix: (Units=GPa)
#
#
# Indices 1 2 3 4 5 6 
#
# 1 112.2053 38.6910 48.7395 -4.8419 -2.1960 -11.2074
# 2 38.6910 77.5979 31.4280 -19.1700 5.8765 -4.4496
# 3 48.7395 31.4280 105.1911 -17.6135 1.1779 -6.9177
# 4 -4.8419 -19.1700 -17.6135 36.2956 -4.0789 0.8173
# 5 -2.1960 5.8765 1.1779 -4.0789 38.0990 -0.6074
# 6 -11.2074 -4.4496 -6.9177 0.8173 -0.6074 28.8839
#
#
#
# Elastic Compliance Matrix: (Units=1/GPa)
#
#
# Indices 1 2 3 4 5 6 
#
# 1 0.013034 -0.005287 -0.004818 -0.003305 0.001413 0.003212
# 2 -0.005287 0.018329 -0.001670 0.007912 -0.002232 0.000101
# 3 -0.004818 -0.001670 0.013102 0.004826 0.000105 0.000877
# 4 -0.003305 0.007912 0.004826 0.033860 0.002068 0.000178
# 5 0.001413 -0.002232 0.000105 0.002068 0.026903 0.000737
# 6 0.003212 0.000101 0.000877 0.000178 0.000737 0.036104
#
#
# Mechanical properties :
#
#
# Convention : Reuss Voigt Hill
#
# Bulk Modulus (GPa) = 47.81060 59.19013 53.50037
# Shear Modulus (GPa) = 29.09481 32.39809 30.74645
#
# Velocity S-wave (km/s) = 3.69696 3.90118 3.80044
# Velocity P-wave (km/s) = 6.37830 6.93522 6.66258
#
# Compressibility (1/GPa) = 0.02091586
#
# Stress axis : x y z
#
# Youngs Moduli (GPa) = 76.72360 54.55895 76.32354
#
# Poissons Ratio (x) = 0.28845 0.36769
# Poissons Ratio (y) = 0.40563 0.12746
# Poissons Ratio (z) = 0.36962 0.09111
#
# Static dielectric constant tensor:
#      x y z
#    x 3.426320 -0.493330 0.089060 
#    y -0.493330 3.599650 -0.473960 
#    z 0.089060 -0.473960 4.193650 
# 
# 
# High freq. dielectric constant tensor:
#      x y z
#    x 1.828050 -0.031700 -0.010250 
#    y -0.031700 1.817440 -0.030210 
#    z -0.010250 -0.030210 1.844170 
# 
# From -- ./inp_files/314086.got.cif
#   From: 2010.06.25/outbox.cif.g09.slc.cpg/sg2_158_cif.got.tgz:314086.got - 2010.06.27 13:26:56.
