data_PCOD8002622
_publ_section_title
;
Structure prediction by ZEFSAII (Michael W. Deem and Ramdas Pophale) SiO2 
 PCOD8002622
Probable space group: P -1
;
_chemical_formula_sum "Si O2"
_cell_formula_units_Z 16
_cell_length_a 9.791143
_cell_length_b 11.599634
_cell_length_c 10.305744
_cell_angle_alpha 45.290901
_cell_angle_beta 99.174476
_cell_angle_gamma 113.823937
_cell_volume 746.818260
_symmetry_space_group_name_H-M "P -1"
_symmetry_group_IT_number 2
_symmetry_cell_setting 'triclinic'
loop_
_space_group_symop_operation_xyz
x,y,z
-x,-y,-z
loop_
_atom_site_type_symbol
_atom_site_label
_atom_site_fract_x
_atom_site_fract_y
_atom_site_fract_z
Si Si1 0.888700 0.181150 0.571789
Si Si2 0.937519 0.791200 0.169823
Si Si3 0.314644 0.109120 0.638794
Si Si4 0.679404 0.588815 0.439729
Si Si5 0.923904 0.575178 0.822065
Si Si6 0.180530 0.773832 0.051917
Si Si7 0.341374 0.776779 0.316828
Si Si8 0.842056 0.877891 0.636705
O O1 0.013325 0.253252 0.646262
O O2 0.737750 0.198725 0.584272
O O3 0.949134 0.294239 0.360534
O O4 0.838796 0.968184 0.703642
O O5 0.008325 0.713935 0.128826
O O6 0.751788 0.691822 0.231098
O O7 0.000000 0.000000 0.000000
O O8 0.257501 0.259184 0.560099
O O9 0.482055 0.147827 0.682740
O O10 0.295901 0.112857 0.478085
O O11 0.203573 0.916740 0.829307
O O12 0.500000 0.500000 0.500000
O O13 0.732098 0.428787 0.578991
O O14 0.805286 0.400971 0.865232
O O15 0.832210 0.676553 0.800535
O O16 0.000000 0.500000 0.000000
O O17 0.302797 0.869072 0.111420
O O18 0.000000 0.000000 0.500000
#
# Coordination Sequence:
#
# PCOD8002622 Si02
#       8
#     2   2   2   2   2   2   2   2
#     4  10  22  40  59  87 120 158 208 250 302 369
#     4  11  21  34  63  91 120 159 200 250 305 358
#     4  11  21  37  61  87 121 167 196 249 308 369
#     4  10  20  36  56  86 121 159 199 245 304 361
#     4  11  23  37  62  89 118 153 203 262 305 354
#     4  11  21  35  59  90 125 152 207 251 302 363
#     4  10  22  38  58  88 123 162 200 252 309 360
#     4  10  21  38  61  82 116 156 209 245 309 358
#
# _framework density 21.424222
#
# number of rings (size 3 to 8) (size 9 to 14) (size 15 to 20)
#    0.000    1.500    1.250    5.625    1.750    2.500 
#    0.000    0.000    0.000    1.500    0.000    0.000 
#    0.000    0.000    0.000    0.000    0.000    0.000 
#
# Total GULP energy -198215.634324 kJ/mol
# GULP energy per Si atom -12388.477145 kJ/mol
# Density = 2.137546 g / cm^3
# Si number density = 21.424222 Si / 1000 Ang^3
#
#
#
# Elastic Constant Matrix: (Units=GPa)
#
#
# Indices 1 2 3 4 5 6 
#
# 1 93.6093 34.7628 28.6480 -7.6125 -8.1721 -12.4778
# 2 34.7628 115.2784 26.0844 -13.3867 2.0361 -27.7566
# 3 28.6480 26.0844 95.2990 -6.2761 2.0471 -3.9552
# 4 -7.6125 -13.3867 -6.2761 30.1897 4.5349 6.5437
# 5 -8.1721 2.0361 2.0471 4.5349 27.6905 -2.6025
# 6 -12.4778 -27.7566 -3.9552 6.5437 -2.6025 43.5415
#
#
#
# Elastic Compliance Matrix: (Units=1/GPa)
#
#
# Indices 1 2 3 4 5 6 
#
# 1 0.013430 -0.002893 -0.003241 0.000328 0.004544 0.001932
# 2 -0.002893 0.011789 -0.001876 0.003043 -0.001519 0.005967
# 3 -0.003241 -0.001876 0.012066 0.001469 -0.002080 -0.001374
# 4 0.000328 0.003043 0.001469 0.036661 -0.006591 -0.003737
# 5 0.004544 -0.001519 -0.002080 -0.006591 0.039126 0.003474
# 6 0.001932 0.005967 -0.001374 -0.003737 0.003474 0.027969
#
#
# Mechanical properties :
#
#
# Convention : Reuss Voigt Hill
#
# Bulk Modulus (GPa) = 47.03048 53.68636 50.35842
# Shear Modulus (GPa) = 30.46019 34.59711 32.52865
#
# Velocity S-wave (km/s) = 3.77472 4.02289 3.90078
# Velocity P-wave (km/s) = 6.40294 6.83311 6.62152
#
# Compressibility (1/GPa) = 0.02126281
#
# Stress axis : x y z
#
# Youngs Moduli (GPa) = 74.46024 84.82718 82.88058
#
# Poissons Ratio (x) = 0.24544 0.26862
# Poissons Ratio (y) = 0.21545 0.15550
# Poissons Ratio (z) = 0.24133 0.15915
#
# Static dielectric constant tensor:
#      x y z
#    x 3.917210 -0.435430 0.038860 
#    y -0.435430 4.556090 -0.148110 
#    z 0.038860 -0.148110 3.885650 
# 
# 
# High freq. dielectric constant tensor:
#      x y z
#    x 1.828910 -0.020370 0.010740 
#    y -0.020370 1.847120 -0.009310 
#    z 0.010740 -0.009310 1.828220 
# 
# From -- ./inp_files/261643.got.cif
#   From: 2010.06.25/outbox.cif.g09.slc.cpg/sg2_131_cif.got.tgz:261643.got - 2010.06.27 13:26:56.
