data_PCOD8002498
_publ_section_title
;
Structure prediction by ZEFSAII (Michael W. Deem and Ramdas Pophale) SiO2 
 PCOD8002498
Probable space group: P -1
;
_chemical_formula_sum "Si O2"
_cell_formula_units_Z 16
_cell_length_a 9.716812
_cell_length_b 12.173376
_cell_length_c 9.044303
_cell_angle_alpha 75.895459
_cell_angle_beta 53.933871
_cell_angle_gamma 57.516562
_cell_volume 725.344701
_symmetry_space_group_name_H-M "P -1"
_symmetry_group_IT_number 2
_symmetry_cell_setting 'triclinic'
loop_
_space_group_symop_operation_xyz
x,y,z
-x,-y,-z
loop_
_atom_site_type_symbol
_atom_site_label
_atom_site_fract_x
_atom_site_fract_y
_atom_site_fract_z
Si Si1 0.006015 0.344054 0.412167
Si Si2 0.228505 0.642312 0.709774
Si Si3 0.075707 0.747144 0.073307
Si Si4 0.481309 0.340786 0.693407
Si Si5 0.412806 0.746641 0.013040
Si Si6 0.765902 0.500400 0.767646
Si Si7 0.362791 0.164859 0.662295
Si Si8 0.391204 0.123896 0.326674
O O1 0.129656 0.414962 0.335964
O O2 0.157640 0.194062 0.412759
O O3 0.947523 0.352496 0.276624
O O4 0.808742 0.414508 0.617308
O O5 0.359321 0.496626 0.738773
O O6 0.341034 0.694725 0.519362
O O7 0.136171 0.746217 0.865713
O O8 0.186364 0.802561 0.088925
O O9 0.139119 0.598798 0.124861
O O10 0.841766 0.836465 0.207497
O O11 0.564239 0.269709 0.820219
O O12 0.347160 0.286982 0.722892
O O13 0.534397 0.602670 0.904313
O O14 0.489139 0.842986 0.880615
O O15 0.420185 0.171610 0.453935
O O16 0.527923 0.030693 0.676725
#
# Coordination Sequence:
#
# PCOD8002498 Si02
#       8
#     2   2   2   2   2   2   2   2
#     4  10  21  38  63  95 127 169 210 259 318 379
#     4  11  25  38  64  97 136 161 210 260 323 378
#     4  12  23  39  65  97 128 167 211 257 322 379
#     4  11  25  42  63  97 134 167 205 264 320 376
#     4  11  24  41  66  97 132 167 207 260 324 379
#     4  10  20  35  63  94 128 165 202 259 323 381
#     4  11  25  45  69  91 125 170 221 263 307 375
#     4  10  24  46  68  89 126 172 218 261 315 369
#
# _framework density 22.058478000000001
#
# number of rings (size 3 to 8) (size 9 to 14) (size 15 to 20)
#    0.000    1.250    2.500    2.625   10.500    2.000 
#    0.000    0.625    0.000    0.000    0.000    0.000 
#    0.000    0.000    0.000    0.000    0.000    0.000 
#
# Total GULP energy -198414.288690 kJ/mol
# GULP energy per Si atom -12400.893043 kJ/mol
# Density = 2.200827 g / cm^3
# Si number density = 22.058478 Si / 1000 Ang^3
#
#
#
# Elastic Constant Matrix: (Units=GPa)
#
#
# Indices 1 2 3 4 5 6 
#
# 1 96.3516 10.7427 32.3055 1.3558 15.0265 -5.8092
# 2 10.7427 49.3248 21.5716 -9.2758 1.3768 -12.0211
# 3 32.3055 21.5716 108.8050 -15.3460 19.4595 -0.9568
# 4 1.3558 -9.2758 -15.3460 24.3937 -10.8859 1.7147
# 5 15.0265 1.3768 19.4595 -10.8859 33.4279 -1.3661
# 6 -5.8092 -12.0211 -0.9568 1.7147 -1.3661 25.4492
#
#
#
# Elastic Compliance Matrix: (Units=1/GPa)
#
#
# Indices 1 2 3 4 5 6 
#
# 1 0.012773 -0.001863 -0.003255 -0.006147 -0.005690 0.002022
# 2 -0.001863 0.027127 -0.004441 0.009400 0.005853 0.011902
# 3 -0.003255 -0.004441 0.012416 0.004637 -0.004190 -0.002912
# 4 -0.006147 0.009400 0.004637 0.055766 0.017854 0.000412
# 5 -0.005690 0.005853 -0.004190 0.017854 0.040578 0.002284
# 6 0.002022 0.011902 -0.002912 0.000412 0.002284 0.045363
#
#
# Mechanical properties :
#
#
# Convention : Reuss Voigt Hill
#
# Bulk Modulus (GPa) = 30.12264 42.63567 36.37916
# Shear Modulus (GPa) = 22.30078 29.31161 25.80619
#
# Velocity S-wave (km/s) = 3.18305 3.64924 3.42409
# Velocity P-wave (km/s) = 5.21484 6.09314 5.67102
#
# Compressibility (1/GPa) = 0.03319762
#
# Stress axis : x y z
#
# Youngs Moduli (GPa) = 78.28756 36.86371 80.54374
#
# Poissons Ratio (x) = 0.06867 0.26216
# Poissons Ratio (y) = 0.14584 0.35773
# Poissons Ratio (z) = 0.25482 0.16373
#
# Static dielectric constant tensor:
#      x y z
#    x 3.823760 -0.230160 -0.053720 
#    y -0.230160 3.765380 0.012890 
#    z -0.053720 0.012890 4.247460 
# 
# 
# High freq. dielectric constant tensor:
#      x y z
#    x 1.863530 -0.013630 0.000660 
#    y -0.013630 1.841550 -0.012290 
#    z 0.000660 -0.012290 1.880990 
# 
# From -- ./inp_files/186513.got.cif
#   From: 2010.06.25/outbox.cif.g09.slc.cpg/sg2_94_cif.got.tgz:186513.got - 2010.06.27 13:26:56.
