data_PCOD8002521
_publ_section_title
;
Structure prediction by ZEFSAII (Michael W. Deem and Ramdas Pophale) SiO2 
 PCOD8002521
Probable space group: P -1
;
_chemical_formula_sum "Si O2"
_cell_formula_units_Z 14
_cell_length_a 9.084306
_cell_length_b 8.901273
_cell_length_c 17.942203
_cell_angle_alpha 58.166489
_cell_angle_beta 78.107838
_cell_angle_gamma 128.162469
_cell_volume 586.138792
_symmetry_space_group_name_H-M "P -1"
_symmetry_group_IT_number 2
_symmetry_cell_setting 'triclinic'
loop_
_space_group_symop_operation_xyz
x,y,z
-x,-y,-z
loop_
_atom_site_type_symbol
_atom_site_label
_atom_site_fract_x
_atom_site_fract_y
_atom_site_fract_z
Si Si1 0.039291 0.542513 0.325645
Si Si2 0.068319 0.279454 0.063884
Si Si3 0.997014 0.832837 0.489672
Si Si4 0.824822 0.355491 0.245966
Si Si5 0.625270 0.783881 0.361918
Si Si6 0.671003 0.095540 0.060016
Si Si7 0.594504 0.833378 0.766754
O O1 0.869984 0.210238 0.475201
O O2 0.812397 0.396824 0.324503
O O3 0.301472 0.716852 0.201633
O O4 0.155583 0.807500 0.302438
O O5 0.784116 0.029415 0.103887
O O6 0.214911 0.617138 0.981575
O O7 0.351016 0.471654 0.939301
O O8 0.923183 0.027267 0.216348
O O9 0.646808 0.430625 0.607816
O O10 0.000000 0.000000 0.500000
O O11 0.211647 0.097032 0.325810
O O12 0.601876 0.235662 0.246494
O O13 0.724683 0.047873 0.334074
O O14 0.181989 0.746763 0.079165
O O15 0.500000 0.500000 0.500000
#
# Coordination Sequence:
#
# PCOD8002521 Si02
#       7
#     2   2   2   2   2   2   2
#     4  11  19  36  65  92 125 157 205 251 303 367
#     4   8  15  34  62  85 119 164 200 250 306 350
#     4  12  25  42  59  88 128 168 201 254 320 366
#     4  10  20  35  64  98 120 158 206 253 306 360
#     4  11  21  39  61  91 130 165 205 246 305 375
#     4   8  14  30  58  94 121 150 202 254 298 361
#     4  10  22  42  64  91 125 156 206 265 303 358
#
# _framework density 23.885127000000001
#
# number of rings (size 3 to 8) (size 9 to 14) (size 15 to 20)
#    0.000    2.000    2.857    3.429    0.000    0.571 
#    2.571    1.429    0.000    0.000    0.000    0.000 
#    0.000    0.000    0.000    0.000    0.000    0.000 
#
# Total GULP energy -173446.150405 kJ/mol
# GULP energy per Si atom -12389.010743 kJ/mol
# Density = 2.383076 g / cm^3
# Si number density = 23.885127 Si / 1000 Ang^3
#
#
#
# Elastic Constant Matrix: (Units=GPa)
#
#
# Indices 1 2 3 4 5 6 
#
# 1 16.3310 27.8431 18.5910 8.3871 5.4002 -6.1287
# 2 27.8431 124.4979 40.7284 28.9255 -3.6482 9.3273
# 3 18.5910 40.7284 163.5204 25.6840 -4.8801 -14.8740
# 4 8.3871 28.9255 25.6840 28.5873 -3.7410 -1.9272
# 5 5.4002 -3.6482 -4.8801 -3.7410 34.2740 11.5739
# 6 -6.1287 9.3273 -14.8740 -1.9272 11.5739 28.5330
#
#
#
# Elastic Compliance Matrix: (Units=1/GPa)
#
#
# Indices 1 2 3 4 5 6 
#
# 1 0.229997 -0.057481 -0.003861 -0.009352 -0.076547 0.096598
# 2 -0.057481 0.025865 -0.000797 -0.007877 0.021067 -0.030295
# 3 -0.003861 -0.000797 0.007803 -0.004854 0.000039 0.003155
# 4 -0.009352 -0.007877 -0.004854 0.050753 0.005781 -0.000882
# 5 -0.076547 0.021067 0.000039 0.005781 0.060086 -0.047290
# 6 0.096598 -0.030295 0.003155 -0.000882 -0.047290 0.086467
#
#
# Mechanical properties :
#
#
# Convention : Reuss Voigt Hill
#
# Bulk Modulus (GPa) = 7.17424 53.18603 30.18014
# Shear Modulus (GPa) = 7.91501 32.75797 20.33649
#
# Velocity S-wave (km/s) = 1.82236 3.70737 2.92109
# Velocity P-wave (km/s) = 2.72729 6.37510 4.90306
#
# Compressibility (1/GPa) = 0.13938758
#
# Stress axis : x y z
#
# Youngs Moduli (GPa) = 4.34789 38.66183 128.14807
#
# Poissons Ratio (x) = 2.22234 0.49473
# Poissons Ratio (y) = 0.24992 0.10212
# Poissons Ratio (z) = 0.01679 0.03081
#
# Static dielectric constant tensor:
#      x y z
#    x 3.775520 0.273860 -0.351670 
#    y 0.273860 4.133680 0.331060 
#    z -0.351670 0.331060 4.890850 
# 
# 
# High freq. dielectric constant tensor:
#      x y z
#    x 1.896860 0.027390 -0.011990 
#    y 0.027390 1.936300 0.018830 
#    z -0.011990 0.018830 1.972100 
# 
# From -- ./inp_files/172738.got.cif
#   From: 2010.06.25/outbox.cif.g09.slc.cpg/sg2_87_cif.got.tgz:172738.got - 2010.06.27 13:26:56.
