data_PCOD8002469
_publ_section_title
;
Structure prediction by ZEFSAII (Michael W. Deem and Ramdas Pophale) SiO2 
 PCOD8002469
Probable space group: P -1
;
_chemical_formula_sum "Si O2"
_cell_formula_units_Z 14
_cell_length_a 13.897317
_cell_length_b 20.485912
_cell_length_c 10.777983
_cell_angle_alpha 140.923490
_cell_angle_beta 29.124493
_cell_angle_gamma 154.388694
_cell_volume 644.614369
_symmetry_space_group_name_H-M "P -1"
_symmetry_group_IT_number 2
_symmetry_cell_setting 'triclinic'
loop_
_space_group_symop_operation_xyz
x,y,z
-x,-y,-z
loop_
_atom_site_type_symbol
_atom_site_label
_atom_site_fract_x
_atom_site_fract_y
_atom_site_fract_z
Si Si1 0.551820 0.171005 0.927561
Si Si2 0.278809 0.617739 0.595796
Si Si3 0.690894 0.315253 0.718158
Si Si4 0.378932 0.339495 0.930386
Si Si5 0.968171 0.653085 0.161084
Si Si6 0.714679 0.109140 0.309671
Si Si7 0.533490 0.656309 0.611399
O O1 0.571696 0.226812 0.851087
O O2 0.862599 0.267650 0.783062
O O3 0.370751 0.994404 0.865806
O O4 0.388485 0.193915 0.229717
O O5 0.544627 0.715748 0.344790
O O6 0.375201 0.581862 0.548530
O O7 0.023399 0.470314 0.587129
O O8 0.179612 0.691716 0.870967
O O9 0.510371 0.346032 0.921229
O O10 0.680397 0.219062 0.484005
O O11 0.500000 0.500000 0.000000
O O12 0.037411 0.209199 0.138804
O O13 0.835472 0.711320 0.354554
O O14 0.700024 0.470978 0.210630
O O15 0.500000 0.000000 0.500000
#
# Coordination Sequence:
#
# PCOD8002469 Si02
#       7
#     2   2   2   2   2   2   2
#     4  10  20  40  63  93 131 159 216 258 317 374
#     4  11  21  38  60  95 128 155 213 265 311 371
#     4  11  22  40  65  94 133 164 207 267 314 373
#     4  12  27  40  66  96 127 174 213 257 321 377
#     4  10  20  35  62  94 122 171 206 269 310 369
#     4  10  25  43  63  93 132 170 211 258 317 385
#     4  10  20  35  65  91 126 166 214 262 315 362
#
# _framework density 21.718411
#
# number of rings (size 3 to 8) (size 9 to 14) (size 15 to 20)
#    0.000    1.429    4.286    1.286    2.000    5.714 
#    0.000    2.857    0.000    5.143    0.000    0.000 
#    0.000    0.000    0.000    0.000    0.000    0.000 
#
# Total GULP energy -173504.265020 kJ/mol
# GULP energy per Si atom -12393.161787 kJ/mol
# Density = 2.166898 g / cm^3
# Si number density = 21.718411 Si / 1000 Ang^3
#
#
#
# Elastic Constant Matrix: (Units=GPa)
#
#
# Indices 1 2 3 4 5 6 
#
# 1 80.9615 48.4199 58.1987 3.1195 -40.3878 16.4706
# 2 48.4199 128.5153 47.8268 18.1693 -18.9276 14.8467
# 3 58.1987 47.8268 140.4336 -1.9394 -25.5985 7.1273
# 4 3.1195 18.1693 -1.9394 32.8423 -6.3672 2.9718
# 5 -40.3878 -18.9276 -25.5985 -6.3672 40.3107 2.9434
# 6 16.4706 14.8467 7.1273 2.9718 2.9434 17.2930
#
#
#
# Elastic Compliance Matrix: (Units=1/GPa)
#
#
# Indices 1 2 3 4 5 6 
#
# 1 0.080655 -0.007428 -0.012180 0.018356 0.078468 -0.081932
# 2 -0.007428 0.011570 -0.001680 -0.006556 -0.004087 -0.000344
# 3 -0.012180 -0.001680 0.011072 0.000610 -0.006558 0.009491
# 4 0.018356 -0.006556 0.000610 0.038993 0.023525 -0.022811
# 5 0.078468 -0.004087 -0.006558 0.023525 0.107695 -0.090898
# 6 -0.081932 -0.000344 0.009491 -0.022811 -0.090898 0.151637
#
#
# Mechanical properties :
#
#
# Convention : Reuss Voigt Hill
#
# Bulk Modulus (GPa) = 16.46913 73.20014 44.83463
# Shear Modulus (GPa) = 10.76571 31.12020 20.94296
#
# Velocity S-wave (km/s) = 2.22884 3.78947 3.10868
# Velocity P-wave (km/s) = 3.77135 7.27489 5.79427
#
# Compressibility (1/GPa) = 0.06071967
#
# Stress axis : x y z
#
# Youngs Moduli (GPa) = 12.39856 86.43393 90.31792
#
# Poissons Ratio (x) = 0.64203 1.10010
# Poissons Ratio (y) = 0.09210 0.15173
# Poissons Ratio (z) = 0.15102 0.14520
#
# Static dielectric constant tensor:
#      x y z
#    x 3.821240 0.196880 -0.119140 
#    y 0.196880 4.219520 0.415230 
#    z -0.119140 0.415230 4.103610 
# 
# 
# High freq. dielectric constant tensor:
#      x y z
#    x 1.842160 0.017890 -0.014430 
#    y 0.017890 1.834110 0.018440 
#    z -0.014430 0.018440 1.860940 
# 
# From -- ./inp_files/458084.got.cif
#   From: 2010.06.25/outbox.cif.g09.slc.cpg/sg2_230_cif.got.tgz:458084.got - 2010.06.27 13:26:56.
