data_PCOD8002950
_publ_section_title
;
Structure prediction by ZEFSAII (Michael W. Deem and Ramdas Pophale) SiO2 
 PCOD8002950
Probable space group: P -1
;
_chemical_formula_sum "Si O2"
_cell_formula_units_Z 14
_cell_length_a 14.132260
_cell_length_b 8.403585
_cell_length_c 7.888659
_cell_angle_alpha 106.451928
_cell_angle_beta 124.729674
_cell_angle_gamma 103.072838
_cell_volume 643.020614
_symmetry_space_group_name_H-M "P -1"
_symmetry_group_IT_number 2
_symmetry_cell_setting 'triclinic'
loop_
_space_group_symop_operation_xyz
x,y,z
-x,-y,-z
loop_
_atom_site_type_symbol
_atom_site_label
_atom_site_fract_x
_atom_site_fract_y
_atom_site_fract_z
Si Si1 0.959768 0.334157 0.040595
Si Si2 0.503930 0.932961 0.264278
Si Si3 0.517652 0.255909 0.174579
Si Si4 0.650865 0.634128 0.124926
Si Si5 0.241767 0.076383 0.388928
Si Si6 0.261922 0.604198 0.064149
Si Si7 0.765615 0.597423 0.666715
O O1 0.095175 0.358751 0.265391
O O2 0.863320 0.360880 0.083372
O O3 0.000000 0.500000 0.000000
O O4 0.887858 0.129997 0.810538
O O5 0.635252 0.960332 0.496186
O O6 0.389792 0.814515 0.248995
O O7 0.515898 0.137118 0.301328
O O8 0.472866 0.829773 0.020878
O O9 0.649573 0.462091 0.378954
O O10 0.383620 0.272585 0.045105
O O11 0.751764 0.803554 0.400710
O O12 0.500000 0.500000 0.000000
O O13 0.726303 0.522009 0.111222
O O14 0.240254 0.205118 0.267893
O O15 0.253590 0.500851 0.201087
#
# Coordination Sequence:
#
# PCOD8002950 Si02
#       7
#     2   2   2   2   2   2   2
#     4  10  24  41  58  88 125 164 202 249 295 356
#     4  10  20  36  60  93 117 161 196 252 307 358
#     4  10  20  37  62  86 128 155 195 248 314 356
#     4  11  20  42  62  92 120 155 197 255 306 359
#     4  11  21  41  66  84 126 161 200 249 310 354
#     4  11  22  39  62  91 127 153 208 250 299 361
#     4  11  22  38  60  88 123 164 201 246 299 355
#
# _framework density 21.772241999999999
#
# number of rings (size 3 to 8) (size 9 to 14) (size 15 to 20)
#    0.000    1.429    4.286    2.143    0.000    5.714 
#    0.000    5.714    0.000    0.000    0.000    0.000 
#    0.000    0.000    0.000    0.000    0.000    0.000 
#
# Total GULP energy -173457.386991 kJ/mol
# GULP energy per Si atom -12389.813356 kJ/mol
# Density = 2.172269 g / cm^3
# Si number density = 21.772242 Si / 1000 Ang^3
#
#
#
# Elastic Constant Matrix: (Units=GPa)
#
#
# Indices 1 2 3 4 5 6 
#
# 1 88.1214 29.6260 34.4875 1.1040 8.8866 -8.8029
# 2 29.6260 158.2101 38.1550 5.0599 17.6715 -5.7148
# 3 34.4875 38.1550 93.4294 16.4406 7.1592 -1.7106
# 4 1.1040 5.0599 16.4406 42.4136 -3.6816 0.6446
# 5 8.8866 17.6715 7.1592 -3.6816 24.6707 5.5584
# 6 -8.8029 -5.7148 -1.7106 0.6446 5.5584 30.1022
#
#
#
# Elastic Compliance Matrix: (Units=1/GPa)
#
#
# Indices 1 2 3 4 5 6 
#
# 1 0.014350 -0.000989 -0.004717 0.001165 -0.003918 0.004439
# 2 -0.000989 0.007702 -0.002276 -0.000477 -0.005018 0.001980
# 3 -0.004717 -0.002276 0.014414 -0.005315 -0.001512 -0.000599
# 4 0.001165 -0.000477 -0.005315 0.026189 0.005749 -0.001674
# 5 -0.003918 -0.005018 -0.001512 0.005749 0.049412 -0.011431
# 6 0.004439 0.001980 -0.000599 -0.001674 -0.011431 0.037007
#
#
# Mechanical properties :
#
#
# Convention : Reuss Voigt Hill
#
# Bulk Modulus (GPa) = 48.77239 60.47755 54.62497
# Shear Modulus (GPa) = 29.09159 35.27011 32.18085
#
# Velocity S-wave (km/s) = 3.65934 4.02924 3.84874
# Velocity P-wave (km/s) = 6.34856 7.03449 6.70031
#
# Compressibility (1/GPa) = 0.02050341
#
# Stress axis : x y z
#
# Youngs Moduli (GPa) = 69.68411 129.83749 69.37753
#
# Poissons Ratio (x) = 0.12840 0.32724
# Poissons Ratio (y) = 0.06891 0.15788
# Poissons Ratio (z) = 0.32869 0.29547
#
# Static dielectric constant tensor:
#      x y z
#    x 4.022890 -0.379390 0.376560 
#    y -0.379390 4.875970 -0.125370 
#    z 0.376560 -0.125370 3.934660 
# 
# 
# High freq. dielectric constant tensor:
#      x y z
#    x 1.830490 -0.019270 0.006150 
#    y -0.019270 1.888530 0.001400 
#    z 0.006150 0.001400 1.846390 
# 
# From -- ./inp_files/299347.got.cif
#   From: 2010.06.25/outbox.cif.g09.slc.cpg/sg2_150_cif.got.tgz:299347.got - 2010.06.27 13:26:56.
