data_PCOD8002778
_publ_section_title
;
Structure prediction by ZEFSAII (Michael W. Deem and Ramdas Pophale) SiO2 
 PCOD8002778
Probable space group: P -1
;
_chemical_formula_sum "Si O2"
_cell_formula_units_Z 16
_cell_length_a 12.246525
_cell_length_b 5.153356
_cell_length_c 14.502003
_cell_angle_alpha 75.284064
_cell_angle_beta 78.326409
_cell_angle_gamma 72.746938
_cell_volume 837.350539
_symmetry_space_group_name_H-M "P -1"
_symmetry_group_IT_number 2
_symmetry_cell_setting 'triclinic'
loop_
_space_group_symop_operation_xyz
x,y,z
-x,-y,-z
loop_
_atom_site_type_symbol
_atom_site_label
_atom_site_fract_x
_atom_site_fract_y
_atom_site_fract_z
Si Si1 0.324124 0.519972 0.330963
Si Si2 0.856050 0.202305 0.797910
Si Si3 0.579773 0.702295 0.482274
Si Si4 0.750227 0.709374 0.899042
Si Si5 0.895999 0.946184 0.168034
Si Si6 0.323458 0.188239 0.737096
Si Si7 0.571154 0.982010 0.769668
Si Si8 0.813219 0.554794 0.102566
O O1 0.196306 0.685731 0.303410
O O2 0.324282 0.435931 0.445530
O O3 0.412677 0.710316 0.280038
O O4 0.359965 0.229033 0.298578
O O5 0.793422 0.412411 0.869039
O O6 0.837059 0.899140 0.845959
O O7 0.992689 0.174273 0.776171
O O8 0.500000 0.500000 0.500000
O O9 0.648519 0.708944 0.376100
O O10 0.500000 0.000000 0.500000
O O11 0.621726 0.870191 0.871333
O O12 0.741015 0.661651 0.013458
O O13 0.894635 0.248231 0.102637
O O14 0.778215 0.968807 0.244688
O O15 0.898238 0.750196 0.095730
O O16 0.436935 0.988465 0.782988
O O17 0.275801 0.436127 0.797248
#
# Coordination Sequence:
#
# PCOD8002778 Si02
#       8
#     2   2   2   2   2   2   2   2
#     4  10  20  37  57  91 105 146 185 242 276 325
#     4  10  21  38  61  80 119 142 201 229 273 327
#     4  12  22  36  64  87 109 145 189 231 283 336
#     4  10  21  37  59  87 106 157 190 237 269 332
#     4  10  23  38  55  83 116 159 177 239 279 324
#     4  10  24  37  57  83 122 143 186 233 283 346
#     4  10  20  36  59  81 119 140 189 232 285 326
#     4  10  23  37  55  85 118 149 193 222 293 319
#
# _framework density 19.107887999999999
#
# number of rings (size 3 to 8) (size 9 to 14) (size 15 to 20)
#    0.750    1.000    2.500    1.500    3.500    3.500 
#    0.000    1.250    0.000    0.750    0.000    0.000 
#    0.000    0.000    0.000    0.000    0.000    0.000 
#
# Total GULP energy -198280.497776 kJ/mol
# GULP energy per Si atom -12392.531111 kJ/mol
# Density = 1.906440 g / cm^3
# Si number density = 19.107888 Si / 1000 Ang^3
#
#
#
# Elastic Constant Matrix: (Units=GPa)
#
#
# Indices 1 2 3 4 5 6 
#
# 1 116.9111 29.5132 54.3735 -0.9726 25.1486 -19.2886
# 2 29.5132 94.2130 34.4034 -12.1187 10.9860 15.1976
# 3 54.3735 34.4034 130.5189 -4.3828 33.6112 -7.9475
# 4 -0.9726 -12.1187 -4.3828 16.4429 -3.3135 8.4424
# 5 25.1486 10.9860 33.6112 -3.3135 27.6455 -4.2491
# 6 -19.2886 15.1976 -7.9475 8.4424 -4.2491 28.4743
#
#
#
# Elastic Compliance Matrix: (Units=1/GPa)
#
#
# Indices 1 2 3 4 5 6 
#
# 1 0.016544 -0.009016 -0.001739 -0.017889 -0.008490 0.019571
# 2 -0.009016 0.022814 -0.003706 0.030178 0.002983 -0.027821
# 3 -0.001739 -0.003706 0.012583 -0.003788 -0.012141 0.003624
# 4 -0.017889 0.030178 -0.003788 0.115220 0.013248 -0.061467
# 5 -0.008490 0.002983 -0.012141 0.013248 0.058139 -0.005984
# 6 0.019571 -0.027821 0.003624 -0.061467 -0.005984 0.081569
#
#
# Mechanical properties :
#
#
# Convention : Reuss Voigt Hill
#
# Bulk Modulus (GPa) = 43.44138 64.24701 53.84420
# Shear Modulus (GPa) = 14.55756 29.40275 21.98015
#
# Velocity S-wave (km/s) = 2.76318 3.92698 3.39531
# Velocity P-wave (km/s) = 5.74146 7.36599 6.60387
#
# Compressibility (1/GPa) = 0.02301952
#
# Stress axis : x y z
#
# Youngs Moduli (GPa) = 60.44329 43.83289 79.47289
#
# Poissons Ratio (x) = 0.39520 0.13817
# Poissons Ratio (y) = 0.54496 0.29455
# Poissons Ratio (z) = 0.10508 0.16246
#
# Static dielectric constant tensor:
#      x y z
#    x 3.552950 0.110490 0.389280 
#    y 0.110490 3.597760 -0.158180 
#    z 0.389280 -0.158180 3.642290 
# 
# 
# High freq. dielectric constant tensor:
#      x y z
#    x 1.738840 0.011340 0.031070 
#    y 0.011340 1.755330 -0.008990 
#    z 0.031070 -0.008990 1.721860 
# 
# From -- ./inp_files/371358.got.cif
#   From: 2010.06.25/outbox.cif.g09.slc.cpg/sg2_186_cif.got.tgz:371358.got - 2010.06.27 13:26:56.
