data_PCOD8002113
_publ_section_title
;
Structure prediction by ZEFSAII (Michael W. Deem and Ramdas Pophale) SiO2 
 PCOD8002113
Probable space group: P -1
;
_chemical_formula_sum "Si O2"
_cell_formula_units_Z 16
_cell_length_a 17.911813
_cell_length_b 12.559041
_cell_length_c 12.610339
_cell_angle_alpha 144.454714
_cell_angle_beta 29.017950
_cell_angle_gamma 135.207298
_cell_volume 799.953693
_symmetry_space_group_name_H-M "P -1"
_symmetry_group_IT_number 2
_symmetry_cell_setting 'triclinic'
loop_
_space_group_symop_operation_xyz
x,y,z
-x,-y,-z
loop_
_atom_site_type_symbol
_atom_site_label
_atom_site_fract_x
_atom_site_fract_y
_atom_site_fract_z
Si Si1 0.252777 0.004951 0.810944
Si Si2 0.147895 0.607986 0.606626
Si Si3 0.529868 0.478437 0.762471
Si Si4 0.407448 0.732152 0.944195
Si Si5 0.623565 0.886004 0.629561
Si Si6 0.180928 0.424762 0.968077
Si Si7 0.213859 0.403653 0.159548
Si Si8 0.485862 0.913579 0.611857
O O1 0.376691 0.004491 0.562546
O O2 0.147633 0.828538 0.780286
O O3 0.328502 0.992112 0.823160
O O4 0.160053 0.195551 0.081730
O O5 0.301348 0.514350 0.388214
O O6 0.120345 0.537323 0.462727
O O7 0.000226 0.553623 0.818043
O O8 0.492232 0.657535 0.884707
O O9 0.518048 0.306435 0.559082
O O10 0.396830 0.442031 0.986880
O O11 0.539161 0.756472 0.712806
O O12 0.281875 0.594003 0.937951
O O13 0.319853 0.926402 0.232621
O O14 0.505433 0.965425 0.751939
O O15 0.759906 0.769746 0.310058
O O16 0.188075 0.439984 0.098166
#
# Coordination Sequence:
#
# PCOD8002113 Si02
#       8
#     2   2   2   2   2   2   2   2
#     4   9  19  33  52  83 116 145 180 226 265 331
#     4  11  23  34  56  85 122 152 177 220 288 335
#     4   9  19  37  57  86 109 149 192 230 270 323
#     4  10  23  38  65  82 103 141 202 240 272 329
#     4  11  21  39  63  83 103 148 192 238 285 315
#     4  11  23  39  54  86 119 147 181 231 284 337
#     4  10  20  35  55  85 113 155 192 216 269 329
#     4   9  17  33  57  84 109 141 188 227 275 316
#
# _framework density 20.001156999999999
#
# number of rings (size 3 to 8) (size 9 to 14) (size 15 to 20)
#    0.000    2.000    3.750    1.875    5.250    1.500 
#    0.000    0.625    0.000    1.500    0.000    0.000 
#    0.000    0.000    0.000    0.000    0.000    0.000 
#
# Total GULP energy -198266.359176 kJ/mol
# GULP energy per Si atom -12391.647449 kJ/mol
# Density = 1.995563 g / cm^3
# Si number density = 20.001157 Si / 1000 Ang^3
#
#
#
# Elastic Constant Matrix: (Units=GPa)
#
#
# Indices 1 2 3 4 5 6 
#
# 1 31.5879 23.7963 26.8820 -1.0091 7.5217 1.3398
# 2 23.7963 110.4214 34.4720 6.0801 -7.5807 2.3252
# 3 26.8820 34.4720 81.4675 -6.4988 -0.8676 10.1744
# 4 -1.0091 6.0801 -6.4988 15.4762 1.2143 1.8453
# 5 7.5217 -7.5807 -0.8676 1.2143 20.0658 -2.0365
# 6 1.3398 2.3252 10.1744 1.8453 -2.0365 25.0617
#
#
#
# Elastic Compliance Matrix: (Units=1/GPa)
#
#
# Indices 1 2 3 4 5 6 
#
# 1 0.058399 -0.009795 -0.015369 0.003065 -0.026272 0.001665
# 2 -0.009795 0.013181 -0.003131 -0.008082 0.009199 0.001914
# 3 -0.015369 -0.003131 0.020402 0.009369 0.004130 -0.007525
# 4 0.003065 -0.008082 0.009369 0.073768 -0.009215 -0.009398
# 5 -0.026272 0.009199 0.004130 -0.009215 0.064381 0.004785
# 6 0.001665 0.001914 -0.007525 -0.009398 0.004785 0.043771
#
#
# Mechanical properties :
#
#
# Convention : Reuss Voigt Hill
#
# Bulk Modulus (GPa) = 28.25462 43.75304 36.00383
# Shear Modulus (GPa) = 14.60755 21.34250 17.97503
#
# Velocity S-wave (km/s) = 2.70540 3.27014 3.00108
# Velocity P-wave (km/s) = 4.89041 6.01508 5.48166
#
# Compressibility (1/GPa) = 0.03539244
#
# Stress axis : x y z
#
# Youngs Moduli (GPa) = 17.12361 75.86799 49.01468
#
# Poissons Ratio (x) = 0.74312 0.75329
# Poissons Ratio (y) = 0.16772 0.15347
# Poissons Ratio (z) = 0.26317 0.23755
#
# Static dielectric constant tensor:
#      x y z
#    x 3.517080 0.160840 -0.071030 
#    y 0.160840 3.749380 0.023710 
#    z -0.071030 0.023710 3.580510 
# 
# 
# High freq. dielectric constant tensor:
#      x y z
#    x 1.759990 0.008560 0.006590 
#    y 0.008560 1.780400 0.016060 
#    z 0.006590 0.016060 1.766980 
# 
# From -- ./inp_files/427453.got.cif
#   From: 2010.06.25/outbox.cif.g09.slc.cpg/sg2_214_cif.got.tgz:427453.got - 2010.06.27 13:26:56.
