data_PCOD8002581
_publ_section_title
;
Structure prediction by ZEFSAII (Michael W. Deem and Ramdas Pophale) SiO2 
 PCOD8002581
Probable space group: P -1
;
_chemical_formula_sum "Si O2"
_cell_formula_units_Z 16
_cell_length_a 9.354109
_cell_length_b 8.493582
_cell_length_c 16.085403
_cell_angle_alpha 83.844028
_cell_angle_beta 127.608069
_cell_angle_gamma 63.746939
_cell_volume 769.481528
_symmetry_space_group_name_H-M "P -1"
_symmetry_group_IT_number 2
_symmetry_cell_setting 'triclinic'
loop_
_space_group_symop_operation_xyz
x,y,z
-x,-y,-z
loop_
_atom_site_type_symbol
_atom_site_label
_atom_site_fract_x
_atom_site_fract_y
_atom_site_fract_z
Si Si1 0.308290 0.372661 0.278703
Si Si2 0.558468 0.320168 0.974908
Si Si3 0.136777 0.343727 0.787554
Si Si4 0.381452 0.735225 0.453817
Si Si5 0.163993 0.979582 0.776026
Si Si6 0.012191 0.617873 0.571334
Si Si7 0.492665 0.038279 0.592241
Si Si8 0.431331 0.594246 0.768880
O O1 0.527694 0.252963 0.426765
O O2 0.369328 0.440700 0.215991
O O3 0.064283 0.574973 0.218788
O O4 0.312075 0.178447 0.275110
O O5 0.355150 0.303196 0.912247
O O6 0.573032 0.377428 0.882683
O O7 0.500000 0.500000 0.000000
O O8 0.794794 0.108247 0.109677
O O9 0.024283 0.521326 0.668922
O O10 0.225665 0.131252 0.788664
O O11 0.500000 0.500000 0.500000
O O12 0.447270 0.807079 0.392570
O O13 0.102633 0.887128 0.353510
O O14 0.325027 0.791306 0.779051
O O15 0.226537 0.622923 0.640654
O O16 0.000000 0.500000 0.500000
O O17 0.765594 0.851188 0.467785
O O18 0.500000 0.000000 0.500000
#
# Coordination Sequence:
#
# PCOD8002581 Si02
#       8
#     2   2   2   2   2   2   2   2
#     4  11  23  38  61  94 133 161 204 257 321 375
#     4   9  22  44  68  87 120 170 216 258 309 368
#     4  11  22  41  65  92 125 167 210 259 312 376
#     4  11  21  36  63  95 127 165 205 250 318 378
#     4  11  22  40  68  91 124 167 216 255 311 374
#     4  11  23  37  59  90 133 168 208 257 311 378
#     4  10  20  36  55  85 127 168 202 242 316 376
#     4  10  24  40  62  95 127 165 211 262 312 368
#
# _framework density 20.793223000000001
#
# number of rings (size 3 to 8) (size 9 to 14) (size 15 to 20)
#    0.000    1.500    3.750    1.875    8.750    1.000 
#    0.000    3.125    0.000    0.000    0.000    0.000 
#    0.000    0.000    0.000    0.000    0.000    0.000 
#
# Total GULP energy -198263.402801 kJ/mol
# GULP energy per Si atom -12391.462675 kJ/mol
# Density = 2.074590 g / cm^3
# Si number density = 20.793223 Si / 1000 Ang^3
#
#
#
# Elastic Constant Matrix: (Units=GPa)
#
#
# Indices 1 2 3 4 5 6 
#
# 1 115.3894 33.3404 23.3545 2.5048 -11.0736 4.5061
# 2 33.3404 94.9616 20.4471 -2.6052 5.5090 9.5162
# 3 23.3545 20.4471 70.9723 0.2817 2.2077 -0.0136
# 4 2.5048 -2.6052 0.2817 28.8418 7.6920 1.9249
# 5 -11.0736 5.5090 2.2077 7.6920 20.5909 0.5202
# 6 4.5061 9.5162 -0.0136 1.9249 0.5202 38.0392
#
#
#
# Elastic Compliance Matrix: (Units=1/GPa)
#
#
# Indices 1 2 3 4 5 6 
#
# 1 0.011318 -0.003943 -0.002848 -0.003643 0.008815 -0.000292
# 2 -0.003943 0.013187 -0.002310 0.003523 -0.006643 -0.002920
# 3 -0.002848 -0.002310 0.015779 0.000582 -0.002847 0.000930
# 4 -0.003643 0.003523 0.000582 0.040234 -0.017937 -0.002240
# 5 0.008815 -0.006643 -0.002847 -0.017937 0.062072 0.000675
# 6 -0.000292 -0.002920 0.000930 -0.002240 0.000675 0.027158
#
#
# Mechanical properties :
#
#
# Convention : Reuss Voigt Hill
#
# Bulk Modulus (GPa) = 45.28381 48.40081 46.84231
# Shear Modulus (GPa) = 25.60014 31.10645 28.35330
#
# Velocity S-wave (km/s) = 3.51262 3.87200 3.69668
# Velocity P-wave (km/s) = 6.18682 6.58161 6.38727
#
# Compressibility (1/GPa) = 0.02208295
#
# Stress axis : x y z
#
# Youngs Moduli (GPa) = 88.35124 75.83367 63.37477
#
# Poissons Ratio (x) = 0.29898 0.18052
# Poissons Ratio (y) = 0.34834 0.14637
# Poissons Ratio (z) = 0.25166 0.17515
#
# Static dielectric constant tensor:
#      x y z
#    x 3.394260 0.435080 -0.105160 
#    y 0.435080 4.222530 -0.114770 
#    z -0.105160 -0.114770 4.157140 
# 
# 
# High freq. dielectric constant tensor:
#      x y z
#    x 1.805180 0.025620 -0.002070 
#    y 0.025620 1.821700 -0.011750 
#    z -0.002070 -0.011750 1.799260 
# 
# From -- ./inp_files/186955.got.cif
#   From: 2010.06.25/outbox.cif.g09.slc.cpg/sg2_94_cif.got.tgz:186955.got - 2010.06.27 13:26:56.
