data_PCOD8002754
_publ_section_title
;
Structure prediction by ZEFSAII (Michael W. Deem and Ramdas Pophale) SiO2 
 PCOD8002754
Probable space group: P -1
;
_chemical_formula_sum "Si O2"
_cell_formula_units_Z 16
_cell_length_a 12.117453
_cell_length_b 12.820261
_cell_length_c 10.699902
_cell_angle_alpha 100.316095
_cell_angle_beta 68.442413
_cell_angle_gamma 149.772585
_cell_volume 743.503162
_symmetry_space_group_name_H-M "P -1"
_symmetry_group_IT_number 2
_symmetry_cell_setting 'triclinic'
loop_
_space_group_symop_operation_xyz
x,y,z
-x,-y,-z
loop_
_atom_site_type_symbol
_atom_site_label
_atom_site_fract_x
_atom_site_fract_y
_atom_site_fract_z
Si Si1 0.592460 0.905611 0.000880
Si Si2 0.004365 0.721721 0.252908
Si Si3 0.052249 0.003041 0.342847
Si Si4 0.978821 0.859264 0.988809
Si Si5 0.177486 0.982408 0.680041
Si Si6 0.924509 0.288510 0.504058
Si Si7 0.630200 0.245642 0.674318
Si Si8 0.608539 0.419713 0.154629
O O1 0.466829 0.853659 0.166124
O O2 0.393541 0.682082 0.960796
O O3 0.814837 0.003015 0.966372
O O4 0.737533 0.102234 0.890907
O O5 0.992844 0.648858 0.371843
O O6 0.768977 0.504355 0.223564
O O7 0.977978 0.824889 0.316087
O O8 0.338614 0.244290 0.261208
O O9 0.000000 0.000000 0.500000
O O10 0.884320 0.943731 0.308939
O O11 0.722814 0.615146 0.089974
O O12 0.019509 0.829783 0.834753
O O13 0.000000 0.000000 0.000000
O O14 0.454696 0.180674 0.648513
O O15 0.122151 0.865791 0.559149
O O16 0.679221 0.168568 0.575506
O O17 0.118841 0.493710 0.374453
#
# Coordination Sequence:
#
# PCOD8002754 Si02
#       8
#     2   2   2   2   2   2   2   2
#     4   9  20  39  58  84 117 154 205 242 296 353
#     4  10  22  39  61  91 121 157 198 246 295 364
#     4  11  23  38  57  92 122 154 198 233 300 369
#     4  10  20  36  58  89 119 155 202 240 293 360
#     4  11  22  39  63  85 122 156 192 247 301 354
#     4  11  23  40  61  89 118 156 205 244 304 352
#     4  10  24  41  61  87 118 156 203 254 292 354
#     4  10  21  37  59  83 125 158 189 248 296 348
#
# _framework density 21.519746999999999
#
# number of rings (size 3 to 8) (size 9 to 14) (size 15 to 20)
#    0.000    1.750    1.250    3.375    1.750    6.000 
#    0.000    0.625    0.000    0.000    0.000    0.000 
#    0.000    0.000    0.000    0.000    0.000    0.000 
#
# Total GULP energy -198279.446536 kJ/mol
# GULP energy per Si atom -12392.465409 kJ/mol
# Density = 2.147077 g / cm^3
# Si number density = 21.519747 Si / 1000 Ang^3
#
#
#
# Elastic Constant Matrix: (Units=GPa)
#
#
# Indices 1 2 3 4 5 6 
#
# 1 62.2815 20.5078 21.1873 -11.1524 2.8596 12.5435
# 2 20.5078 81.9975 31.8268 4.3473 -3.8903 13.8184
# 3 21.1873 31.8268 109.3672 -8.0919 4.7219 15.7066
# 4 -11.1524 4.3473 -8.0919 26.5734 7.1062 5.8398
# 5 2.8596 -3.8903 4.7219 7.1062 34.8978 0.8853
# 6 12.5435 13.8184 15.7066 5.8398 0.8853 28.4203
#
#
#
# Elastic Compliance Matrix: (Units=1/GPa)
#
#
# Indices 1 2 3 4 5 6 
#
# 1 0.022400 -0.004740 -0.000302 0.013587 -0.004835 -0.010056
# 2 -0.004740 0.015847 -0.004028 -0.006412 0.004061 -0.002196
# 3 -0.000302 -0.004028 0.011769 0.006181 -0.003134 -0.005585
# 4 0.013587 -0.006412 0.006181 0.053484 -0.013127 -0.016877
# 5 -0.004835 0.004061 -0.003134 -0.013127 0.032510 0.003576
# 6 -0.010056 -0.002196 -0.005585 -0.016877 0.003576 0.047135
#
#
# Mechanical properties :
#
#
# Convention : Reuss Voigt Hill
#
# Bulk Modulus (GPa) = 31.37112 44.52109 37.94611
# Shear Modulus (GPa) = 23.59484 29.98659 26.79071
#
# Velocity S-wave (km/s) = 3.31483 3.73694 3.53219
# Velocity P-wave (km/s) = 5.40927 6.27320 5.85719
#
# Compressibility (1/GPa) = 0.03187645
#
# Stress axis : x y z
#
# Youngs Moduli (GPa) = 44.64310 63.10318 84.97036
#
# Poissons Ratio (x) = 0.29912 0.02564
# Poissons Ratio (y) = 0.21162 0.34223
# Poissons Ratio (z) = 0.01347 0.25416
#
# Static dielectric constant tensor:
#      x y z
#    x 4.161460 0.207290 0.273900 
#    y 0.207290 3.673130 0.017540 
#    z 0.273900 0.017540 4.550430 
# 
# 
# High freq. dielectric constant tensor:
#      x y z
#    x 1.839220 0.008980 0.008510 
#    y 0.008980 1.826510 0.001380 
#    z 0.008510 0.001380 1.869280 
# 
# From -- ./inp_files/98585.got.cif
#   From: 2010.06.25/outbox.cif.g09.slc.cpg/sg2_50_cif.got.tgz:98585.got - 2010.06.27 13:26:56.
