data_PCOD8002290
_publ_section_title
;
Structure prediction by ZEFSAII (Michael W. Deem and Ramdas Pophale) SiO2 
 PCOD8002290
Probable space group: P -1
;
_chemical_formula_sum "Si O2"
_cell_formula_units_Z 16
_cell_length_a 8.410981
_cell_length_b 14.947000
_cell_length_c 11.741280
_cell_angle_alpha 46.557092
_cell_angle_beta 122.616984
_cell_angle_gamma 126.818375
_cell_volume 837.258364
_symmetry_space_group_name_H-M "P -1"
_symmetry_group_IT_number 2
_symmetry_cell_setting 'triclinic'
loop_
_space_group_symop_operation_xyz
x,y,z
-x,-y,-z
loop_
_atom_site_type_symbol
_atom_site_label
_atom_site_fract_x
_atom_site_fract_y
_atom_site_fract_z
Si Si1 0.176224 0.635898 0.422234
Si Si2 0.095290 0.184232 0.464423
Si Si3 0.460690 0.449834 0.399741
Si Si4 0.709610 0.176210 0.895393
Si Si5 0.070456 0.824576 0.364323
Si Si6 0.374049 0.032068 0.152531
Si Si7 0.386965 0.260577 0.821338
Si Si8 0.801254 0.065600 0.258460
O O1 0.388727 0.619380 0.520847
O O2 0.140316 0.701812 0.231406
O O3 0.185241 0.731326 0.447719
O O4 0.000000 0.500000 0.500000
O O5 0.238478 0.339791 0.388806
O O6 0.913711 0.160518 0.506596
O O7 0.001141 0.152040 0.330726
O O8 0.207614 0.084260 0.630614
O O9 0.500000 0.500000 0.500000
O O10 0.498735 0.586607 0.226528
O O11 0.520676 0.217779 0.818768
O O12 0.637380 0.045035 0.904327
O O13 0.817370 0.144466 0.076116
O O14 0.831535 0.761724 0.297107
O O15 0.193089 0.966286 0.229318
O O16 0.601280 0.055786 0.262905
O O17 0.354609 0.172322 0.998854
#
# Coordination Sequence:
#
# PCOD8002290 Si02
#       8
#     2   2   2   2   2   2   2   2
#     4  11  20  34  56  88 116 144 181 242 291 334
#     4  11  22  39  60  85 115 155 196 230 283 344
#     4  12  21  36  60  85 116 151 195 232 282 344
#     4  10  20  35  59  83 114 145 197 239 276 332
#     4  11  20  33  57  88 117 147 187 237 293 334
#     4  10  21  35  57  88 115 145 192 244 287 328
#     4  11  19  33  56  83 115 148 188 237 281 333
#     4  10  22  40  60  83 113 156 197 237 276 332
#
# _framework density 19.10999
#
# number of rings (size 3 to 8) (size 9 to 14) (size 15 to 20)
#    0.000    1.250    3.750    4.875    0.000    1.500 
#    0.000    2.500    0.000    0.750    0.000    0.000 
#    0.000    0.000    0.000    0.000    0.000    0.000 
#
# Total GULP energy -198308.694405 kJ/mol
# GULP energy per Si atom -12394.293400 kJ/mol
# Density = 1.906650 g / cm^3
# Si number density = 19.109990 Si / 1000 Ang^3
#
#
#
# Elastic Constant Matrix: (Units=GPa)
#
#
# Indices 1 2 3 4 5 6 
#
# 1 81.0561 26.3462 36.8912 -7.4213 -3.0631 -2.9668
# 2 26.3462 108.8666 52.8914 -23.3391 -8.5066 11.2729
# 3 36.8912 52.8914 94.4870 -21.7617 -2.4240 0.9160
# 4 -7.4213 -23.3391 -21.7617 35.9675 5.9998 -2.9349
# 5 -3.0631 -8.5066 -2.4240 5.9998 24.3137 -9.0341
# 6 -2.9668 11.2729 0.9160 -2.9349 -9.0341 27.0228
#
#
#
# Elastic Compliance Matrix: (Units=1/GPa)
#
#
# Indices 1 2 3 4 5 6 
#
# 1 0.015381 -0.001491 -0.005419 -0.001207 0.002343 0.003147
# 2 -0.001491 0.014139 -0.006217 0.004503 0.001182 -0.004967
# 3 -0.005419 -0.006217 0.017465 0.005869 -0.002062 0.001355
# 4 -0.001207 0.004503 0.005869 0.035124 -0.006922 -0.000709
# 5 0.002343 0.001182 -0.002062 -0.006922 0.049099 0.015496
# 6 0.003147 -0.004967 0.001355 -0.000709 0.015496 0.044481
#
#
# Mechanical properties :
#
#
# Convention : Reuss Voigt Hill
#
# Bulk Modulus (GPa) = 48.23605 57.40747 52.82176
# Shear Modulus (GPa) = 23.94028 28.67951 26.30989
#
# Velocity S-wave (km/s) = 3.54328 3.87817 3.71450
# Velocity P-wave (km/s) = 6.48350 7.08233 6.78952
#
# Compressibility (1/GPa) = 0.02073138
#
# Stress axis : x y z
#
# Youngs Moduli (GPa) = 65.01349 70.72738 57.25714
#
# Poissons Ratio (x) = 0.10545 0.31029
# Poissons Ratio (y) = 0.09693 0.35596
# Poissons Ratio (z) = 0.35232 0.43970
#
# Static dielectric constant tensor:
#      x y z
#    x 3.704590 0.077550 -0.111010 
#    y 0.077550 3.514510 -0.454680 
#    z -0.111010 -0.454680 3.544790 
# 
# 
# High freq. dielectric constant tensor:
#      x y z
#    x 1.753190 0.003630 -0.000370 
#    y 0.003630 1.730000 -0.034930 
#    z -0.000370 -0.034930 1.728600 
# 
# From -- ./inp_files/398660.got.cif
#   From: 2010.06.25/outbox.cif.g09.slc.cpg/sg2_200_cif.got.tgz:398660.got - 2010.06.27 13:26:56.
