data_PCOD8002037
_publ_section_title
;
Structure prediction by ZEFSAII (Michael W. Deem and Ramdas Pophale) SiO2 
 PCOD8002037
Probable space group: P -1
;
_chemical_formula_sum "Si O2"
_cell_formula_units_Z 16
_cell_length_a 14.956330
_cell_length_b 15.455581
_cell_length_c 12.483286
_cell_angle_alpha 98.829279
_cell_angle_beta 82.717718
_cell_angle_gamma 161.615643
_cell_volume 897.656251
_symmetry_space_group_name_H-M "P -1"
_symmetry_group_IT_number 2
_symmetry_cell_setting 'triclinic'
loop_
_space_group_symop_operation_xyz
x,y,z
-x,-y,-z
loop_
_atom_site_type_symbol
_atom_site_label
_atom_site_fract_x
_atom_site_fract_y
_atom_site_fract_z
Si Si1 0.590653 0.132194 0.307868
Si Si2 0.242821 0.156388 0.897748
Si Si3 0.211199 0.314135 0.960803
Si Si4 0.821023 0.525281 0.026551
Si Si5 0.162950 0.821313 0.674459
Si Si6 0.425820 0.018476 0.077634
Si Si7 0.065153 0.644150 0.446851
Si Si8 0.380124 0.634722 0.211722
O O1 0.796133 0.236346 0.287700
O O2 0.416402 0.989292 0.199355
O O3 0.800079 0.407066 0.358535
O O4 0.363684 0.907569 0.392738
O O5 0.145581 0.164766 0.874137
O O6 0.411496 0.258643 0.799303
O O7 0.455073 0.372777 0.004625
O O8 0.975669 0.857418 0.932105
O O9 0.147604 0.345192 0.911113
O O10 0.639090 0.296110 0.087372
O O11 0.673605 0.387431 0.906698
O O12 0.130806 0.771549 0.023111
O O13 0.087185 0.746157 0.545049
O O14 0.920335 0.655262 0.738816
O O15 0.463076 0.145384 0.704634
O O16 0.500000 0.000000 0.000000
O O17 0.000000 0.500000 0.500000
#
# Coordination Sequence:
#
# PCOD8002037 Si02
#       8
#     2   2   2   2   2   2   2   2
#     4  11  21  36  50  68  97 131 168 206 240 281
#     4   9  17  29  47  71  97 130 159 197 247 293
#     4   9  17  31  48  66  96 133 169 197 233 288
#     4  11  21  34  48  70 101 139 171 196 231 285
#     4  11  20  32  50  72  96 126 160 201 253 296
#     4  12  24  35  49  71 101 136 173 203 234 275
#     4  10  20  35  53  70  90 124 167 208 253 294
#     4  11  19  30  48  74 104 127 156 196 246 297
#
# _framework density 17.824193999999999
#
# number of rings (size 3 to 8) (size 9 to 14) (size 15 to 20)
#    0.000    1.500    0.000   10.125    0.000    0.000 
#    0.000    0.000    0.000    0.000    0.000    0.000 
#    0.000   20.000    0.000    0.000    0.000    0.000 
#
# Total GULP energy -198263.258159 kJ/mol
# GULP energy per Si atom -12391.453635 kJ/mol
# Density = 1.778363 g / cm^3
# Si number density = 17.824194 Si / 1000 Ang^3
#
#
#
# Elastic Constant Matrix: (Units=GPa)
#
#
# Indices 1 2 3 4 5 6 
#
# 1 104.1193 26.4225 28.7881 -4.8951 -17.5962 -6.1396
# 2 26.4225 89.2732 15.1895 -5.0558 -3.8860 4.3518
# 3 28.7881 15.1895 81.6539 3.1123 -8.9506 3.2174
# 4 -4.8951 -5.0558 3.1123 34.6119 6.1988 -1.6743
# 5 -17.5962 -3.8860 -8.9506 6.1988 17.2160 -3.0117
# 6 -6.1396 4.3518 3.2174 -1.6743 -3.0117 27.3922
#
#
#
# Elastic Compliance Matrix: (Units=1/GPa)
#
#
# Indices 1 2 3 4 5 6 
#
# 1 0.013729 -0.003269 -0.003034 -0.000289 0.012756 0.005338
# 2 -0.003269 0.012538 -0.001399 0.001786 -0.002355 -0.002710
# 3 -0.003034 -0.001399 0.014273 -0.002848 0.004716 -0.001790
# 4 -0.000289 0.001786 -0.002848 0.031665 -0.012682 0.000527
# 5 0.012756 -0.002355 0.004716 -0.012682 0.079471 0.010642
# 6 0.005338 -0.002710 -0.001790 0.000527 0.010642 0.039546
#
#
# Mechanical properties :
#
#
# Convention : Reuss Voigt Hill
#
# Bulk Modulus (GPa) = 39.78238 46.20519 42.99379
# Shear Modulus (GPa) = 23.25534 29.48709 26.37122
#
# Velocity S-wave (km/s) = 3.61599 4.07176 3.85062
# Velocity P-wave (km/s) = 6.30885 6.93431 6.62896
#
# Compressibility (1/GPa) = 0.02513675
#
# Stress axis : x y z
#
# Youngs Moduli (GPa) = 72.83609 79.75857 70.06378
#
# Poissons Ratio (x) = 0.26071 0.21254
# Poissons Ratio (y) = 0.23808 0.09805
# Poissons Ratio (z) = 0.22095 0.11161
#
# Static dielectric constant tensor:
#      x y z
#    x 3.463920 0.001930 -0.243380 
#    y 0.001930 3.574190 0.258900 
#    z -0.243380 0.258900 3.322160 
# 
# 
# High freq. dielectric constant tensor:
#      x y z
#    x 1.664470 0.007970 -0.028920 
#    y 0.007970 1.719330 0.007190 
#    z -0.028920 0.007190 1.655430 
# 
# From -- ./inp_files/454852.got.cif
#   From: 2010.06.25/outbox.cif.g09.slc.cpg/sg2_228_cif.got.tgz:454852.got - 2010.06.27 13:26:56.
