data_PCOD8002711
_publ_section_title
;
Structure prediction by ZEFSAII (Michael W. Deem and Ramdas Pophale) SiO2 
 PCOD8002711
Probable space group: P -1
;
_chemical_formula_sum "Si O2"
_cell_formula_units_Z 14
_cell_length_a 12.294045
_cell_length_b 25.667488
_cell_length_c 9.168872
_cell_angle_alpha 29.805243
_cell_angle_beta 35.534803
_cell_angle_gamma 25.855298
_cell_volume 619.899520
_symmetry_space_group_name_H-M "P -1"
_symmetry_group_IT_number 2
_symmetry_cell_setting 'triclinic'
loop_
_space_group_symop_operation_xyz
x,y,z
-x,-y,-z
loop_
_atom_site_type_symbol
_atom_site_label
_atom_site_fract_x
_atom_site_fract_y
_atom_site_fract_z
Si Si1 0.712257 0.084160 0.071831
Si Si2 0.887695 0.324317 0.751170
Si Si3 0.659169 0.615206 0.176676
Si Si4 0.029010 0.337717 0.120884
Si Si5 0.288551 0.112649 0.609602
Si Si6 0.436832 0.360265 0.111899
Si Si7 0.131052 0.344601 0.688857
O O1 0.551187 0.077582 0.385819
O O2 0.685362 0.023567 0.101095
O O3 0.572979 0.249068 0.803278
O O4 0.000000 0.000000 0.000000
O O5 0.721532 0.470484 0.485616
O O6 0.722218 0.281249 0.036033
O O7 0.161279 0.195083 0.698789
O O8 0.935470 0.345678 0.810570
O O9 0.904554 0.587559 0.028344
O O10 0.583881 0.666353 0.968311
O O11 0.194651 0.264656 0.967787
O O12 0.086193 0.213356 0.454344
O O13 0.736714 0.470397 0.079865
O O14 0.366046 0.287346 0.468520
O O15 0.000000 0.500000 0.500000
#
# Coordination Sequence:
#
# PCOD8002711 Si02
#       7
#     2   2   2   2   2   2   2
#     4  10  22  36  56  84 117 151 185 235 292 336
#     4  12  22  36  61  92 114 150 191 238 290 335
#     4  11  20  37  60  88 116 146 192 239 285 337
#     4  10  20  36  58  83 122 153 184 235 294 332
#     4  10  22  39  58  86 117 143 195 241 280 340
#     4  11  21  33  57  86 120 148 187 232 287 340
#     4  10  21  37  51  86 127 150 182 235 290 343
#
# _framework density 22.584305000000001
#
# number of rings (size 3 to 8) (size 9 to 14) (size 15 to 20)
#    0.000    1.429    4.286    3.429    2.000    2.286 
#    0.000    0.000    0.000   13.714    0.000   27.000 
#    0.000    0.000    0.000    0.000    0.000    0.000 
#
# Total GULP energy -173439.104864 kJ/mol
# GULP energy per Si atom -12388.507490 kJ/mol
# Density = 2.253290 g / cm^3
# Si number density = 22.584305 Si / 1000 Ang^3
#
#
#
# Elastic Constant Matrix: (Units=GPa)
#
#
# Indices 1 2 3 4 5 6 
#
# 1 124.5913 23.1404 32.1381 26.7777 -11.4624 23.0137
# 2 23.1404 109.1079 10.7485 4.1171 -19.6039 8.5226
# 3 32.1381 10.7485 41.5002 16.1998 -3.2164 6.8621
# 4 26.7777 4.1171 16.1998 26.7439 -6.2706 -7.3983
# 5 -11.4624 -19.6039 -3.2164 -6.2706 33.1557 16.2241
# 6 23.0137 8.5226 6.8621 -7.3983 16.2241 37.4714
#
#
#
# Elastic Compliance Matrix: (Units=1/GPa)
#
#
# Indices 1 2 3 4 5 6 
#
# 1 0.016981 0.000975 -0.002163 -0.018287 0.012135 -0.019120
# 2 0.000975 0.011693 -0.000804 -0.002023 0.010795 -0.008185
# 3 -0.002163 -0.000804 0.036790 -0.022243 0.003610 -0.011181
# 4 -0.018287 -0.002023 -0.022243 0.076527 -0.013081 0.036538
# 5 0.012135 0.010795 0.003610 -0.013081 0.057162 -0.037902
# 6 -0.019120 -0.008185 -0.011181 0.036538 -0.037902 0.065963
#
#
# Mechanical properties :
#
#
# Convention : Reuss Voigt Hill
#
# Bulk Modulus (GPa) = 16.26509 45.25038 30.75774
# Shear Modulus (GPa) = 17.26561 33.41902 25.34231
#
# Velocity S-wave (km/s) = 2.76795 3.85092 3.35344
# Velocity P-wave (km/s) = 4.17528 6.31288 5.35189
#
# Compressibility (1/GPa) = 0.06148136
#
# Stress axis : x y z
#
# Youngs Moduli (GPa) = 58.88808 85.52215 27.18096
#
# Poissons Ratio (x) = -0.08342 0.05879
# Poissons Ratio (y) = -0.05744 0.02186
# Poissons Ratio (z) = 0.12736 0.06879
#
# Static dielectric constant tensor:
#      x y z
#    x 4.304550 0.306070 0.408110 
#    y 0.306070 4.317790 0.233140 
#    z 0.408110 0.233140 4.428360 
# 
# 
# High freq. dielectric constant tensor:
#      x y z
#    x 1.881590 0.017820 -0.019890 
#    y 0.017820 1.891600 0.012530 
#    z -0.019890 0.012530 1.851850 
# 
# From -- ./inp_files/271728.got.cif
#   From: 2010.06.25/outbox.cif.g09.slc.cpg/sg2_136_cif.got.tgz:271728.got - 2010.06.27 13:26:56.
