data_PCOD8002050
_publ_section_title
;
Structure prediction by ZEFSAII (Michael W. Deem and Ramdas Pophale) SiO2 
 PCOD8002050
Probable space group: P -1
;
_chemical_formula_sum "Si O2"
_cell_formula_units_Z 16
_cell_length_a 20.792195
_cell_length_b 10.969808
_cell_length_c 14.360819
_cell_angle_alpha 49.521711
_cell_angle_beta 152.060273
_cell_angle_gamma 146.420402
_cell_volume 799.752822
_symmetry_space_group_name_H-M "P -1"
_symmetry_group_IT_number 2
_symmetry_cell_setting 'triclinic'
loop_
_space_group_symop_operation_xyz
x,y,z
-x,-y,-z
loop_
_atom_site_type_symbol
_atom_site_label
_atom_site_fract_x
_atom_site_fract_y
_atom_site_fract_z
Si Si1 0.696427 0.664289 0.954000
Si Si2 0.857561 0.420182 0.442315
Si Si3 0.590071 0.708943 0.617727
Si Si4 0.314546 0.550630 0.195269
Si Si5 0.027619 0.773575 0.199797
Si Si6 0.446172 0.979540 0.047862
Si Si7 0.287186 0.172065 0.738217
Si Si8 0.880689 0.813427 0.306783
O O1 0.620567 0.747869 0.749551
O O2 0.504070 0.391562 0.864049
O O3 0.797676 0.816709 0.102301
O O4 0.862466 0.697797 0.098456
O O5 0.910209 0.352597 0.630640
O O6 0.631760 0.196513 0.237092
O O7 0.879221 0.621102 0.399745
O O8 0.000000 0.500000 0.500000
O O9 0.389967 0.628017 0.361436
O O10 0.566491 0.499863 0.670219
O O11 0.783588 0.948050 0.695739
O O12 0.366859 0.749261 0.103754
O O13 0.075407 0.318908 0.989649
O O14 0.275364 0.970980 0.841653
O O15 0.500000 0.000000 0.000000
O O16 0.264366 0.250152 0.765654
O O17 0.108162 0.067464 0.489906
#
# Coordination Sequence:
#
# PCOD8002050 Si02
#       8
#     2   2   2   2   2   2   2   2
#     4  11  21  36  60  84 120 158 201 242 287 362
#     4  12  21  36  59  91 122 149 195 246 304 352
#     4  10  22  36  54  88 120 162 197 241 302 345
#     4  10  20  35  53  79 123 154 189 246 294 346
#     4  11  21  36  57  89 123 156 193 247 298 351
#     4  12  22  35  60  90 120 154 193 253 302 353
#     4  11  24  41  60  89 121 158 202 242 314 351
#     4  11  24  40  62  87 122 160 195 253 297 366
#
# _framework density 20.006181000000002
#
# number of rings (size 3 to 8) (size 9 to 14) (size 15 to 20)
#    0.000    1.000    3.750    5.625    0.000    4.000 
#    0.000    0.000    0.000    3.000    0.000    7.875 
#    0.000    0.000    0.000    0.000    0.000    0.000 
#
# Total GULP energy -198304.500582 kJ/mol
# GULP energy per Si atom -12394.031286 kJ/mol
# Density = 1.996065 g / cm^3
# Si number density = 20.006181 Si / 1000 Ang^3
#
#
#
# Elastic Constant Matrix: (Units=GPa)
#
#
# Indices 1 2 3 4 5 6 
#
# 1 91.6320 40.4382 51.3682 -11.0636 -15.7175 -9.5788
# 2 40.4382 77.9072 25.5649 -10.2070 -1.6884 0.4492
# 3 51.3682 25.5649 130.0073 -4.3800 -40.4321 7.1707
# 4 -11.0636 -10.2070 -4.3800 41.2118 3.2263 -3.3791
# 5 -15.7175 -1.6884 -40.4321 3.2263 43.5735 -5.5082
# 6 -9.5788 0.4492 7.1707 -3.3791 -5.5082 19.7763
#
#
#
# Elastic Compliance Matrix: (Units=1/GPa)
#
#
# Indices 1 2 3 4 5 6 
#
# 1 0.020274 -0.008014 -0.006232 0.003705 0.002670 0.013638
# 2 -0.008014 0.017607 -0.001248 0.002018 -0.004101 -0.004626
# 3 -0.006232 -0.001248 0.013711 -0.001749 0.009858 -0.005515
# 4 0.003705 0.002018 -0.001749 0.026210 -0.001328 0.006491
# 5 0.002670 -0.004101 0.009858 -0.001328 0.033888 0.007023
# 6 0.013638 -0.004626 -0.005515 0.006491 0.007023 0.062341
#
#
# Mechanical properties :
#
#
# Convention : Reuss Voigt Hill
#
# Bulk Modulus (GPa) = 48.53307 59.36545 53.94926
# Shear Modulus (GPa) = 23.59741 33.05733 28.32737
#
# Velocity S-wave (km/s) = 3.43812 4.06933 3.76697
# Velocity P-wave (km/s) = 6.33029 7.19842 6.77827
#
# Compressibility (1/GPa) = 0.02060451
#
# Stress axis : x y z
#
# Youngs Moduli (GPa) = 49.32314 56.79479 72.93457
#
# Poissons Ratio (x) = 0.45515 0.45453
# Poissons Ratio (y) = 0.39527 0.09103
# Poissons Ratio (z) = 0.30739 0.07088
#
# Static dielectric constant tensor:
#      x y z
#    x 3.489650 -0.022000 -0.630880 
#    y -0.022000 3.721310 -0.072910 
#    z -0.630880 -0.072910 5.125650 
# 
# 
# High freq. dielectric constant tensor:
#      x y z
#    x 1.734580 -0.003830 -0.032010 
#    y -0.003830 1.779370 0.003020 
#    z -0.032010 0.003020 1.811570 
# 
# From -- ./inp_files/456031.got.cif
#   From: 2010.06.25/outbox.cif.g09.slc.cpg/sg2_229_cif.got.tgz:456031.got - 2010.06.27 13:26:56.
