data_PCOD8002071
_publ_section_title
;
Structure prediction by ZEFSAII (Michael W. Deem and Ramdas Pophale) SiO2 
 PCOD8002071
Probable space group: P -1
;
_chemical_formula_sum "Si O2"
_cell_formula_units_Z 16
_cell_length_a 11.134856
_cell_length_b 15.169071
_cell_length_c 12.293965
_cell_angle_alpha 27.909176
_cell_angle_beta 80.109450
_cell_angle_gamma 62.974917
_cell_volume 722.511323
_symmetry_space_group_name_H-M "P -1"
_symmetry_group_IT_number 2
_symmetry_cell_setting 'triclinic'
loop_
_space_group_symop_operation_xyz
x,y,z
-x,-y,-z
loop_
_atom_site_type_symbol
_atom_site_label
_atom_site_fract_x
_atom_site_fract_y
_atom_site_fract_z
Si Si1 0.956652 0.844474 0.300430
Si Si2 0.523084 0.445671 0.396567
Si Si3 0.012918 0.930468 0.431988
Si Si4 0.508039 0.217410 0.442437
Si Si5 0.800334 0.420453 0.041349
Si Si6 0.358435 0.990207 0.759875
Si Si7 0.245434 0.664648 0.344528
Si Si8 0.759997 0.886400 0.584875
O O1 0.020664 0.886199 0.352278
O O2 0.831654 0.804828 0.394510
O O3 0.123302 0.620549 0.453970
O O4 0.860956 0.087160 0.978635
O O5 0.558382 0.321870 0.409004
O O6 0.393486 0.446695 0.482775
O O7 0.686660 0.292102 0.607695
O O8 0.453238 0.728533 0.090720
O O9 0.902309 0.891823 0.556666
O O10 0.185234 0.720495 0.695711
O O11 0.935491 0.214035 0.157721
O O12 0.439658 0.108830 0.639857
O O13 0.665279 0.993814 0.596011
O O14 0.375272 0.435193 0.142262
O O15 0.831950 0.605426 0.862761
O O16 0.362783 0.944702 0.679556
#
# Coordination Sequence:
#
# PCOD8002071 Si02
#       8
#     2   2   2   2   2   2   2   2
#     4   9  18  36  59  80 107 145 189 235 284 327
#     4  10  21  38  59  81 111 147 188 236 282 331
#     4  10  21  35  57  83 112 153 188 223 276 337
#     4  11  22  36  57  86 120 153 184 225 279 338
#     4  10  20  35  54  82 118 149 183 224 270 335
#     4   9  19  36  56  82 114 149 184 225 278 337
#     4   9  19  37  59  81 106 142 190 244 285 319
#     4  10  21  35  53  83 121 151 182 226 271 332
#
# _framework density 22.144981000000001
#
# number of rings (size 3 to 8) (size 9 to 14) (size 15 to 20)
#    0.000    2.250    0.000    4.125    0.000    7.000 
#    0.000    6.250    0.000    4.500    0.000    0.000 
#    0.000    0.000    0.000    0.000    0.000    0.000 
#
# Total GULP energy -198222.261177 kJ/mol
# GULP energy per Si atom -12388.891324 kJ/mol
# Density = 2.209458 g / cm^3
# Si number density = 22.144981 Si / 1000 Ang^3
#
#
#
# Elastic Constant Matrix: (Units=GPa)
#
#
# Indices 1 2 3 4 5 6 
#
# 1 134.4835 35.1975 97.7913 -39.6652 47.9406 -5.6830
# 2 35.1975 86.1822 34.8133 12.1509 -3.1896 -13.9322
# 3 97.7913 34.8133 167.7456 -35.3222 52.7080 18.1321
# 4 -39.6652 12.1509 -35.3222 52.4072 -16.8621 3.4158
# 5 47.9406 -3.1896 52.7080 -16.8621 50.3480 10.8074
# 6 -5.6830 -13.9322 18.1321 3.4158 10.8074 42.6843
#
#
#
# Elastic Compliance Matrix: (Units=1/GPa)
#
#
# Indices 1 2 3 4 5 6 
#
# 1 0.020494 -0.007378 -0.004973 0.009484 -0.012646 0.004876
# 2 -0.007378 0.020100 -0.005944 -0.011748 0.009143 0.006729
# 3 -0.004973 -0.005944 0.014288 0.005391 -0.007233 -0.007272
# 4 0.009484 -0.011748 0.005391 0.031987 -0.003291 -0.006588
# 5 -0.012646 0.009143 -0.007233 -0.003291 0.040138 -0.005527
# 6 0.004876 0.006729 -0.007272 -0.006588 -0.005527 0.031289
#
#
# Mechanical properties :
#
#
# Convention : Reuss Voigt Hill
#
# Bulk Modulus (GPa) = 54.66775 80.44620 67.55697
# Shear Modulus (GPa) = 24.87759 43.79518 34.33639
#
# Velocity S-wave (km/s) = 3.35535 4.45191 3.94194
# Velocity P-wave (km/s) = 6.30484 7.92666 7.16181
#
# Compressibility (1/GPa) = 0.01829232
#
# Stress axis : x y z
#
# Youngs Moduli (GPa) = 48.79398 49.75077 69.98940
#
# Poissons Ratio (x) = 0.36707 0.34804
# Poissons Ratio (y) = 0.36001 0.41602
# Poissons Ratio (z) = 0.24264 0.29572
#
# Static dielectric constant tensor:
#      x y z
#    x 4.218500 -0.329000 0.201370 
#    y -0.329000 4.227810 0.198390 
#    z 0.201370 0.198390 3.888320 
# 
# 
# High freq. dielectric constant tensor:
#      x y z
#    x 1.868020 -0.008270 0.023710 
#    y -0.008270 1.868160 0.019810 
#    z 0.023710 0.019810 1.855090 
# 
# From -- ./inp_files/418590.got.cif
#   From: 2010.06.25/outbox.cif.g09.slc.cpg/sg2_210_cif.got.tgz:418590.got - 2010.06.27 13:26:56.
