data_PCOD8002934
_publ_section_title
;
Structure prediction by ZEFSAII (Michael W. Deem and Ramdas Pophale) SiO2 
 PCOD8002934
Probable space group: P -1
;
_chemical_formula_sum "Si O2"
_cell_formula_units_Z 16
_cell_length_a 11.618792
_cell_length_b 24.241647
_cell_length_c 18.081454
_cell_angle_alpha 155.984332
_cell_angle_beta 151.047786
_cell_angle_gamma 25.722360
_cell_volume 859.546544
_symmetry_space_group_name_H-M "P -1"
_symmetry_group_IT_number 2
_symmetry_cell_setting 'triclinic'
loop_
_space_group_symop_operation_xyz
x,y,z
-x,-y,-z
loop_
_atom_site_type_symbol
_atom_site_label
_atom_site_fract_x
_atom_site_fract_y
_atom_site_fract_z
Si Si1 0.570991 0.331966 0.310293
Si Si2 0.885487 0.686712 0.658838
Si Si3 0.684249 0.043266 0.383918
Si Si4 0.327253 0.150546 0.989939
Si Si5 0.213295 0.813487 0.905248
Si Si6 0.538683 0.935332 0.316844
Si Si7 0.882702 0.910417 0.610256
Si Si8 0.096875 0.123799 0.967094
O O1 0.500000 0.500000 0.500000
O O2 0.306853 0.316065 0.162709
O O3 0.659415 0.285518 0.218570
O O4 0.806683 0.221416 0.364098
O O5 0.558892 0.781009 0.565418
O O6 0.929249 0.736394 0.825398
O O7 0.000000 0.500000 0.500000
O O8 0.060519 0.732505 0.758867
O O9 0.619390 0.017183 0.398642
O O10 0.000000 0.000000 0.500000
O O11 0.669703 0.916413 0.170173
O O12 0.077428 0.178122 0.936939
O O13 0.613439 0.034904 0.050223
O O14 0.459100 0.808572 0.086639
O O15 0.000000 0.000000 0.000000
O O16 0.790429 0.851700 0.414441
O O17 0.289350 0.076088 0.396277
O O18 0.857199 0.081838 0.793433
#
# Coordination Sequence:
#
# PCOD8002934 Si02
#       8
#     2   2   2   2   2   2   2   2
#     4  11  22  36  58  89 124 156 196 254 311 360
#     4  11  23  37  61  93 122 157 207 261 306 360
#     4  11  21  38  61  86 119 162 205 246 307 376
#     4   9  18  33  55  80 112 155 198 236 293 367
#     4  12  19  42  67  86 117 171 219 246 293 382
#     4  11  20  36  66  88 111 155 219 253 289 360
#     4  10  20  36  60  91 113 152 211 256 294 360
#     4   9  17  34  56  81 113 153 198 247 293 361
#
# _framework density 18.614467000000001
#
# number of rings (size 3 to 8) (size 9 to 14) (size 15 to 20)
#    0.000    1.500    5.000    1.500    1.750    1.000 
#    0.000    1.875    0.000    1.500    0.000    0.000 
#    0.000    0.000    0.000    0.000    0.000    0.000 
#
# Total GULP energy -198214.548173 kJ/mol
# GULP energy per Si atom -12388.409261 kJ/mol
# Density = 1.857210 g / cm^3
# Si number density = 18.614467 Si / 1000 Ang^3
#
#
#
# Elastic Constant Matrix: (Units=GPa)
#
#
# Indices 1 2 3 4 5 6 
#
# 1 148.5658 39.5814 66.2406 7.0898 2.6532 7.9442
# 2 39.5814 62.8181 56.8722 -2.0638 3.6047 1.0433
# 3 66.2406 56.8722 123.2141 12.0736 -0.3682 7.3987
# 4 7.0898 -2.0638 12.0736 34.5227 1.6366 1.1207
# 5 2.6532 3.6047 -0.3682 1.6366 41.2178 -5.0482
# 6 7.9442 1.0433 7.3987 1.1207 -5.0482 16.5132
#
#
#
# Elastic Compliance Matrix: (Units=1/GPa)
#
#
# Indices 1 2 3 4 5 6 
#
# 1 0.009175 -0.002509 -0.003540 -0.000669 -0.000725 -0.002845
# 2 -0.002509 0.029930 -0.013404 0.006969 -0.002347 0.004131
# 3 -0.003540 -0.013404 0.017052 -0.005958 0.001262 -0.004300
# 4 -0.000669 0.006969 -0.005958 0.031700 -0.001901 -0.000181
# 5 -0.000725 -0.002347 0.001262 -0.001901 0.025565 0.007876
# 6 -0.002845 0.004131 -0.004300 -0.000181 0.007876 0.066012
#
#
# Mechanical properties :
#
#
# Convention : Reuss Voigt Hill
#
# Bulk Modulus (GPa) = 57.96946 73.33180 65.65063
# Shear Modulus (GPa) = 22.31241 29.91100 26.11170
#
# Velocity S-wave (km/s) = 3.46592 4.01293 3.74941
# Velocity P-wave (km/s) = 6.87216 7.80718 7.35454
#
# Compressibility (1/GPa) = 0.01725046
#
# Stress axis : x y z
#
# Youngs Moduli (GPa) = 108.99213 33.41085 58.64495
#
# Poissons Ratio (x) = 0.08384 0.20760
# Poissons Ratio (y) = 0.27350 0.78608
# Poissons Ratio (z) = 0.38583 0.44784
#
# Static dielectric constant tensor:
#      x y z
#    x 3.479160 -0.161290 0.112890 
#    y -0.161290 3.243980 -0.544260 
#    z 0.112890 -0.544260 4.069110 
# 
# 
# High freq. dielectric constant tensor:
#      x y z
#    x 1.746700 0.008580 0.002250 
#    y 0.008580 1.676860 -0.023570 
#    z 0.002250 -0.023570 1.726990 
# 
# From -- ./inp_files/260583.got.cif
#   From: 2010.06.25/outbox.cif.g09.slc.cpg/sg2_131_cif.got.tgz:260583.got - 2010.06.27 13:26:56.
