data_PCOD8002161
_publ_section_title
;
Structure prediction by ZEFSAII (Michael W. Deem and Ramdas Pophale) SiO2 
 PCOD8002161
Probable space group: P -1
;
_chemical_formula_sum "Si O2"
_cell_formula_units_Z 16
_cell_length_a 9.106189
_cell_length_b 15.202812
_cell_length_c 11.900061
_cell_angle_alpha 69.691624
_cell_angle_beta 90.379350
_cell_angle_gamma 38.884021
_cell_volume 856.010233
_symmetry_space_group_name_H-M "P -1"
_symmetry_group_IT_number 2
_symmetry_cell_setting 'triclinic'
loop_
_space_group_symop_operation_xyz
x,y,z
-x,-y,-z
loop_
_atom_site_type_symbol
_atom_site_label
_atom_site_fract_x
_atom_site_fract_y
_atom_site_fract_z
Si Si1 0.095115 0.419234 0.357623
Si Si2 0.351808 0.987110 0.869990
Si Si3 0.623475 0.807683 0.180739
Si Si4 0.234562 0.591802 0.596418
Si Si5 0.415138 0.147244 0.303621
Si Si6 0.847885 0.893578 0.602326
Si Si7 0.785876 0.265788 0.669757
Si Si8 0.396260 0.829057 0.377205
O O1 0.233842 0.324293 0.280535
O O2 0.318488 0.319108 0.496102
O O3 0.913436 0.607100 0.262948
O O4 0.923632 0.421453 0.394539
O O5 0.343099 0.103934 0.818761
O O6 0.052991 0.106180 0.811441
O O7 0.514950 0.862335 0.818812
O O8 0.489562 0.871002 0.030680
O O9 0.429279 0.856880 0.242625
O O10 0.548417 0.408465 0.694604
O O11 0.177011 0.664149 0.440956
O O12 0.144228 0.709880 0.644245
O O13 0.263389 0.129267 0.309165
O O14 0.684583 0.989716 0.443729
O O15 0.830982 0.996803 0.629391
O O16 0.710491 0.218865 0.610725
#
# Coordination Sequence:
#
# PCOD8002161 Si02
#       8
#     2   2   2   2   2   2   2   2
#     4  10  21  37  61  85 110 141 195 229 274 326
#     4  11  23  40  56  80 118 146 192 219 280 337
#     4  11  23  38  59  81 108 157 187 230 262 335
#     4  10  20  35  56  86 111 148 175 232 287 314
#     4   9  17  34  59  82 107 149 178 237 269 322
#     4   9  17  33  59  82 112 141 186 224 279 328
#     4  11  23  34  56  86 117 143 177 237 284 326
#     4  11  21  35  59  88 112 143 187 233 274 328
#
# _framework density 18.691365999999999
#
# number of rings (size 3 to 8) (size 9 to 14) (size 15 to 20)
#    0.000    1.750    3.750    1.875    3.500    1.500 
#    0.000    0.000    0.000    0.750    0.000    0.000 
#    0.000    0.000    0.000    0.000    0.000    0.000 
#
# Total GULP energy -198414.329602 kJ/mol
# GULP energy per Si atom -12400.895600 kJ/mol
# Density = 1.864882 g / cm^3
# Si number density = 18.691366 Si / 1000 Ang^3
#
#
#
# Elastic Constant Matrix: (Units=GPa)
#
#
# Indices 1 2 3 4 5 6 
#
# 1 64.6919 37.2442 33.8772 3.0503 3.8288 -8.9767
# 2 37.2442 144.4928 44.4078 8.0627 2.7935 -5.3016
# 3 33.8772 44.4078 86.5795 8.5687 2.6548 -7.1734
# 4 3.0503 8.0627 8.5687 18.4308 3.1786 -7.9628
# 5 3.8288 2.7935 2.6548 3.1786 13.9678 -7.3572
# 6 -8.9767 -5.3016 -7.1734 -7.9628 -7.3572 19.4674
#
#
#
# Elastic Compliance Matrix: (Units=1/GPa)
#
#
# Indices 1 2 3 4 5 6 
#
# 1 0.021904 -0.003597 -0.006474 0.004706 -0.000704 0.008394
# 2 -0.003597 0.008862 -0.003007 -0.002468 -0.000463 -0.001538
# 3 -0.006474 -0.003007 0.016135 -0.005096 0.000623 0.000292
# 4 0.004706 -0.002468 -0.005096 0.068959 -0.001078 0.027420
# 5 -0.000704 -0.000463 0.000623 -0.001078 0.089466 0.033149
# 6 0.008394 -0.001538 0.000292 0.027420 0.033149 0.078671
#
#
# Mechanical properties :
#
#
# Convention : Reuss Voigt Hill
#
# Bulk Modulus (GPa) = 48.20612 58.53583 53.37097
# Shear Modulus (GPa) = 15.76943 22.38888 19.07915
#
# Velocity S-wave (km/s) = 2.90776 3.46471 3.19838
# Velocity P-wave (km/s) = 6.09262 6.88408 6.50041
#
# Compressibility (1/GPa) = 0.02074425
#
# Stress axis : x y z
#
# Youngs Moduli (GPa) = 45.65446 112.83658 61.97645
#
# Poissons Ratio (x) = 0.40588 0.40125
# Poissons Ratio (y) = 0.16422 0.18637
# Poissons Ratio (z) = 0.29558 0.33931
#
# Static dielectric constant tensor:
#      x y z
#    x 3.306940 -0.002090 -0.030370 
#    y -0.002090 3.801900 -0.022870 
#    z -0.030370 -0.022870 3.124610 
# 
# 
# High freq. dielectric constant tensor:
#      x y z
#    x 1.715660 0.001100 -0.006120 
#    y 0.001100 1.749850 0.003660 
#    z -0.006120 0.003660 1.691160 
# 
# From -- ./inp_files/252547.got.cif
#   From: 2010.06.25/outbox.cif.g09.slc.cpg/sg2_127_cif.got.tgz:252547.got - 2010.06.27 13:26:56.
