data_PCOD8002737
_publ_section_title
;
Structure prediction by ZEFSAII (Michael W. Deem and Ramdas Pophale) SiO2 
 PCOD8002737
Probable space group: P -1
;
_chemical_formula_sum "Si O2"
_cell_formula_units_Z 16
_cell_length_a 11.136130
_cell_length_b 8.411677
_cell_length_c 15.261543
_cell_angle_alpha 79.025361
_cell_angle_beta 142.724039
_cell_angle_gamma 113.529949
_cell_volume 772.709079
_symmetry_space_group_name_H-M "P -1"
_symmetry_group_IT_number 2
_symmetry_cell_setting 'triclinic'
loop_
_space_group_symop_operation_xyz
x,y,z
-x,-y,-z
loop_
_atom_site_type_symbol
_atom_site_label
_atom_site_fract_x
_atom_site_fract_y
_atom_site_fract_z
Si Si1 0.046014 0.647435 0.331582
Si Si2 0.093369 0.004674 0.408264
Si Si3 0.566627 0.416269 0.361249
Si Si4 0.962024 0.442118 0.853669
Si Si5 0.279602 0.004234 0.702481
Si Si6 0.713730 0.665083 0.642134
Si Si7 0.784242 0.385708 0.329865
Si Si8 0.358178 0.666368 0.171675
O O1 0.124513 0.838445 0.402650
O O2 0.215568 0.558810 0.460784
O O3 0.029472 0.668597 0.215656
O O4 0.808484 0.512703 0.246511
O O5 0.204032 0.053802 0.561501
O O6 0.209429 0.168418 0.394140
O O7 0.840092 0.961134 0.285115
O O8 0.357817 0.282369 0.310295
O O9 0.575253 0.346199 0.274916
O O10 0.544920 0.603511 0.318807
O O11 0.912382 0.609806 0.778857
O O12 0.773837 0.311285 0.822997
O O13 0.194595 0.515061 0.028462
O O14 0.237146 0.800067 0.700868
O O15 0.532908 0.146243 0.837478
O O16 0.500000 0.500000 0.500000
O O17 0.000000 0.500000 0.500000
#
# Coordination Sequence:
#
# PCOD8002737 Si02
#       8
#     2   2   2   2   2   2   2   2
#     4  11  21  37  61  91 120 155 204 254 294 348
#     4  11  23  35  60  95 120 153 204 259 296 351
#     4  10  20  36  58  86 120 153 203 240 302 354
#     4  10  22  42  62  88 127 158 201 248 302 364
#     4  11  22  36  60  88 127 157 203 248 303 364
#     4  11  21  36  60  89 116 156 199 252 299 349
#     4  10  20  37  56  91 124 157 196 257 304 346
#     4  10  23  40  63  89 121 169 196 240 314 364
#
# _framework density 20.706371000000001
#
# number of rings (size 3 to 8) (size 9 to 14) (size 15 to 20)
#    0.000    1.500    3.750    3.000    7.000    1.500 
#    0.000    6.250    0.000    4.500    0.000    0.000 
#    0.000    0.000    0.000    0.000    0.000    0.000 
#
# Total GULP energy -198263.911383 kJ/mol
# GULP energy per Si atom -12391.494461 kJ/mol
# Density = 2.065924 g / cm^3
# Si number density = 20.706371 Si / 1000 Ang^3
#
#
#
# Elastic Constant Matrix: (Units=GPa)
#
#
# Indices 1 2 3 4 5 6 
#
# 1 151.0111 45.9530 35.1675 9.0252 -10.9179 14.2648
# 2 45.9530 119.0800 25.4550 10.6315 10.6327 21.0714
# 3 35.1675 25.4550 46.4344 5.9589 -4.7124 -0.0802
# 4 9.0252 10.6315 5.9589 18.7446 5.4636 -1.3261
# 5 -10.9179 10.6327 -4.7124 5.4636 19.9227 1.2167
# 6 14.2648 21.0714 -0.0802 -1.3261 1.2167 33.4787
#
#
#
# Elastic Compliance Matrix: (Units=1/GPa)
#
#
# Indices 1 2 3 4 5 6 
#
# 1 0.009405 -0.002352 -0.004688 -0.003813 0.006525 -0.002927
# 2 -0.002352 0.012684 -0.005742 -0.002274 -0.008379 -0.006780
# 3 -0.004688 -0.005742 0.029959 -0.006269 0.008990 0.005108
# 4 -0.003813 -0.002274 -0.006269 0.064906 -0.020548 0.006358
# 5 0.006525 -0.008379 0.008990 -0.020548 0.066046 -0.000699
# 6 -0.002927 -0.006780 0.005108 0.006358 -0.000699 0.035674
#
#
# Mechanical properties :
#
#
# Convention : Reuss Voigt Hill
#
# Bulk Modulus (GPa) = 37.75656 58.85295 48.30475
# Shear Modulus (GPa) = 19.75771 28.42586 24.09178
#
# Velocity S-wave (km/s) = 3.09234 3.70916 3.41471
# Velocity P-wave (km/s) = 5.56991 6.84311 6.23907
#
# Compressibility (1/GPa) = 0.02648546
#
# Stress axis : x y z
#
# Youngs Moduli (GPa) = 106.32115 78.84158 33.37853
#
# Poissons Ratio (x) = 0.18542 0.15646
# Poissons Ratio (y) = 0.25005 0.19167
# Poissons Ratio (z) = 0.49838 0.45272
#
# Static dielectric constant tensor:
#      x y z
#    x 4.621350 0.333530 -0.058100 
#    y 0.333530 3.555020 -0.110150 
#    z -0.058100 -0.110150 3.414090 
# 
# 
# High freq. dielectric constant tensor:
#      x y z
#    x 1.840710 0.017080 -0.007920 
#    y 0.017080 1.796500 -0.004030 
#    z -0.007920 -0.004030 1.760210 
# 
# From -- ./inp_files/514342.got.cif
#   From: 2010.06.25/outbox.cif.g09.slc.cpg/sg2_258_cif.got.tgz:514342.got - 2010.06.27 13:26:56.
