data_PCOD8002459
_publ_section_title
;
Structure prediction by ZEFSAII (Michael W. Deem and Ramdas Pophale) SiO2 
 PCOD8002459
Probable space group: P -1
;
_chemical_formula_sum "Si O2"
_cell_formula_units_Z 16
_cell_length_a 19.667922
_cell_length_b 17.302078
_cell_length_c 9.388445
_cell_angle_alpha 148.448702
_cell_angle_beta 35.495169
_cell_angle_gamma 150.669298
_cell_volume 786.642461
_symmetry_space_group_name_H-M "P -1"
_symmetry_group_IT_number 2
_symmetry_cell_setting 'triclinic'
loop_
_space_group_symop_operation_xyz
x,y,z
-x,-y,-z
loop_
_atom_site_type_symbol
_atom_site_label
_atom_site_fract_x
_atom_site_fract_y
_atom_site_fract_z
Si Si1 0.365379 0.005194 0.388704
Si Si2 0.662587 0.544540 0.615165
Si Si3 0.688863 0.234386 0.150368
Si Si4 0.070857 0.622175 0.791964
Si Si5 0.875822 0.244660 0.397390
Si Si6 0.943668 0.831271 0.436384
Si Si7 0.346922 0.330035 0.867278
Si Si8 0.047423 0.082771 0.893923
O O1 0.532661 0.089963 0.259909
O O2 0.342310 0.161448 0.667046
O O3 0.286683 0.888698 0.480143
O O4 0.290601 0.878911 0.178406
O O5 0.690453 0.390493 0.307810
O O6 0.772168 0.711977 0.585162
O O7 0.496665 0.470256 0.746094
O O8 0.679822 0.585924 0.819280
O O9 0.811197 0.320204 0.197237
O O10 0.143306 0.694195 0.627094
O O11 0.965627 0.404439 0.612665
O O12 0.976457 0.695151 0.105581
O O13 0.948301 0.138510 0.087926
O O14 0.000000 0.000000 0.500000
O O15 0.031345 0.923579 0.576948
O O16 0.213224 0.260363 0.880409
O O17 0.000000 0.000000 0.000000
#
# Coordination Sequence:
#
# PCOD8002459 Si02
#       8
#     2   2   2   2   2   2   2   2
#     4  10  20  38  61  89 118 154 198 254 295 359
#     4  10  21  38  60  90 119 152 197 248 294 356
#     4  10  22  38  62  90 118 153 204 246 304 352
#     4  11  25  39  58  87 124 163 197 252 302 358
#     4  11  23  40  59  87 126 159 203 247 301 358
#     4  12  24  41  61  88 126 157 196 252 307 355
#     4  10  20  35  62  91 116 150 199 247 295 345
#     4  12  21  38  66  93 115 159 206 248 295 358
#
# _framework density 20.33961
#
# number of rings (size 3 to 8) (size 9 to 14) (size 15 to 20)
#    0.000    1.250    3.750    2.250    0.000    1.500 
#    0.000    0.625    5.500    0.000    0.000    0.000 
#    0.000    0.000    0.000    0.000    0.000    0.000 
#
# Total GULP energy -198340.194738 kJ/mol
# GULP energy per Si atom -12396.262171 kJ/mol
# Density = 2.029332 g / cm^3
# Si number density = 20.339610 Si / 1000 Ang^3
#
#
#
# Elastic Constant Matrix: (Units=GPa)
#
#
# Indices 1 2 3 4 5 6 
#
# 1 49.2213 27.7805 4.4487 -13.3170 6.6112 7.4581
# 2 27.7805 148.3321 29.5330 -29.4603 4.4495 5.2176
# 3 4.4487 29.5330 76.9804 2.1648 6.5505 4.6850
# 4 -13.3170 -29.4603 2.1648 39.4849 5.2515 0.6807
# 5 6.6112 4.4495 6.5505 5.2515 26.5640 4.7068
# 6 7.4581 5.2176 4.6850 0.6807 4.7068 29.6397
#
#
#
# Elastic Compliance Matrix: (Units=1/GPa)
#
#
# Indices 1 2 3 4 5 6 
#
# 1 0.025624 -0.003042 0.000344 0.007305 -0.006492 -0.005103
# 2 -0.003042 0.009282 -0.003447 0.006243 -0.001131 -0.000287
# 3 0.000344 -0.003447 0.014654 -0.002930 -0.002301 -0.001363
# 4 0.007305 0.006243 -0.002930 0.033769 -0.008480 -0.001903
# 5 -0.006492 -0.001131 -0.002301 -0.008480 0.042465 -0.004352
# 6 -0.005103 -0.000287 -0.001363 -0.001903 -0.004352 0.036024
#
#
# Mechanical properties :
#
#
# Convention : Reuss Voigt Hill
#
# Bulk Modulus (GPa) = 26.83185 44.22869 35.53027
# Shear Modulus (GPa) = 26.80507 33.32250 30.06378
#
# Velocity S-wave (km/s) = 3.63419 4.05199 3.84877
# Velocity P-wave (km/s) = 5.55251 6.60937 6.10386
#
# Compressibility (1/GPa) = 0.03726915
#
# Stress axis : x y z
#
# Youngs Moduli (GPa) = 39.02577 107.73806 68.24080
#
# Poissons Ratio (x) = 0.32779 -0.02348
# Poissons Ratio (y) = 0.11873 0.23522
# Poissons Ratio (z) = -0.01343 0.37136
#
# Static dielectric constant tensor:
#      x y z
#    x 3.581420 0.324780 0.130380 
#    y 0.324780 4.117590 0.025540 
#    z 0.130380 0.025540 4.045130 
# 
# 
# High freq. dielectric constant tensor:
#      x y z
#    x 1.756450 0.013640 0.006910 
#    y 0.013640 1.810450 0.004980 
#    z 0.006910 0.004980 1.816600 
# 
# From -- ./inp_files/281631.got.cif
#   From: 2010.06.25/outbox.cif.g09.slc.cpg/sg2_141_cif.got.tgz:281631.got - 2010.06.27 13:26:56.
