data_PCOD8002176
_publ_section_title
;
Structure prediction by ZEFSAII (Michael W. Deem and Ramdas Pophale) SiO2 
 PCOD8002176
Probable space group: P -1
;
_chemical_formula_sum "Si O2"
_cell_formula_units_Z 14
_cell_length_a 15.640099
_cell_length_b 11.589560
_cell_length_c 14.767130
_cell_angle_alpha 30.843605
_cell_angle_beta 141.267096
_cell_angle_gamma 118.357402
_cell_volume 682.265317
_symmetry_space_group_name_H-M "P -1"
_symmetry_group_IT_number 2
_symmetry_cell_setting 'triclinic'
loop_
_space_group_symop_operation_xyz
x,y,z
-x,-y,-z
loop_
_atom_site_type_symbol
_atom_site_label
_atom_site_fract_x
_atom_site_fract_y
_atom_site_fract_z
Si Si1 0.195628 0.825166 0.639083
Si Si2 0.654853 0.036739 0.182257
Si Si3 0.804307 0.216476 0.052088
Si Si4 0.654862 0.653544 0.782314
Si Si5 0.651249 0.348757 0.476852
Si Si6 0.200403 0.587001 0.274806
Si Si7 0.200375 0.012225 0.326375
O O1 0.261586 0.830453 0.591216
O O2 0.213165 0.015551 0.595319
O O3 0.304119 0.504374 0.980714
O O4 0.999969 0.943515 0.391892
O O5 0.673056 0.752440 0.377519
O O6 0.695793 0.112706 0.068208
O O7 0.464490 0.312754 0.866896
O O8 0.786771 0.441959 0.955682
O O9 0.738367 0.353622 0.806392
O O10 0.464470 0.758297 0.526575
O O11 0.673083 0.901418 0.641686
O O12 0.772417 0.268345 0.717687
O O13 0.772423 0.186849 0.599519
O O14 0.000015 0.714086 0.018615
#
# Coordination Sequence:
#
# PCOD8002176 Si02
#       7
#     2   2   2   2   2   2   2
#     4   9  18  33  56  85 109 137 183 229 267 316
#     4  10  20  35  57  80 110 142 179 227 272 317
#     4   9  18  33  56  85 109 137 183 229 267 316
#     4  10  20  35  57  80 110 142 179 227 272 317
#     4  10  23  38  53  82 116 144 178 222 271 324
#     4  11  21  37  59  80 109 147 182 220 269 323
#     4  11  21  37  59  80 109 147 182 220 269 323
#
# _framework density 20.519876
#
# number of rings (size 3 to 8) (size 9 to 14) (size 15 to 20)
#    0.000    2.286    0.000    5.571    0.000    6.857 
#    0.000    7.143    0.000    5.143    0.000    0.000 
#    0.000    0.000    0.000    0.000    0.000    0.000 
#
# Total GULP energy -173588.567769 kJ/mol
# GULP energy per Si atom -12399.183412 kJ/mol
# Density = 2.047317 g / cm^3
# Si number density = 20.519876 Si / 1000 Ang^3
#
#
#
# Elastic Constant Matrix: (Units=GPa)
#
#
# Indices 1 2 3 4 5 6 
#
# 1 114.7290 59.3510 40.5275 -5.9594 -31.3543 -17.8025
# 2 59.3510 89.0887 33.0711 -1.2340 -20.4529 -14.1269
# 3 40.5275 33.0711 58.6861 -3.4382 -12.2287 -3.7984
# 4 -5.9594 -1.2340 -3.4382 18.3157 -1.1769 2.2201
# 5 -31.3543 -20.4529 -12.2287 -1.1769 31.4554 8.0469
# 6 -17.8025 -14.1269 -3.7984 2.2201 8.0469 24.8447
#
#
#
# Elastic Compliance Matrix: (Units=1/GPa)
#
#
# Indices 1 2 3 4 5 6 
#
# 1 0.018013 -0.006629 -0.006003 0.004408 0.010330 0.004481
# 2 -0.006629 0.018880 -0.005421 -0.002315 0.002293 0.004621
# 3 -0.006003 -0.005421 0.024374 0.002852 0.001172 -0.004292
# 4 0.004408 -0.002315 0.002852 0.057535 0.007504 -0.005294
# 5 0.010330 0.002293 0.001172 0.007504 0.046027 -0.006693
# 6 0.004481 0.004621 -0.004292 -0.005294 -0.006693 0.048073
#
#
# Mechanical properties :
#
#
# Convention : Reuss Voigt Hill
#
# Bulk Modulus (GPa) = 39.74285 58.71143 49.22714
# Shear Modulus (GPa) = 19.42534 23.56013 21.49274
#
# Velocity S-wave (km/s) = 3.08012 3.39213 3.23988
# Velocity P-wave (km/s) = 5.66212 6.63447 6.16748
#
# Compressibility (1/GPa) = 0.02516176
#
# Stress axis : x y z
#
# Youngs Moduli (GPa) = 55.51408 52.96568 41.02779
#
# Poissons Ratio (x) = 0.35110 0.24631
# Poissons Ratio (y) = 0.36800 0.22239
# Poissons Ratio (z) = 0.33327 0.28710
#
# Static dielectric constant tensor:
#      x y z
#    x 3.725180 -0.132150 -0.035450 
#    y -0.132150 3.548740 0.095830 
#    z -0.035450 0.095830 3.579010 
# 
# 
# High freq. dielectric constant tensor:
#      x y z
#    x 1.802030 -0.009460 0.001340 
#    y -0.009460 1.787980 0.009600 
#    z 0.001340 0.009600 1.794570 
# 
# From -- ./inp_files/262260.got.cif
#   From: 2010.06.25/outbox.cif.g09.slc.cpg/sg2_132_cif.got.tgz:262260.got - 2010.06.27 13:26:56.
