data_PCOD8002951
_publ_section_title
;
Structure prediction by ZEFSAII (Michael W. Deem and Ramdas Pophale) SiO2 
 PCOD8002951
Probable space group: P -1
;
_chemical_formula_sum "Si O2"
_cell_formula_units_Z 16
_cell_length_a 12.974973
_cell_length_b 5.122388
_cell_length_c 14.142734
_cell_angle_alpha 87.425186
_cell_angle_beta 50.104853
_cell_angle_gamma 98.670316
_cell_volume 700.382312
_symmetry_space_group_name_H-M "P -1"
_symmetry_group_IT_number 2
_symmetry_cell_setting 'triclinic'
loop_
_space_group_symop_operation_xyz
x,y,z
-x,-y,-z
loop_
_atom_site_type_symbol
_atom_site_label
_atom_site_fract_x
_atom_site_fract_y
_atom_site_fract_z
Si Si1 0.918180 0.023997 0.303021
Si Si2 0.698668 0.517667 0.145861
Si Si3 0.444045 0.334617 0.944071
Si Si4 0.741182 0.456606 0.715460
Si Si5 0.203023 0.550466 0.530473
Si Si6 0.787989 0.978806 0.806068
Si Si7 0.226329 0.967588 0.804025
Si Si8 0.506590 0.654819 0.397608
O O1 0.829866 0.731791 0.390421
O O2 0.893842 0.256107 0.383653
O O3 0.883183 0.092460 0.215457
O O4 0.079284 0.032038 0.210163
O O5 0.653804 0.517908 0.062709
O O6 0.781761 0.291488 0.121391
O O7 0.556496 0.472488 0.290657
O O8 0.801125 0.799560 0.113851
O O9 0.577503 0.298787 0.806426
O O10 0.500000 0.500000 0.000000
O O11 0.344079 0.055958 0.044683
O O12 0.814002 0.501497 0.570393
O O13 0.758663 0.746428 0.747827
O O14 0.817239 0.268962 0.734855
O O15 0.358810 0.708512 0.458977
O O16 0.380928 0.059472 0.666323
O O17 0.500000 0.500000 0.500000
#
# Coordination Sequence:
#
# PCOD8002951 Si02
#       8
#     2   2   2   2   2   2   2   2
#     4  12  25  42  59  96 129 181 202 253 320 396
#     4  10  22  38  63  96 125 159 212 267 320 371
#     4  10  23  45  71  96 125 163 219 276 321 363
#     4  11  23  44  66  98 119 166 214 280 318 369
#     4  12  24  37  68  90 134 163 216 259 324 383
#     4  11  26  43  66  87 132 168 219 257 322 379
#     4  10  22  38  61  88 137 158 212 255 312 383
#     4  10  20  36  60  93 125 163 201 260 312 370
#
# _framework density 22.844667999999999
#
# number of rings (size 3 to 8) (size 9 to 14) (size 15 to 20)
#    0.750    0.500    2.500    3.375    1.750   10.000 
#    0.000    1.250    0.000    0.000    0.000    0.000 
#    0.000    0.000    0.000    0.000    0.000    0.000 
#
# Total GULP energy -198353.590050 kJ/mol
# GULP energy per Si atom -12397.099378 kJ/mol
# Density = 2.279267 g / cm^3
# Si number density = 22.844668 Si / 1000 Ang^3
#
#
#
# Elastic Constant Matrix: (Units=GPa)
#
#
# Indices 1 2 3 4 5 6 
#
# 1 121.0999 16.0230 25.4020 -0.2313 15.5962 -3.8828
# 2 16.0230 111.0831 10.6377 -4.9392 10.5874 -11.0803
# 3 25.4020 10.6377 34.4558 1.7483 13.1467 6.2845
# 4 -0.2313 -4.9392 1.7483 19.2373 -5.5376 5.2443
# 5 15.5962 10.5874 13.1467 -5.5376 41.5531 -2.9362
# 6 -3.8828 -11.0803 6.2845 5.2443 -2.9362 33.8416
#
#
#
# Elastic Compliance Matrix: (Units=1/GPa)
#
#
# Indices 1 2 3 4 5 6 
#
# 1 0.010061 -0.000426 -0.007203 -0.000324 -0.001270 0.002293
# 2 -0.000426 0.009860 -0.003085 0.001609 -0.000920 0.003423
# 3 -0.007203 -0.003085 0.041524 -0.005181 -0.011024 -0.009701
# 4 -0.000324 0.001609 -0.005181 0.057124 0.008493 -0.006664
# 5 -0.001270 -0.000920 -0.011024 0.008493 0.029598 0.002852
# 6 0.002293 0.003423 -0.009701 -0.006664 0.002852 0.034015
#
#
# Mechanical properties :
#
#
# Convention : Reuss Voigt Hill
#
# Bulk Modulus (GPa) = 24.98944 41.19603 33.09273
# Shear Modulus (GPa) = 23.04690 33.23146 28.13918
#
# Velocity S-wave (km/s) = 3.17969 3.81815 3.51345
# Velocity P-wave (km/s) = 4.94400 6.12454 5.56566
#
# Compressibility (1/GPa) = 0.04001691
#
# Stress axis : x y z
#
# Youngs Moduli (GPa) = 99.38949 101.42173 24.08248
#
# Poissons Ratio (x) = 0.04323 0.17347
# Poissons Ratio (y) = 0.04236 0.07429
# Poissons Ratio (z) = 0.71592 0.31287
#
# Static dielectric constant tensor:
#      x y z
#    x 4.254080 0.030200 -0.058560 
#    y 0.030200 3.845810 -0.071790 
#    z -0.058560 -0.071790 4.220510 
# 
# 
# High freq. dielectric constant tensor:
#      x y z
#    x 1.911700 -0.004550 0.008710 
#    y -0.004550 1.885570 -0.006770 
#    z 0.008710 -0.006770 1.892690 
# 
# From -- ./inp_files/510805.got.cif
#   From: 2010.06.25/outbox.cif.g09.slc.cpg/sg2_256_cif.got.tgz:510805.got - 2010.06.27 13:26:56.
