data_PCOD8002048
_publ_section_title
;
Structure prediction by ZEFSAII (Michael W. Deem and Ramdas Pophale) SiO2 
 PCOD8002048
Probable space group: P -1
;
_chemical_formula_sum "Si O2"
_cell_formula_units_Z 12
_cell_length_a 5.159069
_cell_length_b 10.696171
_cell_length_c 9.576631
_cell_angle_alpha 76.268979
_cell_angle_beta 82.193056
_cell_angle_gamma 62.248737
_cell_volume 454.112712
_symmetry_space_group_name_H-M "P -1"
_symmetry_group_IT_number 2
_symmetry_cell_setting 'triclinic'
loop_
_space_group_symop_operation_xyz
x,y,z
-x,-y,-z
loop_
_atom_site_type_symbol
_atom_site_label
_atom_site_fract_x
_atom_site_fract_y
_atom_site_fract_z
Si Si1 0.804455 0.376028 0.559677
Si Si2 0.656840 0.767151 0.912940
Si Si3 0.699347 0.149955 0.492015
Si Si4 0.265640 0.046520 0.687605
Si Si5 0.246599 0.403070 0.308277
Si Si6 0.925845 0.165007 0.939781
O O1 0.500000 0.500000 0.500000
O O2 0.839256 0.211287 0.588032
O O3 0.819139 0.428999 0.706082
O O4 0.050092 0.374802 0.442162
O O5 0.811964 0.625533 0.839856
O O6 0.494769 0.909752 0.792557
O O7 0.425435 0.744865 0.037074
O O8 0.908762 0.781037 0.977105
O O9 0.440986 0.121807 0.581559
O O10 0.575526 0.285134 0.356892
O O11 0.889847 0.013033 0.406700
O O12 0.033757 0.170298 0.773455
O O13 0.000000 0.000000 0.000000
#
# Coordination Sequence:
#
# PCOD8002048 Si02
#       6
#     2   2   2   2   2   2
#     4   9  18  33  54  76 103 135 177 228 272 314
#     4  10  21  35  57  79 110 143 184 220 260 316
#     4   9  18  34  51  80 110 140 169 221 275 321
#     4   9  18  34  51  80 113 139 176 212 270 326
#     4   9  19  33  54  82  99 137 183 224 269 316
#     4  10  20  35  53  79 109 150 181 216 256 318
#
# _framework density 26.425156000000001
#
# number of rings (size 3 to 8) (size 9 to 14) (size 15 to 20)
#    0.000    2.667    0.000    2.000    9.333    0.000 
#    9.000    2.500    0.000    2.000    0.000    0.000 
#    0.000    0.000    0.000    0.000    0.000    0.000 
#
# Total GULP energy -148668.044694 kJ/mol
# GULP energy per Si atom -12389.003724 kJ/mol
# Density = 2.636501 g / cm^3
# Si number density = 26.425156 Si / 1000 Ang^3
#
#
#
# Elastic Constant Matrix: (Units=GPa)
#
#
# Indices 1 2 3 4 5 6 
#
# 1 113.8499 57.4875 45.8639 40.5177 19.9435 36.4960
# 2 57.4875 196.4011 57.6114 67.0622 6.2276 21.5398
# 3 45.8639 57.6114 129.2816 61.3581 12.7658 20.9474
# 4 40.5177 67.0622 61.3581 57.0417 -3.2076 16.5035
# 5 19.9435 6.2276 12.7658 -3.2076 45.3403 10.9966
# 6 36.4960 21.5398 20.9474 16.5035 10.9966 44.7517
#
#
#
# Elastic Compliance Matrix: (Units=1/GPa)
#
#
# Indices 1 2 3 4 5 6 
#
# 1 0.015661 -0.000510 0.001241 -0.009876 -0.005924 -0.008010
# 2 -0.000510 0.009140 0.002840 -0.013738 -0.002917 0.000470
# 3 0.001241 0.002840 0.018422 -0.024461 -0.007840 -0.000055
# 4 -0.009876 -0.013738 -0.024461 0.069265 0.019013 -0.004099
# 5 -0.005924 -0.002917 -0.007840 0.019013 0.029682 -0.004400
# 6 -0.008010 0.000470 -0.000055 -0.004099 -0.004400 0.031270
#
#
# Mechanical properties :
#
#
# Convention : Reuss Voigt Hill
#
# Bulk Modulus (GPa) = 19.85489 84.60647 52.23068
# Shear Modulus (GPa) = 27.30991 47.99808 37.65400
#
# Velocity S-wave (km/s) = 3.21827 4.26652 3.77892
# Velocity P-wave (km/s) = 4.61948 7.50719 6.23288
#
# Compressibility (1/GPa) = 0.05036542
#
# Stress axis : x y z
#
# Youngs Moduli (GPa) = 63.85330 109.41414 54.28385
#
# Poissons Ratio (x) = 0.05576 -0.06738
# Poissons Ratio (y) = 0.03254 -0.15417
# Poissons Ratio (z) = -0.07926 -0.31073
#
# Static dielectric constant tensor:
#      x y z
#    x 4.663150 0.620790 0.243610 
#    y 0.620790 5.032620 0.770810 
#    z 0.243610 0.770810 5.605490 
# 
# 
# High freq. dielectric constant tensor:
#      x y z
#    x 2.065220 -0.005120 0.023550 
#    y -0.005120 2.094880 0.032050 
#    z 0.023550 0.032050 2.064680 
# 
# From -- ./inp_files/64782.got.cif
#   From: 2010.06.25/outbox.cif.g09.slc.cpg/sg2_33_cif.got.tgz:64782.got - 2010.06.27 13:26:56.
