data_PCOD8002222
_publ_section_title
;
Structure prediction by ZEFSAII (Michael W. Deem and Ramdas Pophale) SiO2 
 PCOD8002222
Probable space group: P -1
;
_chemical_formula_sum "Si O2"
_cell_formula_units_Z 16
_cell_length_a 7.595060
_cell_length_b 25.107232
_cell_length_c 11.108652
_cell_angle_alpha 151.984159
_cell_angle_beta 62.287815
_cell_angle_gamma 110.985722
_cell_volume 873.853042
_symmetry_space_group_name_H-M "P -1"
_symmetry_group_IT_number 2
_symmetry_cell_setting 'triclinic'
loop_
_space_group_symop_operation_xyz
x,y,z
-x,-y,-z
loop_
_atom_site_type_symbol
_atom_site_label
_atom_site_fract_x
_atom_site_fract_y
_atom_site_fract_z
Si Si1 0.155541 0.904848 0.200044
Si Si2 0.394895 0.120708 0.979102
Si Si3 0.975444 0.500922 0.310415
Si Si4 0.841765 0.355064 0.270847
Si Si5 0.862059 0.594269 0.160807
Si Si6 0.387675 0.378687 0.485298
Si Si7 0.006915 0.047008 0.905208
Si Si8 0.082310 0.156373 0.332509
O O1 0.377761 0.938739 0.219639
O O2 0.123857 0.900126 0.058112
O O3 0.133432 0.781737 0.016837
O O4 0.000000 0.000000 0.500000
O O5 0.245891 0.049586 0.807264
O O6 0.375981 0.249045 0.188427
O O7 0.315046 0.126159 0.154715
O O8 0.943492 0.399568 0.209435
O O9 0.769968 0.539341 0.380305
O O10 0.047470 0.607396 0.570041
O O11 0.152413 0.449886 0.059778
O O12 0.609920 0.410759 0.458370
O O13 0.655205 0.611574 0.336913
O O14 0.966638 0.710617 0.355384
O O15 0.000000 0.500000 0.000000
O O16 0.944688 0.124266 0.198406
O O17 0.964179 0.916965 0.682455
#
# Coordination Sequence:
#
# PCOD8002222 Si02
#       8
#     2   2   2   2   2   2   2   2
#     4  11  23  34  54  79 108 144 181 217 260 319
#     4   8  17  35  54  81 103 139 176 213 271 317
#     4  10  20  35  58  76 111 142 173 227 263 314
#     4  10  22  36  54  79 107 147 181 207 276 322
#     4   9  18  31  59  82 104 136 177 223 266 307
#     4   9  17  35  57  81 104 138 181 220 264 321
#     4   9  18  35  58  73 108 138 174 220 265 316
#     4   8  17  35  57  80 103 138 175 216 275 312
#
# _framework density 18.309712999999999
#
# number of rings (size 3 to 8) (size 9 to 14) (size 15 to 20)
#    0.750    2.000    0.000    1.125    3.500    1.500 
#    0.000    0.000   11.000    0.000    0.000    0.000 
#    0.000    0.000    0.000    0.000    0.000    0.000 
#
# Total GULP energy -198237.917853 kJ/mol
# GULP energy per Si atom -12389.869866 kJ/mol
# Density = 1.826804 g / cm^3
# Si number density = 18.309713 Si / 1000 Ang^3
#
#
#
# Elastic Constant Matrix: (Units=GPa)
#
#
# Indices 1 2 3 4 5 6 
#
# 1 59.4297 21.9541 20.2554 5.3261 -4.2796 -0.4195
# 2 21.9541 78.6934 30.0297 5.8471 6.7985 -2.1962
# 3 20.2554 30.0297 85.2949 3.4983 -2.9468 1.2774
# 4 5.3261 5.8471 3.4983 27.1191 -0.7286 6.5140
# 5 -4.2796 6.7985 -2.9468 -0.7286 18.5340 0.9402
# 6 -0.4195 -2.1962 1.2774 6.5140 0.9402 26.9536
#
#
#
# Elastic Compliance Matrix: (Units=1/GPa)
#
#
# Indices 1 2 3 4 5 6 
#
# 1 0.020236 -0.004895 -0.002782 -0.002509 0.005905 0.000448
# 2 -0.004895 0.017007 -0.005035 -0.002892 -0.008412 0.002541
# 3 -0.002782 -0.005035 0.014292 0.000197 0.003551 -0.001302
# 4 -0.002509 -0.002892 0.000197 0.040475 0.002619 -0.010157
# 5 0.005905 -0.008412 0.003551 0.002619 0.059247 -0.003461
# 6 0.000448 0.002541 -0.001302 -0.010157 -0.003461 0.039952
#
#
# Mechanical properties :
#
#
# Convention : Reuss Voigt Hill
#
# Bulk Modulus (GPa) = 38.29915 40.87740 39.58828
# Shear Modulus (GPa) = 22.18892 24.59994 23.39443
#
# Velocity S-wave (km/s) = 3.48496 3.66942 3.57838
# Velocity P-wave (km/s) = 6.09558 6.35034 6.22426
#
# Compressibility (1/GPa) = 0.02611024
#
# Stress axis : x y z
#
# Youngs Moduli (GPa) = 49.41603 58.79859 69.97135
#
# Poissons Ratio (x) = 0.28783 0.19466
# Poissons Ratio (y) = 0.24190 0.35233
# Poissons Ratio (z) = 0.13748 0.29607
#
# Static dielectric constant tensor:
#      x y z
#    x 3.214250 0.101920 0.093170 
#    y 0.101920 3.515560 -0.090400 
#    z 0.093170 -0.090400 3.316080 
# 
# 
# High freq. dielectric constant tensor:
#      x y z
#    x 1.686530 0.007120 0.006700 
#    y 0.007120 1.717980 0.008170 
#    z 0.006700 0.008170 1.695500 
# 
# From -- ./inp_files/406014.got.cif
#   From: 2010.06.25/outbox.cif.g09.slc.cpg/sg2_204_cif.got.tgz:406014.got - 2010.06.27 13:26:56.
