data_PCOD8002696
_publ_section_title
;
Structure prediction by ZEFSAII (Michael W. Deem and Ramdas Pophale) SiO2 
 PCOD8002696
Probable space group: P -1
;
_chemical_formula_sum "Si O2"
_cell_formula_units_Z 10
_cell_length_a 7.868942
_cell_length_b 11.066657
_cell_length_c 8.108441
_cell_angle_alpha 107.874799
_cell_angle_beta 92.333643
_cell_angle_gamma 47.061340
_cell_volume 477.395251
_symmetry_space_group_name_H-M "P -1"
_symmetry_group_IT_number 2
_symmetry_cell_setting 'triclinic'
loop_
_space_group_symop_operation_xyz
x,y,z
-x,-y,-z
loop_
_atom_site_type_symbol
_atom_site_label
_atom_site_fract_x
_atom_site_fract_y
_atom_site_fract_z
Si Si1 0.001172 0.056127 0.281481
Si Si2 0.242095 0.257905 0.742094
Si Si3 0.267065 0.464538 0.065278
Si Si4 0.666322 0.065280 0.464538
Si Si5 0.224180 0.718518 0.943871
O O1 0.936323 0.185906 0.185907
O O2 0.168094 0.041608 0.411146
O O3 0.755853 0.138202 0.393643
O O4 0.140478 0.859520 0.140478
O O5 0.311100 0.300426 0.927003
O O6 0.315480 0.072995 0.699572
O O7 0.392051 0.232274 0.580374
O O8 0.956050 0.419626 0.767728
O O9 0.201439 0.588855 0.958390
O O10 0.500410 0.393647 0.138203
#
# Coordination Sequence:
#
# PCOD8002696 Si02
#       5
#     2   2   2   2   2
#     4  10  20  37  60  83 108 149 191 222 268 336
#     4  10  20  36  58  80 118 146 180 220 296 316
#     4  10  20  38  58  84 110 150 178 236 268 334
#     4  10  20  38  58  84 110 150 178 236 268 334
#     4  10  20  37  60  83 108 149 191 222 268 336
#
# _framework density 20.947004
#
# number of rings (size 3 to 8) (size 9 to 14) (size 15 to 20)
#    0.000    2.000    4.000    0.000    0.000    0.000 
#    0.000   16.000    0.000    0.000    0.000    0.000 
#    0.000    0.000    0.000    0.000    0.000    0.000 
#
# Total GULP energy -123985.076849 kJ/mol
# GULP energy per Si atom -12398.507685 kJ/mol
# Density = 2.089933 g / cm^3
# Si number density = 20.947004 Si / 1000 Ang^3
#
#
#
# Elastic Constant Matrix: (Units=GPa)
#
#
# Indices 1 2 3 4 5 6 
#
# 1 104.7902 24.7672 38.6260 9.5190 -16.8246 -9.0435
# 2 24.7672 68.2974 30.8864 -5.5203 3.6685 0.1791
# 3 38.6260 30.8864 91.4618 21.2620 -11.5593 -4.0865
# 4 9.5190 -5.5203 21.2620 32.7146 -9.0467 -6.1993
# 5 -16.8246 3.6685 -11.5593 -9.0467 38.5100 13.9841
# 6 -9.0435 0.1791 -4.0865 -6.1993 13.9841 18.2371
#
#
#
# Elastic Compliance Matrix: (Units=1/GPa)
#
#
# Indices 1 2 3 4 5 6 
#
# 1 0.012423 -0.003148 -0.003520 -0.000373 0.003696 0.002441
# 2 -0.003148 0.020413 -0.008097 0.008888 -0.004796 0.003123
# 3 -0.003520 -0.008097 0.018193 -0.012034 0.003433 -0.004313
# 4 -0.000373 0.008888 -0.012034 0.042379 0.001636 0.010182
# 5 0.003696 -0.004796 0.003433 0.001636 0.039207 -0.026858
# 6 0.002441 0.003123 -0.004313 0.010182 -0.026858 0.079102
#
#
# Mechanical properties :
#
#
# Convention : Reuss Voigt Hill
#
# Bulk Modulus (GPa) = 46.51466 50.34539 48.43003
# Shear Modulus (GPa) = 20.12779 29.24368 24.68574
#
# Velocity S-wave (km/s) = 3.10319 3.74047 3.43663
# Velocity P-wave (km/s) = 5.92400 6.53771 6.23841
#
# Compressibility (1/GPa) = 0.02149860
#
# Stress axis : x y z
#
# Youngs Moduli (GPa) = 80.49898 48.98856 54.96574
#
# Poissons Ratio (x) = 0.15422 0.19349
# Poissons Ratio (y) = 0.25341 0.44505
# Poissons Ratio (z) = 0.28337 0.39665
#
# Static dielectric constant tensor:
#      x y z
#    x 3.977610 -0.111860 -0.207400 
#    y -0.111860 3.335390 0.331940 
#    z -0.207400 0.331940 3.824670 
# 
# 
# High freq. dielectric constant tensor:
#      x y z
#    x 1.839110 -0.006370 -0.011140 
#    y -0.006370 1.772520 0.030080 
#    z -0.011140 0.030080 1.817030 
# 
# From -- ./inp_files/144320.got.cif
#   From: 2010.06.25/outbox.cif.g09.slc.cpg/sg2_73_cif.got.tgz:144320.got - 2010.06.27 13:26:56.
