data_PCOD8002001
_publ_section_title
;
Structure prediction by ZEFSAII (Michael W. Deem and Ramdas Pophale) SiO2 
 PCOD8002001
Probable space group: P -1
;
_chemical_formula_sum "Si O2"
_cell_formula_units_Z 16
_cell_length_a 8.559149
_cell_length_b 13.326134
_cell_length_c 13.075678
_cell_angle_alpha 120.227539
_cell_angle_beta 145.850097
_cell_angle_gamma 64.367531
_cell_volume 722.994947
_symmetry_space_group_name_H-M "P -1"
_symmetry_group_IT_number 2
_symmetry_cell_setting 'triclinic'
loop_
_space_group_symop_operation_xyz
x,y,z
-x,-y,-z
loop_
_atom_site_type_symbol
_atom_site_label
_atom_site_fract_x
_atom_site_fract_y
_atom_site_fract_z
Si Si1 0.608417 0.564178 0.367472
Si Si2 0.724747 0.645545 0.130733
Si Si3 0.189842 0.763417 0.173494
Si Si4 0.148250 0.546885 0.755169
Si Si5 0.470004 0.136090 0.778406
Si Si6 0.330088 0.896800 0.902665
Si Si7 0.648310 0.673882 0.882268
Si Si8 0.776373 0.007722 0.589849
O O1 0.380678 0.665667 0.281786
O O2 0.744612 0.540470 0.319614
O O3 0.491497 0.444638 0.290549
O O4 0.850817 0.607682 0.597261
O O5 0.888411 0.534053 0.207312
O O6 0.771983 0.765380 0.277682
O O7 0.383583 0.639491 0.950353
O O8 0.819827 0.647721 0.066501
O O9 0.317505 0.817695 0.168604
O O10 0.123303 0.860774 0.275533
O O11 0.888825 0.712099 0.953242
O O12 0.301492 0.026939 0.586822
O O13 0.628337 0.101639 0.951215
O O14 0.417722 0.775103 0.833265
O O15 0.004836 0.916670 0.712773
O O16 0.500000 0.000000 0.000000
O O17 0.500000 0.000000 0.500000
#
# Coordination Sequence:
#
# PCOD8002001 Si02
#       8
#     2   2   2   2   2   2   2   2
#     4  10  20  34  63  90 123 164 209 256 318 376
#     4   9  18  36  59  87 120 157 213 259 312 379
#     4  11  21  41  59  93 132 170 204 262 319 381
#     4   9  18  34  59  90 116 162 211 259 308 375
#     4  10  23  40  71  91 124 175 210 262 327 374
#     4  11  23  46  68  97 126 164 220 270 316 383
#     4  10  22  38  63  90 127 166 206 266 316 373
#     4  10  24  41  66  94 132 165 218 263 313 379
#
# _framework density 22.130168999999999
#
# number of rings (size 3 to 8) (size 9 to 14) (size 15 to 20)
#    0.000    2.000    2.500    0.375    1.750    7.500 
#    0.000    0.625    2.750    0.000    0.000    0.000 
#    0.000    0.000    0.000    0.000    0.000    0.000 
#
# Total GULP energy -198281.343556 kJ/mol
# GULP energy per Si atom -12392.583972 kJ/mol
# Density = 2.207980 g / cm^3
# Si number density = 22.130169 Si / 1000 Ang^3
#
#
#
# Elastic Constant Matrix: (Units=GPa)
#
#
# Indices 1 2 3 4 5 6 
#
# 1 53.3973 19.3980 23.2518 -6.5952 -0.6290 11.3199
# 2 19.3980 109.1919 39.0740 -16.4706 -1.9803 4.1557
# 3 23.2518 39.0740 102.8202 -20.8790 -1.6537 -2.3841
# 4 -6.5952 -16.4706 -20.8790 38.8697 -6.3710 4.9000
# 5 -0.6290 -1.9803 -1.6537 -6.3710 27.8784 5.5012
# 6 11.3199 4.1557 -2.3841 4.9000 5.5012 26.5571
#
#
#
# Elastic Compliance Matrix: (Units=1/GPa)
#
#
# Indices 1 2 3 4 5 6 
#
# 1 0.024152 -0.001769 -0.004408 0.002956 0.003123 -0.011606
# 2 -0.001769 0.011244 -0.003225 0.003309 0.001772 -0.002273
# 3 -0.004408 -0.003225 0.012980 0.004716 0.001033 0.002465
# 4 0.002956 0.003309 0.004716 0.033002 0.010001 -0.009515
# 5 0.003123 0.001772 0.001033 0.010001 0.040742 -0.011801
# 6 -0.011606 -0.002273 0.002465 -0.009515 -0.011801 0.047379
#
#
# Mechanical properties :
#
#
# Convention : Reuss Voigt Hill
#
# Bulk Modulus (GPa) = 33.81695 47.65078 40.73386
# Shear Modulus (GPa) = 25.23198 30.90673 28.06936
#
# Velocity S-wave (km/s) = 3.38029 3.74115 3.56529
# Velocity P-wave (km/s) = 5.52714 6.34353 5.94936
#
# Compressibility (1/GPa) = 0.02957097
#
# Stress axis : x y z
#
# Youngs Moduli (GPa) = 41.40453 88.93321 77.04337
#
# Poissons Ratio (x) = 0.15732 0.33962
# Poissons Ratio (y) = 0.07324 0.24849
# Poissons Ratio (z) = 0.18252 0.28684
#
# Static dielectric constant tensor:
#      x y z
#    x 3.864170 0.067200 -0.126000 
#    y 0.067200 4.569750 0.360340 
#    z -0.126000 0.360340 4.286470 
# 
# 
# High freq. dielectric constant tensor:
#      x y z
#    x 1.853920 0.002120 0.002310 
#    y 0.002120 1.876960 0.007640 
#    z 0.002310 0.007640 1.862070 
# 
# From -- ./inp_files/504224.got.cif
#   From: 2010.06.25/outbox.cif.g09.slc.cpg/sg2_253_cif.got.tgz:504224.got - 2010.06.27 13:26:56.
