data_PCOD8002326
_publ_section_title
;
Structure prediction by ZEFSAII (Michael W. Deem and Ramdas Pophale) SiO2 
 PCOD8002326
Probable space group: P -1
;
_chemical_formula_sum "Si O2"
_cell_formula_units_Z 16
_cell_length_a 5.246478
_cell_length_b 8.737370
_cell_length_c 29.775408
_cell_angle_alpha 33.396752
_cell_angle_beta 76.838473
_cell_angle_gamma 82.125579
_cell_volume 727.962305
_symmetry_space_group_name_H-M "P -1"
_symmetry_group_IT_number 2
_symmetry_cell_setting 'triclinic'
loop_
_space_group_symop_operation_xyz
x,y,z
-x,-y,-z
loop_
_atom_site_type_symbol
_atom_site_label
_atom_site_fract_x
_atom_site_fract_y
_atom_site_fract_z
Si Si1 0.532184 0.452066 0.386027
Si Si2 0.159285 0.186438 0.339004
Si Si3 0.094782 0.679514 0.288605
Si Si4 0.634598 0.739975 0.871328
Si Si5 0.401511 0.438389 0.180699
Si Si6 0.935032 0.804821 0.091902
Si Si7 0.592659 0.966026 0.434640
Si Si8 0.804301 0.279613 0.037344
O O1 0.304902 0.614852 0.333807
O O2 0.600552 0.190012 0.418740
O O3 0.805387 0.647617 0.329753
O O4 0.440749 0.342822 0.466066
O O5 0.130443 0.484492 0.291386
O O6 0.301364 0.224051 0.276103
O O7 0.342200 0.995690 0.406174
O O8 0.872127 0.017214 0.385005
O O9 0.134811 0.008068 0.194161
O O10 0.529893 0.719035 0.829322
O O11 0.418077 0.829668 0.892150
O O12 0.710343 0.434656 0.958410
O O13 0.654248 0.630008 0.140573
O O14 0.159917 0.609027 0.137439
O O15 0.934674 0.002293 0.087013
O O16 0.000000 0.000000 0.000000
O O17 0.000000 0.500000 0.000000
#
# Coordination Sequence:
#
# PCOD8002326 Si02
#       8
#     2   2   2   2   2   2   2   2
#     4   9  18  33  59  89 120 156 200 252 308 359
#     4  10  20  35  59  89 121 159 203 254 307 359
#     4  10  21  35  58  90 121 158 202 256 307 364
#     4  11  26  42  62  92 128 165 213 260 318 372
#     4  12  26  43  65  93 127 171 211 260 311 374
#     4  12  25  44  67  90 125 164 217 260 310 373
#     4   9  17  34  58  89 121 154 202 253 302 365
#     4  11  26  43  67  91 123 169 211 267 315 369
#
# _framework density 21.979161999999999
#
# number of rings (size 3 to 8) (size 9 to 14) (size 15 to 20)
#    0.000    1.500    1.250    3.375    7.000    4.000 
#    0.000    0.000    0.000    4.500    0.000    0.000 
#    0.000    0.000    0.000    0.000    0.000    0.000 
#
# Total GULP energy -198382.702158 kJ/mol
# GULP energy per Si atom -12398.918885 kJ/mol
# Density = 2.192914 g / cm^3
# Si number density = 21.979162 Si / 1000 Ang^3
#
#
#
# Elastic Constant Matrix: (Units=GPa)
#
#
# Indices 1 2 3 4 5 6 
#
# 1 120.6856 11.8132 29.2744 2.0980 -25.5877 -1.6528
# 2 11.8132 69.7539 37.9001 9.8180 -2.9681 10.5721
# 3 29.2744 37.9001 117.3079 25.6990 -28.3915 -6.3486
# 4 2.0980 9.8180 25.6990 29.6264 0.4901 -0.3711
# 5 -25.5877 -2.9681 -28.3915 0.4901 40.6659 -1.8836
# 6 -1.6528 10.5721 -6.3486 -0.3711 -1.8836 21.8557
#
#
#
# Elastic Compliance Matrix: (Units=1/GPa)
#
#
# Indices 1 2 3 4 5 6 
#
# 1 0.009799 -0.001417 -0.000530 0.000162 0.005772 0.001773
# 2 -0.001417 0.021018 -0.008794 0.000698 -0.006124 -0.013345
# 3 -0.000530 -0.008794 0.017678 -0.012454 0.011988 0.010171
# 4 0.000162 0.000698 -0.012454 0.044417 -0.009262 -0.003987
# 5 0.005772 -0.006124 0.011988 -0.009262 0.036715 0.009888
# 6 0.001773 -0.013345 0.010171 -0.003987 0.009888 0.056083
#
#
# Mechanical properties :
#
#
# Convention : Reuss Voigt Hill
#
# Bulk Modulus (GPa) = 37.02042 51.74697 44.38369
# Shear Modulus (GPa) = 23.12713 33.68025 28.40369
#
# Velocity S-wave (km/s) = 3.24733 3.91880 3.59876
# Velocity P-wave (km/s) = 5.56239 6.63858 6.12417
#
# Compressibility (1/GPa) = 0.02701212
#
# Stress axis : x y z
#
# Youngs Moduli (GPa) = 102.05597 47.57805 56.56698
#
# Poissons Ratio (x) = 0.06744 0.02997
# Poissons Ratio (y) = 0.14466 0.49745
# Poissons Ratio (z) = 0.05407 0.41840
#
# Static dielectric constant tensor:
#      x y z
#    x 3.896950 0.176100 0.201950 
#    y 0.176100 4.790040 0.577770 
#    z 0.201950 0.577770 4.383530 
# 
# 
# High freq. dielectric constant tensor:
#      x y z
#    x 1.871920 -0.001320 -0.007800 
#    y -0.001320 1.840490 0.014010 
#    z -0.007800 0.014010 1.877160 
# 
# From -- ./inp_files/90118.got.cif
#   From: 2010.06.25/outbox.cif.g09.slc.cpg/sg2_46_cif.got.tgz:90118.got - 2010.06.27 13:26:56.
