data_PCOD8002975
_publ_section_title
;
Structure prediction by ZEFSAII (Michael W. Deem and Ramdas Pophale) SiO2 
 PCOD8002975
Probable space group: P -1
;
_chemical_formula_sum "Si O2"
_cell_formula_units_Z 14
_cell_length_a 12.478237
_cell_length_b 7.901484
_cell_length_c 9.217828
_cell_angle_alpha 49.335242
_cell_angle_beta 102.403315
_cell_angle_gamma 88.120615
_cell_volume 654.738040
_symmetry_space_group_name_H-M "P -1"
_symmetry_group_IT_number 2
_symmetry_cell_setting 'triclinic'
loop_
_space_group_symop_operation_xyz
x,y,z
-x,-y,-z
loop_
_atom_site_type_symbol
_atom_site_label
_atom_site_fract_x
_atom_site_fract_y
_atom_site_fract_z
Si Si1 0.965925 0.301626 0.191142
Si Si2 0.366694 0.572642 0.402960
Si Si3 0.807080 0.593254 0.373658
Si Si4 0.396869 0.364672 0.234933
Si Si5 0.990981 0.801981 0.410596
Si Si6 0.351000 0.889217 0.469883
Si Si7 0.732194 0.422908 0.173158
O O1 0.830661 0.353785 0.123146
O O2 0.012539 0.289852 0.374766
O O3 0.011166 0.057040 0.263177
O O4 0.000000 0.500000 0.000000
O O5 0.500000 0.500000 0.500000
O O6 0.299196 0.399233 0.554805
O O7 0.344367 0.558999 0.231607
O O8 0.327867 0.819812 0.334970
O O9 0.868753 0.799300 0.306948
O O10 0.756896 0.615894 0.182932
O O11 0.904759 0.358697 0.555215
O O12 0.525862 0.250378 0.366554
O O13 0.329339 0.161258 0.327408
O O14 0.381707 0.481253 0.006127
O O15 0.268085 0.802320 0.605043
#
# Coordination Sequence:
#
# PCOD8002975 Si02
#       7
#     2   2   2   2   2   2   2
#     4  10  22  36  57  88 113 147 202 243 291 354
#     4   9  19  35  58  88 116 149 195 238 286 355
#     4   9  19  38  60  82 118 159 193 239 303 347
#     4  10  20  36  61  84 116 154 194 240 285 348
#     4   9  20  40  59  79 117 160 189 243 299 349
#     4   9  20  39  57  83 118 158 190 231 300 345
#     4  10  21  36  56  87 114 148 191 244 288 343
#
# _framework density 21.382598000000002
#
# number of rings (size 3 to 8) (size 9 to 14) (size 15 to 20)
#    0.000    2.571    0.000    0.429    4.000    3.429 
#    2.571    6.429    0.000    9.429    0.000    0.000 
#    0.000    0.000    0.000    0.000    0.000    0.000 
#
# Total GULP energy -173466.199588 kJ/mol
# GULP energy per Si atom -12390.442828 kJ/mol
# Density = 2.133393 g / cm^3
# Si number density = 21.382598 Si / 1000 Ang^3
#
#
#
# Elastic Constant Matrix: (Units=GPa)
#
#
# Indices 1 2 3 4 5 6 
#
# 1 92.0785 26.4965 16.8376 2.4389 -18.1789 3.7207
# 2 26.4965 110.2014 39.9057 8.8055 -5.1119 17.1616
# 3 16.8376 39.9057 75.0355 5.7499 -5.7538 8.0970
# 4 2.4389 8.8055 5.7499 31.6748 12.1558 0.4951
# 5 -18.1789 -5.1119 -5.7538 12.1558 28.3156 2.5291
# 6 3.7207 17.1616 8.0970 0.4951 2.5291 29.1593
#
#
#
# Elastic Compliance Matrix: (Units=1/GPa)
#
#
# Indices 1 2 3 4 5 6 
#
# 1 0.013771 -0.002034 -0.000769 -0.004273 0.010256 -0.001163
# 2 -0.002034 0.012716 -0.005316 -0.002978 0.001710 -0.005846
# 3 -0.000769 -0.005316 0.016987 -0.002808 0.003359 -0.001734
# 4 -0.004273 -0.002978 -0.002808 0.041659 -0.022119 0.004289
# 5 0.010256 0.001710 0.003359 -0.022119 0.053055 -0.007474
# 6 -0.001163 -0.005846 -0.001734 0.004289 -0.007474 0.038940
#
#
# Mechanical properties :
#
#
# Convention : Reuss Voigt Hill
#
# Bulk Modulus (GPa) = 36.71667 49.31056 43.01361
# Shear Modulus (GPa) = 24.69793 30.76830 27.73312
#
# Velocity S-wave (km/s) = 3.40229 3.79745 3.60529
# Velocity P-wave (km/s) = 5.71337 6.50682 6.12296
#
# Compressibility (1/GPa) = 0.02723559
#
# Stress axis : x y z
#
# Youngs Moduli (GPa) = 72.61447 78.63997 58.86987
#
# Poissons Ratio (x) = 0.15998 0.04526
# Poissons Ratio (y) = 0.14772 0.31296
# Poissons Ratio (z) = 0.05583 0.41806
#
# Static dielectric constant tensor:
#      x y z
#    x 3.841570 0.067890 0.271810 
#    y 0.067890 4.065140 0.540810 
#    z 0.271810 0.540810 2.921190 
# 
# 
# High freq. dielectric constant tensor:
#      x y z
#    x 1.848590 0.013200 -0.000200 
#    y 0.013200 1.844020 0.022320 
#    z -0.000200 0.022320 1.798290 
# 
# From -- ./inp_files/84931.got.cif
#   From: 2010.06.25/outbox.cif.g09.slc.cpg/sg2_43_cif.got.tgz:84931.got - 2010.06.27 13:26:56.
