data_PCOD8002721
_publ_section_title
;
Structure prediction by ZEFSAII (Michael W. Deem and Ramdas Pophale) SiO2 
 PCOD8002721
Probable space group: P -1
;
_chemical_formula_sum "Si O2"
_cell_formula_units_Z 16
_cell_length_a 12.013822
_cell_length_b 6.946488
_cell_length_c 10.662921
_cell_angle_alpha 117.364670
_cell_angle_beta 97.038968
_cell_angle_gamma 89.446863
_cell_volume 783.228763
_symmetry_space_group_name_H-M "P -1"
_symmetry_group_IT_number 2
_symmetry_cell_setting 'triclinic'
loop_
_space_group_symop_operation_xyz
x,y,z
-x,-y,-z
loop_
_atom_site_type_symbol
_atom_site_label
_atom_site_fract_x
_atom_site_fract_y
_atom_site_fract_z
Si Si1 0.151520 0.099821 0.667393
Si Si2 0.067894 0.471652 0.188261
Si Si3 0.342670 0.853845 0.512193
Si Si4 0.844406 0.480331 0.055096
Si Si5 0.606073 0.407588 0.919748
Si Si6 0.002073 0.289858 0.523361
Si Si7 0.418048 0.050481 0.331712
Si Si8 0.296072 0.393077 0.257511
O O1 0.155178 0.262070 0.835223
O O2 0.125897 0.231781 0.573656
O O3 0.266949 0.979008 0.637120
O O4 0.052248 0.915094 0.620877
O O5 0.069191 0.668467 0.347400
O O6 0.164117 0.310313 0.195614
O O7 0.937898 0.371721 0.126732
O O8 0.111694 0.571088 0.092645
O O9 0.463832 0.829891 0.582791
O O10 0.296134 0.610146 0.405985
O O11 0.347061 0.000196 0.431858
O O12 0.714980 0.387562 0.021494
O O13 0.642441 0.559815 0.852620
O O14 0.560951 0.171644 0.801803
O O15 0.500000 0.500000 0.000000
O O16 0.000000 0.500000 0.500000
O O17 0.352992 0.202624 0.277450
#
# Coordination Sequence:
#
# PCOD8002721 Si02
#       8
#     2   2   2   2   2   2   2   2
#     4  10  20  36  59  82 115 157 190 237 300 341
#     4   9  18  37  58  80 119 152 191 240 286 349
#     4  10  20  36  58  84 117 151 194 248 296 353
#     4   9  19  37  60  84 117 160 195 237 295 349
#     4  10  21  39  59  83 119 154 199 246 291 351
#     4  10  21  36  56  89 115 149 197 243 291 348
#     4  10  22  36  57  88 112 154 202 238 303 347
#     4  10  20  37  59  85 114 155 197 248 295 348
#
# _framework density 20.428260000000002
#
# number of rings (size 3 to 8) (size 9 to 14) (size 15 to 20)
#    0.000    2.250    1.250    1.125    1.750    0.500 
#    0.000    8.750    0.000    0.000    0.000    0.000 
#    0.000    0.000    0.000    0.000    0.000    0.000 
#
# Total GULP energy -198211.023532 kJ/mol
# GULP energy per Si atom -12388.188971 kJ/mol
# Density = 2.038176 g / cm^3
# Si number density = 20.428260 Si / 1000 Ang^3
#
#
#
# Elastic Constant Matrix: (Units=GPa)
#
#
# Indices 1 2 3 4 5 6 
#
# 1 114.5051 33.8202 37.7747 -3.6079 0.0978 -22.0469
# 2 33.8202 86.6611 12.7140 -13.4247 5.8486 -22.6360
# 3 37.7747 12.7140 97.1314 1.5353 -7.0425 0.1416
# 4 -3.6079 -13.4247 1.5353 11.9743 -8.9097 7.6482
# 5 0.0978 5.8486 -7.0425 -8.9097 34.3778 3.4412
# 6 -22.0469 -22.6360 0.1416 7.6482 3.4412 23.7392
#
#
#
# Elastic Compliance Matrix: (Units=1/GPa)
#
#
# Indices 1 2 3 4 5 6 
#
# 1 0.013595 -0.001939 -0.005253 -0.010776 -0.005081 0.015017
# 2 -0.001939 0.017331 -0.001826 0.010240 -0.001834 0.011702
# 3 -0.005253 -0.001826 0.012879 0.003806 0.004813 -0.008621
# 4 -0.010776 0.010240 0.003806 0.165797 0.048110 -0.060656
# 5 -0.005081 -0.001834 0.004813 0.048110 0.045735 -0.028626
# 6 0.015017 0.011702 -0.008621 -0.060656 -0.028626 0.090972
#
#
# Mechanical properties :
#
#
# Convention : Reuss Voigt Hill
#
# Bulk Modulus (GPa) = 38.80885 51.87949 45.34417
# Shear Modulus (GPa) = 13.40713 28.28417 20.84565
#
# Velocity S-wave (km/s) = 2.56462 3.72501 3.19789
# Velocity P-wave (km/s) = 5.27338 6.62963 5.99001
#
# Compressibility (1/GPa) = 0.02576732
#
# Stress axis : x y z
#
# Youngs Moduli (GPa) = 73.55567 57.70151 77.64669
#
# Poissons Ratio (x) = 0.11188 0.40791
# Poissons Ratio (y) = 0.14262 0.14181
# Poissons Ratio (z) = 0.38642 0.10538
#
# Static dielectric constant tensor:
#      x y z
#    x 3.926170 -0.307870 0.197660 
#    y -0.307870 3.362760 -0.055970 
#    z 0.197660 -0.055970 3.911340 
# 
# 
# High freq. dielectric constant tensor:
#      x y z
#    x 1.809450 -0.029980 0.007140 
#    y -0.029980 1.758150 0.001930 
#    z 0.007140 0.001930 1.808290 
# 
# From -- ./inp_files/83519.got.cif
#   From: 2010.06.25/outbox.cif.g09.slc.cpg/sg2_42_cif.got.tgz:83519.got - 2010.06.27 13:26:56.
