data_PCOD8002234
_publ_section_title
;
Structure prediction by ZEFSAII (Michael W. Deem and Ramdas Pophale) SiO2 
 PCOD8002234
Probable space group: P -1
;
_chemical_formula_sum "Si O2"
_cell_formula_units_Z 16
_cell_length_a 6.593356
_cell_length_b 14.175014
_cell_length_c 15.626280
_cell_angle_alpha 141.418968
_cell_angle_beta 122.010180
_cell_angle_gamma 66.348893
_cell_volume 772.045818
_symmetry_space_group_name_H-M "P -1"
_symmetry_group_IT_number 2
_symmetry_cell_setting 'triclinic'
loop_
_space_group_symop_operation_xyz
x,y,z
-x,-y,-z
loop_
_atom_site_type_symbol
_atom_site_label
_atom_site_fract_x
_atom_site_fract_y
_atom_site_fract_z
Si Si1 0.930845 0.147066 0.696149
Si Si2 0.179425 0.397712 0.018591
Si Si3 0.185055 0.169050 0.204568
Si Si4 0.985078 0.812774 0.455241
Si Si5 0.652151 0.100027 0.039860
Si Si6 0.697739 0.662956 0.820637
Si Si7 0.541713 0.338717 0.526526
Si Si8 0.491601 0.336599 0.711679
O O1 0.964922 0.160944 0.613447
O O2 0.681300 0.225033 0.720036
O O3 0.923158 0.971990 0.599432
O O4 0.156411 0.230088 0.853792
O O5 0.116015 0.389916 0.101366
O O6 0.436335 0.486497 0.130040
O O7 0.000000 0.500000 0.000000
O O8 0.176436 0.236070 0.153060
O O9 0.328086 0.279992 0.377519
O O10 0.308669 0.003618 0.109821
O O11 0.917145 0.149635 0.167867
O O12 0.214481 0.743580 0.503782
O O13 0.766990 0.692882 0.327351
O O14 0.499056 0.250770 0.103128
O O15 0.500000 0.000000 0.000000
O O16 0.572562 0.518049 0.644586
O O17 0.475779 0.301067 0.582377
#
# Coordination Sequence:
#
# PCOD8002234 Si02
#       8
#     2   2   2   2   2   2   2   2
#     4   9  19  36  55  81 116 154 200 247 289 352
#     4   9  19  37  58  83 118 153 195 241 289 347
#     4  10  21  40  61  87 118 153 197 242 294 347
#     4  10  20  35  58  83 119 151 198 247 293 350
#     4   9  21  40  60  83 118 154 193 245 289 348
#     4  10  21  38  60  85 121 153 195 242 291 351
#     4  10  22  36  57  89 117 149 196 242 288 354
#     4   9  19  36  55  84 118 155 195 244 297 345
#
# _framework density 20.724157000000002
#
# number of rings (size 3 to 8) (size 9 to 14) (size 15 to 20)
#    0.000    2.500    0.000    1.500    1.750    5.000 
#    4.500    2.500    0.000    0.000    0.000    0.000 
#    0.000    0.000    0.000    0.000    0.000    0.000 
#
# Total GULP energy -198261.778607 kJ/mol
# GULP energy per Si atom -12391.361163 kJ/mol
# Density = 2.067699 g / cm^3
# Si number density = 20.724157 Si / 1000 Ang^3
#
#
#
# Elastic Constant Matrix: (Units=GPa)
#
#
# Indices 1 2 3 4 5 6 
#
# 1 88.0612 30.0633 21.0471 2.0190 24.9609 -5.2252
# 2 30.0633 75.3300 38.0569 3.9361 7.9174 0.8903
# 3 21.0471 38.0569 139.1155 4.2344 21.7468 0.5125
# 4 2.0190 3.9361 4.2344 28.4016 0.8594 3.7512
# 5 24.9609 7.9174 21.7468 0.8594 28.3484 7.1300
# 6 -5.2252 0.8903 0.5125 3.7512 7.1300 12.3548
#
#
#
# Elastic Compliance Matrix: (Units=1/GPa)
#
#
# Indices 1 2 3 4 5 6 
#
# 1 0.022359 -0.007726 0.002832 -0.003594 -0.026153 0.026080
# 2 -0.007726 0.018176 -0.004974 -0.000307 0.007752 -0.008752
# 3 0.002832 -0.004974 0.009784 -0.001673 -0.010501 0.007719
# 4 -0.003594 -0.000307 -0.001673 0.037819 0.007761 -0.017390
# 5 -0.026153 0.007752 -0.010501 0.007761 0.078803 -0.059018
# 6 0.026080 -0.008752 0.007719 -0.017390 -0.059018 0.131621
#
#
# Mechanical properties :
#
#
# Convention : Reuss Voigt Hill
#
# Bulk Modulus (GPa) = 32.69580 53.42682 43.06131
# Shear Modulus (GPa) = 15.22113 28.04357 21.63235
#
# Velocity S-wave (km/s) = 2.71304 3.68255 3.23433
# Velocity P-wave (km/s) = 5.06212 6.62703 5.89672
#
# Compressibility (1/GPa) = 0.03058497
#
# Stress axis : x y z
#
# Youngs Moduli (GPa) = 44.72412 55.01886 102.20343
#
# Poissons Ratio (x) = 0.42507 -0.28948
# Poissons Ratio (y) = 0.34554 0.50832
# Poissons Ratio (z) = -0.12667 0.27364
#
# Static dielectric constant tensor:
#      x y z
#    x 3.625740 -0.223730 0.006810 
#    y -0.223730 3.946430 0.360840 
#    z 0.006810 0.360840 4.149510 
# 
# 
# High freq. dielectric constant tensor:
#      x y z
#    x 1.786640 -0.001210 0.009280 
#    y -0.001210 1.805280 0.018730 
#    z 0.009280 0.018730 1.821990 
# 
# From -- ./inp_files/100666.got.cif
#   From: 2010.06.25/outbox.cif.g09.slc.cpg/sg2_51_cif.got.tgz:100666.got - 2010.06.27 13:26:56.
