data_PCOD8002293
_publ_section_title
;
Structure prediction by ZEFSAII (Michael W. Deem and Ramdas Pophale) SiO2 
 PCOD8002293
Probable space group: P -1
;
_chemical_formula_sum "Si O2"
_cell_formula_units_Z 16
_cell_length_a 20.557710
_cell_length_b 23.044512
_cell_length_c 5.148274
_cell_angle_alpha 82.413157
_cell_angle_beta 108.312840
_cell_angle_gamma 160.574478
_cell_volume 657.609707
_symmetry_space_group_name_H-M "P -1"
_symmetry_group_IT_number 2
_symmetry_cell_setting 'triclinic'
loop_
_space_group_symop_operation_xyz
x,y,z
-x,-y,-z
loop_
_atom_site_type_symbol
_atom_site_label
_atom_site_fract_x
_atom_site_fract_y
_atom_site_fract_z
Si Si1 0.125663 0.749669 0.295269
Si Si2 0.896113 0.005850 0.496280
Si Si3 0.622962 0.214999 0.797949
Si Si4 0.300572 0.384056 0.084213
Si Si5 0.305433 0.045142 0.704171
Si Si6 0.972620 0.404602 0.236440
Si Si7 0.018426 0.783823 0.998031
Si Si8 0.205542 0.197427 0.393026
O O1 0.138150 0.718157 0.081564
O O2 0.951237 0.662034 0.063410
O O3 0.391804 0.990578 0.544476
O O4 0.018503 0.629160 0.481638
O O5 0.669766 0.864354 0.255882
O O6 0.961622 0.024877 0.305296
O O7 0.844947 0.911490 0.698192
O O8 0.117949 0.231798 0.703368
O O9 0.797739 0.316454 0.124784
O O10 0.553132 0.211565 0.908593
O O11 0.761486 0.354833 0.639472
O O12 0.299903 0.315680 0.215071
O O13 0.575576 0.625518 0.221918
O O14 0.206886 0.356040 0.190775
O O15 0.213068 0.966213 0.338913
O O16 0.128112 0.871370 0.795145
#
# Coordination Sequence:
#
# PCOD8002293 Si02
#       8
#     2   2   2   2   2   2   2   2
#     4  11  23  42  66  94 129 168 209 260 315 371
#     4  10  20  36  57  83 116 154 200 249 299 366
#     4  10  24  43  66  95 130 167 210 262 317 370
#     4  10  20  36  57  84 117 155 198 249 303 358
#     4  10  21  39  63  88 125 167 201 254 317 365
#     4  11  25  41  67  97 126 166 215 260 310 380
#     4  10  21  39  63  90 126 166 204 253 311 369
#     4  10  20  35  59  84 113 153 203 246 304 358
#
# _framework density 24.330541
#
# number of rings (size 3 to 8) (size 9 to 14) (size 15 to 20)
#    0.000    1.750    1.250    3.000    0.000    8.000 
#    0.000    0.000    0.000    0.000    0.000    0.000 
#    0.000    0.000    0.000    0.000    0.000    0.000 
#
# Total GULP energy -198224.881167 kJ/mol
# GULP energy per Si atom -12389.055073 kJ/mol
# Density = 2.427516 g / cm^3
# Si number density = 24.330541 Si / 1000 Ang^3
#
#
#
# Elastic Constant Matrix: (Units=GPa)
#
#
# Indices 1 2 3 4 5 6 
#
# 1 170.7545 58.8883 28.9158 -14.1159 34.7447 1.4028
# 2 58.8883 92.2597 18.8191 -4.9864 20.1134 6.4897
# 3 28.9158 18.8191 44.8114 -13.4467 8.6208 6.2094
# 4 -14.1159 -4.9864 -13.4467 36.7438 -10.1832 -1.9068
# 5 34.7447 20.1134 8.6208 -10.1832 33.6977 -6.6938
# 6 1.4028 6.4897 6.2094 -1.9068 -6.6938 26.8581
#
#
#
# Elastic Compliance Matrix: (Units=1/GPa)
#
#
# Indices 1 2 3 4 5 6 
#
# 1 0.008914 -0.003683 -0.002897 0.000089 -0.006319 -0.000474
# 2 -0.003683 0.015341 -0.002950 -0.002374 -0.006226 -0.004553
# 3 -0.002897 -0.002950 0.028962 0.008466 -0.001201 -0.005530
# 4 0.000089 -0.002374 0.008466 0.032911 0.009778 0.003385
# 5 -0.006319 -0.006226 -0.001201 0.009778 0.046005 0.014272
# 6 -0.000474 -0.004553 -0.005530 0.003385 0.014272 0.043433
#
#
# Mechanical properties :
#
#
# Convention : Reuss Voigt Hill
#
# Bulk Modulus (GPa) = 29.27709 57.89686 43.58698
# Shear Modulus (GPa) = 24.27045 32.87342 28.57193
#
# Velocity S-wave (km/s) = 3.16180 3.67974 3.43056
# Velocity P-wave (km/s) = 5.03870 6.47315 5.80043
#
# Compressibility (1/GPa) = 0.03415640
#
# Stress axis : x y z
#
# Youngs Moduli (GPa) = 112.18058 65.18550 34.52816
#
# Poissons Ratio (x) = 0.24008 0.10004
# Poissons Ratio (y) = 0.41317 0.10185
# Poissons Ratio (z) = 0.32504 0.19228
#
# Static dielectric constant tensor:
#      x y z
#    x 5.240110 -0.122190 0.433490 
#    y -0.122190 4.349570 0.175740 
#    z 0.433490 0.175740 4.289530 
# 
# 
# High freq. dielectric constant tensor:
#      x y z
#    x 1.991020 -0.003750 0.017720 
#    y -0.003750 1.947800 -0.005330 
#    z 0.017720 -0.005330 1.945870 
# 
# From -- ./inp_files/120655.got.cif
#   From: 2010.06.25/outbox.cif.g09.slc.cpg/sg2_61_cif.got.tgz:120655.got - 2010.06.27 13:26:56.
