data_PCOD8002173
_publ_section_title
;
Structure prediction by ZEFSAII (Michael W. Deem and Ramdas Pophale) SiO2 
 PCOD8002173
Probable space group: P -1
;
_chemical_formula_sum "Si O2"
_cell_formula_units_Z 12
_cell_length_a 8.993411
_cell_length_b 11.019282
_cell_length_c 8.786190
_cell_angle_alpha 100.755143
_cell_angle_beta 47.151422
_cell_angle_gamma 109.825012
_cell_volume 599.311711
_symmetry_space_group_name_H-M "P -1"
_symmetry_group_IT_number 2
_symmetry_cell_setting 'triclinic'
loop_
_space_group_symop_operation_xyz
x,y,z
-x,-y,-z
loop_
_atom_site_type_symbol
_atom_site_label
_atom_site_fract_x
_atom_site_fract_y
_atom_site_fract_z
Si Si1 0.040669 0.179961 0.388499
Si Si2 0.414519 0.332358 0.661019
Si Si3 0.382365 0.386369 0.364853
Si Si4 0.319352 0.004405 0.244719
Si Si5 0.018568 0.148908 0.049695
Si Si6 0.383324 0.787375 0.733434
O O1 0.184754 0.320067 0.377517
O O2 0.168035 0.075271 0.285382
O O3 0.976428 0.182507 0.258979
O O4 0.827130 0.135971 0.630270
O O5 0.304649 0.369719 0.592919
O O6 0.530685 0.462677 0.704128
O O7 0.585897 0.259630 0.471028
O O8 0.248935 0.236620 0.862841
O O9 0.573310 0.318105 0.201118
O O10 0.430501 0.079585 0.335454
O O11 0.500000 0.000000 0.000000
O O12 0.844519 0.190546 0.079153
O O13 0.000000 0.000000 0.000000
#
# Coordination Sequence:
#
# PCOD8002173 Si02
#       6
#     2   2   2   2   2   2
#     4  10  22  36  54  86 115 143 194 235 275 336
#     4   9  20  41  62  79 116 151 194 232 283 330
#     4   8  19  43  62  77 112 155 196 236 264 340
#     4  10  20  35  57  79 113 155 189 227 277 338
#     4  12  24  34  58  91 120 150 178 238 296 334
#     4   9  20  37  57  85 110 150 191 229 279 339
#
# _framework density 20.022969
#
# number of rings (size 3 to 8) (size 9 to 14) (size 15 to 20)
#    1.000    1.333    0.000    2.000    4.667    5.333 
#    0.000    0.833    0.000    0.000    0.000    0.000 
#    0.000    0.000    0.000    0.000    0.000    0.000 
#
# Total GULP energy -148688.307109 kJ/mol
# GULP energy per Si atom -12390.692259 kJ/mol
# Density = 1.997740 g / cm^3
# Si number density = 20.022969 Si / 1000 Ang^3
#
#
#
# Elastic Constant Matrix: (Units=GPa)
#
#
# Indices 1 2 3 4 5 6 
#
# 1 52.4861 37.0260 13.9998 5.8980 -2.4841 15.3565
# 2 37.0260 156.1338 56.3750 -11.7012 -9.5168 27.4047
# 3 13.9998 56.3750 107.6693 -8.9553 -10.4758 -0.5888
# 4 5.8980 -11.7012 -8.9553 27.6605 -4.4915 -0.4521
# 5 -2.4841 -9.5168 -10.4758 -4.4915 25.7458 3.6522
# 6 15.3565 27.4047 -0.5888 -0.4521 3.6522 25.1978
#
#
#
# Elastic Compliance Matrix: (Units=1/GPa)
#
#
# Indices 1 2 3 4 5 6 
#
# 1 0.027053 -0.004090 -0.002078 -0.008283 0.000555 -0.012316
# 2 -0.004090 0.011621 -0.004797 0.004759 0.004311 -0.010798
# 3 -0.002078 -0.004797 0.012630 0.003061 0.002788 0.006430
# 4 -0.008283 0.004759 0.003061 0.042489 0.009718 -0.000703
# 5 0.000555 0.004311 0.002788 0.009718 0.044921 -0.011298
# 6 -0.012316 -0.010798 0.006430 -0.000703 -0.011298 0.060711
#
#
# Mechanical properties :
#
#
# Convention : Reuss Voigt Hill
#
# Bulk Modulus (GPa) = 34.04336 59.01009 46.52673
# Shear Modulus (GPa) = 21.63114 29.64670 25.63892
#
# Velocity S-wave (km/s) = 3.29038 3.85208 3.58226
# Velocity P-wave (km/s) = 5.61022 7.02281 6.35588
#
# Compressibility (1/GPa) = 0.02937430
#
# Stress axis : x y z
#
# Youngs Moduli (GPa) = 36.96458 86.04772 79.17346
#
# Poissons Ratio (x) = 0.35195 0.16454
# Poissons Ratio (y) = 0.15119 0.37978
# Poissons Ratio (z) = 0.07682 0.41276
#
# Static dielectric constant tensor:
#      x y z
#    x 3.425990 0.183970 -0.062580 
#    y 0.183970 3.692520 0.063500 
#    z -0.062580 0.063500 3.345960 
# 
# 
# High freq. dielectric constant tensor:
#      x y z
#    x 1.763010 0.019330 -0.005480 
#    y 0.019330 1.779930 0.003530 
#    z -0.005480 0.003530 1.760530 
# 
# From -- ./inp_files/166501.got.cif
#   From: 2010.06.25/outbox.cif.g09.slc.cpg/sg2_84_cif.got.tgz:166501.got - 2010.06.27 13:26:56.
