data_PCOD8002211
_publ_section_title
;
Structure prediction by ZEFSAII (Michael W. Deem and Ramdas Pophale) SiO2 
 PCOD8002211
Probable space group: P -1
;
_chemical_formula_sum "Si O2"
_cell_formula_units_Z 16
_cell_length_a 13.428151
_cell_length_b 11.922045
_cell_length_c 6.561759
_cell_angle_alpha 76.929348
_cell_angle_beta 134.363267
_cell_angle_gamma 100.720818
_cell_volume 730.964987
_symmetry_space_group_name_H-M "P -1"
_symmetry_group_IT_number 2
_symmetry_cell_setting 'triclinic'
loop_
_space_group_symop_operation_xyz
x,y,z
-x,-y,-z
loop_
_atom_site_type_symbol
_atom_site_label
_atom_site_fract_x
_atom_site_fract_y
_atom_site_fract_z
Si Si1 0.534193 0.262118 0.442487
Si Si2 0.619373 0.077701 0.357050
Si Si3 0.830380 0.381729 0.776426
Si Si4 0.586747 0.831380 0.306032
Si Si5 0.043486 0.428946 0.396465
Si Si6 0.098771 0.844961 0.214808
Si Si7 0.736212 0.756943 0.185897
Si Si8 0.904230 0.963269 0.188168
O O1 0.580394 0.135065 0.493906
O O2 0.664324 0.353239 0.563264
O O3 0.493410 0.259159 0.623570
O O4 0.399588 0.298214 0.103082
O O5 0.764283 0.135174 0.457708
O O6 0.642642 0.941007 0.474844
O O7 0.507629 0.112337 0.020231
O O8 0.853161 0.499628 0.636360
O O9 0.917615 0.287465 0.818798
O O10 0.898314 0.391712 0.093622
O O11 0.706578 0.764999 0.384336
O O12 0.128946 0.317901 0.629522
O O13 0.000000 0.500000 0.500000
O O14 0.968873 0.880518 0.144869
O O15 0.131151 0.919563 0.024639
O O16 0.769351 0.888673 0.104171
O O17 0.000000 0.000000 0.500000
#
# Coordination Sequence:
#
# PCOD8002211 Si02
#       8
#     2   2   2   2   2   2   2   2
#     4  10  22  39  61  90 125 159 199 249 301 362
#     4   9  19  34  56  88 123 165 202 234 291 363
#     4  10  24  43  64  91 116 158 209 253 308 365
#     4  10  20  35  57  87 127 164 196 240 295 358
#     4  11  25  46  68  87 117 157 207 263 312 366
#     4  10  21  37  59  87 123 157 203 254 299 360
#     4  11  24  39  61  93 124 161 206 249 303 363
#     4  11  22  35  57  92 129 166 201 246 304 362
#
# _framework density 21.888871999999999
#
# number of rings (size 3 to 8) (size 9 to 14) (size 15 to 20)
#    0.000    1.750    0.000    3.375    0.000   16.500 
#    0.000    1.250    0.000    0.000    0.000    0.000 
#    0.000    0.000    0.000    0.000    0.000    0.000 
#
# Total GULP energy -198343.799561 kJ/mol
# GULP energy per Si atom -12396.487473 kJ/mol
# Density = 2.183905 g / cm^3
# Si number density = 21.888872 Si / 1000 Ang^3
#
#
#
# Elastic Constant Matrix: (Units=GPa)
#
#
# Indices 1 2 3 4 5 6 
#
# 1 96.8580 16.9162 37.3633 6.9063 -7.3283 9.0921
# 2 16.9162 71.8885 28.5435 8.6866 2.6780 8.2542
# 3 37.3633 28.5435 69.7239 16.4522 9.2595 5.4471
# 4 6.9063 8.6866 16.4522 33.9140 3.7004 5.0300
# 5 -7.3283 2.6780 9.2595 3.7004 31.9990 1.7252
# 6 9.0921 8.2542 5.4471 5.0300 1.7252 36.9992
#
#
#
# Elastic Compliance Matrix: (Units=1/GPa)
#
#
# Indices 1 2 3 4 5 6 
#
# 1 0.014162 -0.000043 -0.008345 0.000945 0.005694 -0.002636
# 2 -0.000043 0.016923 -0.006600 -0.000800 0.000723 -0.002718
# 3 -0.008345 -0.006600 0.024240 -0.007747 -0.007551 0.001360
# 4 0.000945 -0.000800 -0.007747 0.033903 -0.001209 -0.003466
# 5 0.005694 0.000723 -0.007551 -0.001209 0.034922 -0.001913
# 6 -0.002636 -0.002718 0.001360 -0.003466 -0.001913 0.028642
#
#
# Mechanical properties :
#
#
# Convention : Reuss Voigt Hill
#
# Bulk Modulus (GPa) = 39.44698 44.90182 42.17440
# Shear Modulus (GPa) = 26.14830 30.95894 28.55362
#
# Velocity S-wave (km/s) = 3.46004 3.76489 3.61568
# Velocity P-wave (km/s) = 5.83293 6.28150 6.06137
#
# Compressibility (1/GPa) = 0.02535048
#
# Stress axis : x y z
#
# Youngs Moduli (GPa) = 70.61272 59.09198 41.25346
#
# Poissons Ratio (x) = 0.00253 0.34425
# Poissons Ratio (y) = 0.00302 0.27226
# Poissons Ratio (z) = 0.58924 0.38999
#
# Static dielectric constant tensor:
#      x y z
#    x 4.031850 -0.088810 -0.007180 
#    y -0.088810 3.956980 0.222570 
#    z -0.007180 0.222570 3.965100 
# 
# 
# High freq. dielectric constant tensor:
#      x y z
#    x 1.864920 0.000580 0.000890 
#    y 0.000580 1.846290 0.013160 
#    z 0.000890 0.013160 1.862220 
# 
# From -- ./inp_files/70176.got.cif
#   From: 2010.06.25/outbox.cif.g09.slc.cpg/sg2_36_cif.got.tgz:70176.got - 2010.06.27 13:26:56.
