data_PCOD8002589
_publ_section_title
;
Structure prediction by ZEFSAII (Michael W. Deem and Ramdas Pophale) SiO2 
 PCOD8002589
Probable space group: P -1
;
_chemical_formula_sum "Si O2"
_cell_formula_units_Z 16
_cell_length_a 22.526283
_cell_length_b 18.456115
_cell_length_c 8.556422
_cell_angle_alpha 35.470606
_cell_angle_beta 133.612301
_cell_angle_gamma 157.667766
_cell_volume 751.080295
_symmetry_space_group_name_H-M "P -1"
_symmetry_group_IT_number 2
_symmetry_cell_setting 'triclinic'
loop_
_space_group_symop_operation_xyz
x,y,z
-x,-y,-z
loop_
_atom_site_type_symbol
_atom_site_label
_atom_site_fract_x
_atom_site_fract_y
_atom_site_fract_z
Si Si1 0.955066 0.079451 0.739302
Si Si2 0.132569 0.856457 0.259912
Si Si3 0.170239 0.731029 0.809363
Si Si4 0.795037 0.785850 0.664281
Si Si5 0.755334 0.447205 0.754230
Si Si6 0.512699 0.707295 0.552438
Si Si7 0.524698 0.611485 0.079199
Si Si8 0.948087 0.753977 0.878647
O O1 0.871364 0.038347 0.802883
O O2 0.117691 0.365364 0.483318
O O3 0.830026 0.911536 0.663195
O O4 0.000000 0.000000 0.000000
O O5 0.119119 0.704756 0.586222
O O6 0.988107 0.680525 0.178222
O O7 0.305254 0.106166 0.050221
O O8 0.296110 0.000511 0.632372
O O9 0.273725 0.739686 0.972032
O O10 0.000000 0.500000 0.000000
O O11 0.599020 0.520291 0.771164
O O12 0.867503 0.741437 0.879561
O O13 0.875613 0.959572 0.356608
O O14 0.594814 0.316458 0.659126
O O15 0.828257 0.578663 0.824332
O O16 0.470138 0.531751 0.678522
O O17 0.471130 0.614554 0.818199
#
# Coordination Sequence:
#
# PCOD8002589 Si02
#       8
#     2   2   2   2   2   2   2   2
#     4  11  18  32  64  88 116 156 200 253 300 349
#     4  11  22  40  61  95 125 156 208 252 306 366
#     4  11  23  41  65  91 116 163 213 256 296 354
#     4  10  20  36  55  90 127 159 201 240 310 372
#     4  11  23  40  61  86 126 166 202 250 301 363
#     4  10  22  39  63  97 120 153 208 261 306 354
#     4  10  21  36  64  95 125 151 198 267 310 347
#     4  10  24  37  57  92 129 167 195 239 315 379
#
# _framework density 21.30265
#
# number of rings (size 3 to 8) (size 9 to 14) (size 15 to 20)
#    0.000    1.500    2.500    4.125    5.250    1.000 
#    0.000    0.000    0.000    3.750    0.000    0.000 
#    0.000    0.000    0.000    0.000    0.000    0.000 
#
# Total GULP energy -198307.716258 kJ/mol
# GULP energy per Si atom -12394.232266 kJ/mol
# Density = 2.125416 g / cm^3
# Si number density = 21.302650 Si / 1000 Ang^3
#
#
#
# Elastic Constant Matrix: (Units=GPa)
#
#
# Indices 1 2 3 4 5 6 
#
# 1 63.2967 19.0958 23.1578 -0.9222 -0.8447 19.2584
# 2 19.0958 91.9333 42.9583 8.2264 -4.3946 16.9519
# 3 23.1578 42.9583 101.8523 9.2210 23.7724 15.7512
# 4 -0.9222 8.2264 9.2210 49.2254 14.3383 0.1684
# 5 -0.8447 -4.3946 23.7724 14.3383 29.5911 -1.3528
# 6 19.2584 16.9519 15.7512 0.1684 -1.3528 28.6901
#
#
#
# Elastic Compliance Matrix: (Units=1/GPa)
#
#
# Indices 1 2 3 4 5 6 
#
# 1 0.020762 -0.000546 -0.003280 0.000435 0.002401 -0.011703
# 2 -0.000546 0.016670 -0.008460 -0.004466 0.011225 -0.004283
# 3 -0.003280 -0.008460 0.018665 0.003123 -0.018037 -0.003915
# 4 0.000435 -0.004466 0.003123 0.024927 -0.015249 -0.000233
# 5 0.002401 0.011225 -0.018037 -0.015249 0.057612 0.004465
# 6 -0.011703 -0.004283 -0.003915 -0.000233 0.004465 0.047603
#
#
# Mechanical properties :
#
#
# Convention : Reuss Voigt Hill
#
# Bulk Modulus (GPa) = 31.72147 47.50066 39.61107
# Shear Modulus (GPa) = 22.59173 32.95936 27.77554
#
# Velocity S-wave (km/s) = 3.26008 3.93771 3.61481
# Velocity P-wave (km/s) = 5.39389 6.55900 6.00477
#
# Compressibility (1/GPa) = 0.03152439
#
# Stress axis : x y z
#
# Youngs Moduli (GPa) = 48.16376 59.98799 53.57701
#
# Poissons Ratio (x) = 0.03276 0.17575
# Poissons Ratio (y) = 0.02630 0.45326
# Poissons Ratio (z) = 0.15800 0.50749
#
# Static dielectric constant tensor:
#      x y z
#    x 3.667610 0.257410 -0.003260 
#    y 0.257410 3.788990 0.086410 
#    z -0.003260 0.086410 4.008310 
# 
# 
# High freq. dielectric constant tensor:
#      x y z
#    x 1.814500 0.021520 0.000100 
#    y 0.021520 1.832990 0.010690 
#    z 0.000100 0.010690 1.839900 
# 
# From -- ./inp_files/238245.got.cif
#   From: 2010.06.25/outbox.cif.g09.slc.cpg/sg2_120_cif.got.tgz:238245.got - 2010.06.27 13:26:56.
