data_PCOD8002398
_publ_section_title
;
Structure prediction by ZEFSAII (Michael W. Deem and Ramdas Pophale) SiO2 
 PCOD8002398
Probable space group: P -1
;
_chemical_formula_sum "Si O2"
_cell_formula_units_Z 12
_cell_length_a 10.044418
_cell_length_b 8.014506
_cell_length_c 10.427566
_cell_angle_alpha 44.294833
_cell_angle_beta 51.565366
_cell_angle_gamma 68.343429
_cell_volume 454.753935
_symmetry_space_group_name_H-M "P -1"
_symmetry_group_IT_number 2
_symmetry_cell_setting 'triclinic'
loop_
_space_group_symop_operation_xyz
x,y,z
-x,-y,-z
loop_
_atom_site_type_symbol
_atom_site_label
_atom_site_fract_x
_atom_site_fract_y
_atom_site_fract_z
Si Si1 0.489448 0.470250 0.767750
Si Si2 0.228157 0.726019 0.669224
Si Si3 0.242962 0.147747 0.733350
Si Si4 0.945897 0.921718 0.866648
Si Si5 0.521948 0.826700 0.764617
Si Si6 0.677147 0.092098 0.750544
O O1 0.295585 0.497590 0.824941
O O2 0.614594 0.634392 0.507094
O O3 0.526845 0.563491 0.841490
O O4 0.524089 0.198090 0.862486
O O5 0.241600 0.716626 0.511587
O O6 0.353992 0.971809 0.504416
O O7 0.035514 0.736094 0.827811
O O8 0.091165 0.115195 0.738365
O O9 0.330038 0.901418 0.837699
O O10 0.165431 0.221444 0.875609
O O11 0.831076 0.064559 0.767134
O O12 0.599708 0.840786 0.857926
#
# Coordination Sequence:
#
# PCOD8002398 Si02
#       6
#     2   2   2   2   2   2
#     4  11  18  40  63  84 106 159 197 225 271 359
#     4   9  18  36  59  79 112 153 187 222 283 338
#     4  10  20  35  61  80 119 156 184 220 306 342
#     4  11  20  37  56  89 118 149 179 248 289 327
#     4   9  19  38  62  80 109 160 190 223 277 352
#     4  10  23  33  65  87 112 139 207 238 269 326
#
# _framework density 26.387898
#
# number of rings (size 3 to 8) (size 9 to 14) (size 15 to 20)
#    1.000    1.000    3.333    2.000    0.000    1.333 
#    0.000    1.667    0.000    2.000    0.000    0.000 
#    0.000    0.000    0.000    0.000    0.000    0.000 
#
# Total GULP energy -148796.411437 kJ/mol
# GULP energy per Si atom -12399.700953 kJ/mol
# Density = 2.632784 g / cm^3
# Si number density = 26.387898 Si / 1000 Ang^3
#
#
#
# Elastic Constant Matrix: (Units=GPa)
#
#
# Indices 1 2 3 4 5 6 
#
# 1 199.0019 61.3312 32.4840 24.9746 29.3019 -22.4597
# 2 61.3312 163.1302 52.8915 28.5847 6.3705 -6.2466
# 3 32.4840 52.8915 116.1163 52.7988 13.4941 -2.8677
# 4 24.9746 28.5847 52.7988 43.0552 3.0034 -15.2236
# 5 29.3019 6.3705 13.4941 3.0034 44.5725 6.9564
# 6 -22.4597 -6.2466 -2.8677 -15.2236 6.9564 29.6903
#
#
#
# Elastic Compliance Matrix: (Units=1/GPa)
#
#
# Indices 1 2 3 4 5 6 
#
# 1 0.007234 -0.002199 -0.000468 0.000499 -0.005343 0.006472
# 2 -0.002199 0.007927 -0.002537 -0.001430 0.001380 -0.001297
# 3 -0.000468 -0.002537 0.025656 -0.034928 -0.002279 -0.015785
# 4 0.000499 -0.001430 -0.034928 0.080237 -0.000895 0.038054
# 5 -0.005343 0.001380 -0.002279 -0.000895 0.028225 -0.011044
# 6 0.006472 -0.001297 -0.015785 0.038054 -0.011044 0.058879
#
#
# Mechanical properties :
#
#
# Convention : Reuss Voigt Hill
#
# Bulk Modulus (GPa) = 32.88696 85.74020 59.31358
# Shear Modulus (GPa) = 21.86255 45.56637 33.71446
#
# Velocity S-wave (km/s) = 2.88150 4.15997 3.57830
# Velocity P-wave (km/s) = 4.85394 7.45900 6.29275
#
# Compressibility (1/GPa) = 0.03040718
#
# Stress axis : x y z
#
# Youngs Moduli (GPa) = 138.24150 126.15878 38.97707
#
# Poissons Ratio (x) = 0.27739 0.01826
# Poissons Ratio (y) = 0.30396 0.09890
# Poissons Ratio (z) = 0.06475 0.32012
#
# Static dielectric constant tensor:
#      x y z
#    x 4.541180 -0.065890 0.030400 
#    y -0.065890 4.745060 0.323180 
#    z 0.030400 0.323180 5.040930 
# 
# 
# High freq. dielectric constant tensor:
#      x y z
#    x 2.051140 0.011620 0.009160 
#    y 0.011620 2.060640 0.014350 
#    z 0.009160 0.014350 2.096440 
# 
# From -- ./inp_files/153240.got.cif
#   From: 2010.06.25/outbox.cif.g09.slc.cpg/sg2_77_cif.got.tgz:153240.got - 2010.06.27 13:26:56.
