data_PCOD8002631
_publ_section_title
;
Structure prediction by ZEFSAII (Michael W. Deem and Ramdas Pophale) SiO2 
 PCOD8002631
Probable space group: P -1
;
_chemical_formula_sum "Si O2"
_cell_formula_units_Z 16
_cell_length_a 24.652793
_cell_length_b 17.723449
_cell_length_c 11.726298
_cell_angle_alpha 35.630363
_cell_angle_beta 26.365415
_cell_angle_gamma 20.528161
_cell_volume 786.441480
_symmetry_space_group_name_H-M "P -1"
_symmetry_group_IT_number 2
_symmetry_cell_setting 'triclinic'
loop_
_space_group_symop_operation_xyz
x,y,z
-x,-y,-z
loop_
_atom_site_type_symbol
_atom_site_label
_atom_site_fract_x
_atom_site_fract_y
_atom_site_fract_z
Si Si1 0.268122 0.398062 0.133998
Si Si2 0.265134 0.668722 0.230742
Si Si3 0.076607 0.349437 0.181297
Si Si4 0.318265 0.418817 0.268820
Si Si5 0.061776 0.637300 0.802979
Si Si6 0.395009 0.956205 0.224329
Si Si7 0.803546 0.845680 0.418659
Si Si8 0.253474 0.960727 0.936956
O O1 0.341927 0.400400 0.110601
O O2 0.258154 0.252134 0.347979
O O3 0.051701 0.644131 0.201409
O O4 0.438549 0.282473 0.855861
O O5 0.216875 0.640385 0.235087
O O6 0.221648 0.605952 0.493016
O O7 0.500000 0.500000 0.000000
O O8 0.157713 0.899306 0.166698
O O9 0.843114 0.555066 0.420111
O O10 0.085560 0.287518 0.112664
O O11 0.209616 0.137791 0.263710
O O12 0.169847 0.416501 0.924822
O O13 0.538841 0.212182 0.167200
O O14 0.928052 0.814234 0.934201
O O15 0.293239 0.994077 0.487573
O O16 0.500000 0.000000 0.000000
O O17 0.704733 0.999962 0.307069
#
# Coordination Sequence:
#
# PCOD8002631 Si02
#       8
#     2   2   2   2   2   2   2   2
#     4  10  20  37  60  84 120 163 193 241 311 356
#     4   9  21  39  56  85 117 160 200 255 298 342
#     4  10  20  36  56  95 120 152 196 253 304 356
#     4  10  20  38  63  83 125 155 200 253 300 352
#     4  10  21  34  62  85 121 150 198 256 300 357
#     4  10  21  34  57  83 125 161 191 233 303 366
#     4  10  22  37  56  89 126 153 197 246 295 368
#     4  11  22  37  60  90 117 164 204 245 297 356
#
# _framework density 20.344806999999999
#
# number of rings (size 3 to 8) (size 9 to 14) (size 15 to 20)
#    0.000    2.000    1.250    1.875    3.500   10.000 
#    0.000    0.625    0.000    0.750    0.000    0.000 
#    0.000    0.000    0.000    0.000    0.000    0.000 
#
# Total GULP energy -198270.436374 kJ/mol
# GULP energy per Si atom -12391.902273 kJ/mol
# Density = 2.029850 g / cm^3
# Si number density = 20.344807 Si / 1000 Ang^3
#
#
#
# Elastic Constant Matrix: (Units=GPa)
#
#
# Indices 1 2 3 4 5 6 
#
# 1 112.7894 34.8433 28.8010 14.4173 23.5711 10.1374
# 2 34.8433 51.2599 29.6252 7.2830 4.8254 4.6218
# 3 28.8010 29.6252 91.9920 8.2624 9.9986 13.9109
# 4 14.4173 7.2830 8.2624 25.9418 10.4177 -2.0958
# 5 23.5711 4.8254 9.9986 10.4177 33.0577 11.1858
# 6 10.1374 4.6218 13.9109 -2.0958 11.1858 29.7760
#
#
#
# Elastic Compliance Matrix: (Units=1/GPa)
#
#
# Indices 1 2 3 4 5 6 
#
# 1 0.013207 -0.007578 -0.000647 -0.002105 -0.007309 -0.000420
# 2 -0.007578 0.028833 -0.007004 -0.003569 0.004648 -0.000621
# 3 -0.000647 -0.007004 0.014425 -0.002652 -0.000163 -0.005557
# 4 -0.002105 -0.003569 -0.002652 0.049347 -0.016900 0.012331
# 5 -0.007309 0.004648 -0.000163 -0.016900 0.045753 -0.016534
# 6 -0.000420 -0.000621 -0.005557 0.012331 -0.016534 0.043499
#
#
# Mechanical properties :
#
#
# Convention : Reuss Voigt Hill
#
# Bulk Modulus (GPa) = 38.45204 49.17557 43.81381
# Shear Modulus (GPa) = 21.35021 28.60655 24.97838
#
# Velocity S-wave (km/s) = 3.24299 3.75385 3.50773
# Velocity P-wave (km/s) = 5.74141 6.55836 6.16344
#
# Compressibility (1/GPa) = 0.02600642
#
# Stress axis : x y z
#
# Youngs Moduli (GPa) = 75.71893 34.68292 69.32495
#
# Poissons Ratio (x) = 0.26283 0.04488
# Poissons Ratio (y) = 0.57380 0.48552
# Poissons Ratio (z) = 0.04902 0.24290
#
# Static dielectric constant tensor:
#      x y z
#    x 3.811920 0.007490 0.600480 
#    y 0.007490 4.391640 0.166700 
#    z 0.600480 0.166700 3.369870 
# 
# 
# High freq. dielectric constant tensor:
#      x y z
#    x 1.807410 0.009340 0.014720 
#    y 0.009340 1.772050 0.020700 
#    z 0.014720 0.020700 1.782560 
# 
# From -- ./inp_files/426912.got.cif
#   From: 2010.06.25/outbox.cif.g09.slc.cpg/sg2_214_cif.got.tgz:426912.got - 2010.06.27 13:26:56.
