data_PCOD8002719
_publ_section_title
;
Structure prediction by ZEFSAII (Michael W. Deem and Ramdas Pophale) SiO2 
 PCOD8002719
Probable space group: P -1
;
_chemical_formula_sum "Si O2"
_cell_formula_units_Z 14
_cell_length_a 10.636015
_cell_length_b 18.838434
_cell_length_c 10.247768
_cell_angle_alpha 145.325699
_cell_angle_beta 107.053861
_cell_angle_gamma 47.674049
_cell_volume 678.082171
_symmetry_space_group_name_H-M "P -1"
_symmetry_group_IT_number 2
_symmetry_cell_setting 'triclinic'
loop_
_space_group_symop_operation_xyz
x,y,z
-x,-y,-z
loop_
_atom_site_type_symbol
_atom_site_label
_atom_site_fract_x
_atom_site_fract_y
_atom_site_fract_z
Si Si1 0.761446 0.067366 0.679130
Si Si2 0.665026 0.403374 0.066449
Si Si3 0.679833 0.872998 0.254254
Si Si4 0.320386 0.166178 0.092396
Si Si5 0.849066 0.433884 0.389765
Si Si6 0.718020 0.575219 0.840704
Si Si7 0.794061 0.329603 0.710504
O O1 0.807474 0.906323 0.364891
O O2 0.739058 0.202269 0.780350
O O3 0.544869 0.219022 0.929286
O O4 0.978011 0.916315 0.605549
O O5 0.764158 0.389465 0.203608
O O6 0.402999 0.608766 0.306671
O O7 0.746819 0.405292 0.960854
O O8 0.500000 0.000000 0.500000
O O9 0.583361 0.943845 0.185884
O O10 0.820398 0.638748 0.958785
O O11 0.265229 0.353186 0.368387
O O12 0.107012 0.245632 0.172867
O O13 0.500000 0.000000 0.000000
O O14 0.788621 0.445029 0.537368
O O15 0.808123 0.443933 0.800407
#
# Coordination Sequence:
#
# PCOD8002719 Si02
#       7
#     2   2   2   2   2   2   2
#     4  10  20  36  58  84 115 148 189 234 279 329
#     4  10  22  38  57  84 116 149 188 233 280 333
#     4   9  19  37  59  84 115 144 182 238 282 323
#     4  10  22  38  60  85 111 151 191 227 280 339
#     4  10  22  40  56  81 120 149 182 235 283 331
#     4   9  21  38  56  83 114 148 188 234 283 330
#     4  10  21  36  58  85 110 150 196 229 276 336
#
# _framework density 20.646464999999999
#
# number of rings (size 3 to 8) (size 9 to 14) (size 15 to 20)
#    0.000    2.286    0.000    1.286    0.000   12.000 
#    0.000    1.429    0.000    0.000    0.000    0.000 
#    0.000    0.000    0.000    0.000    0.000    0.000 
#
# Total GULP energy -173523.071073 kJ/mol
# GULP energy per Si atom -12394.505077 kJ/mol
# Density = 2.059947 g / cm^3
# Si number density = 20.646465 Si / 1000 Ang^3
#
#
#
# Elastic Constant Matrix: (Units=GPa)
#
#
# Indices 1 2 3 4 5 6 
#
# 1 88.7262 72.5813 45.7452 -7.1568 7.9760 5.9156
# 2 72.5813 150.7790 66.6634 0.9963 -5.1767 11.6322
# 3 45.7452 66.6634 80.4749 -8.0392 -9.4428 1.1114
# 4 -7.1568 0.9963 -8.0392 44.9940 -5.6672 -9.6396
# 5 7.9760 -5.1767 -9.4428 -5.6672 28.8458 -0.2776
# 6 5.9156 11.6322 1.1114 -9.6396 -0.2776 38.3145
#
#
#
# Elastic Compliance Matrix: (Units=1/GPa)
#
#
# Indices 1 2 3 4 5 6 
#
# 1 0.022507 -0.007910 -0.007277 0.001076 -0.009820 -0.000663
# 2 -0.007910 0.013977 -0.007182 -0.003430 0.001635 -0.003665
# 3 -0.007277 -0.007182 0.024137 0.005403 0.009725 0.004034
# 4 0.001076 -0.003430 0.005403 0.025742 0.005983 0.007238
# 5 -0.009820 0.001635 0.009725 0.005983 0.042059 0.002548
# 6 -0.000663 -0.003665 0.004034 0.007238 0.002548 0.029037
#
#
# Mechanical properties :
#
#
# Convention : Reuss Voigt Hill
#
# Bulk Modulus (GPa) = 62.95938 76.66221 69.81079
# Shear Modulus (GPa) = 24.09744 31.43023 27.76383
#
# Velocity S-wave (km/s) = 3.42006 3.90591 3.67103
# Velocity P-wave (km/s) = 6.79382 7.58637 7.20101
#
# Compressibility (1/GPa) = 0.01588326
#
# Stress axis : x y z
#
# Youngs Moduli (GPa) = 44.43074 71.54770 41.43010
#
# Poissons Ratio (x) = 0.56595 0.30149
# Poissons Ratio (y) = 0.35145 0.29754
# Poissons Ratio (z) = 0.32332 0.51383
#
# Static dielectric constant tensor:
#      x y z
#    x 4.054460 0.010950 0.086570 
#    y 0.010950 3.672040 -0.031310 
#    z 0.086570 -0.031310 3.792730 
# 
# 
# High freq. dielectric constant tensor:
#      x y z
#    x 1.815300 0.008760 -0.007690 
#    y 0.008760 1.800590 0.000120 
#    z -0.007690 0.000120 1.794630 
# 
# From -- ./inp_files/280138.got.cif
#   From: 2010.06.25/outbox.cif.g09.slc.cpg/sg2_141_cif.got.tgz:280138.got - 2010.06.27 13:26:56.
