data_PCOD8002876
_publ_section_title
;
Structure prediction by ZEFSAII (Michael W. Deem and Ramdas Pophale) SiO2 
 PCOD8002876
Probable space group: P -1
;
_chemical_formula_sum "Si O2"
_cell_formula_units_Z 16
_cell_length_a 8.916737
_cell_length_b 16.652534
_cell_length_c 9.468803
_cell_angle_alpha 112.939785
_cell_angle_beta 94.561521
_cell_angle_gamma 136.956494
_cell_volume 720.121213
_symmetry_space_group_name_H-M "P -1"
_symmetry_group_IT_number 2
_symmetry_cell_setting 'triclinic'
loop_
_space_group_symop_operation_xyz
x,y,z
-x,-y,-z
loop_
_atom_site_type_symbol
_atom_site_label
_atom_site_fract_x
_atom_site_fract_y
_atom_site_fract_z
Si Si1 0.743403 0.626622 0.358405
Si Si2 0.310485 0.145770 0.649254
Si Si3 0.157663 0.793211 0.718813
Si Si4 0.983184 0.105834 0.087936
Si Si5 0.553910 0.680555 0.959957
Si Si6 0.315681 0.953777 0.572199
Si Si7 0.585713 0.720033 0.530173
Si Si8 0.575050 0.254295 0.220120
O O1 0.595445 0.483956 0.154258
O O2 0.528542 0.597545 0.372188
O O3 0.864262 0.639021 0.517829
O O4 0.993517 0.789433 0.399549
O O5 0.436466 0.219485 0.554377
O O6 0.397104 0.094562 0.685873
O O7 0.389983 0.263155 0.838582
O O8 0.000000 0.000000 0.500000
O O9 0.145981 0.859636 0.887052
O O10 0.370069 0.931054 0.710229
O O11 0.243759 0.743620 0.758885
O O12 0.180373 0.201544 0.034806
O O13 0.122544 0.151243 0.281471
O O14 0.746626 0.922216 0.917533
O O15 0.363658 0.663432 0.862307
O O16 0.500000 0.000000 0.500000
O O17 0.369194 0.651655 0.581070
#
# Coordination Sequence:
#
# PCOD8002876 Si02
#       8
#     2   2   2   2   2   2   2   2
#     4   9  22  42  55  90 124 160 194 251 305 353
#     4  12  20  38  64  89 112 159 206 245 290 354
#     4   9  20  37  60  84 126 156 199 242 301 358
#     4  10  20  37  60  93 122 156 199 250 299 346
#     4  11  24  37  63  90 126 155 201 251 297 350
#     4  10  21  39  62  85 119 160 197 242 304 357
#     4  10  20  36  60  82 121 154 201 242 294 354
#     4  11  20  35  63  92 118 157 206 245 291 357
#
# _framework density 22.218481000000001
#
# number of rings (size 3 to 8) (size 9 to 14) (size 15 to 20)
#    0.750    1.000    1.250    4.875    0.000    5.500 
#    0.000    0.625    0.000    0.000    0.000    0.000 
#    0.000    0.000    0.000    0.000    0.000    0.000 
#
# Total GULP energy -198273.560431 kJ/mol
# GULP energy per Si atom -12392.097527 kJ/mol
# Density = 2.216791 g / cm^3
# Si number density = 22.218481 Si / 1000 Ang^3
#
#
#
# Elastic Constant Matrix: (Units=GPa)
#
#
# Indices 1 2 3 4 5 6 
#
# 1 114.5754 19.4425 26.2187 -6.1153 -28.8785 -24.5439
# 2 19.4425 39.6143 21.0971 2.8564 -8.8033 -8.1831
# 3 26.2187 21.0971 94.4527 4.1289 -30.6103 -7.0465
# 4 -6.1153 2.8564 4.1289 36.9472 -9.3526 -8.1073
# 5 -28.8785 -8.8033 -30.6103 -9.3526 32.7185 -3.3547
# 6 -24.5439 -8.1831 -7.0465 -8.1073 -3.3547 28.7997
#
#
#
# Elastic Compliance Matrix: (Units=1/GPa)
#
#
# Indices 1 2 3 4 5 6 
#
# 1 0.024634 -0.002596 0.007115 0.019730 0.036603 0.031815
# 2 -0.002596 0.030761 -0.005292 -0.000736 0.001355 0.005184
# 3 0.007115 -0.005292 0.019344 0.009662 0.027273 0.015190
# 4 0.019730 -0.000736 0.009662 0.048766 0.044074 0.037831
# 5 0.036603 0.001355 0.027273 0.044074 0.107832 0.063220
# 6 0.031815 0.005184 0.015190 0.037831 0.063220 0.085039
#
#
# Mechanical properties :
#
#
# Convention : Reuss Voigt Hill
#
# Bulk Modulus (GPa) = 13.66257 42.46212 28.06235
# Shear Modulus (GPa) = 14.60620 31.81866 23.21243
#
# Velocity S-wave (km/s) = 2.56674 3.78839 3.23574
# Velocity P-wave (km/s) = 3.86610 6.18777 5.15923
#
# Compressibility (1/GPa) = 0.07319268
#
# Stress axis : x y z
#
# Youngs Moduli (GPa) = 40.59393 32.50868 51.69625
#
# Poissons Ratio (x) = 0.08440 -0.36783
# Poissons Ratio (y) = 0.10539 0.27358
# Poissons Ratio (z) = -0.28883 0.17204
#
# Static dielectric constant tensor:
#      x y z
#    x 4.159370 -0.278640 -0.269470 
#    y -0.278640 3.573770 0.062260 
#    z -0.269470 0.062260 3.854940 
# 
# 
# High freq. dielectric constant tensor:
#      x y z
#    x 1.878830 -0.023870 -0.025220 
#    y -0.023870 1.846350 -0.007160 
#    z -0.025220 -0.007160 1.862510 
# 
# From -- ./inp_files/218313.got.cif
#   From: 2010.06.25/outbox.cif.g09.slc.cpg/sg2_110_cif.got.tgz:218313.got - 2010.06.27 13:26:56.
