data_PCOD8002538
_publ_section_title
;
Structure prediction by ZEFSAII (Michael W. Deem and Ramdas Pophale) SiO2 
 PCOD8002538
Probable space group: P -1
;
_chemical_formula_sum "Si O2"
_cell_formula_units_Z 10
_cell_length_a 8.918011
_cell_length_b 10.403882
_cell_length_c 9.808845
_cell_angle_alpha 91.026765
_cell_angle_beta 31.695922
_cell_angle_gamma 80.014613
_cell_volume 446.202501
_symmetry_space_group_name_H-M "P -1"
_symmetry_group_IT_number 2
_symmetry_cell_setting 'triclinic'
loop_
_space_group_symop_operation_xyz
x,y,z
-x,-y,-z
loop_
_atom_site_type_symbol
_atom_site_label
_atom_site_fract_x
_atom_site_fract_y
_atom_site_fract_z
Si Si1 0.698540 0.367674 0.926315
Si Si2 0.596128 0.704626 0.600843
Si Si3 0.296037 0.024193 0.888514
Si Si4 0.297906 0.865908 0.278182
Si Si5 0.631467 0.171914 0.483338
O O1 0.672793 0.232073 0.874074
O O2 0.041380 0.364506 0.663933
O O3 0.500000 0.500000 0.000000
O O4 0.565106 0.376890 0.182600
O O5 0.479215 0.862703 0.739099
O O6 0.505777 0.698133 0.510679
O O7 0.067185 0.938023 0.823782
O O8 0.411151 0.083988 0.935927
O O9 0.385259 0.096271 0.688810
O O10 0.286592 0.785349 0.428873
O O11 0.000000 0.000000 0.500000
#
# Coordination Sequence:
#
# PCOD8002538 Si02
#       5
#     2   2   2   2   2
#     4  12  27  43  63  89 126 168 209 253 309 366
#     4  12  22  42  64  90 127 165 205 253 309 369
#     4  10  20  35  66  96 125 150 208 249 316 351
#     4  10  22  40  65  94 127 156 206 256 306 361
#     4  10  22  36  63  98 126 158 200 257 310 364
#
# _framework density 22.411351
#
# number of rings (size 3 to 8) (size 9 to 14) (size 15 to 20)
#    1.200    0.000    2.000    5.400    2.800    1.600 
#    0.000    2.000    0.000    0.000    0.000    0.000 
#    0.000    0.000    0.000    0.000    0.000    0.000 
#
# Total GULP energy -123919.098445 kJ/mol
# GULP energy per Si atom -12391.909845 kJ/mol
# Density = 2.236034 g / cm^3
# Si number density = 22.411351 Si / 1000 Ang^3
#
#
#
# Elastic Constant Matrix: (Units=GPa)
#
#
# Indices 1 2 3 4 5 6 
#
# 1 117.2830 21.5753 43.6167 -4.7354 -1.6853 -36.0017
# 2 21.5753 57.1857 23.0081 -13.8911 -6.9954 -25.2947
# 3 43.6167 23.0081 105.7957 -33.8985 -21.7204 -15.1549
# 4 -4.7354 -13.8911 -33.8985 37.3437 -6.3084 5.3783
# 5 -1.6853 -6.9954 -21.7204 -6.3084 51.3062 -3.9279
# 6 -36.0017 -25.2947 -15.1549 5.3783 -3.9279 41.6945
#
#
#
# Elastic Compliance Matrix: (Units=1/GPa)
#
#
# Indices 1 2 3 4 5 6 
#
# 1 0.013848 0.000227 -0.006748 -0.006152 -0.002345 0.010215
# 2 0.000227 0.027581 0.000712 0.009652 0.006524 0.016557
# 3 -0.006748 0.000712 0.020999 0.020283 0.011312 0.000687
# 4 -0.006152 0.009652 0.020283 0.050297 0.016110 0.002945
# 5 -0.002345 0.006524 0.011312 0.016110 0.027575 0.006564
# 6 0.010215 0.016557 0.000687 0.002945 0.006564 0.043337
#
#
# Mechanical properties :
#
#
# Convention : Reuss Voigt Hill
#
# Bulk Modulus (GPa) = 19.68125 50.74053 35.21089
# Shear Modulus (GPa) = 23.56364 38.87316 31.21840
#
# Velocity S-wave (km/s) = 3.24607 4.16929 3.73630
# Velocity P-wave (km/s) = 4.78019 6.77252 5.86162
#
# Compressibility (1/GPa) = 0.05080978
#
# Stress axis : x y z
#
# Youngs Moduli (GPa) = 72.21507 36.25703 47.62112
#
# Poissons Ratio (x) = -0.00824 0.32134
# Poissons Ratio (y) = -0.01642 -0.03389
# Poissons Ratio (z) = 0.48730 -0.02580
#
# Static dielectric constant tensor:
#      x y z
#    x 4.221290 -0.352400 -0.017190 
#    y -0.352400 3.417870 -0.478540 
#    z -0.017190 -0.478540 3.928640 
# 
# 
# High freq. dielectric constant tensor:
#      x y z
#    x 1.905430 -0.016800 -0.000540 
#    y -0.016800 1.839330 -0.027860 
#    z -0.000540 -0.027860 1.884880 
# 
# From -- ./inp_files/57671.got.cif
#   From: 2010.06.25/outbox.cif.g09.slc.cpg/sg2_29_cif.got.tgz:57671.got - 2010.06.27 13:26:56.
