data_PCOD8002840
_publ_section_title
;
Structure prediction by ZEFSAII (Michael W. Deem and Ramdas Pophale) SiO2 
 PCOD8002840
Probable space group: P -1
;
_chemical_formula_sum "Si O2"
_cell_formula_units_Z 14
_cell_length_a 10.830111
_cell_length_b 5.366108
_cell_length_c 24.884886
_cell_angle_alpha 56.730725
_cell_angle_beta 42.108162
_cell_angle_gamma 81.281805
_cell_volume 721.766772
_symmetry_space_group_name_H-M "P -1"
_symmetry_group_IT_number 2
_symmetry_cell_setting 'triclinic'
loop_
_space_group_symop_operation_xyz
x,y,z
-x,-y,-z
loop_
_atom_site_type_symbol
_atom_site_label
_atom_site_fract_x
_atom_site_fract_y
_atom_site_fract_z
Si Si1 0.524133 0.459008 0.736332
Si Si2 0.494506 0.819319 0.863015
Si Si3 0.901807 0.752916 0.511612
Si Si4 0.816039 0.736532 0.710856
Si Si5 0.117358 0.213226 0.074932
Si Si6 0.654624 0.040555 0.896990
Si Si7 0.921522 0.710615 0.104047
O O1 0.656123 0.550247 0.627028
O O2 0.670343 0.651451 0.715681
O O3 0.326281 0.528199 0.787613
O O4 0.421892 0.063592 0.828104
O O5 0.728050 0.919821 0.757948
O O6 0.498052 0.833684 0.924800
O O7 0.327432 0.442166 0.945963
O O8 0.000000 0.500000 0.500000
O O9 0.000000 0.000000 0.500000
O O10 0.952260 0.993330 0.413821
O O11 0.803909 0.414769 0.783191
O O12 0.014459 0.451771 0.095459
O O13 0.183022 0.094320 0.122546
O O14 0.978986 0.890785 0.122226
O O15 0.500000 0.000000 0.000000
O O16 0.000000 0.000000 0.000000
#
# Coordination Sequence:
#
# PCOD8002840 Si02
#       7
#     2   2   2   2   2   2   2
#     4  10  22  37  58  88 120 152 192 239 295 348
#     4  11  20  35  61  84 120 149 192 245 292 346
#     4  10  20  36  59  89 117 147 190 244 300 342
#     4  10  21  36  61  88 118 148 191 249 297 340
#     4  12  25  38  56  85 120 157 194 227 285 354
#     4  11  23  37  57  87 120 155 193 242 296 341
#     4  12  25  38  58  82 122 160 191 232 283 353
#
# _framework density 19.396846
#
# number of rings (size 3 to 8) (size 9 to 14) (size 15 to 20)
#    0.000    1.143    4.286    2.571    4.000    0.000 
#    0.000    0.000    0.000    1.714    0.000    0.000 
#    0.000    0.000    0.000    0.000    0.000    0.000 
#
# Total GULP energy -173473.147430 kJ/mol
# GULP energy per Si atom -12390.939102 kJ/mol
# Density = 1.935270 g / cm^3
# Si number density = 19.396846 Si / 1000 Ang^3
#
#
#
# Elastic Constant Matrix: (Units=GPa)
#
#
# Indices 1 2 3 4 5 6 
#
# 1 59.2054 34.5311 58.5174 -3.2594 2.9793 -24.7952
# 2 34.5311 112.6714 36.7657 5.6307 6.7616 -13.4154
# 3 58.5174 36.7657 141.6977 16.0278 11.5541 -10.2902
# 4 -3.2594 5.6307 16.0278 29.3214 -4.4320 -3.2387
# 5 2.9793 6.7616 11.5541 -4.4320 21.7726 -1.6712
# 6 -24.7952 -13.4154 -10.2902 -3.2387 -1.6712 31.0246
#
#
#
# Elastic Compliance Matrix: (Units=1/GPa)
#
#
# Indices 1 2 3 4 5 6 
#
# 1 0.073993 -0.009932 -0.029945 0.034972 0.019778 0.049626
# 2 -0.009932 0.011472 0.001872 -0.005364 -0.004531 -0.003160
# 3 -0.029945 0.001872 0.020768 -0.019071 -0.012839 -0.018917
# 4 0.034972 -0.005364 -0.019071 0.055405 0.020289 0.026182
# 5 0.019778 -0.004531 -0.012839 0.020289 0.056706 0.014762
# 6 0.049626 -0.003160 -0.018917 0.026182 0.014762 0.067781
#
#
# Mechanical properties :
#
#
# Convention : Reuss Voigt Hill
#
# Bulk Modulus (GPa) = 33.08659 63.68922 48.38791
# Shear Modulus (GPa) = 13.43323 28.67442 21.05383
#
# Velocity S-wave (km/s) = 2.63448 3.84904 3.29815
# Velocity P-wave (km/s) = 5.13310 7.25669 6.28524
#
# Compressibility (1/GPa) = 0.03022372
#
# Stress axis : x y z
#
# Youngs Moduli (GPa) = 13.51478 87.16712 48.15023
#
# Poissons Ratio (x) = 0.86572 1.44185
# Poissons Ratio (y) = 0.13423 -0.09012
# Poissons Ratio (z) = 0.40470 -0.16315
#
# Static dielectric constant tensor:
#      x y z
#    x 3.408380 -0.056590 0.147510 
#    y -0.056590 3.682020 0.034400 
#    z 0.147510 0.034400 4.072200 
# 
# 
# High freq. dielectric constant tensor:
#      x y z
#    x 1.718660 0.000480 0.009540 
#    y 0.000480 1.770630 0.001400 
#    z 0.009540 0.001400 1.755990 
# 
# From -- ./inp_files/36146.got.cif
#   From: 2010.06.25/outbox.cif.g09.slc.cpg/sg2_19_cif.got.tgz:36146.got - 2010.06.27 13:26:56.
