data_PCOD8002623
_publ_section_title
;
Structure prediction by ZEFSAII (Michael W. Deem and Ramdas Pophale) SiO2 
 PCOD8002623
Probable space group: P -1
;
_chemical_formula_sum "Si O2"
_cell_formula_units_Z 16
_cell_length_a 6.603634
_cell_length_b 10.846520
_cell_length_c 11.745786
_cell_angle_alpha 69.282116
_cell_angle_beta 85.659855
_cell_angle_gamma 98.156056
_cell_volume 771.714037
_symmetry_space_group_name_H-M "P -1"
_symmetry_group_IT_number 2
_symmetry_cell_setting 'triclinic'
loop_
_space_group_symop_operation_xyz
x,y,z
-x,-y,-z
loop_
_atom_site_type_symbol
_atom_site_label
_atom_site_fract_x
_atom_site_fract_y
_atom_site_fract_z
Si Si1 0.139553 0.015898 0.819829
Si Si2 0.813084 0.023193 0.424205
Si Si3 0.451722 0.530789 0.723627
Si Si4 0.510449 0.242337 0.736789
Si Si5 0.940755 0.615766 0.087294
Si Si6 0.817727 0.131382 0.916647
Si Si7 0.288424 0.450723 0.088891
Si Si8 0.570192 0.210921 0.493764
O O1 0.123720 0.946015 0.719943
O O2 0.278065 0.163477 0.758854
O O3 0.907224 0.025466 0.867383
O O4 0.243624 0.928504 0.935550
O O5 0.642573 0.889940 0.485576
O O6 0.743955 0.156200 0.432547
O O7 0.000000 0.000000 0.500000
O O8 0.509787 0.397486 0.709912
O O9 0.231235 0.496092 0.808660
O O10 0.640531 0.599668 0.776281
O O11 0.441586 0.639007 0.592305
O O12 0.619617 0.177338 0.856062
O O13 0.631038 0.223942 0.620303
O O14 0.988460 0.746688 0.119464
O O15 0.158168 0.568262 0.076072
O O16 0.852917 0.655664 0.954208
O O17 0.500000 0.500000 0.000000
#
# Coordination Sequence:
#
# PCOD8002623 Si02
#       8
#     2   2   2   2   2   2   2   2
#     4  10  23  38  62  90 117 157 205 255 301 361
#     4  10  22  45  64  87 120 156 207 258 300 359
#     4  11  21  38  60  89 125 161 198 247 308 362
#     4  11  21  41  60  87 125 161 199 253 302 361
#     4  10  20  36  56  86 126 155 201 245 293 368
#     4  11  21  38  61  90 119 159 201 250 310 354
#     4   9  20  36  56  84 120 163 193 241 301 356
#     4  10  24  40  63  90 119 161 207 250 302 364
#
# _framework density 20.733067999999999
#
# number of rings (size 3 to 8) (size 9 to 14) (size 15 to 20)
#    0.000    1.750    2.500    1.500    0.000    5.000 
#    0.000    1.875    0.000    0.000    0.000    0.000 
#    0.000    0.000    0.000    0.000    0.000    0.000 
#
# Total GULP energy -198309.465781 kJ/mol
# GULP energy per Si atom -12394.341611 kJ/mol
# Density = 2.068588 g / cm^3
# Si number density = 20.733068 Si / 1000 Ang^3
#
#
#
# Elastic Constant Matrix: (Units=GPa)
#
#
# Indices 1 2 3 4 5 6 
#
# 1 83.3155 35.7182 38.2459 13.6871 11.5030 -18.3293
# 2 35.7182 73.4046 49.1843 11.5705 6.9786 -24.8263
# 3 38.2459 49.1843 135.6274 14.8910 13.0516 -15.4830
# 4 13.6871 11.5705 14.8910 39.5205 -3.0290 -1.8021
# 5 11.5030 6.9786 13.0516 -3.0290 29.7792 4.5474
# 6 -18.3293 -24.8263 -15.4830 -1.8021 4.5474 30.9036
#
#
#
# Elastic Compliance Matrix: (Units=1/GPa)
#
#
# Indices 1 2 3 4 5 6 
#
# 1 0.017654 -0.003544 -0.001662 -0.004634 -0.006882 0.007533
# 2 -0.003544 0.025639 -0.005532 -0.003843 -0.005087 0.016248
# 3 -0.001662 -0.005532 0.010331 -0.001909 -0.002791 0.000046
# 4 -0.004634 -0.003843 -0.001909 0.029040 0.007427 -0.006192
# 5 -0.006882 -0.005087 -0.002791 0.007427 0.041742 -0.015276
# 6 0.007533 0.016248 0.000046 -0.006192 -0.015276 0.051789
#
#
# Mechanical properties :
#
#
# Convention : Reuss Voigt Hill
#
# Bulk Modulus (GPa) = 31.10618 59.84938 45.47778
# Shear Modulus (GPa) = 23.99384 31.32059 27.65721
#
# Velocity S-wave (km/s) = 3.40556 3.89094 3.65631
# Velocity P-wave (km/s) = 5.52264 7.00822 6.30931
#
# Compressibility (1/GPa) = 0.03214795
#
# Stress axis : x y z
#
# Youngs Moduli (GPa) = 56.64564 39.00312 96.79259
#
# Poissons Ratio (x) = 0.13823 0.16086
# Poissons Ratio (y) = 0.20075 0.53547
# Poissons Ratio (z) = 0.09414 0.21577
#
# Static dielectric constant tensor:
#      x y z
#    x 3.747780 0.026700 0.118660 
#    y 0.026700 3.780090 0.361400 
#    z 0.118660 0.361400 3.819800 
# 
# 
# High freq. dielectric constant tensor:
#      x y z
#    x 1.810900 -0.004950 0.005440 
#    y -0.004950 1.810180 0.021800 
#    z 0.005440 0.021800 1.808800 
# 
# From -- ./inp_files/118699.got.cif
#   From: 2010.06.25/outbox.cif.g09.slc.cpg/sg2_60_cif.got.tgz:118699.got - 2010.06.27 13:26:56.
