data_PCOD8002712
_publ_section_title
;
Structure prediction by ZEFSAII (Michael W. Deem and Ramdas Pophale) SiO2 
 PCOD8002712
Probable space group: P -1
;
_chemical_formula_sum "Si O2"
_cell_formula_units_Z 16
_cell_length_a 8.582696
_cell_length_b 15.348800
_cell_length_c 14.775338
_cell_angle_alpha 142.410296
_cell_angle_beta 118.163618
_cell_angle_gamma 89.752163
_cell_volume 760.210964
_symmetry_space_group_name_H-M "P -1"
_symmetry_group_IT_number 2
_symmetry_cell_setting 'triclinic'
loop_
_space_group_symop_operation_xyz
x,y,z
-x,-y,-z
loop_
_atom_site_type_symbol
_atom_site_label
_atom_site_fract_x
_atom_site_fract_y
_atom_site_fract_z
Si Si1 0.575145 0.594109 0.373440
Si Si2 0.774775 0.276188 0.236750
Si Si3 0.506574 0.348180 0.312048
Si Si4 0.650518 0.519923 0.139105
Si Si5 0.804541 0.494369 0.686079
Si Si6 0.192806 0.834956 0.579125
Si Si7 0.339736 0.784281 0.047028
Si Si8 0.108061 0.945551 0.830593
O O1 0.602099 0.482625 0.361329
O O2 0.538685 0.515957 0.198540
O O3 0.336870 0.557068 0.301155
O O4 0.823463 0.822178 0.636360
O O5 0.578901 0.219215 0.211098
O O6 0.685250 0.269181 0.107692
O O7 0.847693 0.151252 0.161164
O O8 0.000000 0.500000 0.500000
O O9 0.632578 0.477653 0.546861
O O10 0.214301 0.158393 0.071448
O O11 0.619821 0.331904 0.975278
O O12 0.931990 0.722530 0.369079
O O13 0.500000 0.500000 0.000000
O O14 0.814455 0.334078 0.531503
O O15 0.079171 0.711400 0.945295
O O16 0.222917 0.950870 0.771499
O O17 0.414722 0.981723 0.688615
#
# Coordination Sequence:
#
# PCOD8002712 Si02
#       8
#     2   2   2   2   2   2   2   2
#     4  11  23  38  52  81 117 146 179 226 277 322
#     4  12  16  30  54  81 110 145 186 227 251 307
#     4  12  20  32  54  83 115 152 185 215 262 315
#     4  10  22  41  63  82 101 135 188 239 278 317
#     4  11  23  34  53  83 122 150 173 213 272 334
#     4  10  20  36  58  84 107 142 186 226 267 321
#     4  11  20  36  58  81 108 144 186 226 263 317
#     4  11  20  32  56  80 110 150 192 223 252 312
#
# _framework density 21.046790999999999
#
# number of rings (size 3 to 8) (size 9 to 14) (size 15 to 20)
#    0.000    1.000    6.250    2.250    0.000    2.000 
#    0.000    2.500    0.000    1.500    0.000    0.000 
#    0.000    0.000    0.000    0.000    0.000    0.000 
#
# Total GULP energy -198235.958331 kJ/mol
# GULP energy per Si atom -12389.747396 kJ/mol
# Density = 2.099889 g / cm^3
# Si number density = 21.046791 Si / 1000 Ang^3
#
#
#
# Elastic Constant Matrix: (Units=GPa)
#
#
# Indices 1 2 3 4 5 6 
#
# 1 92.9321 19.8804 30.3025 -1.8293 30.0223 21.7379
# 2 19.8804 91.6227 43.9697 -15.9688 18.7611 1.1826
# 3 30.3025 43.9697 102.1613 7.7651 24.8615 8.9034
# 4 -1.8293 -15.9688 7.7651 33.6722 8.1159 9.0547
# 5 30.0223 18.7611 24.8615 8.1159 28.5457 1.1978
# 6 21.7379 1.1826 8.9034 9.0547 1.1978 21.4231
#
#
#
# Elastic Compliance Matrix: (Units=1/GPa)
#
#
# Indices 1 2 3 4 5 6 
#
# 1 0.038913 0.009320 -0.000531 0.033329 -0.053931 -0.050851
# 2 0.009320 0.020653 -0.006208 0.021651 -0.023459 -0.015856
# 3 -0.000531 -0.006208 0.014936 -0.003801 -0.007150 -0.003320
# 4 0.033329 0.021651 -0.003801 0.074749 -0.064647 -0.061413
# 5 -0.053931 -0.023459 -0.007150 -0.064647 0.128457 0.079132
# 6 -0.050851 -0.015856 -0.003320 -0.061413 0.079132 0.122064
#
#
# Mechanical properties :
#
#
# Convention : Reuss Voigt Hill
#
# Bulk Modulus (GPa) = 12.55270 52.78013 32.66642
# Shear Modulus (GPa) = 11.87181 29.56578 20.71880
#
# Velocity S-wave (km/s) = 2.37759 3.75208 3.14094
# Velocity P-wave (km/s) = 3.67619 6.62592 5.35804
#
# Compressibility (1/GPa) = 0.07966413
#
# Stress axis : x y z
#
# Youngs Moduli (GPa) = 25.69818 48.41884 66.95189
#
# Poissons Ratio (x) = -0.45125 0.03552
# Poissons Ratio (y) = -0.23950 0.41566
# Poissons Ratio (z) = 0.01363 0.30060
#
# Static dielectric constant tensor:
#      x y z
#    x 4.141270 -0.017870 0.474380 
#    y -0.017870 3.448110 0.276720 
#    z 0.474380 0.276720 4.064820 
# 
# 
# High freq. dielectric constant tensor:
#      x y z
#    x 1.826380 -0.002870 0.025660 
#    y -0.002870 1.786370 0.026360 
#    z 0.025660 0.026360 1.825020 
# 
# From -- ./inp_files/258416.got.cif
#   From: 2010.06.25/outbox.cif.g09.slc.cpg/sg2_130_cif.got.tgz:258416.got - 2010.06.27 13:26:56.
