data_PCOD8002207
_publ_section_title
;
Structure prediction by ZEFSAII (Michael W. Deem and Ramdas Pophale) SiO2 
 PCOD8002207
Probable space group: P -1
;
_chemical_formula_sum "Si O2"
_cell_formula_units_Z 16
_cell_length_a 26.433639
_cell_length_b 11.737569
_cell_length_c 6.628450
_cell_angle_alpha 125.540932
_cell_angle_beta 49.573867
_cell_angle_gamma 151.399838
_cell_volume 749.022982
_symmetry_space_group_name_H-M "P -1"
_symmetry_group_IT_number 2
_symmetry_cell_setting 'triclinic'
loop_
_space_group_symop_operation_xyz
x,y,z
-x,-y,-z
loop_
_atom_site_type_symbol
_atom_site_label
_atom_site_fract_x
_atom_site_fract_y
_atom_site_fract_z
Si Si1 0.345498 0.875300 0.769085
Si Si2 0.159052 0.345228 0.778821
Si Si3 0.082684 0.626698 0.731519
Si Si4 0.929683 0.211591 0.453844
Si Si5 0.904391 0.914787 0.966575
Si Si6 0.746602 0.006064 0.023233
Si Si7 0.724993 0.658930 0.826105
Si Si8 0.468303 0.874901 0.158051
O O1 0.219349 0.597514 0.841311
O O2 0.412637 0.902198 0.458841
O O3 0.341541 0.031369 0.873236
O O4 0.416383 0.989438 0.908436
O O5 0.145431 0.308135 0.021577
O O6 0.237405 0.358879 0.490269
O O7 0.034284 0.129831 0.775539
O O8 0.062337 0.717344 0.721010
O O9 0.050678 0.431377 0.485936
O O10 0.206708 0.845459 0.735050
O O11 0.000000 0.500000 0.000000
O O12 0.899809 0.000768 0.274008
O O13 0.839126 0.139603 0.747686
O O14 0.828251 0.837203 0.900882
O O15 0.690972 0.760751 0.965381
O O16 0.617098 0.400314 0.937573
O O17 0.500000 0.000000 0.000000
#
# Coordination Sequence:
#
# PCOD8002207 Si02
#       8
#     2   2   2   2   2   2   2   2
#     4  10  24  43  66  91 121 160 208 257 313 371
#     4  10  23  39  58  90 128 170 205 250 298 372
#     4   9  20  34  51  83 128 171 202 242 295 356
#     4  10  20  35  57  86 128 175 203 246 295 368
#     4  11  21  38  60  92 128 169 213 241 304 365
#     4  11  22  38  61  94 125 157 205 258 315 369
#     4  11  22  41  65  90 127 163 202 263 311 360
#     4  10  23  48  69  88 117 161 211 257 313 372
#
# _framework density 21.361158
#
# number of rings (size 3 to 8) (size 9 to 14) (size 15 to 20)
#    0.000    1.750    2.500    1.125    5.250    1.500 
#    9.000    0.625    0.000    0.000    0.000    0.000 
#    0.000    0.000    0.000    0.000    0.000    0.000 
#
# Total GULP energy -198242.104839 kJ/mol
# GULP energy per Si atom -12390.131552 kJ/mol
# Density = 2.131254 g / cm^3
# Si number density = 21.361158 Si / 1000 Ang^3
#
#
#
# Elastic Constant Matrix: (Units=GPa)
#
#
# Indices 1 2 3 4 5 6 
#
# 1 143.9581 66.5169 40.3733 -2.0451 3.2826 -12.0959
# 2 66.5169 131.1885 35.0855 -11.2597 4.1032 -10.5322
# 3 40.3733 35.0855 51.4044 -2.1214 8.6788 -1.7086
# 4 -2.0451 -11.2597 -2.1214 28.4835 -8.1272 4.6285
# 5 3.2826 4.1032 8.6788 -8.1272 34.5995 0.9092
# 6 -12.0959 -10.5322 -1.7086 4.6285 0.9092 33.3329
#
#
#
# Elastic Compliance Matrix: (Units=1/GPa)
#
#
# Indices 1 2 3 4 5 6 
#
# 1 0.010442 -0.003695 -0.005737 -0.001406 0.000490 0.002510
# 2 -0.003695 0.011161 -0.004692 0.003881 0.001079 0.001377
# 3 -0.005737 -0.004692 0.028099 -0.001692 -0.006300 -0.001717
# 4 -0.001406 0.003881 -0.001692 0.040007 0.009631 -0.005188
# 5 0.000490 0.001079 -0.006300 0.009631 0.032623 -0.002031
# 6 0.002510 0.001377 -0.001717 -0.005188 -0.002031 0.032034
#
#
# Mechanical properties :
#
#
# Convention : Reuss Voigt Hill
#
# Bulk Modulus (GPa) = 46.61120 67.83359 57.22240
# Shear Modulus (GPa) = 26.34838 31.58820 28.96829
#
# Velocity S-wave (km/s) = 3.51589 3.84965 3.68655
# Velocity P-wave (km/s) = 6.19273 7.18222 6.70575
#
# Compressibility (1/GPa) = 0.02145407
#
# Stress axis : x y z
#
# Youngs Moduli (GPa) = 95.76381 89.59954 35.58887
#
# Poissons Ratio (x) = 0.33105 0.20417
# Poissons Ratio (y) = 0.35383 0.16698
# Poissons Ratio (z) = 0.54940 0.42040
#
# Static dielectric constant tensor:
#      x y z
#    x 3.826990 -0.041050 0.199830 
#    y -0.041050 4.176550 0.208620 
#    z 0.199830 0.208620 3.760320 
# 
# 
# High freq. dielectric constant tensor:
#      x y z
#    x 1.833440 -0.016070 0.018420 
#    y -0.016070 1.840610 0.006000 
#    z 0.018420 0.006000 1.827580 
# 
# From -- ./inp_files/126899.got.cif
#   From: 2010.06.25/outbox.cif.g09.slc.cpg/sg2_64_cif.got.tgz:126899.got - 2010.06.27 13:26:56.
