data_PCOD8002258
_publ_section_title
;
Structure prediction by ZEFSAII (Michael W. Deem and Ramdas Pophale) SiO2 
 PCOD8002258
Probable space group: P -1
;
_chemical_formula_sum "Si O2"
_cell_formula_units_Z 16
_cell_length_a 16.099996
_cell_length_b 11.950960
_cell_length_c 8.724964
_cell_angle_alpha 69.593166
_cell_angle_beta 57.209983
_cell_angle_gamma 116.041767
_cell_volume 799.104169
_symmetry_space_group_name_H-M "P -1"
_symmetry_group_IT_number 2
_symmetry_cell_setting 'triclinic'
loop_
_space_group_symop_operation_xyz
x,y,z
-x,-y,-z
loop_
_atom_site_type_symbol
_atom_site_label
_atom_site_fract_x
_atom_site_fract_y
_atom_site_fract_z
Si Si1 0.691311 0.662467 0.723189
Si Si2 0.920661 0.105639 0.274886
Si Si3 0.197414 0.412336 0.609695
Si Si4 0.649268 0.102284 0.199075
Si Si5 0.867009 0.473563 0.636224
Si Si6 0.831535 0.628087 0.842351
Si Si7 0.383038 0.709525 0.536356
Si Si8 0.830999 0.276740 0.229487
O O1 0.737991 0.625835 0.550111
O O2 0.741889 0.651377 0.838129
O O3 0.781714 0.874026 0.507050
O O4 0.500000 0.500000 0.000000
O O5 0.829251 0.144400 0.370519
O O6 0.029160 0.183208 0.278824
O O7 0.038323 0.216787 0.955635
O O8 0.147774 0.485616 0.537019
O O9 0.348434 0.587322 0.489049
O O10 0.805855 0.230953 0.092143
O O11 0.500000 0.000000 0.500000
O O12 0.579065 0.915618 0.270989
O O13 0.693692 0.246339 0.962032
O O14 0.916059 0.624945 0.633389
O O15 0.000000 0.500000 0.500000
O O16 0.701808 0.423552 0.162740
O O17 0.309016 0.770176 0.544163
O O18 0.000000 0.500000 0.000000
#
# Coordination Sequence:
#
# PCOD8002258 Si02
#       8
#     2   2   2   2   2   2   2   2
#     4  11  26  44  64  90 123 167 219 268 306 357
#     4  11  22  41  69  90 124 168 215 248 319 378
#     4  10  23  40  64  88 128 166 208 262 311 370
#     4  10  20  35  58  87 129 170 201 239 315 373
#     4  11  21  35  58  98 133 159 201 259 312 378
#     4  10  21  41  65  87 126 168 207 257 310 375
#     4  10  21  38  64  94 127 167 205 254 323 373
#     4  11  18  33  66  98 121 160 207 246 307 384
#
# _framework density 20.022424000000001
#
# number of rings (size 3 to 8) (size 9 to 14) (size 15 to 20)
#    0.000    1.500    5.000    1.500    3.500    1.500 
#    2.250    2.500    2.750    0.000    0.000    0.000 
#    0.000    0.000    0.000    0.000    0.000    0.000 
#
# Total GULP energy -198324.557201 kJ/mol
# GULP energy per Si atom -12395.284825 kJ/mol
# Density = 1.997685 g / cm^3
# Si number density = 20.022424 Si / 1000 Ang^3
#
#
#
# Elastic Constant Matrix: (Units=GPa)
#
#
# Indices 1 2 3 4 5 6 
#
# 1 123.4565 57.8348 52.1158 -12.2051 10.1386 3.7715
# 2 57.8348 112.4052 54.9102 -28.1261 2.8892 11.1281
# 3 52.1158 54.9102 111.4406 -20.8461 3.4576 7.5951
# 4 -12.2051 -28.1261 -20.8461 36.5236 5.9332 -3.0046
# 5 10.1386 2.8892 3.4576 5.9332 23.7440 -1.9550
# 6 3.7715 11.1281 7.5951 -3.0046 -1.9550 40.1329
#
#
#
# Elastic Compliance Matrix: (Units=1/GPa)
#
#
# Indices 1 2 3 4 5 6 
#
# 1 0.011907 -0.004664 -0.003354 -0.000870 -0.003765 0.000561
# 2 -0.004664 0.015463 -0.003652 0.008318 -0.001652 -0.002616
# 3 -0.003354 -0.003652 0.013118 0.003643 -0.001021 -0.000932
# 4 -0.000870 0.008318 0.003643 0.037231 -0.010527 -0.000640
# 5 -0.003765 -0.001652 -0.001021 -0.010527 0.046910 0.002502
# 6 0.000561 -0.002616 -0.000932 -0.000640 0.002502 0.025840
#
#
# Mechanical properties :
#
#
# Convention : Reuss Voigt Hill
#
# Bulk Modulus (GPa) = 58.32042 75.22487 66.77264
# Shear Modulus (GPa) = 27.85100 32.24288 30.04694
#
# Velocity S-wave (km/s) = 3.73364 4.01726 3.87804
# Velocity P-wave (km/s) = 6.91213 7.69218 7.31257
#
# Compressibility (1/GPa) = 0.01714665
#
# Stress axis : x y z
#
# Youngs Moduli (GPa) = 83.98372 64.66989 76.22919
#
# Poissons Ratio (x) = 0.30163 0.25569
# Poissons Ratio (y) = 0.39171 0.27843
# Poissons Ratio (z) = 0.28171 0.23621
#
# Static dielectric constant tensor:
#      x y z
#    x 4.087480 0.421700 -0.044530 
#    y 0.421700 4.122020 -0.586580 
#    z -0.044530 -0.586580 4.437090 
# 
# 
# High freq. dielectric constant tensor:
#      x y z
#    x 1.778620 0.015390 0.009510 
#    y 0.015390 1.788300 -0.012140 
#    z 0.009510 -0.012140 1.769710 
# 
# From -- ./inp_files/299563.got.cif
#   From: 2010.06.25/outbox.cif.g09.slc.cpg/sg2_150_cif.got.tgz:299563.got - 2010.06.27 13:26:56.
