data_PCOD8002065
_publ_section_title
;
Structure prediction by ZEFSAII (Michael W. Deem and Ramdas Pophale) SiO2 
 PCOD8002065
Probable space group: P -1
;
_chemical_formula_sum "Si O2"
_cell_formula_units_Z 16
_cell_length_a 9.093827
_cell_length_b 19.188553
_cell_length_c 16.275485
_cell_angle_alpha 156.796400
_cell_angle_beta 115.777604
_cell_angle_gamma 51.798041
_cell_volume 793.346580
_symmetry_space_group_name_H-M "P -1"
_symmetry_group_IT_number 2
_symmetry_cell_setting 'triclinic'
loop_
_space_group_symop_operation_xyz
x,y,z
-x,-y,-z
loop_
_atom_site_type_symbol
_atom_site_label
_atom_site_fract_x
_atom_site_fract_y
_atom_site_fract_z
Si Si1 0.021941 0.916307 0.593501
Si Si2 0.654436 0.235482 0.627057
Si Si3 0.792748 0.834757 0.327164
Si Si4 0.793819 0.408724 0.117917
Si Si5 0.279856 0.746816 0.628751
Si Si6 0.922433 0.746461 0.833708
Si Si7 0.247154 0.516105 0.521506
Si Si8 0.196427 0.521693 0.987362
O O1 0.156508 0.919974 0.558139
O O2 0.173412 0.751298 0.523884
O O3 0.903794 0.831191 0.432942
O O4 0.853321 0.164037 0.856583
O O5 0.444490 0.410169 0.714331
O O6 0.633123 0.079796 0.513258
O O7 0.688638 0.375796 0.849006
O O8 0.681100 0.727070 0.210969
O O9 0.960909 0.677010 0.128110
O O10 0.811651 0.499161 0.134591
O O11 0.940662 0.397299 0.209479
O O12 0.208670 0.653877 0.579030
O O13 0.526452 0.585001 0.498952
O O14 0.213575 0.989088 0.898844
O O15 0.769155 0.683812 0.714083
O O16 0.072524 0.687696 0.730184
#
# Coordination Sequence:
#
# PCOD8002065 Si02
#       8
#     2   2   2   2   2   2   2   2
#     4  10  20  37  56  81 112 142 181 227 269 317
#     4  11  20  38  54  77 115 148 179 227 266 313
#     4  10  20  35  57  76 112 150 179 225 270 310
#     4  11  21  35  58  82 108 145 186 221 269 325
#     4  10  21  37  62  85 110 146 186 225 278 340
#     4  10  22  38  59  85 116 142 181 236 276 331
#     4  10  21  40  60  84 111 147 181 226 289 336
#     4  10  20  35  54  79 107 148 188 219 267 321
#
# _framework density 20.167732000000001
#
# number of rings (size 3 to 8) (size 9 to 14) (size 15 to 20)
#    0.000    1.750    2.500    2.625    1.750    0.500 
#    0.000    0.000    0.000    0.000    0.000    0.000 
#    0.000    0.000    0.000    0.000    0.000    0.000 
#
# Total GULP energy -198382.655601 kJ/mol
# GULP energy per Si atom -12398.915975 kJ/mol
# Density = 2.012183 g / cm^3
# Si number density = 20.167732 Si / 1000 Ang^3
#
#
#
# Elastic Constant Matrix: (Units=GPa)
#
#
# Indices 1 2 3 4 5 6 
#
# 1 57.5178 20.3626 19.6080 10.0239 9.1932 12.3767
# 2 20.3626 91.9987 16.3134 13.0506 -1.7713 14.9835
# 3 19.6080 16.3134 56.8652 7.8850 12.4975 6.4215
# 4 10.0239 13.0506 7.8850 30.3700 10.4077 -1.6065
# 5 9.1932 -1.7713 12.4975 10.4077 21.0436 9.9447
# 6 12.3767 14.9835 6.4215 -1.6065 9.9447 26.6379
#
#
#
# Elastic Compliance Matrix: (Units=1/GPa)
#
#
# Indices 1 2 3 4 5 6 
#
# 1 0.022775 -0.001823 -0.005588 -0.005790 0.000150 -0.008615
# 2 -0.001823 0.016634 -0.004741 -0.012318 0.018136 -0.014880
# 3 -0.005588 -0.004741 0.023294 0.003824 -0.016545 0.006054
# 4 -0.005790 -0.012318 0.003824 0.054461 -0.040525 0.027111
# 5 0.000150 0.018136 -0.016545 -0.040525 0.100749 -0.046339
# 6 -0.008615 -0.014880 0.006054 0.027111 -0.046339 0.067389
#
#
# Mechanical properties :
#
#
# Convention : Reuss Voigt Hill
#
# Bulk Modulus (GPa) = 26.04115 35.43886 30.74000
# Shear Modulus (GPa) = 15.50852 25.61681 20.56267
#
# Velocity S-wave (km/s) = 2.77605 3.56784 3.19655
# Velocity P-wave (km/s) = 4.81826 5.88071 5.37580
#
# Compressibility (1/GPa) = 0.03840076
#
# Stress axis : x y z
#
# Youngs Moduli (GPa) = 43.90811 60.11861 42.92883
#
# Poissons Ratio (x) = 0.10958 0.23987
# Poissons Ratio (y) = 0.08003 0.20352
# Poissons Ratio (z) = 0.24534 0.28501
#
# Static dielectric constant tensor:
#      x y z
#    x 3.619460 0.091060 -0.013520 
#    y 0.091060 3.720310 0.082380 
#    z -0.013520 0.082380 3.708980 
# 
# 
# High freq. dielectric constant tensor:
#      x y z
#    x 1.782990 0.010410 -0.005620 
#    y 0.010410 1.784810 0.007940 
#    z -0.005620 0.007940 1.791110 
# 
# From -- ./inp_files/218001.got.cif
#   From: 2010.06.25/outbox.cif.g09.slc.cpg/sg2_110_cif.got.tgz:218001.got - 2010.06.27 13:26:56.
