data_PCOD8002316
_publ_section_title
;
Structure prediction by ZEFSAII (Michael W. Deem and Ramdas Pophale) SiO2 
 PCOD8002316
Probable space group: P -1
;
_chemical_formula_sum "Si O2"
_cell_formula_units_Z 16
_cell_length_a 11.698310
_cell_length_b 20.569178
_cell_length_c 18.044643
_cell_angle_alpha 161.487049
_cell_angle_beta 147.269138
_cell_angle_gamma 32.369615
_cell_volume 717.050174
_symmetry_space_group_name_H-M "P -1"
_symmetry_group_IT_number 2
_symmetry_cell_setting 'triclinic'
loop_
_space_group_symop_operation_xyz
x,y,z
-x,-y,-z
loop_
_atom_site_type_symbol
_atom_site_label
_atom_site_fract_x
_atom_site_fract_y
_atom_site_fract_z
Si Si1 0.486549 0.732510 0.218314
Si Si2 0.390509 0.882052 0.086798
Si Si3 0.703648 0.158184 0.555982
Si Si4 0.732958 0.339405 0.362759
Si Si5 0.540443 0.225098 0.278193
Si Si6 0.794905 0.944684 0.681006
Si Si7 0.073355 0.787415 0.415775
Si Si8 0.726547 0.593784 0.059008
O O1 0.581988 0.849097 0.462224
O O2 0.653025 0.739589 0.248611
O O3 0.245908 0.868308 0.202515
O O4 0.500000 0.500000 0.000000
O O5 0.584757 0.686812 0.010190
O O6 0.490647 0.079558 0.332356
O O7 0.202234 0.958674 0.130172
O O8 0.291584 0.788212 0.862302
O O9 0.812462 0.229455 0.619380
O O10 0.665120 0.377665 0.817035
O O11 0.861575 0.990080 0.514786
O O12 0.565601 0.301207 0.291252
O O13 0.659472 0.599973 0.598715
O O14 0.986295 0.243375 0.420698
O O15 0.764380 0.185596 0.402789
O O16 0.500000 0.000000 0.000000
O O17 0.980980 0.583823 0.166651
#
# Coordination Sequence:
#
# PCOD8002316 Si02
#       8
#     2   2   2   2   2   2   2   2
#     4  10  21  38  61  89 121 155 198 251 305 360
#     4  10  21  39  61  90 124 159 202 247 299 363
#     4  10  20  35  60  89 120 158 198 248 302 355
#     4  11  24  41  62  86 120 164 205 249 303 361
#     4  11  25  42  60  86 121 161 206 255 303 358
#     4  10  22  40  62  91 122 159 202 248 302 363
#     4  10  21  36  57  86 118 155 202 250 300 357
#     4  10  20  35  59  88 119 156 199 249 302 355
#
# _framework density 22.313641000000001
#
# number of rings (size 3 to 8) (size 9 to 14) (size 15 to 20)
#    0.000    1.750    0.000    3.750    0.000    9.000 
#    0.000    0.000    0.000    6.750    0.000    0.000 
#    0.000    0.000    0.000    0.000    0.000    0.000 
#
# Total GULP energy -198235.522986 kJ/mol
# GULP energy per Si atom -12389.720187 kJ/mol
# Density = 2.226285 g / cm^3
# Si number density = 22.313641 Si / 1000 Ang^3
#
#
#
# Elastic Constant Matrix: (Units=GPa)
#
#
# Indices 1 2 3 4 5 6 
#
# 1 57.0343 28.7398 24.7949 2.6987 -10.6708 -0.6059
# 2 28.7398 113.2527 60.1631 6.1829 0.9866 -6.0825
# 3 24.7949 60.1631 140.0004 19.0401 -0.4553 2.2317
# 4 2.6987 6.1829 19.0401 34.8489 10.2667 -3.6260
# 5 -10.6708 0.9866 -0.4553 10.2667 37.7772 0.0263
# 6 -0.6059 -6.0825 2.2317 -3.6260 0.0263 32.2845
#
#
#
# Elastic Compliance Matrix: (Units=1/GPa)
#
#
# Indices 1 2 3 4 5 6 
#
# 1 0.021970 -0.004737 -0.001535 -0.002115 0.006886 -0.000617
# 2 -0.004737 0.012721 -0.004917 0.001742 -0.002205 0.002845
# 3 -0.001535 -0.004917 0.010278 -0.005224 0.001240 -0.002253
# 4 -0.002115 0.001742 -0.005224 0.034882 -0.010189 0.004576
# 5 0.006886 -0.002205 0.001240 -0.010189 0.031259 -0.001542
# 6 -0.000617 0.002845 -0.002253 0.004576 -0.001542 0.032170
#
#
# Mechanical properties :
#
#
# Convention : Reuss Voigt Hill
#
# Bulk Modulus (GPa) = 44.26819 59.74256 52.00538
# Shear Modulus (GPa) = 28.87019 34.08810 31.47915
#
# Velocity S-wave (km/s) = 3.60090 3.91280 3.76008
# Velocity P-wave (km/s) = 6.09678 6.87353 6.49677
#
# Compressibility (1/GPa) = 0.02258958
#
# Stress axis : x y z
#
# Youngs Moduli (GPa) = 45.51706 78.61020 97.29295
#
# Poissons Ratio (x) = 0.37240 0.14938
# Poissons Ratio (y) = 0.21563 0.47840
# Poissons Ratio (z) = 0.06988 0.38653
#
# Static dielectric constant tensor:
#      x y z
#    x 4.227760 -0.330730 -0.143100 
#    y -0.330730 4.808560 0.274310 
#    z -0.143100 0.274310 4.086860 
# 
# 
# High freq. dielectric constant tensor:
#      x y z
#    x 1.881850 0.008670 -0.016650 
#    y 0.008670 1.870930 0.012050 
#    z -0.016650 0.012050 1.882460 
# 
# From -- ./inp_files/84116.got.cif
#   From: 2010.06.25/outbox.cif.g09.slc.cpg/sg2_43_cif.got.tgz:84116.got - 2010.06.27 13:26:56.
