data_PCOD8002644
_publ_section_title
;
Structure prediction by ZEFSAII (Michael W. Deem and Ramdas Pophale) SiO2 
 PCOD8002644
Probable space group: P -1
;
_chemical_formula_sum "Si O2"
_cell_formula_units_Z 16
_cell_length_a 15.154550
_cell_length_b 15.237832
_cell_length_c 15.303158
_cell_angle_alpha 30.180140
_cell_angle_beta 128.621059
_cell_angle_gamma 150.427778
_cell_volume 751.755922
_symmetry_space_group_name_H-M "P -1"
_symmetry_group_IT_number 2
_symmetry_cell_setting 'triclinic'
loop_
_space_group_symop_operation_xyz
x,y,z
-x,-y,-z
loop_
_atom_site_type_symbol
_atom_site_label
_atom_site_fract_x
_atom_site_fract_y
_atom_site_fract_z
Si Si1 0.178796 0.106745 0.703595
Si Si2 0.598575 0.496240 0.664366
Si Si3 0.824384 0.483318 0.906853
Si Si4 0.206460 0.888625 0.690264
Si Si5 0.431757 0.089320 0.495322
Si Si6 0.070072 0.823953 0.204619
Si Si7 0.330342 0.928371 0.385290
Si Si8 0.151554 0.200412 0.793695
O O1 0.348676 0.176311 0.772076
O O2 0.279726 0.368051 0.469068
O O3 0.114318 0.135631 0.723170
O O4 0.972546 0.749560 0.845757
O O5 0.655531 0.409113 0.838078
O O6 0.659501 0.762767 0.513101
O O7 0.964282 0.614003 0.796625
O O8 0.713175 0.164182 0.150387
O O9 0.229860 0.856478 0.631950
O O10 0.479899 0.945234 0.639543
O O11 0.620429 0.429737 0.366430
O O12 0.396516 0.118544 0.350562
O O13 0.273553 0.983885 0.224294
O O14 0.871420 0.445840 0.390545
O O15 0.023975 0.903858 0.183587
O O16 0.131163 0.985558 0.010945
#
# Coordination Sequence:
#
# PCOD8002644 Si02
#       8
#     2   2   2   2   2   2   2   2
#     4  10  20  37  61  85 117 158 190 248 295 342
#     4  10  21  41  61  84 124 155 195 246 293 349
#     4  10  23  39  61  88 120 158 199 241 295 350
#     4  10  20  39  59  85 119 154 195 248 287 350
#     4  10  20  36  58  79 114 149 183 240 289 337
#     4   9  20  37  56  81 113 145 189 234 282 350
#     4   9  20  37  56  81 112 148 185 235 288 338
#     4  10  20  36  57  82 112 147 188 235 288 344
#
# _framework density 21.283501999999999
#
# number of rings (size 3 to 8) (size 9 to 14) (size 15 to 20)
#    0.000    2.250    1.250    1.500    1.750    3.500 
#    0.000   11.250    0.000    0.000    0.000    0.000 
#    0.000    0.000    0.000    0.000    0.000    0.000 
#
# Total GULP energy -198357.959619 kJ/mol
# GULP energy per Si atom -12397.372476 kJ/mol
# Density = 2.123506 g / cm^3
# Si number density = 21.283502 Si / 1000 Ang^3
#
#
#
# Elastic Constant Matrix: (Units=GPa)
#
#
# Indices 1 2 3 4 5 6 
#
# 1 97.3499 29.5830 19.9300 4.4391 -11.5679 -26.3661
# 2 29.5830 85.1222 9.4252 17.7533 11.0352 2.7377
# 3 19.9300 9.4252 55.6677 19.1470 14.6119 0.7430
# 4 4.4391 17.7533 19.1470 18.1912 8.1635 4.6917
# 5 -11.5679 11.0352 14.6119 8.1635 27.0886 12.4592
# 6 -26.3661 2.7377 0.7430 4.6917 12.4592 31.6448
#
#
#
# Elastic Compliance Matrix: (Units=1/GPa)
#
#
# Indices 1 2 3 4 5 6 
#
# 1 0.019180 -0.008721 -0.010734 0.007679 0.009683 0.012036
# 2 -0.008721 0.019762 0.010235 -0.023198 -0.009339 -0.002100
# 3 -0.010734 0.010235 0.038926 -0.040619 -0.018730 0.002654
# 4 0.007679 -0.023198 -0.040619 0.119614 0.002986 -0.009551
# 5 0.009683 -0.009339 -0.018730 0.002986 0.061029 -0.015155
# 6 0.012036 -0.002100 0.002654 -0.009551 -0.015155 0.049132
#
#
# Mechanical properties :
#
#
# Convention : Reuss Voigt Hill
#
# Bulk Modulus (GPa) = 16.82734 39.55734 28.19234
# Shear Modulus (GPa) = 14.45533 27.33170 20.89351
#
# Velocity S-wave (km/s) = 2.60894 3.58742 3.13657
# Velocity P-wave (km/s) = 4.12296 5.98212 5.13734
#
# Compressibility (1/GPa) = 0.05942709
#
# Stress axis : x y z
#
# Youngs Moduli (GPa) = 52.13639 50.60211 25.68996
#
# Poissons Ratio (x) = 0.44132 0.27575
# Poissons Ratio (y) = 0.45470 -0.26293
# Poissons Ratio (z) = 0.55963 -0.51790
#
# Static dielectric constant tensor:
#      x y z
#    x 3.913840 -0.033130 0.017940 
#    y -0.033130 3.739000 0.107990 
#    z 0.017940 0.107990 3.701810 
# 
# 
# High freq. dielectric constant tensor:
#      x y z
#    x 1.835990 -0.005830 -0.000860 
#    y -0.005830 1.824340 0.005430 
#    z -0.000860 0.005430 1.816850 
# 
# From -- ./inp_files/317151.got.cif
#   From: 2010.06.25/outbox.cif.g09.slc.cpg/sg2_159_cif.got.tgz:317151.got - 2010.06.27 13:26:56.
