data_PCOD8002657
_publ_section_title
;
Structure prediction by ZEFSAII (Michael W. Deem and Ramdas Pophale) SiO2 
 PCOD8002657
Probable space group: P -1
;
_chemical_formula_sum "Si O2"
_cell_formula_units_Z 16
_cell_length_a 17.943073
_cell_length_b 20.427295
_cell_length_c 6.738026
_cell_angle_alpha 108.047038
_cell_angle_beta 111.984049
_cell_angle_gamma 20.582187
_cell_volume 798.801559
_symmetry_space_group_name_H-M "P -1"
_symmetry_group_IT_number 2
_symmetry_cell_setting 'triclinic'
loop_
_space_group_symop_operation_xyz
x,y,z
-x,-y,-z
loop_
_atom_site_type_symbol
_atom_site_label
_atom_site_fract_x
_atom_site_fract_y
_atom_site_fract_z
Si Si1 0.935600 0.122976 0.145004
Si Si2 0.535220 0.113487 0.294586
Si Si3 0.479441 0.095736 0.806865
Si Si4 0.811433 0.280734 0.768110
Si Si5 0.800193 0.807966 0.531091
Si Si6 0.639058 0.304580 0.351197
Si Si7 0.211037 0.958017 0.607809
Si Si8 0.183085 0.410070 0.547733
O O1 0.730657 0.273107 0.224704
O O2 0.870105 0.229950 0.011146
O O3 0.137305 0.994083 0.348520
O O4 0.000000 0.000000 0.000000
O O5 0.592077 0.144927 0.309649
O O6 0.303289 0.299473 0.353909
O O7 0.741371 0.922396 0.451355
O O8 0.508806 0.082411 0.056373
O O9 0.319764 0.159654 0.665293
O O10 0.372502 0.251248 0.754455
O O11 0.712374 0.891615 0.745197
O O12 0.730807 0.269249 0.606185
O O13 0.621997 0.486887 0.731347
O O14 0.014045 0.147818 0.716839
O O15 0.061472 0.581893 0.587957
O O16 0.712312 0.167698 0.302536
O O17 0.000000 0.500000 0.500000
#
# Coordination Sequence:
#
# PCOD8002657 Si02
#       8
#     2   2   2   2   2   2   2   2
#     4  11  18  37  63  79 105 153 190 225 279 328
#     4  11  23  36  57  86 119 154 186 235 299 340
#     4   9  19  37  59  84 109 148 191 234 285 340
#     4  10  20  36  59  82 109 145 193 234 273 334
#     4   9  19  37  59  82 112 144 194 238 272 343
#     4  10  20  36  57  85 109 142 193 234 272 336
#     4  11  23  37  53  83 121 146 183 238 285 334
#     4   9  20  38  59  85 112 145 196 242 276 340
#
# _framework density 20.030004999999999
#
# number of rings (size 3 to 8) (size 9 to 14) (size 15 to 20)
#    0.000    2.000    2.500    2.250    0.000    6.000 
#    0.000    1.250    0.000    0.000    0.000    0.000 
#    0.000    0.000    0.000    0.000    0.000    0.000 
#
# Total GULP energy -198349.767807 kJ/mol
# GULP energy per Si atom -12396.860488 kJ/mol
# Density = 1.998442 g / cm^3
# Si number density = 20.030005 Si / 1000 Ang^3
#
#
#
# Elastic Constant Matrix: (Units=GPa)
#
#
# Indices 1 2 3 4 5 6 
#
# 1 53.8131 22.6191 23.1234 0.7862 -6.3078 -11.2963
# 2 22.6191 126.5057 35.0099 14.6559 -6.9388 3.3877
# 3 23.1234 35.0099 94.4586 12.4167 -17.3440 -11.1051
# 4 0.7862 14.6559 12.4167 21.0809 3.1429 -5.8650
# 5 -6.3078 -6.9388 -17.3440 3.1429 20.3846 0.8048
# 6 -11.2963 3.3877 -11.1051 -5.8650 0.8048 23.0620
#
#
#
# Elastic Compliance Matrix: (Units=1/GPa)
#
#
# Indices 1 2 3 4 5 6 
#
# 1 0.024872 -0.004633 -0.003631 0.007876 0.001299 0.013073
# 2 -0.004633 0.010570 -0.002212 -0.008092 0.001806 -0.007008
# 3 -0.003631 -0.002212 0.016329 -0.008894 0.013243 0.003685
# 4 0.007876 -0.008092 -0.008894 0.065857 -0.018756 0.018166
# 5 0.001299 0.001806 0.013243 -0.018756 0.064243 -0.000264
# 6 0.013073 -0.007008 0.003685 0.018166 -0.000264 0.057198
#
#
# Mechanical properties :
#
#
# Convention : Reuss Voigt Hill
#
# Bulk Modulus (GPa) = 32.44829 48.47578 40.46204
# Shear Modulus (GPa) = 18.49835 25.84050 22.16942
#
# Velocity S-wave (km/s) = 3.04226 3.59568 3.33049
# Velocity P-wave (km/s) = 5.34561 6.44148 5.91896
#
# Compressibility (1/GPa) = 0.03081826
#
# Stress axis : x y z
#
# Youngs Moduli (GPa) = 40.20569 94.61175 61.23962
#
# Poissons Ratio (x) = 0.43838 0.22237
# Poissons Ratio (y) = 0.18629 0.13545
# Poissons Ratio (z) = 0.14599 0.20926
#
# Static dielectric constant tensor:
#      x y z
#    x 3.374660 0.237690 -0.278010 
#    y 0.237690 4.016990 0.016890 
#    z -0.278010 0.016890 3.824350 
# 
# 
# High freq. dielectric constant tensor:
#      x y z
#    x 1.751390 0.011770 -0.021030 
#    y 0.011770 1.788790 0.007060 
#    z -0.021030 0.007060 1.777900 
# 
# From -- ./inp_files/112444.got.cif
#   From: 2010.06.25/outbox.cif.g09.slc.cpg/sg2_57_cif.got.tgz:112444.got - 2010.06.27 13:26:56.
