data_PCOD8002560
_publ_section_title
;
Structure prediction by ZEFSAII (Michael W. Deem and Ramdas Pophale) SiO2 
 PCOD8002560
Probable space group: P -1
;
_chemical_formula_sum "Si O2"
_cell_formula_units_Z 14
_cell_length_a 15.130182
_cell_length_b 8.099759
_cell_length_c 8.816561
_cell_angle_alpha 131.699586
_cell_angle_beta 59.331078
_cell_angle_gamma 126.311424
_cell_volume 637.843408
_symmetry_space_group_name_H-M "P -1"
_symmetry_group_IT_number 2
_symmetry_cell_setting 'triclinic'
loop_
_space_group_symop_operation_xyz
x,y,z
-x,-y,-z
loop_
_atom_site_type_symbol
_atom_site_label
_atom_site_fract_x
_atom_site_fract_y
_atom_site_fract_z
Si Si1 0.076721 0.883329 0.590387
Si Si2 0.146207 0.828375 0.184733
Si Si3 0.876764 0.425012 0.422480
Si Si4 0.966156 0.700301 0.013713
Si Si5 0.538597 0.054719 0.751432
Si Si6 0.614741 0.832845 0.817520
Si Si7 0.366251 0.662872 0.453591
O O1 0.135018 0.973069 0.432318
O O2 0.146301 0.733072 0.501841
O O3 0.946677 0.704609 0.570025
O O4 0.084883 0.096191 0.831375
O O5 0.034765 0.783517 0.160293
O O6 0.266351 0.987620 0.104956
O O7 0.139110 0.556477 0.050163
O O8 0.762458 0.399864 0.428070
O O9 0.946874 0.306400 0.191480
O O10 0.616647 0.261716 0.693919
O O11 0.604326 0.919713 0.706764
O O12 0.440445 0.873482 0.625657
O O13 0.486995 0.174158 0.993835
O O14 0.605624 0.562921 0.666300
#
# Coordination Sequence:
#
# PCOD8002560 Si02
#       7
#     2   2   2   2   2   2   2
#     4  10  20  36  55  83 120 154 188 236 283 339
#     4  10  21  34  56  86 113 149 196 231 283 354
#     4  10  21  35  57  85 115 153 196 230 284 353
#     4  10  20  36  54  83 119 150 189 238 279 340
#     4  10  24  41  61  90 115 147 204 244 288 356
#     4  11  22  41  64  86 117 156 191 244 298 340
#     4  11  22  41  62  86 119 154 192 246 295 339
#
# _framework density 21.948962999999999
#
# number of rings (size 3 to 8) (size 9 to 14) (size 15 to 20)
#    0.000    1.714    0.000    4.286    0.000    3.429 
#    0.000    8.571    0.000    0.000    0.000    0.000 
#    0.000    0.000    0.000    0.000    0.000    0.000 
#
# Total GULP energy -173500.950354 kJ/mol
# GULP energy per Si atom -12392.925025 kJ/mol
# Density = 2.189901 g / cm^3
# Si number density = 21.948963 Si / 1000 Ang^3
#
#
#
# Elastic Constant Matrix: (Units=GPa)
#
#
# Indices 1 2 3 4 5 6 
#
# 1 68.5043 14.5111 3.6753 4.3715 -5.4973 -6.8886
# 2 14.5111 67.0577 6.8002 9.2238 -11.0169 -14.6460
# 3 3.6753 6.8002 70.1373 10.4552 -5.6767 -10.1680
# 4 4.3715 9.2238 10.4552 28.0992 -7.5073 4.3028
# 5 -5.4973 -11.0169 -5.6767 -7.5073 27.4191 -2.3016
# 6 -6.8886 -14.6460 -10.1680 4.3028 -2.3016 34.0291
#
#
#
# Elastic Compliance Matrix: (Units=1/GPa)
#
#
# Indices 1 2 3 4 5 6 
#
# 1 0.015594 -0.002279 0.000178 -0.001596 0.002026 0.002568
# 2 -0.002279 0.019259 0.001041 -0.006013 0.006635 0.009348
# 3 0.000178 0.001041 0.016277 -0.006729 0.002516 0.006369
# 4 -0.001596 -0.006013 -0.006729 0.043712 0.007002 -0.009975
# 5 0.002026 0.006635 0.002516 0.007002 0.042485 0.006006
# 6 0.002568 0.009348 0.006369 -0.009975 0.006006 0.037500
#
#
# Mechanical properties :
#
#
# Convention : Reuss Voigt Hill
#
# Bulk Modulus (GPa) = 20.40451 28.40806 24.40628
# Shear Modulus (GPa) = 25.86856 29.95700 27.91278
#
# Velocity S-wave (km/s) = 3.43677 3.69839 3.56998
# Velocity P-wave (km/s) = 5.00650 5.58644 5.30440
#
# Compressibility (1/GPa) = 0.04900877
#
# Stress axis : x y z
#
# Youngs Moduli (GPa) = 64.12926 51.92375 61.43453
#
# Poissons Ratio (x) = 0.11835 -0.01093
# Poissons Ratio (y) = 0.14617 -0.06394
# Poissons Ratio (z) = -0.01141 -0.05404
#
# Static dielectric constant tensor:
#      x y z
#    x 3.969520 -0.196350 0.136910 
#    y -0.196350 4.092880 0.030780 
#    z 0.136910 0.030780 3.917650 
# 
# 
# High freq. dielectric constant tensor:
#      x y z
#    x 1.856220 -0.010760 0.001790 
#    y -0.010760 1.864280 0.000620 
#    z 0.001790 0.000620 1.861770 
# 
# From -- ./inp_files/136618.got.cif
#   From: 2010.06.25/outbox.cif.g09.slc.cpg/sg2_69_cif.got.tgz:136618.got - 2010.06.27 13:26:56.
