data_PCOD8002099
_publ_section_title
;
Structure prediction by ZEFSAII (Michael W. Deem and Ramdas Pophale) SiO2 
 PCOD8002099
Probable space group: P -1
;
_chemical_formula_sum "Si O2"
_cell_formula_units_Z 16
_cell_length_a 8.594574
_cell_length_b 7.812076
_cell_length_c 17.342575
_cell_angle_alpha 117.776780
_cell_angle_beta 52.011733
_cell_angle_gamma 120.270060
_cell_volume 771.556928
_symmetry_space_group_name_H-M "P -1"
_symmetry_group_IT_number 2
_symmetry_cell_setting 'triclinic'
loop_
_space_group_symop_operation_xyz
x,y,z
-x,-y,-z
loop_
_atom_site_type_symbol
_atom_site_label
_atom_site_fract_x
_atom_site_fract_y
_atom_site_fract_z
Si Si1 0.692599 0.457129 0.032331
Si Si2 0.777296 0.144734 0.642325
Si Si3 0.036441 0.857448 0.847751
Si Si4 0.633388 0.979470 0.348253
Si Si5 0.710264 0.436564 0.844813
Si Si6 0.484629 0.302296 0.543679
Si Si7 0.877008 0.195755 0.023130
Si Si8 0.784277 0.709982 0.521656
O O1 0.490716 0.525221 0.125386
O O2 0.708086 0.278790 0.048678
O O3 0.677183 0.378057 0.932578
O O4 0.891252 0.652107 0.026045
O O5 0.583917 0.139328 0.648357
O O6 0.760348 0.247836 0.750450
O O7 0.976695 0.276275 0.560082
O O8 0.778261 0.914597 0.609395
O O9 0.173584 0.839049 0.877387
O O10 0.905199 0.635218 0.813042
O O11 0.183879 0.970980 0.758406
O O12 0.874586 0.979993 0.942579
O O13 0.662369 0.819070 0.368287
O O14 0.628662 0.182470 0.435797
O O15 0.646122 0.514261 0.570901
O O16 0.317833 0.328819 0.539829
#
# Coordination Sequence:
#
# PCOD8002099 Si02
#       8
#     2   2   2   2   2   2   2   2
#     4   9  19  37  58  79 111 150 188 234 282 328
#     4  10  20  35  55  81 113 144 179 227 282 333
#     4  10  20  35  57  83 114 149 187 230 278 334
#     4  10  20  35  56  80 111 148 184 226 275 333
#     4  10  20  35  56  83 116 149 184 232 282 335
#     4   9  19  37  58  79 108 146 186 228 275 328
#     4   9  19  37  58  80 110 149 189 233 280 330
#     4   9  19  37  58  80 109 144 183 232 280 328
#
# _framework density 20.737290999999999
#
# number of rings (size 3 to 8) (size 9 to 14) (size 15 to 20)
#    0.000    2.500    0.000    1.500    0.000    3.000 
#    0.000   16.250    0.000    0.000    0.000    0.000 
#    0.000    0.000    0.000    0.000    0.000    0.000 
#
# Total GULP energy -198371.351812 kJ/mol
# GULP energy per Si atom -12398.209488 kJ/mol
# Density = 2.069009 g / cm^3
# Si number density = 20.737291 Si / 1000 Ang^3
#
#
#
# Elastic Constant Matrix: (Units=GPa)
#
#
# Indices 1 2 3 4 5 6 
#
# 1 76.0979 29.6931 31.8378 -0.6142 -1.1247 -7.2865
# 2 29.6931 111.0558 52.3423 4.5049 7.8185 2.9753
# 3 31.8378 52.3423 106.3278 1.7668 3.8692 2.4160
# 4 -0.6142 4.5049 1.7668 40.0979 -0.9963 5.0583
# 5 -1.1247 7.8185 3.8692 -0.9963 19.9585 -6.8468
# 6 -7.2865 2.9753 2.4160 5.0583 -6.8468 30.3333
#
#
#
# Elastic Compliance Matrix: (Units=1/GPa)
#
#
# Indices 1 2 3 4 5 6 
#
# 1 0.016541 -0.003180 -0.003694 0.000182 0.004839 0.005641
# 2 -0.003180 0.012702 -0.005038 -0.001054 -0.005119 -0.002588
# 3 -0.003694 -0.005038 0.013079 0.000122 -0.001369 -0.001764
# 4 0.000182 -0.001054 0.000122 0.025574 0.000282 -0.004064
# 5 0.004839 -0.005119 -0.001369 0.000282 0.057723 0.014756
# 6 0.005641 -0.002588 -0.001764 -0.004064 0.014756 0.038725
#
#
# Mechanical properties :
#
#
# Convention : Reuss Voigt Hill
#
# Bulk Modulus (GPa) = 54.06541 57.91422 55.98981
# Shear Modulus (GPa) = 25.72879 30.05183 27.89031
#
# Velocity S-wave (km/s) = 3.52618 3.81092 3.67131
# Velocity P-wave (km/s) = 6.53504 6.88131 6.71041
#
# Compressibility (1/GPa) = 0.01849612
#
# Stress axis : x y z
#
# Youngs Moduli (GPa) = 60.45664 78.72961 76.45856
#
# Poissons Ratio (x) = 0.25039 0.28247
# Poissons Ratio (y) = 0.19228 0.38518
# Poissons Ratio (z) = 0.22335 0.39662
#
# Static dielectric constant tensor:
#      x y z
#    x 3.741940 0.005680 0.066710 
#    y 0.005680 3.910650 0.035000 
#    z 0.066710 0.035000 3.575070 
# 
# 
# High freq. dielectric constant tensor:
#      x y z
#    x 1.799880 0.004690 0.001170 
#    y 0.004690 1.821830 0.005260 
#    z 0.001170 0.005260 1.795220 
# 
# From -- ./inp_files/556366.got.cif
#   From: 2010.06.25/outbox.cif.g09.slc.cpg/sg2_279_cif.got.tgz:556366.got - 2010.06.27 13:26:56.
