data_PCOD8002463
_publ_section_title
;
Structure prediction by ZEFSAII (Michael W. Deem and Ramdas Pophale) SiO2 
 PCOD8002463
Probable space group: P -1
;
_chemical_formula_sum "Si O2"
_cell_formula_units_Z 14
_cell_length_a 14.621855
_cell_length_b 12.016160
_cell_length_c 7.552218
_cell_angle_alpha 144.646656
_cell_angle_beta 109.275840
_cell_angle_gamma 56.913899
_cell_volume 624.882136
_symmetry_space_group_name_H-M "P -1"
_symmetry_group_IT_number 2
_symmetry_cell_setting 'triclinic'
loop_
_space_group_symop_operation_xyz
x,y,z
-x,-y,-z
loop_
_atom_site_type_symbol
_atom_site_label
_atom_site_fract_x
_atom_site_fract_y
_atom_site_fract_z
Si Si1 0.320331 0.275562 0.904985
Si Si2 0.524498 0.518917 0.740691
Si Si3 0.909623 0.874824 0.138441
Si Si4 0.063204 0.136832 0.238670
Si Si5 0.075983 0.683638 0.298645
Si Si6 0.338337 0.977353 0.822978
Si Si7 0.683564 0.046397 0.804322
O O1 0.334109 0.120042 0.546017
O O2 0.369154 0.140785 0.947329
O O3 0.387458 0.399605 0.067511
O O4 0.190317 0.454127 0.075359
O O5 0.500000 0.500000 0.500000
O O6 0.579204 0.268485 0.525715
O O7 0.405426 0.700199 0.986605
O O8 0.905948 0.107442 0.412276
O O9 0.787764 0.940268 0.216344
O O10 0.937631 0.751888 0.805491
O O11 0.005351 0.701809 0.103740
O O12 0.194097 0.980607 0.175633
O O13 0.996026 0.320747 0.584679
O O14 0.000000 0.000000 0.000000
O O15 0.343013 0.991424 0.057742
#
# Coordination Sequence:
#
# PCOD8002463 Si02
#       7
#     2   2   2   2   2   2   2
#     4  12  24  41  67  99 128 162 216 266 315 375
#     4  10  23  45  69  88 130 172 210 263 318 375
#     4   9  18  37  60  89 126 165 207 250 311 379
#     4   9  19  36  62  92 125 165 211 251 310 383
#     4  10  20  35  62  91 125 165 204 257 314 369
#     4  10  22  42  66  93 127 170 210 256 322 377
#     4  10  23  41  64  97 130 163 215 267 309 375
#
# _framework density 22.404226000000001
#
# number of rings (size 3 to 8) (size 9 to 14) (size 15 to 20)
#    0.000    2.000    1.429    1.286    2.000    6.286 
#    0.000    5.714    0.000    0.000    0.000    0.000 
#    0.000    0.000    0.000    0.000    0.000    0.000 
#
# Total GULP energy -173510.983984 kJ/mol
# GULP energy per Si atom -12393.641713 kJ/mol
# Density = 2.235323 g / cm^3
# Si number density = 22.404226 Si / 1000 Ang^3
#
#
#
# Elastic Constant Matrix: (Units=GPa)
#
#
# Indices 1 2 3 4 5 6 
#
# 1 68.3580 17.4941 41.0468 -5.3474 -24.5244 -25.2327
# 2 17.4941 89.0915 44.4738 0.9433 -19.0433 -3.0121
# 3 41.0468 44.4738 110.9164 3.1653 -28.3081 -7.7062
# 4 -5.3474 0.9433 3.1653 28.4351 -3.9463 -8.4756
# 5 -24.5244 -19.0433 -28.3081 -3.9463 39.5721 4.4214
# 6 -25.2327 -3.0121 -7.7062 -8.4756 4.4214 24.2159
#
#
#
# Elastic Compliance Matrix: (Units=1/GPa)
#
#
# Indices 1 2 3 4 5 6 
#
# 1 0.053818 0.001716 -0.011660 0.032291 0.022377 0.059797
# 2 0.001716 0.014468 -0.005290 0.001512 0.004206 0.001665
# 3 -0.011660 -0.005290 0.015348 -0.006634 0.001726 -0.010561
# 4 0.032291 0.001512 -0.006634 0.058910 0.016354 0.049356
# 5 0.022377 0.004206 0.001726 0.016354 0.041510 0.022533
# 6 0.059797 0.001665 -0.010561 0.049356 0.022533 0.113610
#
#
# Mechanical properties :
#
#
# Convention : Reuss Voigt Hill
#
# Bulk Modulus (GPa) = 18.80957 52.71059 35.76008
# Shear Modulus (GPa) = 14.45699 29.46802 21.96250
#
# Velocity S-wave (km/s) = 2.54299 3.63062 3.13435
# Velocity P-wave (km/s) = 4.12749 6.41509 5.39396
#
# Compressibility (1/GPa) = 0.05316442
#
# Stress axis : x y z
#
# Youngs Moduli (GPa) = 18.58119 69.12024 65.15485
#
# Poissons Ratio (x) = -0.11860 0.75973
# Poissons Ratio (y) = -0.03188 0.34467
# Poissons Ratio (z) = 0.21666 0.36564
#
# Static dielectric constant tensor:
#      x y z
#    x 4.255780 -0.142830 -0.360440 
#    y -0.142830 4.240770 -0.075360 
#    z -0.360440 -0.075360 4.334060 
# 
# 
# High freq. dielectric constant tensor:
#      x y z
#    x 1.886670 -0.013480 -0.009270 
#    y -0.013480 1.882110 -0.008050 
#    z -0.009270 -0.008050 1.884950 
# 
# From -- ./inp_files/308950.got.cif
#   From: 2010.06.25/outbox.cif.g09.slc.cpg/sg2_155_cif.got.tgz:308950.got - 2010.06.27 13:26:56.
