data_PCOD8002626
_publ_section_title
;
Structure prediction by ZEFSAII (Michael W. Deem and Ramdas Pophale) SiO2 
 PCOD8002626
Probable space group: P -1
;
_chemical_formula_sum "Si O2"
_cell_formula_units_Z 16
_cell_length_a 11.574263
_cell_length_b 14.376824
_cell_length_c 12.278720
_cell_angle_alpha 119.926359
_cell_angle_beta 131.804178
_cell_angle_gamma 30.833949
_cell_volume 766.069012
_symmetry_space_group_name_H-M "P -1"
_symmetry_group_IT_number 2
_symmetry_cell_setting 'triclinic'
loop_
_space_group_symop_operation_xyz
x,y,z
-x,-y,-z
loop_
_atom_site_type_symbol
_atom_site_label
_atom_site_fract_x
_atom_site_fract_y
_atom_site_fract_z
Si Si1 0.567689 0.629570 0.906066
Si Si2 0.912476 0.719729 0.097969
Si Si3 0.219219 0.640560 0.656841
Si Si4 0.120070 0.025145 0.514985
Si Si5 0.609067 0.676012 0.490000
Si Si6 0.400552 0.906814 0.828703
Si Si7 0.720348 0.797107 0.472628
Si Si8 0.865491 0.633267 0.237976
O O1 0.387192 0.629539 0.831478
O O2 0.362328 0.811612 0.804645
O O3 0.800645 0.445959 0.872983
O O4 0.682504 0.636735 0.081569
O O5 0.921630 0.689889 0.214458
O O6 0.768290 0.915030 0.099209
O O7 0.721895 0.738159 0.934679
O O8 0.410795 0.439690 0.613301
O O9 0.095769 0.772431 0.551978
O O10 0.993432 0.705746 0.622391
O O11 0.309692 0.874445 0.451132
O O12 0.314604 0.975779 0.691800
O O13 0.000000 0.000000 0.500000
O O14 0.695122 0.694243 0.448493
O O15 0.841034 0.573250 0.663039
O O16 0.714479 0.779508 0.328123
O O17 0.500000 0.000000 0.500000
#
# Coordination Sequence:
#
# PCOD8002626 Si02
#       8
#     2   2   2   2   2   2   2   2
#     4  11  22  39  60  94 136 160 201 259 324 369
#     4  10  21  36  61  88 132 168 206 246 313 380
#     4  11  24  40  63  95 128 164 209 267 314 372
#     4  12  23  36  62  96 131 164 206 251 321 370
#     4  11  24  43  68  86 125 168 216 262 311 370
#     4  10  20  36  56  88 129 169 209 240 300 388
#     4  11  23  47  68  89 119 167 226 265 306 370
#     4  10  21  41  65  91 121 170 215 255 307 382
#
# _framework density 20.885847999999999
#
# number of rings (size 3 to 8) (size 9 to 14) (size 15 to 20)
#    0.000    1.250    2.500    6.000    1.750    0.500 
#    2.250    3.125    0.000    0.000    0.000    0.000 
#    0.000    0.000    0.000    0.000    0.000    0.000 
#
# Total GULP energy -198253.743056 kJ/mol
# GULP energy per Si atom -12390.858941 kJ/mol
# Density = 2.083831 g / cm^3
# Si number density = 20.885848 Si / 1000 Ang^3
#
#
#
# Elastic Constant Matrix: (Units=GPa)
#
#
# Indices 1 2 3 4 5 6 
#
# 1 107.0668 42.9132 26.8612 8.6153 14.1583 -3.3436
# 2 42.9132 101.4506 27.1039 13.6736 5.9501 2.0149
# 3 26.8612 27.1039 81.8395 9.2694 13.7417 -4.4970
# 4 8.6153 13.6736 9.2694 23.7945 7.7795 -6.6617
# 5 14.1583 5.9501 13.7417 7.7795 29.5485 3.9230
# 6 -3.3436 2.0149 -4.4970 -6.6617 3.9230 36.1240
#
#
#
# Elastic Compliance Matrix: (Units=1/GPa)
#
#
# Indices 1 2 3 4 5 6 
#
# 1 0.012205 -0.004594 -0.001712 0.000911 -0.004611 0.001842
# 2 -0.004594 0.013351 -0.002825 -0.006762 0.003018 -0.003096
# 3 -0.001712 -0.002825 0.014897 -0.001118 -0.005543 0.002249
# 4 0.000911 -0.006762 -0.001118 0.054026 -0.014351 0.011844
# 5 -0.004611 0.003018 -0.005543 -0.014351 0.042942 -0.008595
# 6 0.001842 -0.003096 0.002249 0.011844 -0.008595 0.031423
#
#
# Mechanical properties :
#
#
# Convention : Reuss Voigt Hill
#
# Bulk Modulus (GPa) = 45.06273 53.79040 49.42656
# Shear Modulus (GPa) = 25.70653 30.79198 28.24925
#
# Velocity S-wave (km/s) = 3.51210 3.84383 3.68170
# Velocity P-wave (km/s) = 6.17001 6.74614 6.46449
#
# Compressibility (1/GPa) = 0.02219129
#
# Stress axis : x y z
#
# Youngs Moduli (GPa) = 81.93485 74.90174 67.12538
#
# Poissons Ratio (x) = 0.34411 0.11493
# Poissons Ratio (y) = 0.37642 0.18961
# Poissons Ratio (z) = 0.14028 0.21158
#
# Static dielectric constant tensor:
#      x y z
#    x 3.960360 0.310320 0.032780 
#    y 0.310320 3.977950 -0.153920 
#    z 0.032780 -0.153920 4.052960 
# 
# 
# High freq. dielectric constant tensor:
#      x y z
#    x 1.804800 0.012510 0.017680 
#    y 0.012510 1.833790 -0.000210 
#    z 0.017680 -0.000210 1.806980 
# 
# From -- ./inp_files/433131.got.cif
#   From: 2010.06.25/outbox.cif.g09.slc.cpg/sg2_217_cif.got.tgz:433131.got - 2010.06.27 13:26:56.
