data_PCOD8002272
_publ_section_title
;
Structure prediction by ZEFSAII (Michael W. Deem and Ramdas Pophale) SiO2 
 PCOD8002272
Probable space group: P -1
;
_chemical_formula_sum "Si O2"
_cell_formula_units_Z 16
_cell_length_a 11.602439
_cell_length_b 25.109858
_cell_length_c 6.916410
_cell_angle_alpha 45.042205
_cell_angle_beta 131.020394
_cell_angle_gamma 150.169323
_cell_volume 703.878020
_symmetry_space_group_name_H-M "P -1"
_symmetry_group_IT_number 2
_symmetry_cell_setting 'triclinic'
loop_
_space_group_symop_operation_xyz
x,y,z
-x,-y,-z
loop_
_atom_site_type_symbol
_atom_site_label
_atom_site_fract_x
_atom_site_fract_y
_atom_site_fract_z
Si Si1 0.641919 0.755387 0.759800
Si Si2 0.876299 0.540700 0.659322
Si Si3 0.890335 0.644634 0.067782
Si Si4 0.887499 0.126715 0.117925
Si Si5 0.593568 0.485384 0.815934
Si Si6 0.513214 0.992982 0.759131
Si Si7 0.647304 0.306501 0.055867
Si Si8 0.373841 0.772310 0.158099
O O1 0.507987 0.755131 0.456351
O O2 0.921241 0.866267 0.740171
O O3 0.580843 0.643375 0.962926
O O4 0.584592 0.761416 0.899857
O O5 0.780661 0.571400 0.335417
O O6 0.812388 0.524882 0.855859
O O7 0.754886 0.418029 0.771431
O O8 0.158609 0.647741 0.690513
O O9 0.098429 0.666423 0.174509
O O10 0.687185 0.571632 0.872030
O O11 0.980643 0.760903 0.904184
O O12 0.677089 0.024575 0.294721
O O13 0.767980 0.109604 0.827826
O O14 0.500000 0.500000 0.500000
O O15 0.500000 0.000000 0.500000
O O16 0.474591 0.890616 0.029587
O O17 0.586985 0.221856 0.045358
#
# Coordination Sequence:
#
# PCOD8002272 Si02
#       8
#     2   2   2   2   2   2   2   2
#     4  11  24  41  63  96 137 163 212 267 313 380
#     4  10  20  35  58  90 132 173 212 248 304 373
#     4  11  22  39  67  90 133 174 216 259 312 381
#     4  10  25  44  67  95 125 167 211 270 330 382
#     4  11  24  38  60  98 137 178 215 254 309 376
#     4  10  25  47  71  93 121 162 218 272 332 391
#     4  10  21  35  59  94 130 169 207 254 307 375
#     4  11  23  39  68  96 121 170 218 264 326 374
#
# _framework density 22.731210999999998
#
# number of rings (size 3 to 8) (size 9 to 14) (size 15 to 20)
#    0.000    1.500    2.500    1.500    1.750    9.500 
#    0.000    1.250    0.000    0.000    0.000    0.000 
#    0.000    0.000    0.000    0.000    0.000    0.000 
#
# Total GULP energy -198326.449744 kJ/mol
# GULP energy per Si atom -12395.403109 kJ/mol
# Density = 2.267947 g / cm^3
# Si number density = 22.731211 Si / 1000 Ang^3
#
#
#
# Elastic Constant Matrix: (Units=GPa)
#
#
# Indices 1 2 3 4 5 6 
#
# 1 104.1245 41.2416 19.2039 17.8624 -21.2016 23.7933
# 2 41.2416 67.2807 24.3187 17.7690 -8.8531 7.1346
# 3 19.2039 24.3187 114.9257 16.3458 -6.6126 8.2543
# 4 17.8624 17.7690 16.3458 27.9347 -9.0473 2.5536
# 5 -21.2016 -8.8531 -6.6126 -9.0473 37.4098 3.6306
# 6 23.7933 7.1346 8.2543 2.5536 3.6306 45.7451
#
#
#
# Elastic Compliance Matrix: (Units=1/GPa)
#
#
# Indices 1 2 3 4 5 6 
#
# 1 0.016357 -0.007597 0.000243 -0.002575 0.007653 -0.007831
# 2 -0.007597 0.022280 -0.002432 -0.008577 -0.001685 0.001528
# 3 0.000243 -0.002432 0.009883 -0.004127 0.000441 -0.001335
# 4 -0.002575 -0.008577 -0.004127 0.047659 0.007290 0.000183
# 5 0.007653 -0.001685 0.000441 0.007290 0.033174 -0.006837
# 6 -0.007831 0.001528 -0.001335 0.000183 -0.006837 0.026468
#
#
# Mechanical properties :
#
#
# Convention : Reuss Voigt Hill
#
# Bulk Modulus (GPa) = 34.54291 50.65101 42.59696
# Shear Modulus (GPa) = 27.02059 35.65571 31.33815
#
# Velocity S-wave (km/s) = 3.45149 3.96483 3.71703
# Velocity P-wave (km/s) = 5.57790 6.57957 6.09933
#
# Compressibility (1/GPa) = 0.02894950
#
# Stress axis : x y z
#
# Youngs Moduli (GPa) = 61.13409 44.88232 101.17893
#
# Poissons Ratio (x) = 0.34098 -0.02462
# Poissons Ratio (y) = 0.46445 0.24606
# Poissons Ratio (z) = -0.01487 0.10915
#
# Static dielectric constant tensor:
#      x y z
#    x 4.656410 0.266260 -0.132550 
#    y 0.266260 4.040220 0.050120 
#    z -0.132550 0.050120 3.758140 
# 
# 
# High freq. dielectric constant tensor:
#      x y z
#    x 1.921520 0.010710 -0.009480 
#    y 0.010710 1.879840 0.011510 
#    z -0.009480 0.011510 1.880840 
# 
# From -- ./inp_files/76206.got.cif
#   From: 2010.06.25/outbox.cif.g09.slc.cpg/sg2_39_cif.got.tgz:76206.got - 2010.06.27 13:26:56.
