data_PCOD8002403
_publ_section_title
;
Structure prediction by ZEFSAII (Michael W. Deem and Ramdas Pophale) SiO2 
 PCOD8002403
Probable space group: P -1
;
_chemical_formula_sum "Si O2"
_cell_formula_units_Z 16
_cell_length_a 16.438493
_cell_length_b 14.224998
_cell_length_c 14.773851
_cell_angle_alpha 159.914800
_cell_angle_beta 38.760983
_cell_angle_gamma 139.759220
_cell_volume 735.012123
_symmetry_space_group_name_H-M "P -1"
_symmetry_group_IT_number 2
_symmetry_cell_setting 'triclinic'
loop_
_space_group_symop_operation_xyz
x,y,z
-x,-y,-z
loop_
_atom_site_type_symbol
_atom_site_label
_atom_site_fract_x
_atom_site_fract_y
_atom_site_fract_z
Si Si1 0.209393 0.915249 0.392942
Si Si2 0.913709 0.845079 0.642055
Si Si3 0.296102 0.540795 0.834747
Si Si4 0.673044 0.955782 0.242670
Si Si5 0.453979 0.517540 0.348192
Si Si6 0.241584 0.411972 0.305849
Si Si7 0.398391 0.011032 0.469032
Si Si8 0.763858 0.360042 0.227281
O O1 0.066552 0.925652 0.565471
O O2 0.264096 0.210086 0.568194
O O3 0.303117 0.833721 0.319349
O O4 0.202784 0.680985 0.110303
O O5 0.894667 0.678483 0.604126
O O6 0.845805 0.657954 0.450108
O O7 0.852476 0.126103 0.959154
O O8 0.449765 0.642702 0.819835
O O9 0.274247 0.647339 0.850688
O O10 0.686336 0.932920 0.318205
O O11 0.731028 0.259759 0.432778
O O12 0.520924 0.861628 0.259693
O O13 0.757653 0.739750 0.928334
O O14 0.352725 0.315144 0.190093
O O15 0.548789 0.701608 0.363453
O O16 0.369257 0.691470 0.644108
#
# Coordination Sequence:
#
# PCOD8002403 Si02
#       8
#     2   2   2   2   2   2   2   2
#     4  11  24  40  58  83 119 155 190 233 285 338
#     4  11  23  40  59  81 116 158 194 231 279 338
#     4  11  23  38  60  87 115 149 191 242 288 334
#     4  10  20  35  61  86 112 142 188 235 283 341
#     4   9  20  38  60  87 119 147 186 238 295 339
#     4  10  20  37  57  83 112 149 187 230 281 337
#     4   9  20  37  58  86 114 147 183 234 289 337
#     4  11  23  39  61  85 113 153 196 237 280 336
#
# _framework density 21.768348
#
# number of rings (size 3 to 8) (size 9 to 14) (size 15 to 20)
#    0.000    1.750    0.000    4.875    0.000   12.500 
#    0.000    7.500    0.000    0.000    0.000    0.000 
#    0.000    0.000    0.000    0.000    0.000    0.000 
#
# Total GULP energy -198373.193393 kJ/mol
# GULP energy per Si atom -12398.324587 kJ/mol
# Density = 2.171880 g / cm^3
# Si number density = 21.768348 Si / 1000 Ang^3
#
#
#
# Elastic Constant Matrix: (Units=GPa)
#
#
# Indices 1 2 3 4 5 6 
#
# 1 66.7682 27.9962 16.3006 -5.8500 13.4719 -27.4618
# 2 27.9962 82.1974 23.7733 -11.2809 -2.5199 -11.7518
# 3 16.3006 23.7733 103.4886 -13.4773 11.8988 -5.5831
# 4 -5.8500 -11.2809 -13.4773 25.6844 -1.2519 9.9530
# 5 13.4719 -2.5199 11.8988 -1.2519 32.2413 -13.6387
# 6 -27.4618 -11.7518 -5.5831 9.9530 -13.6387 23.6633
#
#
#
# Elastic Compliance Matrix: (Units=1/GPa)
#
#
# Indices 1 2 3 4 5 6 
#
# 1 0.034958 -0.005992 -0.004122 -0.014251 0.005184 0.045603
# 2 -0.005992 0.016011 -0.002818 0.003628 0.005860 0.002185
# 3 -0.004122 -0.002818 0.012274 0.008148 -0.007341 -0.010945
# 4 -0.014251 0.003628 0.008148 0.058428 -0.013643 -0.045253
# 5 0.005184 0.005860 -0.007341 -0.013643 0.048875 0.041102
# 6 0.045603 0.002185 -0.010945 -0.045253 0.041102 0.136409
#
#
# Mechanical properties :
#
#
# Convention : Reuss Voigt Hill
#
# Bulk Modulus (GPa) = 26.75114 43.17714 34.96414
# Shear Modulus (GPa) = 14.48108 28.61007 21.54557
#
# Velocity S-wave (km/s) = 2.58201 3.62926 3.14947
# Velocity P-wave (km/s) = 4.60486 6.11881 5.41501
#
# Compressibility (1/GPa) = 0.03738158
#
# Stress axis : x y z
#
# Youngs Moduli (GPa) = 28.60595 62.45515 81.47246
#
# Poissons Ratio (x) = 0.37420 0.33579
# Poissons Ratio (y) = 0.17139 0.22957
# Poissons Ratio (z) = 0.11790 0.17599
#
# Static dielectric constant tensor:
#      x y z
#    x 4.032150 -0.014020 0.168970 
#    y -0.014020 3.990810 -0.168630 
#    z 0.168970 -0.168630 3.707800 
# 
# 
# High freq. dielectric constant tensor:
#      x y z
#    x 1.843050 -0.013670 0.016670 
#    y -0.013670 1.855620 -0.009560 
#    z 0.016670 -0.009560 1.850550 
# 
# From -- ./inp_files/534665.got.cif
#   From: 2010.06.25/outbox.cif.g09.slc.cpg/sg2_268_cif.got.tgz:534665.got - 2010.06.27 13:26:56.
