data_PCOD8002579
_publ_section_title
;
Structure prediction by ZEFSAII (Michael W. Deem and Ramdas Pophale) SiO2 
 PCOD8002579
Probable space group: P -1
;
_chemical_formula_sum "Si O2"
_cell_formula_units_Z 16
_cell_length_a 8.403678
_cell_length_b 18.569340
_cell_length_c 7.723407
_cell_angle_alpha 91.673884
_cell_angle_beta 124.746696
_cell_angle_gamma 57.924958
_cell_volume 771.726603
_symmetry_space_group_name_H-M "P -1"
_symmetry_group_IT_number 2
_symmetry_cell_setting 'triclinic'
loop_
_space_group_symop_operation_xyz
x,y,z
-x,-y,-z
loop_
_atom_site_type_symbol
_atom_site_label
_atom_site_fract_x
_atom_site_fract_y
_atom_site_fract_z
Si Si1 0.029884 0.436939 0.163674
Si Si2 0.249703 0.855921 0.567915
Si Si3 0.664666 0.863894 0.733186
Si Si4 0.458756 0.426822 0.999173
Si Si5 0.369999 0.971835 0.237629
Si Si6 0.425042 0.663955 0.557647
Si Si7 0.916381 0.046861 0.189428
Si Si8 0.828170 0.326879 0.932529
O O1 0.321353 0.368968 0.384446
O O2 0.000000 0.500000 0.000000
O O3 0.842698 0.511553 0.202338
O O4 0.938609 0.379490 0.043726
O O5 0.517912 0.831498 0.723113
O O6 0.260304 0.772595 0.499992
O O7 0.165414 0.874982 0.716514
O O8 0.045722 0.945879 0.339349
O O9 0.592098 0.889608 0.487489
O O10 0.577218 0.957986 0.783808
O O11 0.956152 0.782500 0.926431
O O12 0.539158 0.386081 0.242078
O O13 0.500000 0.500000 0.000000
O O14 0.617434 0.350106 0.942864
O O15 0.334225 0.923803 0.056644
O O16 0.106761 0.041136 0.179249
O O17 0.282055 0.647320 0.329075
#
# Coordination Sequence:
#
# PCOD8002579 Si02
#       8
#     2   2   2   2   2   2   2   2
#     4   9  20  41  64  87 121 151 199 251 299 367
#     4  10  20  36  56  86 121 156 202 250 292 356
#     4  10  20  36  55  85 124 154 201 249 293 354
#     4   9  22  41  63  92 119 153 203 248 301 372
#     4   9  19  36  58  82 117 166 197 246 299 346
#     4  11  22  40  65  89 124 163 196 253 309 352
#     4   9  19  36  58  82 118 162 205 240 298 355
#     4  11  22  40  63  91 126 159 199 253 303 361
#
# _framework density 20.73273
#
# number of rings (size 3 to 8) (size 9 to 14) (size 15 to 20)
#    0.000    2.250    1.250    0.750    1.750    5.500 
#    2.250    3.750    0.000    0.000    0.000    0.000 
#    0.000    0.000    0.000    0.000    0.000    0.000 
#
# Total GULP energy -198239.626319 kJ/mol
# GULP energy per Si atom -12389.976645 kJ/mol
# Density = 2.068554 g / cm^3
# Si number density = 20.732730 Si / 1000 Ang^3
#
#
#
# Elastic Constant Matrix: (Units=GPa)
#
#
# Indices 1 2 3 4 5 6 
#
# 1 72.7336 22.3578 17.7717 -3.3193 -4.5867 -5.5108
# 2 22.3578 48.3595 30.8316 -11.0360 2.5122 -5.0794
# 3 17.7717 30.8316 98.2636 5.0716 3.8055 -9.0388
# 4 -3.3193 -11.0360 5.0716 28.1655 0.1689 3.2659
# 5 -4.5867 2.5122 3.8055 0.1689 22.9647 -0.2604
# 6 -5.5108 -5.0794 -9.0388 3.2659 -0.2604 33.1125
#
#
#
# Elastic Compliance Matrix: (Units=1/GPa)
#
#
# Indices 1 2 3 4 5 6 
#
# 1 0.016564 -0.007610 -0.000569 -0.001136 0.004261 0.001579
# 2 -0.007610 0.033903 -0.009869 0.014209 -0.003700 -0.000190
# 3 -0.000569 -0.009869 0.014041 -0.006789 -0.001278 0.002884
# 4 -0.001136 0.014209 -0.006789 0.042639 -0.001016 -0.004076
# 5 0.004261 -0.003700 -0.001278 -0.001016 0.045023 0.000247
# 6 0.001579 -0.000190 0.002884 -0.004076 0.000247 0.031625
#
#
# Mechanical properties :
#
#
# Convention : Reuss Voigt Hill
#
# Bulk Modulus (GPa) = 35.19531 40.14209 37.66870
# Shear Modulus (GPa) = 21.79965 26.74157 24.27061
#
# Velocity S-wave (km/s) = 3.24614 3.59531 3.42518
# Velocity P-wave (km/s) = 5.57337 6.05299 5.81813
#
# Compressibility (1/GPa) = 0.02841288
#
# Stress axis : x y z
#
# Youngs Moduli (GPa) = 60.37357 29.49570 71.21823
#
# Poissons Ratio (x) = 0.22445 0.04053
# Poissons Ratio (y) = 0.45941 0.70285
# Poissons Ratio (z) = 0.03436 0.29109
#
# Static dielectric constant tensor:
#      x y z
#    x 4.715910 -0.585250 0.567970 
#    y -0.585250 3.850970 -0.355350 
#    z 0.567970 -0.355350 3.990090 
# 
# 
# High freq. dielectric constant tensor:
#      x y z
#    x 1.811690 0.001590 0.008960 
#    y 0.001590 1.805570 -0.010140 
#    z 0.008960 -0.010140 1.800340 
# 
# From -- ./inp_files/217726.got.cif
#   From: 2010.06.25/outbox.cif.g09.slc.cpg/sg2_109_cif.got.tgz:217726.got - 2010.06.27 13:26:56.
