data_PCOD8002558
_publ_section_title
;
Structure prediction by ZEFSAII (Michael W. Deem and Ramdas Pophale) SiO2 
 PCOD8002558
Probable space group: P -1
;
_chemical_formula_sum "Si O2"
_cell_formula_units_Z 12
_cell_length_a 9.933712
_cell_length_b 8.840003
_cell_length_c 8.748368
_cell_angle_alpha 50.319895
_cell_angle_beta 83.215361
_cell_angle_gamma 66.176548
_cell_volume 530.103688
_symmetry_space_group_name_H-M "P -1"
_symmetry_group_IT_number 2
_symmetry_cell_setting 'triclinic'
loop_
_space_group_symop_operation_xyz
x,y,z
-x,-y,-z
loop_
_atom_site_type_symbol
_atom_site_label
_atom_site_fract_x
_atom_site_fract_y
_atom_site_fract_z
Si Si1 0.676195 0.761936 0.489764
Si Si2 0.109697 0.819388 0.488338
Si Si3 0.903134 0.851730 0.213380
Si Si4 0.159408 0.471490 0.939366
Si Si5 0.666725 0.978734 0.670452
Si Si6 0.175417 0.675515 0.102725
O O1 0.793710 0.750060 0.350690
O O2 0.705763 0.878678 0.559046
O O3 0.707037 0.514662 0.683402
O O4 0.509959 0.888868 0.366170
O O5 0.156091 0.578112 0.706404
O O6 0.027911 0.838498 0.327738
O O7 0.257440 0.858336 0.416867
O O8 0.000000 0.000000 0.500000
O O9 0.002154 0.717711 0.141108
O O10 0.804008 0.104146 0.018314
O O11 0.274004 0.216212 0.087351
O O12 0.213300 0.601903 0.970094
O O13 0.000000 0.500000 0.000000
#
# Coordination Sequence:
#
# PCOD8002558 Si02
#       6
#     2   2   2   2   2   2
#     4  10  20  36  54  81 114 142 179 226 276 317
#     4  12  19  35  58  83 108 140 185 227 266 317
#     4  11  21  36  58  83 110 144 183 223 270 326
#     4  11  19  34  59  84 107 140 186 227 267 316
#     4  10  21  34  55  84 111 140 181 231 270 317
#     4  10  21  35  57  82 110 145 183 222 269 326
#
# _framework density 22.637080000000001
#
# number of rings (size 3 to 8) (size 9 to 14) (size 15 to 20)
#    0.000    1.333    5.000    1.500    0.000    1.333 
#    0.000    5.833    0.000   12.000    0.000    0.000 
#    0.000    0.000    0.000    0.000    0.000    0.000 
#
# Total GULP energy -148828.454141 kJ/mol
# GULP energy per Si atom -12402.371178 kJ/mol
# Density = 2.258556 g / cm^3
# Si number density = 22.637080 Si / 1000 Ang^3
#
#
#
# Elastic Constant Matrix: (Units=GPa)
#
#
# Indices 1 2 3 4 5 6 
#
# 1 94.5479 9.6070 38.1433 -13.5384 6.6168 -2.7184
# 2 9.6070 43.3688 26.4024 -14.0820 5.2313 -5.2670
# 3 38.1433 26.4024 147.4076 -37.4249 5.3804 -1.6180
# 4 -13.5384 -14.0820 -37.4249 38.1865 -14.2757 1.6389
# 5 6.6168 5.2313 5.3804 -14.2757 26.2017 -11.1400
# 6 -2.7184 -5.2670 -1.6180 1.6389 -11.1400 19.0204
#
#
#
# Elastic Compliance Matrix: (Units=1/GPa)
#
#
# Indices 1 2 3 4 5 6 
#
# 1 0.011978 -0.000515 -0.002786 0.000580 -0.001983 0.000121
# 2 -0.000515 0.028265 -0.002842 0.008321 0.003320 0.008739
# 3 -0.002786 -0.002842 0.010412 0.010153 0.005547 0.002074
# 4 0.000580 0.008321 0.010153 0.050119 0.030573 0.016839
# 5 -0.001983 0.003320 0.005547 0.030573 0.070404 0.039708
# 6 0.000121 0.008739 0.002074 0.016839 0.039708 0.076994
#
#
# Mechanical properties :
#
#
# Convention : Reuss Voigt Hill
#
# Bulk Modulus (GPa) = 26.06288 48.18109 37.12199
# Shear Modulus (GPa) = 18.29832 30.75982 24.52907
#
# Velocity S-wave (km/s) = 2.84621 3.69022 3.29535
# Velocity P-wave (km/s) = 4.72647 6.28390 5.55999
#
# Compressibility (1/GPa) = 0.03836874
#
# Stress axis : x y z
#
# Youngs Moduli (GPa) = 83.48414 35.37927 96.04325
#
# Poissons Ratio (x) = 0.01822 0.26762
# Poissons Ratio (y) = 0.04300 0.27294
# Poissons Ratio (z) = 0.23262 0.10054
#
# Static dielectric constant tensor:
#      x y z
#    x 3.746680 0.037010 0.086570 
#    y 0.037010 4.214180 -0.111080 
#    z 0.086570 -0.111080 4.393270 
# 
# 
# High freq. dielectric constant tensor:
#      x y z
#    x 1.859950 0.002850 0.003540 
#    y 0.002850 1.884190 -0.013250 
#    z 0.003540 -0.013250 1.909750 
# 
# From -- ./inp_files/149009.got.cif
#   From: 2010.06.25/outbox.cif.g09.slc.cpg/sg2_75_cif.got.tgz:149009.got - 2010.06.27 13:26:56.
