data_PCOD8002120
_publ_section_title
;
Structure prediction by ZEFSAII (Michael W. Deem and Ramdas Pophale) SiO2 
 PCOD8002120
Probable space group: P -1
;
_chemical_formula_sum "Si O2"
_cell_formula_units_Z 14
_cell_length_a 15.478381
_cell_length_b 8.835430
_cell_length_c 8.895320
_cell_angle_alpha 62.229448
_cell_angle_beta 135.622020
_cell_angle_gamma 129.281236
_cell_volume 658.366623
_symmetry_space_group_name_H-M "P -1"
_symmetry_group_IT_number 2
_symmetry_cell_setting 'triclinic'
loop_
_space_group_symop_operation_xyz
x,y,z
-x,-y,-z
loop_
_atom_site_type_symbol
_atom_site_label
_atom_site_fract_x
_atom_site_fract_y
_atom_site_fract_z
Si Si1 0.109481 0.697785 0.873951
Si Si2 0.844379 0.717764 0.613821
Si Si3 0.680937 0.287876 0.622355
Si Si4 0.993087 0.638569 0.302435
Si Si5 0.154581 0.183435 0.098168
Si Si6 0.614595 0.927695 0.510288
Si Si7 0.228427 0.960275 0.624706
O O1 0.010185 0.467903 0.810777
O O2 0.213912 0.815496 0.808903
O O3 0.006839 0.787034 0.741787
O O4 0.200358 0.716266 0.122741
O O5 0.739832 0.501012 0.520469
O O6 0.815320 0.699037 0.763610
O O7 0.807321 0.878206 0.424484
O O8 0.543094 0.237883 0.572222
O O9 0.642877 0.136846 0.509198
O O10 0.000000 0.500000 0.500000
O O11 0.127541 0.849941 0.404750
O O12 0.856542 0.675395 0.111201
O O13 0.279603 0.133893 0.244636
O O14 0.000000 0.000000 0.000000
O O15 0.624672 0.937008 0.333943
#
# Coordination Sequence:
#
# PCOD8002120 Si02
#       7
#     2   2   2   2   2   2   2
#     4  11  22  36  59  89 116 149 192 237 287 334
#     4  11  21  34  61  86 115 144 198 239 279 335
#     4  11  23  38  61  85 112 157 193 241 279 335
#     4  10  20  35  55  88 116 148 183 229 293 337
#     4  11  19  35  60  84 113 152 187 238 284 337
#     4  10  23  40  60  80 119 152 198 230 288 344
#     4  10  22  38  58  87 119 151 184 239 292 338
#
# _framework density 21.264747
#
# number of rings (size 3 to 8) (size 9 to 14) (size 15 to 20)
#    0.000    1.429    4.286    2.571    0.000    2.857 
#    0.000    0.000    0.000    1.714    0.000    0.000 
#    0.000    0.000    0.000    0.000    0.000    0.000 
#
# Total GULP energy -173438.758603 kJ/mol
# GULP energy per Si atom -12388.482757 kJ/mol
# Density = 2.121635 g / cm^3
# Si number density = 21.264747 Si / 1000 Ang^3
#
#
#
# Elastic Constant Matrix: (Units=GPa)
#
#
# Indices 1 2 3 4 5 6 
#
# 1 98.4663 22.5124 4.0145 -2.3674 17.8729 1.4302
# 2 22.5124 87.1324 20.1855 -9.8463 9.8879 -4.8604
# 3 4.0145 20.1855 30.4362 -4.4630 -1.6677 2.3305
# 4 -2.3674 -9.8463 -4.4630 29.3294 4.1260 1.4472
# 5 17.8729 9.8879 -1.6677 4.1260 21.5048 -3.8821
# 6 1.4302 -4.8604 2.3305 1.4472 -3.8821 24.5212
#
#
#
# Elastic Compliance Matrix: (Units=1/GPa)
#
#
# Indices 1 2 3 4 5 6 
#
# 1 0.012607 -0.001890 -0.000485 0.001931 -0.010530 -0.002845
# 2 -0.001890 0.015739 -0.010134 0.004402 -0.006780 0.002860
# 3 -0.000485 -0.010134 0.040689 0.002012 0.006954 -0.004865
# 4 0.001931 0.004402 0.002012 0.037803 -0.011350 -0.003459
# 5 -0.010530 -0.006780 0.006954 -0.011350 0.062751 0.009214
# 6 -0.002845 0.002860 -0.004865 -0.003459 0.009214 0.043639
#
#
# Mechanical properties :
#
#
# Convention : Reuss Voigt Hill
#
# Bulk Modulus (GPa) = 22.71894 34.38441 28.55167
# Shear Modulus (GPa) = 19.76918 26.35925 23.06421
#
# Velocity S-wave (km/s) = 3.05236 3.52458 3.29693
# Velocity P-wave (km/s) = 4.80932 5.72436 5.28668
#
# Compressibility (1/GPa) = 0.04401614
#
# Stress axis : x y z
#
# Youngs Moduli (GPa) = 79.32200 63.53534 24.57659
#
# Poissons Ratio (x) = 0.12011 0.01192
# Poissons Ratio (y) = 0.14995 0.24906
# Poissons Ratio (z) = 0.03848 0.64387
#
# Static dielectric constant tensor:
#      x y z
#    x 3.833520 -0.303900 0.075380 
#    y -0.303900 4.349430 0.087320 
#    z 0.075380 0.087320 3.758030 
# 
# 
# High freq. dielectric constant tensor:
#      x y z
#    x 1.823450 -0.019160 0.001100 
#    y -0.019160 1.845860 -0.009100 
#    z 0.001100 -0.009100 1.807550 
# 
# From -- ./inp_files/159666.got.cif
#   From: 2010.06.25/outbox.cif.g09.slc.cpg/sg2_80_cif.got.tgz:159666.got - 2010.06.27 13:26:56.
