data_PCOD8002216
_publ_section_title
;
Structure prediction by ZEFSAII (Michael W. Deem and Ramdas Pophale) SiO2 
 PCOD8002216
Probable space group: P -1
;
_chemical_formula_sum "Si O2"
_cell_formula_units_Z 16
_cell_length_a 16.193622
_cell_length_b 25.947921
_cell_length_c 9.631592
_cell_angle_alpha 45.094160
_cell_angle_beta 46.415751
_cell_angle_gamma 17.391377
_cell_volume 854.395491
_symmetry_space_group_name_H-M "P -1"
_symmetry_group_IT_number 2
_symmetry_cell_setting 'triclinic'
loop_
_space_group_symop_operation_xyz
x,y,z
-x,-y,-z
loop_
_atom_site_type_symbol
_atom_site_label
_atom_site_fract_x
_atom_site_fract_y
_atom_site_fract_z
Si Si1 0.854488 0.826366 0.552087
Si Si2 0.077854 0.050426 0.702779
Si Si3 0.997234 0.617056 0.279048
Si Si4 0.247792 0.124020 0.738010
Si Si5 0.485809 0.838213 0.112411
Si Si6 0.949297 0.415976 0.039115
Si Si7 0.627369 0.199620 0.926315
Si Si8 0.546196 0.761307 0.494568
O O1 0.954473 0.844414 0.464174
O O2 0.898725 0.796782 0.391982
O O3 0.046824 0.654728 0.728224
O O4 0.534377 0.000983 0.628866
O O5 0.778586 0.189269 0.755384
O O6 0.290390 0.897146 0.633844
O O7 0.182293 0.967068 0.892488
O O8 0.281877 0.413608 0.384084
O O9 0.956418 0.713206 0.233792
O O10 0.743962 0.709239 0.425124
O O11 0.008789 0.634065 0.072551
O O12 0.295088 0.016892 0.949961
O O13 0.420161 0.805778 0.159672
O O14 0.420454 0.856646 0.311198
O O15 0.809112 0.668496 0.038997
O O16 0.659945 0.625371 0.991333
#
# Coordination Sequence:
#
# PCOD8002216 Si02
#       8
#     2   2   2   2   2   2   2   2
#     4  10  21  35  59  87 113 150 187 234 284 339
#     4  11  22  40  61  77 117 157 194 225 279 347
#     4  10  20  35  57  89 119 141 183 241 291 330
#     4  10  20  35  57  89 119 141 183 241 291 330
#     4  10  22  36  60  89 114 144 189 242 282 330
#     4  10  22  36  60  89 114 144 189 242 282 330
#     4  11  23  40  58  81 116 156 191 236 273 336
#     4  10  21  35  59  87 113 150 187 234 284 339
#
# _framework density 18.726692
#
# number of rings (size 3 to 8) (size 9 to 14) (size 15 to 20)
#    0.000    1.750    3.750    0.375    3.500    2.500 
#    0.000    0.000    0.000    1.500    0.000    0.000 
#    0.000    0.000    0.000    0.000    0.000    0.000 
#
# Total GULP energy -198482.290924 kJ/mol
# GULP energy per Si atom -12405.143183 kJ/mol
# Density = 1.868407 g / cm^3
# Si number density = 18.726692 Si / 1000 Ang^3
#
#
#
# Elastic Constant Matrix: (Units=GPa)
#
#
# Indices 1 2 3 4 5 6 
#
# 1 105.2321 34.5299 36.9580 -4.0435 -1.1529 11.2151
# 2 34.5299 58.2892 13.7439 -2.0673 2.7084 8.4732
# 3 36.9580 13.7439 81.8977 -11.6659 13.1250 -8.7555
# 4 -4.0435 -2.0673 -11.6659 25.1734 0.0132 1.7316
# 5 -1.1529 2.7084 13.1250 0.0132 27.5687 3.3403
# 6 11.2151 8.4732 -8.7555 1.7316 3.3403 21.3407
#
#
#
# Elastic Compliance Matrix: (Units=1/GPa)
#
#
# Indices 1 2 3 4 5 6 
#
# 1 0.015485 -0.006123 -0.008209 -0.001137 0.006367 -0.009979
# 2 -0.006123 0.022028 -0.001307 0.000629 -0.001078 -0.005947
# 3 -0.008209 -0.001307 0.020593 0.007123 -0.011785 0.014549
# 4 -0.001137 0.000629 0.007123 0.042872 -0.003563 0.000349
# 5 0.006367 -0.001078 -0.011785 -0.003563 0.043996 -0.014350
# 6 -0.009979 -0.005947 0.014549 0.000349 -0.014350 0.062651
#
#
# Mechanical properties :
#
#
# Convention : Reuss Voigt Hill
#
# Bulk Modulus (GPa) = 37.27584 46.20919 41.74252
# Shear Modulus (GPa) = 20.17383 25.49572 22.83478
#
# Velocity S-wave (km/s) = 3.28575 3.69381 3.49574
# Velocity P-wave (km/s) = 5.86031 6.55144 6.21549
#
# Compressibility (1/GPa) = 0.02682702
#
# Stress axis : x y z
#
# Youngs Moduli (GPa) = 64.58008 45.39677 48.56025
#
# Poissons Ratio (x) = 0.27796 0.39865
# Poissons Ratio (y) = 0.39541 0.06347
# Poissons Ratio (z) = 0.53016 0.05934
#
# Static dielectric constant tensor:
#      x y z
#    x 3.300990 -0.009890 0.084150 
#    y -0.009890 3.242320 -0.081120 
#    z 0.084150 -0.081120 3.476520 
# 
# 
# High freq. dielectric constant tensor:
#      x y z
#    x 1.720010 0.010390 0.011490 
#    y 0.010390 1.711470 -0.009060 
#    z 0.011490 -0.009060 1.732230 
# 
# From -- ./inp_files/185853.got.cif
#   From: 2010.06.25/outbox.cif.g09.slc.cpg/sg2_93_cif.got.tgz:185853.got - 2010.06.27 13:26:56.
