data_PCOD8002997
_publ_section_title
;
Structure prediction by ZEFSAII (Michael W. Deem and Ramdas Pophale) SiO2 
 PCOD8002997
Probable space group: P -1
;
_chemical_formula_sum "Si O2"
_cell_formula_units_Z 14
_cell_length_a 9.049229
_cell_length_b 22.918457
_cell_length_c 17.354727
_cell_angle_alpha 21.252744
_cell_angle_beta 41.195020
_cell_angle_gamma 31.165465
_cell_volume 655.459924
_symmetry_space_group_name_H-M "P -1"
_symmetry_group_IT_number 2
_symmetry_cell_setting 'triclinic'
loop_
_space_group_symop_operation_xyz
x,y,z
-x,-y,-z
loop_
_atom_site_type_symbol
_atom_site_label
_atom_site_fract_x
_atom_site_fract_y
_atom_site_fract_z
Si Si1 0.621867 0.021169 0.159425
Si Si2 0.531193 0.489718 0.286790
Si Si3 0.721199 0.324218 0.690085
Si Si4 0.481367 0.829711 0.816615
Si Si5 0.393945 0.728791 0.745705
Si Si6 0.158083 0.261529 0.352428
Si Si7 0.256098 0.896668 0.422455
O O1 0.423509 0.987112 0.232499
O O2 0.950035 0.800183 0.316928
O O3 0.466533 0.120693 0.180151
O O4 0.646970 0.170078 0.915890
O O5 0.301101 0.575528 0.341322
O O6 0.627615 0.276483 0.476039
O O7 0.811659 0.450382 0.264725
O O8 0.404834 0.674347 0.045219
O O9 0.500000 0.500000 0.500000
O O10 0.772222 0.724370 0.781055
O O11 0.218610 0.043693 0.612077
O O12 0.654048 0.722706 0.680409
O O13 0.343134 0.777271 0.616034
O O14 0.500000 0.500000 0.000000
O O15 0.093148 0.910863 0.684986
#
# Coordination Sequence:
#
# PCOD8002997 Si02
#       7
#     2   2   2   2   2   2   2
#     4  10  22  41  64  87 126 162 206 261 306 359
#     4  11  24  38  64  89 127 162 205 253 312 362
#     4  10  23  42  65  91 113 165 218 256 304 366
#     4  10  20  36  61  88 121 164 201 248 301 364
#     4  11  25  37  60  93 133 167 202 246 309 371
#     4  11  21  36  61  91 123 165 208 245 295 382
#     4  11  24  41  58  95 129 162 201 257 312 367
#
# _framework density 21.359048000000001
#
# number of rings (size 3 to 8) (size 9 to 14) (size 15 to 20)
#    0.000    1.429    1.429    3.857    6.000    0.571 
#    0.000    0.714    0.000    0.000    0.000    0.000 
#    0.000    0.000    0.000    0.000    0.000    0.000 
#
# Total GULP energy -173586.205188 kJ/mol
# GULP energy per Si atom -12399.014656 kJ/mol
# Density = 2.131043 g / cm^3
# Si number density = 21.359048 Si / 1000 Ang^3
#
#
#
# Elastic Constant Matrix: (Units=GPa)
#
#
# Indices 1 2 3 4 5 6 
#
# 1 83.1573 25.7094 29.9705 -7.4779 -15.0263 0.7447
# 2 25.7094 39.1650 18.2750 -10.3936 -6.9835 1.9877
# 3 29.9705 18.2750 97.2096 -10.5425 -1.5892 11.7096
# 4 -7.4779 -10.3936 -10.5425 29.2162 4.8185 -3.0508
# 5 -15.0263 -6.9835 -1.5892 4.8185 35.5684 -3.9685
# 6 0.7447 1.9877 11.7096 -3.0508 -3.9685 29.2616
#
#
#
# Elastic Compliance Matrix: (Units=1/GPa)
#
#
# Indices 1 2 3 4 5 6 
#
# 1 0.017059 -0.008698 -0.003911 -0.000829 0.005705 0.002409
# 2 -0.008698 0.035353 -0.002985 0.008975 0.001941 0.000213
# 3 -0.003911 -0.002985 0.012877 0.002489 -0.002551 -0.004937
# 4 -0.000829 0.008975 0.002489 0.038896 -0.003524 0.001993
# 5 0.005705 0.001941 -0.002551 -0.003524 0.031793 0.004688
# 6 0.002409 0.000213 -0.004937 0.001993 0.004688 0.036918
#
#
# Mechanical properties :
#
#
# Convention : Reuss Voigt Hill
#
# Bulk Modulus (GPa) = 29.32517 40.82685 35.07601
# Shear Modulus (GPa) = 23.20720 28.51436 25.86078
#
# Velocity S-wave (km/s) = 3.29983 3.65773 3.48338
# Velocity P-wave (km/s) = 5.31770 6.08233 5.71282
#
# Compressibility (1/GPa) = 0.03410040
#
# Stress axis : x y z
#
# Youngs Moduli (GPa) = 58.62024 28.28624 77.65818
#
# Poissons Ratio (x) = 0.24604 0.30372
# Poissons Ratio (y) = 0.50989 0.23181
# Poissons Ratio (z) = 0.22926 0.08444
#
# Static dielectric constant tensor:
#      x y z
#    x 3.583640 0.103940 -0.046010 
#    y 0.103940 3.982680 -0.119950 
#    z -0.046010 -0.119950 4.153890 
# 
# 
# High freq. dielectric constant tensor:
#      x y z
#    x 1.816690 0.012140 0.004230 
#    y 0.012140 1.836100 -0.012940 
#    z 0.004230 -0.012940 1.855130 
# 
# From -- ./inp_files/563276.got.cif
#   From: 2010.06.25/outbox.cif.g09.slc.cpg/sg2_282_cif.got.tgz:563276.got - 2010.06.27 13:26:56.
