data_PCOD8002633
_publ_section_title
;
Structure prediction by ZEFSAII (Michael W. Deem and Ramdas Pophale) SiO2 
 PCOD8002633
Probable space group: P -1
;
_chemical_formula_sum "Si O2"
_cell_formula_units_Z 16
_cell_length_a 8.770625
_cell_length_b 21.217427
_cell_length_c 12.081435
_cell_angle_alpha 25.941837
_cell_angle_beta 92.120981
_cell_angle_gamma 107.326684
_cell_volume 782.460075
_symmetry_space_group_name_H-M "P -1"
_symmetry_group_IT_number 2
_symmetry_cell_setting 'triclinic'
loop_
_space_group_symop_operation_xyz
x,y,z
-x,-y,-z
loop_
_atom_site_type_symbol
_atom_site_label
_atom_site_fract_x
_atom_site_fract_y
_atom_site_fract_z
Si Si1 0.355560 0.771461 0.628528
Si Si2 0.812977 0.299176 0.830773
Si Si3 0.322513 0.073505 0.904695
Si Si4 0.598974 0.861921 0.961437
Si Si5 0.233180 0.041906 0.711675
Si Si6 0.755094 0.282827 0.521630
Si Si7 0.947565 0.038482 0.553935
Si Si8 0.089113 0.664901 0.980295
O O1 0.241292 0.649980 0.709084
O O2 0.239611 0.668345 0.899245
O O3 0.387821 0.958736 0.316466
O O4 0.563850 0.815571 0.569264
O O5 0.000000 0.500000 0.500000
O O6 0.628008 0.297752 0.808344
O O7 0.817195 0.158345 0.976670
O O8 0.808353 0.242040 0.048129
O O9 0.193673 0.856468 0.257184
O O10 0.313603 0.154300 0.894767
O O11 0.245025 0.104552 0.741407
O O12 0.548120 0.173956 0.742753
O O13 0.727152 0.876536 0.839281
O O14 0.079790 0.053192 0.630655
O O15 0.906622 0.457912 0.322653
O O16 0.979327 0.227235 0.249597
O O17 0.000000 0.000000 0.500000
#
# Coordination Sequence:
#
# PCOD8002633 Si02
#       8
#     2   2   2   2   2   2   2   2
#     4   8  18  32  55  83 105 140 180 231 269 317
#     4  11  21  34  57  85 106 139 185 230 273 316
#     4   9  17  35  58  81 109 139 177 231 275 316
#     4   9  20  35  57  82 106 143 187 220 272 323
#     4  10  20  36  57  78 111 146 181 215 278 327
#     4   9  16  32  57  85 109 135 178 233 277 312
#     4  11  23  38  53  77 115 155 178 216 271 329
#     4  11  20  32  56  81 113 139 183 228 267 324
#
# _framework density 20.448329000000001
#
# number of rings (size 3 to 8) (size 9 to 14) (size 15 to 20)
#    0.000    2.250    1.250    4.125    1.750    2.000 
#    0.000    3.125    0.000    0.000    0.000    0.000 
#    0.000    0.000    0.000    0.000    0.000    0.000 
#
# Total GULP energy -198266.006434 kJ/mol
# GULP energy per Si atom -12391.625402 kJ/mol
# Density = 2.040179 g / cm^3
# Si number density = 20.448329 Si / 1000 Ang^3
#
#
#
# Elastic Constant Matrix: (Units=GPa)
#
#
# Indices 1 2 3 4 5 6 
#
# 1 88.6440 40.2226 31.6772 8.0323 -14.4374 15.2405
# 2 40.2226 113.8140 34.8776 13.2913 -19.4616 8.0019
# 3 31.6772 34.8776 78.4085 0.7058 -17.7584 2.9975
# 4 8.0323 13.2913 0.7058 29.0216 0.6909 -4.9455
# 5 -14.4374 -19.4616 -17.7584 0.6909 20.8773 3.0743
# 6 15.2405 8.0019 2.9975 -4.9455 3.0743 32.0916
#
#
#
# Elastic Compliance Matrix: (Units=1/GPa)
#
#
# Indices 1 2 3 4 5 6 
#
# 1 0.016857 -0.002280 -0.003632 -0.005195 0.007889 -0.008654
# 2 -0.002280 0.012884 -0.002581 -0.006047 0.008980 -0.003681
# 3 -0.003632 -0.002581 0.017626 0.001519 0.010026 -0.000005
# 4 -0.005195 -0.006047 0.001519 0.040791 -0.010933 0.011167
# 5 0.007889 0.008980 0.010026 -0.010933 0.072911 -0.015592
# 6 -0.008654 -0.003681 -0.000005 0.011167 -0.015592 0.039403
#
#
# Mechanical properties :
#
#
# Convention : Reuss Voigt Hill
#
# Bulk Modulus (GPa) = 32.91481 54.93569 43.92525
# Shear Modulus (GPa) = 21.96985 28.00405 24.98695
#
# Velocity S-wave (km/s) = 3.28137 3.70469 3.49944
# Velocity P-wave (km/s) = 5.52160 6.72485 6.15271
#
# Compressibility (1/GPa) = 0.03038146
#
# Stress axis : x y z
#
# Youngs Moduli (GPa) = 59.32228 77.61863 56.73394
#
# Poissons Ratio (x) = 0.17700 0.20604
# Poissons Ratio (y) = 0.13528 0.14641
# Poissons Ratio (z) = 0.21544 0.20030
#
# Static dielectric constant tensor:
#      x y z
#    x 3.520460 0.089360 -0.301250 
#    y 0.089360 4.046470 0.185770 
#    z -0.301250 0.185770 3.469040 
# 
# 
# High freq. dielectric constant tensor:
#      x y z
#    x 1.765080 0.011140 -0.029080 
#    y 0.011140 1.817560 0.018770 
#    z -0.029080 0.018770 1.778580 
# 
# From -- ./inp_files/178982.got.cif
#   From: 2010.06.25/outbox.cif.g09.slc.cpg/sg2_90_cif.got.tgz:178982.got - 2010.06.27 13:26:56.
