data_PCOD8002659
_publ_section_title
;
Structure prediction by ZEFSAII (Michael W. Deem and Ramdas Pophale) SiO2 
 PCOD8002659
Probable space group: P -1
;
_chemical_formula_sum "Si O2"
_cell_formula_units_Z 16
_cell_length_a 9.709441
_cell_length_b 12.391614
_cell_length_c 9.471207
_cell_angle_alpha 71.202677
_cell_angle_beta 66.076467
_cell_angle_gamma 46.162034
_cell_volume 749.853038
_symmetry_space_group_name_H-M "P -1"
_symmetry_group_IT_number 2
_symmetry_cell_setting 'triclinic'
loop_
_space_group_symop_operation_xyz
x,y,z
-x,-y,-z
loop_
_atom_site_type_symbol
_atom_site_label
_atom_site_fract_x
_atom_site_fract_y
_atom_site_fract_z
Si Si1 0.773535 0.845131 0.561680
Si Si2 0.202540 0.964117 0.908255
Si Si3 0.809221 0.487213 0.959059
Si Si4 0.994295 0.369639 0.210066
Si Si5 0.447373 0.835532 0.596715
Si Si6 0.569418 0.597269 0.416125
Si Si7 0.396309 0.732983 0.140627
Si Si8 0.040060 0.737424 0.242999
O O1 0.624874 0.814511 0.608406
O O2 0.866750 0.791587 0.702664
O O3 0.956637 0.735637 0.426205
O O4 0.671084 0.018613 0.517038
O O5 0.307866 0.857874 0.770747
O O6 0.340870 0.881134 0.025092
O O7 0.147594 0.122461 0.829981
O O8 0.000000 0.000000 0.000000
O O9 0.861326 0.414988 0.814733
O O10 0.870710 0.587599 0.893201
O O11 0.921489 0.361441 0.090374
O O12 0.576071 0.588179 0.040631
O O13 0.803023 0.491811 0.334556
O O14 0.521527 0.689881 0.539644
O O15 0.500000 0.500000 0.500000
O O16 0.452797 0.718817 0.286837
O O17 0.204589 0.749851 0.199224
#
# Coordination Sequence:
#
# PCOD8002659 Si02
#       8
#     2   2   2   2   2   2   2   2
#     4  10  21  39  62  85 113 150 194 236 282 340
#     4   9  20  37  56  81 111 144 190 234 275 335
#     4  10  21  36  57  82 116 151 188 238 283 337
#     4  10  22  38  55  85 116 148 192 235 286 337
#     4  10  22  40  61  85 114 151 191 236 286 337
#     4  11  24  39  57  86 120 150 189 237 285 339
#     4  10  21  37  56  83 116 151 189 232 284 340
#     4  10  20  36  57  85 113 148 194 235 283 336
#
# _framework density 21.337516000000001
#
# number of rings (size 3 to 8) (size 9 to 14) (size 15 to 20)
#    0.000    2.000    0.000    2.625    0.000   10.000 
#    0.000    8.750    0.000    9.000    0.000    0.000 
#    0.000    0.000    0.000    0.000    0.000    0.000 
#
# Total GULP energy -198314.841604 kJ/mol
# GULP energy per Si atom -12394.677600 kJ/mol
# Density = 2.128895 g / cm^3
# Si number density = 21.337516 Si / 1000 Ang^3
#
#
#
# Elastic Constant Matrix: (Units=GPa)
#
#
# Indices 1 2 3 4 5 6 
#
# 1 59.9632 22.8374 25.6521 -0.3430 -7.7477 -15.5637
# 2 22.8374 49.0644 31.9103 -3.3858 3.6249 -13.6231
# 3 25.6521 31.9103 91.6606 -13.3839 -8.2090 -14.2359
# 4 -0.3430 -3.3858 -13.3839 54.1130 -15.2444 11.0751
# 5 -7.7477 3.6249 -8.2090 -15.2444 28.7116 -2.3371
# 6 -15.5637 -13.6231 -14.2359 11.0751 -2.3371 32.3556
#
#
#
# Elastic Compliance Matrix: (Units=1/GPa)
#
#
# Indices 1 2 3 4 5 6 
#
# 1 0.023535 -0.008087 -0.001985 -0.000388 0.007225 0.007697
# 2 -0.008087 0.032877 -0.009908 -0.004942 -0.011263 0.006472
# 3 -0.001985 -0.009908 0.016654 0.005730 0.008589 0.000860
# 4 -0.000388 -0.004942 0.005730 0.025311 0.015000 -0.007326
# 5 0.007225 -0.011263 0.008589 0.015000 0.048694 0.000895
# 6 0.007697 0.006472 0.000860 -0.007326 0.000895 0.040285
#
#
# Mechanical properties :
#
#
# Convention : Reuss Voigt Hill
#
# Bulk Modulus (GPa) = 30.20534 40.16533 35.18534
# Shear Modulus (GPa) = 20.97746 31.05526 26.01636
#
# Velocity S-wave (km/s) = 3.13889 3.81915 3.49560
# Velocity P-wave (km/s) = 5.22719 6.18971 5.72870
#
# Compressibility (1/GPa) = 0.03310673
#
# Stress axis : x y z
#
# Youngs Moduli (GPa) = 42.48939 30.41626 60.04486
#
# Poissons Ratio (x) = 0.24597 0.11921
# Poissons Ratio (y) = 0.34360 0.59491
# Poissons Ratio (z) = 0.08436 0.30136
#
# Static dielectric constant tensor:
#      x y z
#    x 3.689810 -0.446780 -0.034410 
#    y -0.446780 4.027150 -0.429320 
#    z -0.034410 -0.429320 4.405870 
# 
# 
# High freq. dielectric constant tensor:
#      x y z
#    x 1.821880 -0.034170 -0.014010 
#    y -0.034170 1.826820 -0.011950 
#    z -0.014010 -0.011950 1.857220 
# 
# From -- ./inp_files/186623.got.cif
#   From: 2010.06.25/outbox.cif.g09.slc.cpg/sg2_94_cif.got.tgz:186623.got - 2010.06.27 13:26:56.
