data_PCOD8002306
_publ_section_title
;
Structure prediction by ZEFSAII (Michael W. Deem and Ramdas Pophale) SiO2 
 PCOD8002306
Probable space group: P -1
;
_chemical_formula_sum "Si O2"
_cell_formula_units_Z 16
_cell_length_a 15.575560
_cell_length_b 8.978788
_cell_length_c 11.305018
_cell_angle_alpha 113.580764
_cell_angle_beta 116.179990
_cell_angle_gamma 119.712172
_cell_volume 749.429735
_symmetry_space_group_name_H-M "P -1"
_symmetry_group_IT_number 2
_symmetry_cell_setting 'triclinic'
loop_
_space_group_symop_operation_xyz
x,y,z
-x,-y,-z
loop_
_atom_site_type_symbol
_atom_site_label
_atom_site_fract_x
_atom_site_fract_y
_atom_site_fract_z
Si Si1 0.806330 0.985093 0.193105
Si Si2 0.694648 0.245530 0.836694
Si Si3 0.301030 0.702654 0.403727
Si Si4 0.690172 0.905193 0.835839
Si Si5 0.825728 0.635388 0.451209
Si Si6 0.674085 0.497467 0.073109
Si Si7 0.303997 0.868612 0.690175
Si Si8 0.702243 0.633808 0.592816
O O1 0.673541 0.675730 0.071101
O O2 0.811003 0.157553 0.326046
O O3 0.759303 0.958329 0.022329
O O4 0.985715 0.156032 0.359006
O O5 0.772902 0.352284 0.786350
O O6 0.498571 0.981356 0.617475
O O7 0.754689 0.171329 0.920999
O O8 0.752179 0.482726 0.019761
O O9 0.235328 0.739111 0.474264
O O10 0.244799 0.441950 0.315152
O O11 0.760497 0.877290 0.772092
O O12 0.492790 0.627829 0.633707
O O13 0.792660 0.661047 0.310369
O O14 0.703847 0.313434 0.301891
O O15 0.792983 0.737421 0.555311
O O16 0.491475 0.192804 0.906377
#
# Coordination Sequence:
#
# PCOD8002306 Si02
#       8
#     2   2   2   2   2   2   2   2
#     4  12  24  37  57  87 121 149 186 240 291 336
#     4   9  17  32  56  83 111 142 184 234 281 327
#     4   8  16  32  55  84 110 139 182 236 283 322
#     4  10  20  35  59  87 113 149 195 237 277 337
#     4  11  23  40  59  82 118 155 187 233 293 344
#     4  11  22  38  60  84 114 153 195 235 279 339
#     4  10  21  38  62  85 111 150 196 237 276 338
#     4   9  19  36  59  83 111 148 193 236 278 337
#
# _framework density 21.349564999999998
#
# number of rings (size 3 to 8) (size 9 to 14) (size 15 to 20)
#    0.000    2.000    0.000    4.500    0.000    4.500 
#    0.000    0.000    0.000    4.500    0.000    0.000 
#    0.000    0.000    0.000    0.000    0.000    0.000 
#
# Total GULP energy -198408.184240 kJ/mol
# GULP energy per Si atom -12400.511515 kJ/mol
# Density = 2.130097 g / cm^3
# Si number density = 21.349565 Si / 1000 Ang^3
#
#
#
# Elastic Constant Matrix: (Units=GPa)
#
#
# Indices 1 2 3 4 5 6 
#
# 1 149.1503 26.8363 41.4813 -17.7946 -36.8950 0.0521
# 2 26.8363 94.4884 43.0987 -35.8671 -13.2284 -3.5918
# 3 41.4813 43.0987 44.3810 -24.4256 -9.2547 10.2892
# 4 -17.7946 -35.8671 -24.4256 39.8754 8.5005 -7.6647
# 5 -36.8950 -13.2284 -9.2547 8.5005 37.0456 -0.9987
# 6 0.0521 -3.5918 10.2892 -7.6647 -0.9987 27.3007
#
#
#
# Elastic Compliance Matrix: (Units=1/GPa)
#
#
# Indices 1 2 3 4 5 6 
#
# 1 0.013460 0.006311 -0.018488 -0.000521 0.011377 0.008042
# 2 0.006311 0.028960 -0.030031 0.012673 0.006726 0.018920
# 3 -0.018488 -0.030031 0.079034 0.009772 -0.012481 -0.031416
# 4 -0.000521 0.012673 0.009772 0.045014 -0.003599 0.010491
# 5 0.011377 0.006726 -0.012481 -0.003599 0.038595 0.005969
# 6 0.008042 0.018920 -0.031416 0.010491 0.005969 0.054107
#
#
# Mechanical properties :
#
#
# Convention : Reuss Voigt Hill
#
# Bulk Modulus (GPa) = 26.99957 56.76137 41.88047
# Shear Modulus (GPa) = 14.04757 32.61790 23.33274
#
# Velocity S-wave (km/s) = 2.56789 3.91295 3.30948
# Velocity P-wave (km/s) = 4.63314 6.85998 5.85343
#
# Compressibility (1/GPa) = 0.03703762
#
# Stress axis : x y z
#
# Youngs Moduli (GPa) = 74.29272 34.52988 12.65273
#
# Poissons Ratio (x) = -0.21790 0.23392
# Poissons Ratio (y) = -0.46882 0.37998
# Poissons Ratio (z) = 1.37353 1.03697
#
# Static dielectric constant tensor:
#      x y z
#    x 4.083260 0.038080 -0.351740 
#    y 0.038080 4.040420 -0.096840 
#    z -0.351740 -0.096840 3.547350 
# 
# 
# High freq. dielectric constant tensor:
#      x y z
#    x 1.844120 0.002510 -0.023790 
#    y 0.002510 1.839230 -0.009340 
#    z -0.023790 -0.009340 1.815720 
# 
# From -- ./inp_files/201481.got.cif
#   From: 2010.06.25/outbox.cif.g09.slc.cpg/sg2_101_cif.got.tgz:201481.got - 2010.06.27 13:26:56.
