data_PCOD8002332
_publ_section_title
;
Structure prediction by ZEFSAII (Michael W. Deem and Ramdas Pophale) SiO2 
 PCOD8002332
Probable space group: P -1
;
_chemical_formula_sum "Si O2"
_cell_formula_units_Z 14
_cell_length_a 14.535385
_cell_length_b 6.899930
_cell_length_c 8.319604
_cell_angle_alpha 80.991117
_cell_angle_beta 50.431649
_cell_angle_gamma 104.500051
_cell_volume 564.114307
_symmetry_space_group_name_H-M "P -1"
_symmetry_group_IT_number 2
_symmetry_cell_setting 'triclinic'
loop_
_space_group_symop_operation_xyz
x,y,z
-x,-y,-z
loop_
_atom_site_type_symbol
_atom_site_label
_atom_site_fract_x
_atom_site_fract_y
_atom_site_fract_z
Si Si1 0.401915 0.421269 0.298565
Si Si2 0.617428 0.219840 0.917496
Si Si3 0.357509 0.914631 0.754690
Si Si4 0.889927 0.163354 0.149484
Si Si5 0.312136 0.275940 0.946425
Si Si6 0.174994 0.311728 0.812983
Si Si7 0.239227 0.992530 0.368934
O O1 0.403168 0.567130 0.124535
O O2 0.546130 0.516953 0.203151
O O3 0.291917 0.434596 0.537729
O O4 0.364582 0.171934 0.315094
O O5 0.744794 0.215803 0.688105
O O6 0.643471 0.236024 0.076137
O O7 0.500000 0.000000 0.000000
O O8 0.229608 0.781344 0.790551
O O9 0.500000 0.000000 0.500000
O O10 0.348206 0.125079 0.807630
O O11 0.875720 0.950542 0.097505
O O12 0.883237 0.112000 0.356024
O O13 0.044649 0.355788 0.921319
O O14 0.230835 0.380494 0.924113
O O15 0.226034 0.135755 0.215646
#
# Coordination Sequence:
#
# PCOD8002332 Si02
#       7
#     2   2   2   2   2   2   2
#     4  11  21  38  61  88 124 154 194 250 295 351
#     4  11  21  37  58  91 121 152 195 248 298 352
#     4  10  20  35  60  87 117 157 195 245 301 349
#     4   9  19  37  61  83 119 161 197 241 297 352
#     4  10  20  35  59  91 117 154 200 246 293 353
#     4   9  20  38  57  86 119 159 200 241 293 352
#     4  10  21  37  61  88 121 156 196 245 300 346
#
# _framework density 24.817665999999999
#
# number of rings (size 3 to 8) (size 9 to 14) (size 15 to 20)
#    0.000    2.000    2.857    1.714    0.000    0.571 
#    2.571    2.857    0.000    0.000    0.000    0.000 
#    0.000    0.000    0.000    0.000    0.000    0.000 
#
# Total GULP energy -173459.732609 kJ/mol
# GULP energy per Si atom -12389.980901 kJ/mol
# Density = 2.476118 g / cm^3
# Si number density = 24.817666 Si / 1000 Ang^3
#
#
#
# Elastic Constant Matrix: (Units=GPa)
#
#
# Indices 1 2 3 4 5 6 
#
# 1 175.1592 20.2199 79.9140 6.7667 -10.3509 12.8830
# 2 20.2199 38.9100 17.7277 15.1086 1.2730 -0.9830
# 3 79.9140 17.7277 147.5585 13.8071 -4.8340 27.9424
# 4 6.7667 15.1086 13.8071 26.4026 5.4281 5.7556
# 5 -10.3509 1.2730 -4.8340 5.4281 33.5326 3.3749
# 6 12.8830 -0.9830 27.9424 5.7556 3.3749 31.3200
#
#
#
# Elastic Compliance Matrix: (Units=1/GPa)
#
#
# Indices 1 2 3 4 5 6 
#
# 1 0.007926 -0.002924 -0.003964 0.001406 0.001785 -0.000266
# 2 -0.002924 0.036597 -0.002466 -0.020699 -0.000139 0.008370
# 3 -0.003964 -0.002466 0.010973 -0.001876 0.001567 -0.008061
# 4 0.001406 -0.020699 -0.001876 0.053642 -0.006861 -0.008672
# 5 0.001785 -0.000139 0.001567 -0.006861 0.032152 -0.004340
# 6 -0.000266 0.008370 -0.008061 -0.008672 -0.004340 0.041554
#
#
# Mechanical properties :
#
#
# Convention : Reuss Voigt Hill
#
# Bulk Modulus (GPa) = 27.18231 66.37233 46.77732
# Shear Modulus (GPa) = 23.38491 34.50212 28.94351
#
# Velocity S-wave (km/s) = 3.07297 3.73262 3.41874
# Velocity P-wave (km/s) = 4.85463 6.73636 5.87137
#
# Compressibility (1/GPa) = 0.03678863
#
# Stress axis : x y z
#
# Youngs Moduli (GPa) = 126.17012 27.32486 91.13051
#
# Poissons Ratio (x) = 0.07989 0.36122
# Poissons Ratio (y) = 0.36889 0.22474
# Poissons Ratio (z) = 0.50011 0.06739
#
# Static dielectric constant tensor:
#      x y z
#    x 5.055590 0.138960 -0.095890 
#    y 0.138960 4.683830 0.257390 
#    z -0.095890 0.257390 4.587350 
# 
# 
# High freq. dielectric constant tensor:
#      x y z
#    x 1.981450 0.001880 0.009810 
#    y 0.001880 1.990480 0.022570 
#    z 0.009810 0.022570 1.984290 
# 
# From -- ./inp_files/263478.got.cif
#   From: 2010.06.25/outbox.cif.g09.slc.cpg/sg2_132_cif.got.tgz:263478.got - 2010.06.27 13:26:56.
