data_PCOD8002673
_publ_section_title
;
Structure prediction by ZEFSAII (Michael W. Deem and Ramdas Pophale) SiO2 
 PCOD8002673
Probable space group: P -1
;
_chemical_formula_sum "Si O2"
_cell_formula_units_Z 16
_cell_length_a 14.469639
_cell_length_b 14.378401
_cell_length_c 11.975056
_cell_angle_alpha 147.732515
_cell_angle_beta 48.516813
_cell_angle_gamma 143.103322
_cell_volume 797.813692
_symmetry_space_group_name_H-M "P -1"
_symmetry_group_IT_number 2
_symmetry_cell_setting 'triclinic'
loop_
_space_group_symop_operation_xyz
x,y,z
-x,-y,-z
loop_
_atom_site_type_symbol
_atom_site_label
_atom_site_fract_x
_atom_site_fract_y
_atom_site_fract_z
Si Si1 0.508319 0.512592 0.687479
Si Si2 0.385398 0.949462 0.443171
Si Si3 0.518968 0.913907 0.080078
Si Si4 0.208117 0.597368 0.920257
Si Si5 0.252302 0.285187 0.476567
Si Si6 0.153628 0.832334 0.035894
Si Si7 0.169187 0.473171 0.082616
Si Si8 0.387561 0.339124 0.830555
O O1 0.372515 0.352268 0.547521
O O2 0.667975 0.605417 0.594344
O O3 0.489549 0.387018 0.687177
O O4 0.509840 0.712263 0.932886
O O5 0.473380 0.005278 0.309777
O O6 0.242223 0.696230 0.317147
O O7 0.500000 0.000000 0.500000
O O8 0.320569 0.090445 0.658358
O O9 0.688258 0.093303 0.075373
O O10 0.390409 0.806054 0.974062
O O11 0.156768 0.378165 0.673706
O O12 0.116106 0.677749 0.017186
O O13 0.181564 0.537194 0.009058
O O14 0.150421 0.026402 0.282519
O O15 0.014122 0.699540 0.923133
O O16 0.251147 0.360409 0.935132
O O17 0.500000 0.500000 0.000000
#
# Coordination Sequence:
#
# PCOD8002673 Si02
#       8
#     2   2   2   2   2   2   2   2
#     4   9  17  35  56  89 114 148 200 245 276 345
#     4  11  22  40  67  84 108 150 205 250 289 343
#     4   9  19  37  59  89 117 151 203 240 278 351
#     4  10  20  36  57  86 123 158 204 229 277 359
#     4   9  19  33  56  84 123 151 191 239 287 343
#     4  11  23  35  58  86 131 158 183 239 304 346
#     4  11  24  41  52  93 123 151 197 242 295 359
#     4  12  22  39  67  83 111 153 201 251 292 342
#
# _framework density 20.054808000000001
#
# number of rings (size 3 to 8) (size 9 to 14) (size 15 to 20)
#    0.000    1.750    5.000    1.500    5.250    1.500 
#    0.000    0.625    0.000    3.750    0.000    0.000 
#    0.000    0.000    0.000    0.000    0.000    0.000 
#
# Total GULP energy -198238.879317 kJ/mol
# GULP energy per Si atom -12389.929957 kJ/mol
# Density = 2.000916 g / cm^3
# Si number density = 20.054808 Si / 1000 Ang^3
#
#
#
# Elastic Constant Matrix: (Units=GPa)
#
#
# Indices 1 2 3 4 5 6 
#
# 1 109.4833 34.9471 42.9228 16.9813 -2.7076 6.7099
# 2 34.9471 37.6681 26.7946 15.2982 1.8284 5.6102
# 3 42.9228 26.7946 126.1365 29.6778 -2.4924 5.6421
# 4 16.9813 15.2982 29.6778 30.0856 -7.6020 2.9439
# 5 -2.7076 1.8284 -2.4924 -7.6020 27.8165 3.0685
# 6 6.7099 5.6102 5.6421 2.9439 3.0685 26.3586
#
#
#
# Elastic Compliance Matrix: (Units=1/GPa)
#
#
# Indices 1 2 3 4 5 6 
#
# 1 0.013648 -0.011378 -0.002404 0.001117 0.002269 -0.000927
# 2 -0.011378 0.046388 -0.001984 -0.017020 -0.008583 -0.003652
# 3 -0.002404 -0.001984 0.011300 -0.009162 -0.001575 -0.000178
# 4 0.001117 -0.017020 -0.009162 0.054493 0.015586 -0.002601
# 5 0.002269 -0.008583 -0.001575 0.015586 0.041402 -0.004974
# 6 -0.000927 -0.003652 -0.000178 -0.002601 -0.004974 0.039859
#
#
# Mechanical properties :
#
#
# Convention : Reuss Voigt Hill
#
# Bulk Modulus (GPa) = 25.12306 53.62411 39.37359
# Shear Modulus (GPa) = 19.85011 28.09369 23.97190
#
# Velocity S-wave (km/s) = 3.14951 3.74685 3.46109
# Velocity P-wave (km/s) = 5.07743 6.74650 5.97058
#
# Compressibility (1/GPa) = 0.03980406
#
# Stress axis : x y z
#
# Youngs Moduli (GPa) = 73.27293 21.55744 88.49748
#
# Poissons Ratio (x) = 0.24528 0.21273
# Poissons Ratio (y) = 0.83368 0.17557
# Poissons Ratio (z) = 0.17614 0.04277
#
# Static dielectric constant tensor:
#      x y z
#    x 3.678860 0.179190 0.006760 
#    y 0.179190 3.790870 0.403460 
#    z 0.006760 0.403460 4.394080 
# 
# 
# High freq. dielectric constant tensor:
#      x y z
#    x 1.769780 -0.003540 -0.007040 
#    y -0.003540 1.764440 0.016290 
#    z -0.007040 0.016290 1.787990 
# 
# From -- ./inp_files/437118.got.cif
#   From: 2010.06.25/outbox.cif.g09.slc.cpg/sg2_219_cif.got.tgz:437118.got - 2010.06.27 13:26:56.
