data_PCOD8002777
_publ_section_title
;
Structure prediction by ZEFSAII (Michael W. Deem and Ramdas Pophale) SiO2 
 PCOD8002777
Probable space group: P -1
;
_chemical_formula_sum "Si O2"
_cell_formula_units_Z 16
_cell_length_a 9.083531
_cell_length_b 15.611142
_cell_length_c 11.906770
_cell_angle_alpha 140.022610
_cell_angle_beta 58.310556
_cell_angle_gamma 100.189434
_cell_volume 840.765505
_symmetry_space_group_name_H-M "P -1"
_symmetry_group_IT_number 2
_symmetry_cell_setting 'triclinic'
loop_
_space_group_symop_operation_xyz
x,y,z
-x,-y,-z
loop_
_atom_site_type_symbol
_atom_site_label
_atom_site_fract_x
_atom_site_fract_y
_atom_site_fract_z
Si Si1 0.191276 0.781104 0.152619
Si Si2 0.202057 0.075422 0.425367
Si Si3 0.971333 0.732037 0.515146
Si Si4 0.320350 0.532531 0.027373
Si Si5 0.139913 0.835973 0.758206
Si Si6 0.577389 0.735287 0.435096
Si Si7 0.339828 0.370293 0.464167
Si Si8 0.740928 0.306739 0.206702
O O1 0.321674 0.641401 0.035135
O O2 0.980670 0.852112 0.352726
O O3 0.284834 0.899552 0.230192
O O4 0.156507 0.739283 0.999093
O O5 0.139787 0.121952 0.367781
O O6 0.356742 0.131992 0.464443
O O7 0.815496 0.679906 0.575545
O O8 0.126554 0.604783 0.249106
O O9 0.068204 0.765867 0.617007
O O10 0.500000 0.500000 0.000000
O O11 0.345615 0.374357 0.811385
O O12 0.350546 0.812313 0.613399
O O13 0.129749 0.766532 0.812130
O O14 0.000000 0.000000 0.000000
O O15 0.676315 0.631401 0.396383
O O16 0.556514 0.266817 0.238487
O O17 0.308643 0.525034 0.582535
#
# Coordination Sequence:
#
# PCOD8002777 Si02
#       8
#     2   2   2   2   2   2   2   2
#     4  10  20  37  60  86 116 148 193 230 288 335
#     4   9  21  37  62  86 112 150 191 240 274 343
#     4  10  21  37  60  86 114 147 198 232 286 331
#     4  11  21  36  63  87 117 147 184 249 285 333
#     4  11  23  38  57  81 119 156 186 233 287 342
#     4  10  20  39  60  87 112 148 198 229 290 337
#     4   9  20  35  58  87 108 147 193 238 273 335
#     4  10  20  36  59  81 117 150 186 235 279 337
#
# _framework density 19.030275
#
# number of rings (size 3 to 8) (size 9 to 14) (size 15 to 20)
#    0.000    2.000    2.500    0.750    1.750    3.000 
#    0.000    5.625    0.000    0.000    0.000    0.000 
#    0.000    0.000    0.000    0.000    0.000    0.000 
#
# Total GULP energy -198314.886497 kJ/mol
# GULP energy per Si atom -12394.680406 kJ/mol
# Density = 1.898696 g / cm^3
# Si number density = 19.030275 Si / 1000 Ang^3
#
#
#
# Elastic Constant Matrix: (Units=GPa)
#
#
# Indices 1 2 3 4 5 6 
#
# 1 131.0736 57.4304 36.4627 6.6621 11.9611 2.6050
# 2 57.4304 102.2892 33.1582 4.1248 6.1827 -0.8588
# 3 36.4627 33.1582 78.3960 5.8616 7.6385 -10.2834
# 4 6.6621 4.1248 5.8616 22.6769 -5.7640 3.5062
# 5 11.9611 6.1827 7.6385 -5.7640 24.1581 -5.8348
# 6 2.6050 -0.8588 -10.2834 3.5062 -5.8348 28.7490
#
#
#
# Elastic Compliance Matrix: (Units=1/GPa)
#
#
# Indices 1 2 3 4 5 6 
#
# 1 0.011221 -0.005029 -0.002833 -0.002388 -0.004625 -0.002828
# 2 -0.005029 0.013740 -0.003517 -0.000058 -0.000022 -0.000389
# 3 -0.002833 -0.003517 0.016978 -0.004554 -0.002644 0.006244
# 4 -0.002388 -0.000058 -0.004554 0.050146 0.013442 -0.004802
# 5 -0.004625 -0.000022 -0.002644 0.013442 0.049643 0.007909
# 6 -0.002828 -0.000389 0.006244 -0.004802 0.007909 0.039452
#
#
# Mechanical properties :
#
#
# Convention : Reuss Voigt Hill
#
# Bulk Modulus (GPa) = 52.13795 62.87350 57.50573
# Shear Modulus (GPa) = 23.77175 27.43064 25.60120
#
# Velocity S-wave (km/s) = 3.53817 3.80072 3.67180
# Velocity P-wave (km/s) = 6.64443 7.23679 6.94692
#
# Compressibility (1/GPa) = 0.01917989
#
# Stress axis : x y z
#
# Youngs Moduli (GPa) = 89.12040 72.77808 58.89897
#
# Poissons Ratio (x) = 0.36602 0.16689
# Poissons Ratio (y) = 0.44821 0.20715
# Poissons Ratio (z) = 0.25252 0.25596
#
# Static dielectric constant tensor:
#      x y z
#    x 3.739650 -0.022610 0.014160 
#    y -0.022610 3.756180 0.027340 
#    z 0.014160 0.027340 3.487850 
# 
# 
# High freq. dielectric constant tensor:
#      x y z
#    x 1.734550 0.000320 0.001880 
#    y 0.000320 1.741530 -0.002630 
#    z 0.001880 -0.002630 1.740480 
# 
# From -- ./inp_files/176749.got.cif
#   From: 2010.06.25/outbox.cif.g09.slc.cpg/sg2_89_cif.got.tgz:176749.got - 2010.06.27 13:26:56.
