data_PCOD8002585
_publ_section_title
;
Structure prediction by ZEFSAII (Michael W. Deem and Ramdas Pophale) SiO2 
 PCOD8002585
Probable space group: P -1
;
_chemical_formula_sum "Si O2"
_cell_formula_units_Z 16
_cell_length_a 10.878387
_cell_length_b 16.333014
_cell_length_c 11.842202
_cell_angle_alpha 63.815238
_cell_angle_beta 64.236091
_cell_angle_gamma 22.223233
_cell_volume 712.003882
_symmetry_space_group_name_H-M "P -1"
_symmetry_group_IT_number 2
_symmetry_cell_setting 'triclinic'
loop_
_space_group_symop_operation_xyz
x,y,z
-x,-y,-z
loop_
_atom_site_type_symbol
_atom_site_label
_atom_site_fract_x
_atom_site_fract_y
_atom_site_fract_z
Si Si1 0.772234 0.847411 0.316182
Si Si2 0.288165 0.254212 0.411083
Si Si3 0.710805 0.319234 0.761046
Si Si4 0.099841 0.444508 0.819056
Si Si5 0.847298 0.452300 0.068784
Si Si6 0.384589 0.997948 0.188896
Si Si7 0.827118 0.234793 0.380700
Si Si8 0.869594 0.030457 0.366164
O O1 0.881831 0.698433 0.447255
O O2 0.671036 0.875438 0.216041
O O3 0.061525 0.742045 0.237436
O O4 0.468832 0.079064 0.357603
O O5 0.004683 0.475292 0.317517
O O6 0.534868 0.177162 0.413818
O O7 0.478806 0.411851 0.890956
O O8 0.484934 0.509462 0.644609
O O9 0.937337 0.104177 0.745253
O O10 0.131310 0.518899 0.830795
O O11 0.452263 0.181442 0.840642
O O12 0.831910 0.541342 0.927552
O O13 0.173981 0.193493 0.073860
O O14 0.145140 0.102238 0.314510
O O15 0.871462 0.157104 0.528016
O O16 0.784708 0.188041 0.322851
#
# Coordination Sequence:
#
# PCOD8002585 Si02
#       8
#     2   2   2   2   2   2   2   2
#     4  10  21  38  60  95 123 156 193 241 313 358
#     4  10  21  38  61  89 128 158 190 249 298 365
#     4  10  22  37  61  82 122 157 193 243 299 346
#     4  11  23  39  68  85 117 163 205 245 299 344
#     4  10  23  44  61  89 116 157 213 250 283 353
#     4  11  21  39  64  89 120 156 200 252 295 356
#     4  10  21  35  57  87 120 154 194 243 291 361
#     4  10  20  36  55  88 122 154 194 239 299 355
#
# _framework density 22.471786999999999
#
# number of rings (size 3 to 8) (size 9 to 14) (size 15 to 20)
#    0.000    1.750    2.500    1.500    1.750    3.500 
#    0.000    3.125    2.750    0.000    0.000    0.000 
#    0.000    0.000    0.000    0.000    0.000    0.000 
#
# Total GULP energy -198413.468434 kJ/mol
# GULP energy per Si atom -12400.841777 kJ/mol
# Density = 2.242064 g / cm^3
# Si number density = 22.471787 Si / 1000 Ang^3
#
#
#
# Elastic Constant Matrix: (Units=GPa)
#
#
# Indices 1 2 3 4 5 6 
#
# 1 99.6813 31.1886 15.0130 -1.5241 -11.8464 -7.0782
# 2 31.1886 79.3842 4.4443 3.9837 -7.2604 6.8239
# 3 15.0130 4.4443 55.1557 -10.3484 -15.6499 -6.5056
# 4 -1.5241 3.9837 -10.3484 18.0478 -1.4738 -6.7798
# 5 -11.8464 -7.2604 -15.6499 -1.4738 29.6537 4.5682
# 6 -7.0782 6.8239 -6.5056 -6.7798 4.5682 25.1540
#
#
#
# Elastic Compliance Matrix: (Units=1/GPa)
#
#
# Indices 1 2 3 4 5 6 
#
# 1 0.012578 -0.005309 -0.000876 0.003953 0.002636 0.005339
# 2 -0.005309 0.016145 -0.001989 -0.008377 0.001747 -0.008963
# 3 -0.000876 -0.001989 0.027490 0.021234 0.013070 0.010753
# 4 0.003953 -0.008377 0.021234 0.081491 0.010322 0.028967
# 5 0.002636 0.001747 0.013070 0.010322 0.042822 -0.001346
# 6 0.005339 -0.008963 0.010753 0.028967 -0.001346 0.054522
#
#
# Mechanical properties :
#
#
# Convention : Reuss Voigt Hill
#
# Bulk Modulus (GPa) = 25.08547 37.27921 31.18234
# Shear Modulus (GPa) = 18.89045 26.80945 22.84995
#
# Velocity S-wave (km/s) = 2.90251 3.45777 3.19223
# Velocity P-wave (km/s) = 4.73498 5.70674 5.24342
#
# Compressibility (1/GPa) = 0.03986372
#
# Stress axis : x y z
#
# Youngs Moduli (GPa) = 79.50468 61.94002 36.37684
#
# Poissons Ratio (x) = 0.32882 0.03188
# Poissons Ratio (y) = 0.42207 0.07236
# Poissons Ratio (z) = 0.06968 0.12321
#
# Static dielectric constant tensor:
#      x y z
#    x 4.094370 0.135010 -0.267210 
#    y 0.135010 3.977880 -0.048310 
#    z -0.267210 -0.048310 3.673850 
# 
# 
# High freq. dielectric constant tensor:
#      x y z
#    x 1.890100 0.009250 -0.018100 
#    y 0.009250 1.885570 0.002400 
#    z -0.018100 0.002400 1.856650 
# 
# From -- ./inp_files/238954.got.cif
#   From: 2010.06.25/outbox.cif.g09.slc.cpg/sg2_120_cif.got.tgz:238954.got - 2010.06.27 13:26:56.
