data_PCOD8002237
_publ_section_title
;
Structure prediction by ZEFSAII (Michael W. Deem and Ramdas Pophale) SiO2 
 PCOD8002237
Probable space group: P -1
;
_chemical_formula_sum "Si O2"
_cell_formula_units_Z 14
_cell_length_a 9.932037
_cell_length_b 18.450116
_cell_length_c 19.122285
_cell_angle_alpha 149.411082
_cell_angle_beta 156.245486
_cell_angle_gamma 32.478113
_cell_volume 691.273856
_symmetry_space_group_name_H-M "P -1"
_symmetry_group_IT_number 2
_symmetry_cell_setting 'triclinic'
loop_
_space_group_symop_operation_xyz
x,y,z
-x,-y,-z
loop_
_atom_site_type_symbol
_atom_site_label
_atom_site_fract_x
_atom_site_fract_y
_atom_site_fract_z
Si Si1 0.525546 0.527625 0.615708
Si Si2 0.227404 0.272596 0.272596
Si Si3 0.992238 0.891660 0.191949
Si Si4 0.233482 0.843647 0.788564
Si Si5 0.796209 0.150621 0.062537
Si Si6 0.196329 0.031187 0.687055
Si Si7 0.157076 0.615409 0.959540
O O1 0.500000 0.500000 0.500000
O O2 0.417589 0.393816 0.491943
O O3 0.251841 0.682055 0.633299
O O4 0.922818 0.530884 0.823240
O O5 0.909928 0.278666 0.180538
O O6 0.072898 0.303425 0.147231
O O7 0.508962 0.114716 0.270909
O O8 0.072895 0.917621 0.333542
O O9 0.027340 0.032089 0.279714
O O10 0.606517 0.873843 0.990180
O O11 0.249463 0.741054 0.156974
O O12 0.084543 0.849354 0.800598
O O13 0.384403 0.161895 0.869538
O O14 0.000000 0.000000 0.000000
O O15 0.000000 0.000000 0.500000
O O16 0.500000 0.500000 0.000000
#
# Coordination Sequence:
#
# PCOD8002237 Si02
#       7
#     2   2   2   2   2   2   2
#     4   9  18  33  54  81 109 142 182 223 273 327
#     4  10  20  36  56  78 114 150 178 226 280 320
#     4   9  16  32  56  81 108 141 182 230 276 317
#     4   9  16  31  58  82 104 142 188 227 270 326
#     4   9  18  33  54  81 109 142 182 223 273 327
#     4  10  20  35  58  84 111 143 185 228 272 330
#     4  10  20  35  58  84 111 143 185 228 272 330
#
# _framework density 20.252465999999998
#
# number of rings (size 3 to 8) (size 9 to 14) (size 15 to 20)
#    0.000    2.571    0.000    5.143    0.000    1.714 
#    0.000    7.143    0.000   13.714    0.000    0.000 
#    0.000    0.000    0.000    0.000    0.000    0.000 
#
# Total GULP energy -173494.785779 kJ/mol
# GULP energy per Si atom -12392.484698 kJ/mol
# Density = 2.020637 g / cm^3
# Si number density = 20.252466 Si / 1000 Ang^3
#
#
#
# Elastic Constant Matrix: (Units=GPa)
#
#
# Indices 1 2 3 4 5 6 
#
# 1 141.3622 38.6795 66.2120 19.7641 -10.6933 -5.1132
# 2 38.6795 90.4181 42.0950 17.6049 -6.6164 -18.8190
# 3 66.2120 42.0950 92.0698 21.5350 -3.9004 0.5475
# 4 19.7641 17.6049 21.5350 35.7057 2.7800 -7.8191
# 5 -10.6933 -6.6164 -3.9004 2.7800 47.7122 12.0630
# 6 -5.1132 -18.8190 0.5475 -7.8191 12.0630 27.9027
#
#
#
# Elastic Compliance Matrix: (Units=1/GPa)
#
#
# Indices 1 2 3 4 5 6 
#
# 1 0.010983 -0.000923 -0.007075 -0.001409 0.001741 0.000381
# 2 -0.000923 0.017394 -0.007185 -0.000995 -0.001361 0.012013
# 3 -0.007075 -0.007185 0.021137 -0.007532 0.001994 -0.009530
# 4 -0.001409 -0.000995 -0.007532 0.037015 -0.006345 0.012334
# 5 0.001741 -0.001361 0.001994 -0.006345 0.025041 -0.013242
# 6 0.000381 0.012013 -0.009530 0.012334 -0.013242 0.053379
#
#
# Mechanical properties :
#
#
# Convention : Reuss Voigt Hill
#
# Bulk Modulus (GPa) = 52.22704 68.64701 60.43702
# Shear Modulus (GPa) = 24.78936 34.05505 29.42220
#
# Velocity S-wave (km/s) = 3.50239 4.10509 3.81566
# Velocity P-wave (km/s) = 6.49612 7.51254 7.02274
#
# Compressibility (1/GPa) = 0.01914717
#
# Stress axis : x y z
#
# Youngs Moduli (GPa) = 91.04895 57.49030 47.30945
#
# Poissons Ratio (x) = 0.05308 0.33473
# Poissons Ratio (y) = 0.08407 0.33992
# Poissons Ratio (z) = 0.64420 0.41308
#
# Static dielectric constant tensor:
#      x y z
#    x 4.316000 0.029970 0.444910 
#    y 0.029970 3.461420 0.454640 
#    z 0.444910 0.454640 4.154170 
# 
# 
# High freq. dielectric constant tensor:
#      x y z
#    x 1.800570 -0.008440 0.001830 
#    y -0.008440 1.755470 0.030290 
#    z 0.001830 0.030290 1.781530 
# 
# From -- ./inp_files/562106.got.cif
#   From: 2010.06.25/outbox.cif.g09.slc.cpg/sg2_282_cif.got.tgz:562106.got - 2010.06.27 13:26:56.
