data_PCOD8002305
_publ_section_title
;
Structure prediction by ZEFSAII (Michael W. Deem and Ramdas Pophale) SiO2 
 PCOD8002305
Probable space group: P -1
;
_chemical_formula_sum "Si O2"
_cell_formula_units_Z 16
_cell_length_a 12.461552
_cell_length_b 11.189736
_cell_length_c 17.802082
_cell_angle_alpha 108.897543
_cell_angle_beta 159.171205
_cell_angle_gamma 69.425541
_cell_volume 826.287481
_symmetry_space_group_name_H-M "P -1"
_symmetry_group_IT_number 2
_symmetry_cell_setting 'triclinic'
loop_
_space_group_symop_operation_xyz
x,y,z
-x,-y,-z
loop_
_atom_site_type_symbol
_atom_site_label
_atom_site_fract_x
_atom_site_fract_y
_atom_site_fract_z
Si Si1 0.124402 0.854442 0.038330
Si Si2 0.776851 0.392913 0.637980
Si Si3 0.417816 0.440630 0.112599
Si Si4 0.529910 0.841368 0.576589
Si Si5 0.117783 0.591201 0.465607
Si Si6 0.371072 0.133668 0.525523
Si Si7 0.161073 0.664050 0.759488
Si Si8 0.503415 0.305367 0.861734
O O1 0.819146 0.790251 0.810003
O O2 0.325976 0.810210 0.234953
O O3 0.351110 0.828652 0.108733
O O4 0.000000 0.000000 0.000000
O O5 0.500000 0.500000 0.500000
O O6 0.716770 0.252927 0.595275
O O7 0.836212 0.387597 0.587323
O O8 0.064472 0.424502 0.879925
O O9 0.568647 0.398981 0.283264
O O10 0.577097 0.346475 0.133565
O O11 0.460529 0.586420 0.154364
O O12 0.659131 0.840295 0.576888
O O13 0.378883 0.986174 0.524774
O O14 0.024913 0.453509 0.391950
O O15 0.848357 0.696174 0.345055
O O16 0.069078 0.207456 0.381535
O O17 0.310127 0.662179 0.937701
#
# Coordination Sequence:
#
# PCOD8002305 Si02
#       8
#     2   2   2   2   2   2   2   2
#     4  10  20  35  59  87 113 145 190 239 284 331
#     4  12  24  38  56  84 123 153 188 232 289 346
#     4  11  22  37  59  89 114 152 191 233 290 344
#     4  10  22  37  56  83 118 153 188 235 285 339
#     4  11  22  37  60  88 116 150 191 238 287 342
#     4  10  20  37  60  84 110 148 195 237 284 335
#     4  11  18  36  64  87 114 148 192 242 287 332
#     4  11  18  36  62  88 117 148 189 244 288 329
#
# _framework density 19.363721000000002
#
# number of rings (size 3 to 8) (size 9 to 14) (size 15 to 20)
#    0.000    1.250    3.750    5.250    0.000    1.500 
#    0.000    0.625    0.000    3.750    0.000    0.000 
#    0.000    0.000    0.000    0.000    0.000    0.000 
#
# Total GULP energy -198337.913887 kJ/mol
# GULP energy per Si atom -12396.119618 kJ/mol
# Density = 1.931965 g / cm^3
# Si number density = 19.363721 Si / 1000 Ang^3
#
#
#
# Elastic Constant Matrix: (Units=GPa)
#
#
# Indices 1 2 3 4 5 6 
#
# 1 54.2794 42.7028 34.9055 -0.4747 6.0659 -17.7232
# 2 42.7028 79.5155 43.3488 -9.6833 13.7398 -16.6312
# 3 34.9055 43.3488 135.7357 -12.5500 -3.1242 -4.2427
# 4 -0.4747 -9.6833 -12.5500 26.2946 -3.6609 7.3516
# 5 6.0659 13.7398 -3.1242 -3.6609 37.6815 -1.7400
# 6 -17.7232 -16.6312 -4.2427 7.3516 -1.7400 33.2830
#
#
#
# Elastic Compliance Matrix: (Units=1/GPa)
#
#
# Indices 1 2 3 4 5 6 
#
# 1 0.040079 -0.016520 -0.005750 -0.012509 -0.001426 0.015043
# 2 -0.016520 0.025525 -0.003428 0.006077 -0.006256 0.001851
# 3 -0.005750 -0.003428 0.010368 0.005291 0.003344 -0.004447
# 4 -0.012509 0.006077 0.005291 0.046804 0.004180 -0.013070
# 5 -0.001426 -0.006256 0.003344 0.004180 0.029601 -0.002835
# 6 0.015043 0.001851 -0.004447 -0.013070 -0.002835 0.041152
#
#
# Mechanical properties :
#
#
# Convention : Reuss Voigt Hill
#
# Bulk Modulus (GPa) = 40.68929 56.82721 48.75825
# Shear Modulus (GPa) = 19.75368 29.35673 24.55521
#
# Velocity S-wave (km/s) = 3.19743 3.89790 3.56491
# Velocity P-wave (km/s) = 5.88983 7.04763 6.49458
#
# Compressibility (1/GPa) = 0.02457649
#
# Stress axis : x y z
#
# Youngs Moduli (GPa) = 24.95064 39.17729 96.45278
#
# Poissons Ratio (x) = 0.64721 0.55460
# Poissons Ratio (y) = 0.41219 0.33061
# Poissons Ratio (z) = 0.14347 0.13429
#
# Static dielectric constant tensor:
#      x y z
#    x 3.532530 -0.361810 -0.176920 
#    y -0.361810 3.524630 -0.224950 
#    z -0.176920 -0.224950 4.032030 
# 
# 
# High freq. dielectric constant tensor:
#      x y z
#    x 1.741220 -0.035850 -0.021310 
#    y -0.035850 1.734540 -0.021570 
#    z -0.021310 -0.021570 1.772920 
# 
# From -- ./inp_files/353722.got.cif
#   From: 2010.06.25/outbox.cif.g09.slc.cpg/sg2_177_cif.got.tgz:353722.got - 2010.06.27 13:26:56.
