data_PCOD8002449
_publ_section_title
;
Structure prediction by ZEFSAII (Michael W. Deem and Ramdas Pophale) SiO2 
 PCOD8002449
Probable space group: P -1
;
_chemical_formula_sum "Si O2"
_cell_formula_units_Z 14
_cell_length_a 9.056607
_cell_length_b 14.807373
_cell_length_c 11.683138
_cell_angle_alpha 117.480623
_cell_angle_beta 117.937015
_cell_angle_gamma 31.283653
_cell_volume 712.372771
_symmetry_space_group_name_H-M "P -1"
_symmetry_group_IT_number 2
_symmetry_cell_setting 'triclinic'
loop_
_space_group_symop_operation_xyz
x,y,z
-x,-y,-z
loop_
_atom_site_type_symbol
_atom_site_label
_atom_site_fract_x
_atom_site_fract_y
_atom_site_fract_z
Si Si1 0.381515 0.663698 0.504094
Si Si2 0.927422 0.419346 0.441386
Si Si3 0.897606 0.582492 0.133992
Si Si4 0.543425 0.769264 0.780649
Si Si5 0.670815 0.890499 0.752336
Si Si6 0.298435 0.905670 0.025343
Si Si7 0.869171 0.789188 0.376638
O O1 0.500000 0.500000 0.500000
O O2 0.578673 0.588369 0.420463
O O3 0.399854 0.747034 0.648234
O O4 0.048081 0.806155 0.438278
O O5 0.000000 0.500000 0.500000
O O6 0.034116 0.302684 0.302804
O O7 0.074476 0.301114 0.539826
O O8 0.550284 0.735621 0.101973
O O9 0.951912 0.675236 0.232636
O O10 0.105375 0.416874 0.198273
O O11 0.000000 0.500000 0.000000
O O12 0.495124 0.899511 0.774833
O O13 0.391526 0.844134 0.892218
O O14 0.748021 0.951641 0.888240
O O15 0.466859 0.015763 0.642236
O O16 0.000000 0.000000 0.000000
#
# Coordination Sequence:
#
# PCOD8002449 Si02
#       7
#     2   2   2   2   2   2   2
#     4  10  20  35  62  84 119 151 201 236 285 351
#     4  11  20  37  58  87 117 155 195 239 290 349
#     4   9  18  36  62  80 112 154 196 233 289 352
#     4  11  20  41  60  85 118 160 197 234 298 354
#     4  11  23  39  59  85 123 156 192 248 295 351
#     4  10  24  39  61  88 115 152 200 249 297 342
#     4  10  21  37  55  90 118 158 194 238 301 337
#
# _framework density 19.652633999999999
#
# number of rings (size 3 to 8) (size 9 to 14) (size 15 to 20)
#    0.000    1.714    4.286    0.857    4.000    0.571 
#    0.000    2.143    0.000    0.000    0.000    0.000 
#    0.000    0.000    0.000    0.000    0.000    0.000 
#
# Total GULP energy -173448.256926 kJ/mol
# GULP energy per Si atom -12389.161209 kJ/mol
# Density = 1.960790 g / cm^3
# Si number density = 19.652634 Si / 1000 Ang^3
#
#
#
# Elastic Constant Matrix: (Units=GPa)
#
#
# Indices 1 2 3 4 5 6 
#
# 1 131.5642 44.6619 51.4660 3.6220 15.8001 -9.5313
# 2 44.6619 79.4803 44.2234 7.8056 9.2088 -11.6287
# 3 51.4660 44.2234 117.9981 19.5435 18.5955 -10.7193
# 4 3.6220 7.8056 19.5435 37.8116 -1.1905 -0.5417
# 5 15.8001 9.2088 18.5955 -1.1905 33.9198 2.1406
# 6 -9.5313 -11.6287 -10.7193 -0.5417 2.1406 32.2933
#
#
#
# Elastic Compliance Matrix: (Units=1/GPa)
#
#
# Indices 1 2 3 4 5 6 
#
# 1 0.010343 -0.003999 -0.002788 0.001218 -0.002215 0.000855
# 2 -0.003999 0.018026 -0.004329 -0.001074 -0.000943 0.003918
# 3 -0.002788 -0.004329 0.013302 -0.005845 -0.005168 0.002278
# 4 0.001218 -0.001074 -0.005845 0.029677 0.004080 -0.001740
# 5 -0.002215 -0.000943 -0.005168 0.004080 0.034054 -0.004898
# 6 0.000855 0.003918 0.002278 -0.001740 -0.004898 0.033681
#
#
# Mechanical properties :
#
#
# Convention : Reuss Voigt Hill
#
# Bulk Modulus (GPa) = 51.44028 67.74948 59.59488
# Shear Modulus (GPa) = 29.79835 33.38437 31.59136
#
# Velocity S-wave (km/s) = 3.89813 4.12603 4.01370
# Velocity P-wave (km/s) = 6.81852 7.56618 7.20206
#
# Compressibility (1/GPa) = 0.01944002
#
# Stress axis : x y z
#
# Youngs Moduli (GPa) = 96.68119 55.47679 75.17423
#
# Poissons Ratio (x) = 0.22185 0.20955
# Poissons Ratio (y) = 0.38663 0.32543
# Poissons Ratio (z) = 0.26950 0.24016
#
# Static dielectric constant tensor:
#      x y z
#    x 3.994570 -0.416730 0.168820 
#    y -0.416730 4.069410 -0.101720 
#    z 0.168820 -0.101720 3.767830 
# 
# 
# High freq. dielectric constant tensor:
#      x y z
#    x 1.747760 -0.003530 0.010280 
#    y -0.003530 1.770650 0.015290 
#    z 0.010280 0.015290 1.772540 
# 
# From -- ./inp_files/171168.got.cif
#   From: 2010.06.25/outbox.cif.g09.slc.cpg/sg2_86_cif.got.tgz:171168.got - 2010.06.27 13:26:56.
