data_PCOD8002799
_publ_section_title
;
Structure prediction by ZEFSAII (Michael W. Deem and Ramdas Pophale) SiO2 
 PCOD8002799
Probable space group: P -1
;
_chemical_formula_sum "Si O2"
_cell_formula_units_Z 16
_cell_length_a 15.168093
_cell_length_b 9.376076
_cell_length_c 12.948322
_cell_angle_alpha 150.639142
_cell_angle_beta 62.430358
_cell_angle_gamma 104.681046
_cell_volume 751.232967
_symmetry_space_group_name_H-M "P -1"
_symmetry_group_IT_number 2
_symmetry_cell_setting 'triclinic'
loop_
_space_group_symop_operation_xyz
x,y,z
-x,-y,-z
loop_
_atom_site_type_symbol
_atom_site_label
_atom_site_fract_x
_atom_site_fract_y
_atom_site_fract_z
Si Si1 0.970432 0.507011 0.318409
Si Si2 0.755896 0.769364 0.516161
Si Si3 0.849022 0.440654 0.635975
Si Si4 0.747236 0.117079 0.098825
Si Si5 0.141955 0.922009 0.787217
Si Si6 0.332100 0.647107 0.205544
Si Si7 0.600203 0.097713 0.990589
Si Si8 0.485014 0.341418 0.752901
O O1 0.875653 0.761769 0.468958
O O2 0.919880 0.301250 0.282426
O O3 0.029799 0.690462 0.471872
O O4 0.062370 0.276377 0.050338
O O5 0.768577 0.427500 0.248956
O O6 0.707760 0.006015 0.599817
O O7 0.685225 0.859683 0.716782
O O8 0.822858 0.195947 0.421087
O O9 0.763539 0.476552 0.795887
O O10 0.834593 0.781457 0.809071
O O11 0.754460 0.117352 0.221466
O O12 0.642059 0.115962 0.096267
O O13 0.402835 0.631399 0.258729
O O14 0.403413 0.413862 0.936618
O O15 0.563690 0.439159 0.178853
O O16 0.500000 0.000000 0.000000
O O17 0.500000 0.000000 0.500000
#
# Coordination Sequence:
#
# PCOD8002799 Si02
#       8
#     2   2   2   2   2   2   2   2
#     4   9  19  34  57  84 116 153 190 234 287 336
#     4  10  22  40  57  83 121 152 187 235 288 344
#     4  11  21  36  60  88 118 152 193 236 280 338
#     4  10  20  36  59  85 113 149 189 234 284 335
#     4   9  19  35  56  86 119 151 190 234 283 340
#     4  10  23  40  58  85 117 151 192 236 285 345
#     4  11  23  38  61  90 113 144 193 245 291 337
#     4  10  22  41  62  82 114 155 190 233 293 347
#
# _framework density 21.298318999999999
#
# number of rings (size 3 to 8) (size 9 to 14) (size 15 to 20)
#    0.000    2.000    0.000    4.125    0.000    7.000 
#    0.000    0.625    0.000    0.000    0.000    0.000 
#    0.000    0.000    0.000    0.000    0.000    0.000 
#
# Total GULP energy -198210.828076 kJ/mol
# GULP energy per Si atom -12388.176755 kJ/mol
# Density = 2.124984 g / cm^3
# Si number density = 21.298319 Si / 1000 Ang^3
#
#
#
# Elastic Constant Matrix: (Units=GPa)
#
#
# Indices 1 2 3 4 5 6 
#
# 1 179.0868 41.8021 49.3303 -12.3216 7.3908 -14.5125
# 2 41.8021 42.9944 36.9148 -2.7016 -0.0328 2.2220
# 3 49.3303 36.9148 106.4319 10.0786 4.2789 -11.8227
# 4 -12.3216 -2.7016 10.0786 19.6526 -7.6531 1.0104
# 5 7.3908 -0.0328 4.2789 -7.6531 34.0237 0.6230
# 6 -14.5125 2.2220 -11.8227 1.0104 0.6230 28.4355
#
#
#
# Elastic Compliance Matrix: (Units=1/GPa)
#
#
# Indices 1 2 3 4 5 6 
#
# 1 0.008191 -0.006633 -0.001458 0.004512 -0.000660 0.003947
# 2 -0.006633 0.044489 -0.015411 0.013158 0.006636 -0.013882
# 3 -0.001458 -0.015411 0.017994 -0.014826 -0.005453 0.008588
# 4 0.004512 0.013158 -0.014826 0.070065 0.016799 -0.007747
# 5 -0.000660 0.006636 -0.005453 0.016799 0.034087 -0.004466
# 6 0.003947 -0.013882 0.008588 -0.007747 -0.004466 0.042210
#
#
# Mechanical properties :
#
#
# Convention : Reuss Voigt Hill
#
# Bulk Modulus (GPa) = 42.24860 64.95639 53.60250
# Shear Modulus (GPa) = 18.38696 29.78675 24.08686
#
# Velocity S-wave (km/s) = 2.94139 3.74378 3.36657
# Velocity P-wave (km/s) = 5.60494 7.01800 6.35090
#
# Compressibility (1/GPa) = 0.02366942
#
# Stress axis : x y z
#
# Youngs Moduli (GPa) = 122.08005 22.47736 55.57420
#
# Poissons Ratio (x) = 0.14909 0.08105
# Poissons Ratio (y) = 0.80976 0.85646
# Poissons Ratio (z) = 0.17804 0.34640
#
# Static dielectric constant tensor:
#      x y z
#    x 4.327730 -0.418480 -0.020240 
#    y -0.418480 3.650200 0.056060 
#    z -0.020240 0.056060 3.997920 
# 
# 
# High freq. dielectric constant tensor:
#      x y z
#    x 1.851640 -0.013790 0.002900 
#    y -0.013790 1.797540 0.009840 
#    z 0.002900 0.009840 1.838400 
# 
# From -- ./inp_files/364436.got.cif
#   From: 2010.06.25/outbox.cif.g09.slc.cpg/sg2_183_cif.got.tgz:364436.got - 2010.06.27 13:26:56.
