data_PCOD8002496
_publ_section_title
;
Structure prediction by ZEFSAII (Michael W. Deem and Ramdas Pophale) SiO2 
 PCOD8002496
Probable space group: P -1
;
_chemical_formula_sum "Si O2"
_cell_formula_units_Z 14
_cell_length_a 9.676972
_cell_length_b 12.817176
_cell_length_c 12.444040
_cell_angle_alpha 36.130988
_cell_angle_beta 122.549195
_cell_angle_gamma 132.724432
_cell_volume 668.384378
_symmetry_space_group_name_H-M "P -1"
_symmetry_group_IT_number 2
_symmetry_cell_setting 'triclinic'
loop_
_space_group_symop_operation_xyz
x,y,z
-x,-y,-z
loop_
_atom_site_type_symbol
_atom_site_label
_atom_site_fract_x
_atom_site_fract_y
_atom_site_fract_z
Si Si1 0.443312 0.719038 0.508160
Si Si2 0.160361 0.995202 0.216533
Si Si3 0.805143 0.001890 0.016494
Si Si4 0.554873 0.398834 0.820521
Si Si5 0.850981 0.357589 0.378292
Si Si6 0.266846 0.667699 0.252526
Si Si7 0.427060 0.814964 0.788812
O O1 0.574234 0.617895 0.674179
O O2 0.260998 0.609637 0.598831
O O3 0.385641 0.663581 0.406634
O O4 0.550946 0.961510 0.370549
O O5 0.376396 0.166885 0.187865
O O6 0.101130 0.818256 0.425177
O O7 0.158471 0.917964 0.158206
O O8 0.006133 0.068643 0.101230
O O9 0.665688 0.759469 0.164504
O O10 0.695132 0.103497 0.945134
O O11 0.684485 0.427777 0.748334
O O12 0.631031 0.315831 0.017687
O O13 0.731998 0.304815 0.263947
O O14 0.045242 0.557675 0.274742
#
# Coordination Sequence:
#
# PCOD8002496 Si02
#       7
#     2   2   2   2   2   2   2
#     4  11  22  41  69  90 119 164 208 260 309 352
#     4   9  18  36  62  90 119 153 206 254 306 350
#     4  10  20  35  63  93 124 157 201 260 311 351
#     4  11  24  41  64  91 129 161 210 248 307 375
#     4  11  23  40  63  93 127 158 209 256 304 368
#     4  12  23  39  63  96 126 163 201 259 310 360
#     4  10  23  44  63  89 129 164 203 254 307 367
#
# _framework density 20.946031000000001
#
# number of rings (size 3 to 8) (size 9 to 14) (size 15 to 20)
#    0.000    1.429    4.286    3.857    6.000    1.143 
#    2.571    0.714    0.000    0.000    0.000    0.000 
#    0.000    0.000    0.000    0.000    0.000    0.000 
#
# Total GULP energy -173564.779925 kJ/mol
# GULP energy per Si atom -12397.484280 kJ/mol
# Density = 2.089836 g / cm^3
# Si number density = 20.946031 Si / 1000 Ang^3
#
#
#
# Elastic Constant Matrix: (Units=GPa)
#
#
# Indices 1 2 3 4 5 6 
#
# 1 70.9551 -11.4775 28.4241 0.4100 4.5978 -18.5208
# 2 -11.4775 31.9389 10.0214 9.7994 3.6204 2.5251
# 3 28.4241 10.0214 91.5194 4.5723 10.3164 -12.7987
# 4 0.4100 9.7994 4.5723 21.9431 -4.0335 2.9461
# 5 4.5978 3.6204 10.3164 -4.0335 28.0613 2.5111
# 6 -18.5208 2.5251 -12.7987 2.9461 2.5111 19.4570
#
#
#
# Elastic Compliance Matrix: (Units=1/GPa)
#
#
# Indices 1 2 3 4 5 6 
#
# 1 0.023556 0.011742 -0.004610 -0.008649 -0.006717 0.020043
# 2 0.011742 0.044396 -0.005524 -0.021432 -0.009258 0.006222
# 3 -0.004610 -0.005524 0.014589 -0.002304 -0.004844 0.006900
# 4 -0.008649 -0.021432 -0.002304 0.061067 0.015436 -0.018206
# 5 -0.006717 -0.009258 -0.004844 0.015436 0.043391 -0.016316
# 6 0.020043 0.006222 0.006900 -0.018206 -0.016316 0.079068
#
#
# Mechanical properties :
#
#
# Convention : Reuss Voigt Hill
#
# Bulk Modulus (GPa) = 11.66066 27.59438 19.62752
# Shear Modulus (GPa) = 17.15642 25.05530 21.10586
#
# Velocity S-wave (km/s) = 2.86506 3.46234 3.17776
# Velocity P-wave (km/s) = 4.06495 5.40244 4.78070
#
# Compressibility (1/GPa) = 0.08575841
#
# Stress axis : x y z
#
# Youngs Moduli (GPa) = 42.45151 22.52468 68.54381
#
# Poissons Ratio (x) = -0.26448 0.31596
# Poissons Ratio (y) = -0.49846 0.37861
# Poissons Ratio (z) = 0.19569 0.12442
#
# Static dielectric constant tensor:
#      x y z
#    x 3.601920 0.067470 0.103870 
#    y 0.067470 3.502880 0.110420 
#    z 0.103870 0.110420 3.973550 
# 
# 
# High freq. dielectric constant tensor:
#      x y z
#    x 1.804130 0.003240 0.007470 
#    y 0.003240 1.795640 0.005090 
#    z 0.007470 0.005090 1.835240 
# 
# From -- ./inp_files/234191.got.cif
#   From: 2010.06.25/outbox.cif.g09.slc.cpg/sg2_118_cif.got.tgz:234191.got - 2010.06.27 13:26:56.
