data_PCOD8002971
_publ_section_title
;
Structure prediction by ZEFSAII (Michael W. Deem and Ramdas Pophale) SiO2 
 PCOD8002971
Probable space group: P -1
;
_chemical_formula_sum "Si O2"
_cell_formula_units_Z 16
_cell_length_a 12.471493
_cell_length_b 15.803605
_cell_length_c 15.544008
_cell_angle_alpha 136.110285
_cell_angle_beta 151.959913
_cell_angle_gamma 34.479306
_cell_volume 815.026673
_symmetry_space_group_name_H-M "P -1"
_symmetry_group_IT_number 2
_symmetry_cell_setting 'triclinic'
loop_
_space_group_symop_operation_xyz
x,y,z
-x,-y,-z
loop_
_atom_site_type_symbol
_atom_site_label
_atom_site_fract_x
_atom_site_fract_y
_atom_site_fract_z
Si Si1 0.701525 0.944139 0.684056
Si Si2 0.533136 0.476037 0.739014
Si Si3 0.394508 0.783167 0.849003
Si Si4 0.009236 0.960164 0.378993
Si Si5 0.795485 0.042618 0.989418
Si Si6 0.626831 0.730945 0.575085
Si Si7 0.989543 0.732089 0.965177
Si Si8 0.907288 0.732442 0.093652
O O1 0.609659 0.059308 0.785872
O O2 0.720204 0.797502 0.617131
O O3 0.500000 0.000000 0.500000
O O4 0.006097 0.901990 0.844746
O O5 0.343019 0.655527 0.738006
O O6 0.343588 0.415620 0.545611
O O7 0.769293 0.413182 0.784210
O O8 0.690714 0.406803 0.891399
O O9 0.707209 0.695718 0.968774
O O10 0.165181 0.895501 0.699982
O O11 0.394929 0.862038 0.994737
O O12 0.317542 0.859832 0.483380
O O13 0.870920 0.870390 0.218623
O O14 0.000000 0.000000 0.500000
O O15 0.987295 0.866196 0.018686
O O16 0.848604 0.670978 0.764428
O O17 0.812454 0.790393 0.971040
#
# Coordination Sequence:
#
# PCOD8002971 Si02
#       8
#     2   2   2   2   2   2   2   2
#     4  10  20  36  61  84 109 141 190 236 295 330
#     4   9  21  37  55  82 117 158 184 224 271 348
#     4  12  20  37  57  84 121 145 192 237 276 328
#     4  11  22  33  55  91 115 147 192 238 278 325
#     4  10  21  35  60  88 106 142 191 247 276 331
#     4  10  20  39  59  79 113 155 185 227 288 339
#     4   9  18  38  59  77 114 151 193 218 285 330
#     4   9  20  36  55  78 119 156 183 218 282 333
#
# _framework density 19.631260000000001
#
# number of rings (size 3 to 8) (size 9 to 14) (size 15 to 20)
#    0.750    1.250    1.250    3.000    3.500    0.000 
#    2.250    2.500    0.000   10.500    0.000    0.000 
#    0.000    0.000    0.000    0.000    0.000    0.000 
#
# Total GULP energy -198224.028186 kJ/mol
# GULP energy per Si atom -12389.001762 kJ/mol
# Density = 1.958658 g / cm^3
# Si number density = 19.631260 Si / 1000 Ang^3
#
#
#
# Elastic Constant Matrix: (Units=GPa)
#
#
# Indices 1 2 3 4 5 6 
#
# 1 74.6404 15.3829 35.2858 7.5765 -15.5513 11.8053
# 2 15.3829 101.3822 43.7870 19.0710 -12.8237 13.1058
# 3 35.2858 43.7870 133.8321 25.1161 -25.9298 10.8131
# 4 7.5765 19.0710 25.1161 21.5495 3.5134 7.4386
# 5 -15.5513 -12.8237 -25.9298 3.5134 43.4657 6.3896
# 6 11.8053 13.1058 10.8131 7.4386 6.3896 14.7484
#
#
#
# Elastic Compliance Matrix: (Units=1/GPa)
#
#
# Indices 1 2 3 4 5 6 
#
# 1 0.018899 0.001696 -0.002264 -0.000550 0.008668 -0.018452
# 2 0.001696 0.014053 -0.001270 -0.008694 0.006356 -0.011283
# 3 -0.002264 -0.001270 0.012750 -0.013120 0.007958 -0.003238
# 4 -0.000550 -0.008694 -0.013120 0.077058 -0.014652 -0.014732
# 5 0.008668 0.006356 0.007958 -0.014652 0.037954 -0.027475
# 6 -0.018452 -0.011283 -0.003238 -0.014732 -0.027475 0.114307
#
#
# Mechanical properties :
#
#
# Convention : Reuss Voigt Hill
#
# Bulk Modulus (GPa) = 23.79538 55.41845 39.60692
# Shear Modulus (GPa) = 17.08194 30.31266 23.69730
#
# Velocity S-wave (km/s) = 2.95301 3.93377 3.47813
# Velocity P-wave (km/s) = 4.87591 6.99455 6.02902
#
# Compressibility (1/GPa) = 0.04202496
#
# Stress axis : x y z
#
# Youngs Moduli (GPa) = 52.91366 71.15953 78.42989
#
# Poissons Ratio (x) = -0.12066 0.17756
# Poissons Ratio (y) = -0.08972 0.09962
# Poissons Ratio (z) = 0.11979 0.09038
#
# Static dielectric constant tensor:
#      x y z
#    x 3.587880 0.143090 -0.113280 
#    y 0.143090 3.235330 0.202150 
#    z -0.113280 0.202150 3.742460 
# 
# 
# High freq. dielectric constant tensor:
#      x y z
#    x 1.758520 0.017520 -0.007500 
#    y 0.017520 1.739200 0.021370 
#    z -0.007500 0.021370 1.771110 
# 
# From -- ./inp_files/522451.got.cif
#   From: 2010.06.25/outbox.cif.g09.slc.cpg/sg2_262_cif.got.tgz:522451.got - 2010.06.27 13:26:56.
