data_PCOD8002366
_publ_section_title
;
Structure prediction by ZEFSAII (Michael W. Deem and Ramdas Pophale) SiO2 
 PCOD8002366
Probable space group: P -1
;
_chemical_formula_sum "Si O2"
_cell_formula_units_Z 16
_cell_length_a 17.816907
_cell_length_b 8.812982
_cell_length_c 23.713324
_cell_angle_alpha 41.853980
_cell_angle_beta 160.754538
_cell_angle_gamma 138.794203
_cell_volume 798.215425
_symmetry_space_group_name_H-M "P -1"
_symmetry_group_IT_number 2
_symmetry_cell_setting 'triclinic'
loop_
_space_group_symop_operation_xyz
x,y,z
-x,-y,-z
loop_
_atom_site_type_symbol
_atom_site_label
_atom_site_fract_x
_atom_site_fract_y
_atom_site_fract_z
Si Si1 0.331197 0.614851 0.147148
Si Si2 0.581000 0.388155 0.033837
Si Si3 0.032254 0.240908 0.855144
Si Si4 0.255437 0.956007 0.681458
Si Si5 0.884802 0.772046 0.809099
Si Si6 0.751553 0.406557 0.323178
Si Si7 0.383941 0.255652 0.195023
Si Si8 0.456481 0.886825 0.439306
O O1 0.259004 0.435459 0.196712
O O2 0.395989 0.499170 0.167962
O O3 0.560183 0.811750 0.271751
O O4 0.103564 0.718952 0.945205
O O5 0.814276 0.553182 0.129086
O O6 0.640395 0.140653 0.160796
O O7 0.500000 0.500000 0.000000
O O8 0.369123 0.379823 0.841035
O O9 0.784333 0.312032 0.672217
O O10 0.146200 0.191498 0.008621
O O11 0.985294 0.999936 0.854169
O O12 0.231077 0.763474 0.668988
O O13 0.000000 0.000000 0.500000
O O14 0.693557 0.801528 0.617374
O O15 0.598115 0.264219 0.302814
O O16 0.000000 0.500000 0.500000
O O17 0.399893 0.062592 0.304905
O O18 0.500000 0.000000 0.500000
#
# Coordination Sequence:
#
# PCOD8002366 Si02
#       8
#     2   2   2   2   2   2   2   2
#     4  11  22  38  59  88 126 156 197 239 317 355
#     4   9  20  38  62  87 117 162 203 248 293 366
#     4  10  20  38  63  87 118 152 213 248 299 350
#     4  11  24  41  65  91 123 164 200 248 305 368
#     4  10  22  38  61  87 119 160 201 250 292 365
#     4  10  22  41  63  90 117 159 209 252 294 355
#     4  11  21  38  63  88 121 158 196 256 300 356
#     4  10  20  35  60  89 111 160 210 242 287 361
#
# _framework density 20.044715
#
# number of rings (size 3 to 8) (size 9 to 14) (size 15 to 20)
#    0.000    1.750    2.500    3.375    1.750    5.000 
#    0.000    8.750    0.000    0.000    0.000    0.000 
#    0.000    0.000    0.000    0.000    0.000    0.000 
#
# Total GULP energy -198250.504877 kJ/mol
# GULP energy per Si atom -12390.656555 kJ/mol
# Density = 1.999909 g / cm^3
# Si number density = 20.044715 Si / 1000 Ang^3
#
#
#
# Elastic Constant Matrix: (Units=GPa)
#
#
# Indices 1 2 3 4 5 6 
#
# 1 79.3894 18.2635 40.6555 3.0586 3.2176 4.3142
# 2 18.2635 79.5036 43.2010 10.4025 0.5649 1.3475
# 3 40.6555 43.2010 156.5571 22.3422 12.1129 -0.7298
# 4 3.0586 10.4025 22.3422 32.1424 0.0730 4.2402
# 5 3.2176 0.5649 12.1129 0.0730 35.9668 -2.5523
# 6 4.3142 1.3475 -0.7298 4.2402 -2.5523 23.5722
#
#
#
# Elastic Compliance Matrix: (Units=1/GPa)
#
#
# Indices 1 2 3 4 5 6 
#
# 1 0.014988 -0.001634 -0.003736 0.002120 -0.000287 -0.003178
# 2 -0.001634 0.015159 -0.003517 -0.002289 0.001087 -0.000147
# 3 -0.003736 -0.003517 0.009278 -0.005190 -0.002595 0.001825
# 4 0.002120 -0.002289 -0.005190 0.036154 0.001038 -0.006809
# 5 -0.000287 0.001087 -0.002595 0.001038 0.028886 0.002851
# 6 -0.003178 -0.000147 0.001825 -0.006809 0.002851 0.044603
#
#
# Mechanical properties :
#
#
# Convention : Reuss Voigt Hill
#
# Bulk Modulus (GPa) = 46.18846 57.74335 51.96590
# Shear Modulus (GPa) = 28.72580 32.55830 30.64205
#
# Velocity S-wave (km/s) = 3.78972 4.03461 3.91408
# Velocity P-wave (km/s) = 6.49939 7.11154 6.81234
#
# Compressibility (1/GPa) = 0.02165043
#
# Stress axis : x y z
#
# Youngs Moduli (GPa) = 66.71945 65.96905 107.78020
#
# Poissons Ratio (x) = 0.10781 0.40271
# Poissons Ratio (y) = 0.10903 0.37902
# Poissons Ratio (z) = 0.24929 0.23199
#
# Static dielectric constant tensor:
#      x y z
#    x 3.448130 -0.049560 0.185470 
#    y -0.049560 3.419610 -0.009700 
#    z 0.185470 -0.009700 4.694760 
# 
# 
# High freq. dielectric constant tensor:
#      x y z
#    x 1.778650 0.018320 0.007860 
#    y 0.018320 1.761950 0.006830 
#    z 0.007860 0.006830 1.808570 
# 
# From -- ./inp_files/563230.got.cif
#   From: 2010.06.25/outbox.cif.g09.slc.cpg/sg2_282_cif.got.tgz:563230.got - 2010.06.27 13:26:56.
