data_PCOD8002821
_publ_section_title
;
Structure prediction by ZEFSAII (Michael W. Deem and Ramdas Pophale) SiO2 
 PCOD8002821
Probable space group: P -1
;
_chemical_formula_sum "Si O2"
_cell_formula_units_Z 16
_cell_length_a 9.312391
_cell_length_b 10.996779
_cell_length_c 14.404634
_cell_angle_alpha 115.967509
_cell_angle_beta 139.957473
_cell_angle_gamma 82.249576
_cell_volume 800.396425
_symmetry_space_group_name_H-M "P -1"
_symmetry_group_IT_number 2
_symmetry_cell_setting 'triclinic'
loop_
_space_group_symop_operation_xyz
x,y,z
-x,-y,-z
loop_
_atom_site_type_symbol
_atom_site_label
_atom_site_fract_x
_atom_site_fract_y
_atom_site_fract_z
Si Si1 0.901622 0.005274 0.352739
Si Si2 0.859825 0.265823 0.894328
Si Si3 0.212353 0.541780 0.238107
Si Si4 0.499022 0.749635 0.127926
Si Si5 0.236262 0.002778 0.353152
Si Si6 0.870111 0.680631 0.418132
Si Si7 0.271552 0.321943 0.450366
Si Si8 0.932664 0.459396 0.246435
O O1 0.631908 0.892287 0.178941
O O2 0.000000 0.000000 0.500000
O O3 0.077595 0.966833 0.355515
O O4 0.913244 0.170368 0.400386
O O5 0.759889 0.335852 0.784173
O O6 0.669586 0.219359 0.867733
O O7 0.896381 0.120645 0.828519
O O8 0.110263 0.380977 0.090207
O O9 0.470751 0.572687 0.421217
O O10 0.036393 0.553416 0.237007
O O11 0.693111 0.697303 0.256585
O O12 0.345096 0.629933 0.938949
O O13 0.246559 0.155898 0.369375
O O14 0.500000 0.000000 0.500000
O O15 0.734472 0.629314 0.429741
O O16 0.971651 0.561516 0.389634
O O17 0.070282 0.348041 0.296226
#
# Coordination Sequence:
#
# PCOD8002821 Si02
#       8
#     2   2   2   2   2   2   2   2
#     4   9  20  33  56  87 112 141 193 239 273 332
#     4  10  20  36  59  87 110 148 191 244 278 328
#     4  10  21  37  57  83 118 143 195 233 283 339
#     4  10  20  39  57  86 116 145 196 240 275 336
#     4  11  20  36  61  85 111 151 190 233 287 336
#     4  10  20  38  58  82 113 153 189 231 283 340
#     4  11  22  40  56  85 119 149 187 238 285 346
#     4  11  24  36  58  86 117 152 188 235 291 336
#
# _framework density 19.990093999999999
#
# number of rings (size 3 to 8) (size 9 to 14) (size 15 to 20)
#    0.000    1.750    2.500    2.625    3.500    2.000 
#    0.000    6.250    0.000    0.000    0.000    0.000 
#    0.000    0.000    0.000    0.000    0.000    0.000 
#
# Total GULP energy -198355.548920 kJ/mol
# GULP energy per Si atom -12397.221808 kJ/mol
# Density = 1.994460 g / cm^3
# Si number density = 19.990094 Si / 1000 Ang^3
#
#
#
# Elastic Constant Matrix: (Units=GPa)
#
#
# Indices 1 2 3 4 5 6 
#
# 1 106.6817 38.8431 40.4926 32.6599 2.6718 -2.5938
# 2 38.8431 74.7136 35.8333 13.8568 2.8725 -12.0452
# 3 40.4926 35.8333 85.5238 21.5678 12.8644 1.7266
# 4 32.6599 13.8568 21.5678 33.7283 -2.0402 -4.3992
# 5 2.6718 2.8725 12.8644 -2.0402 35.1732 14.0198
# 6 -2.5938 -12.0452 1.7266 -4.3992 14.0198 25.5052
#
#
#
# Elastic Compliance Matrix: (Units=1/GPa)
#
#
# Indices 1 2 3 4 5 6 
#
# 1 0.015781 -0.005484 -0.002173 -0.012026 0.000649 -0.003269
# 2 -0.005484 0.021042 -0.006459 0.002166 -0.003683 0.012215
# 3 -0.002173 -0.006459 0.018182 -0.007567 -0.005227 -0.002934
# 4 -0.012026 0.002166 -0.007567 0.046283 0.003691 0.006266
# 5 0.000649 -0.003683 -0.005227 0.003691 0.039800 -0.022560
# 6 -0.003269 0.012215 -0.002934 0.006266 -0.022560 0.058325
#
#
# Mechanical properties :
#
#
# Convention : Reuss Voigt Hill
#
# Bulk Modulus (GPa) = 37.35067 55.25079 46.30073
# Shear Modulus (GPa) = 21.13547 28.99800 25.06673
#
# Velocity S-wave (km/s) = 3.25514 3.81283 3.54497
# Velocity P-wave (km/s) = 5.73176 6.86168 6.32201
#
# Compressibility (1/GPa) = 0.02677329
#
# Stress axis : x y z
#
# Youngs Moduli (GPa) = 63.36725 47.52315 55.00090
#
# Poissons Ratio (x) = 0.26061 0.11952
# Poissons Ratio (y) = 0.34750 0.35524
# Poissons Ratio (z) = 0.13771 0.30694
#
# Static dielectric constant tensor:
#      x y z
#    x 3.821550 0.231100 0.167290 
#    y 0.231100 3.680810 0.496820 
#    z 0.167290 0.496820 3.836490 
# 
# 
# High freq. dielectric constant tensor:
#      x y z
#    x 1.788050 0.010060 -0.000570 
#    y 0.010060 1.758410 0.024860 
#    z -0.000570 0.024860 1.775800 
# 
# From -- ./inp_files/274687.got.cif
#   From: 2010.06.25/outbox.cif.g09.slc.cpg/sg2_138_cif.got.tgz:274687.got - 2010.06.27 13:26:56.
