data_PCOD8002881
_publ_section_title
;
Structure prediction by ZEFSAII (Michael W. Deem and Ramdas Pophale) SiO2 
 PCOD8002881
Probable space group: P -1
;
_chemical_formula_sum "Si O2"
_cell_formula_units_Z 10
_cell_length_a 9.308118
_cell_length_b 12.078980
_cell_length_c 9.386669
_cell_angle_alpha 38.555660
_cell_angle_beta 134.373196
_cell_angle_gamma 123.906125
_cell_volume 470.041500
_symmetry_space_group_name_H-M "P -1"
_symmetry_group_IT_number 2
_symmetry_cell_setting 'triclinic'
loop_
_space_group_symop_operation_xyz
x,y,z
-x,-y,-z
loop_
_atom_site_type_symbol
_atom_site_label
_atom_site_fract_x
_atom_site_fract_y
_atom_site_fract_z
Si Si1 0.302430 0.347880 0.625670
Si Si2 0.354847 0.768380 0.564653
Si Si3 0.908585 0.550756 0.177093
Si Si4 0.263430 0.150761 0.071130
Si Si5 0.378624 0.378023 0.340176
O O1 0.311580 0.276081 0.541733
O O2 0.514868 0.435989 0.729654
O O3 0.137600 0.500127 0.370570
O O4 0.250651 0.184123 0.859156
O O5 0.216058 0.597138 0.670777
O O6 0.513306 0.791237 0.779874
O O7 0.475694 0.746012 0.524028
O O8 0.218926 0.942784 0.281267
O O9 0.901777 0.733418 0.078452
O O10 0.818030 0.576628 0.931902
#
# Coordination Sequence:
#
# PCOD8002881 Si02
#       5
#     2   2   2   2   2
#     4  11  21  35  60  83 110 146 185 220 276 329
#     4  10  20  37  61  79 112 147 181 227 275 316
#     4  11  20  39  59  81 110 146 182 230 268 321
#     4  10  20  36  60  84 108 144 189 223 269 329
#     4  10  21  38  56  82 114 147 176 227 279 321
#
# _framework density 21.274716999999999
#
# number of rings (size 3 to 8) (size 9 to 14) (size 15 to 20)
#    0.000    1.600    4.000    2.400    0.000    1.600 
#    0.000    0.000    0.000    4.800    0.000    0.000 
#    0.000    0.000    0.000    0.000    0.000    0.000 
#
# Total GULP energy -124027.557392 kJ/mol
# GULP energy per Si atom -12402.755739 kJ/mol
# Density = 2.122629 g / cm^3
# Si number density = 21.274717 Si / 1000 Ang^3
#
#
#
# Elastic Constant Matrix: (Units=GPa)
#
#
# Indices 1 2 3 4 5 6 
#
# 1 92.1298 18.7059 47.6148 8.7944 -18.7007 -29.4437
# 2 18.7059 45.3658 33.9493 -5.5725 -13.0914 -17.0286
# 3 47.6148 33.9493 100.2549 0.4667 -21.3853 -29.5920
# 4 8.7944 -5.5725 0.4667 34.1592 -13.6640 -0.6359
# 5 -18.7007 -13.0914 -21.3853 -13.6640 31.9736 10.5009
# 6 -29.4437 -17.0286 -29.5920 -0.6359 10.5009 27.2252
#
#
#
# Elastic Compliance Matrix: (Units=1/GPa)
#
#
# Indices 1 2 3 4 5 6 
#
# 1 0.018385 0.001575 -0.004277 -0.003295 0.002093 0.015336
# 2 0.001575 0.035681 -0.006770 0.010244 0.011255 0.012561
# 3 -0.004277 -0.006770 0.017867 0.001717 0.004499 0.008865
# 4 -0.003295 0.010244 0.001717 0.040330 0.021520 -0.002649
# 5 0.002093 0.011255 0.004499 0.021520 0.050940 -0.004952
# 6 0.015336 0.012561 0.008865 -0.002649 -0.004952 0.072656
#
#
# Mechanical properties :
#
#
# Convention : Reuss Voigt Hill
#
# Bulk Modulus (GPa) = 18.87178 48.69895 33.78537
# Shear Modulus (GPa) = 18.35092 27.83696 23.09394
#
# Velocity S-wave (km/s) = 2.94014 3.62118 3.29828
# Velocity P-wave (km/s) = 4.51837 6.35800 5.51542
#
# Compressibility (1/GPa) = 0.05298917
#
# Stress axis : x y z
#
# Youngs Moduli (GPa) = 54.39108 28.02626 55.96993
#
# Poissons Ratio (x) = -0.04415 0.23938
# Poissons Ratio (y) = -0.08569 0.37893
# Poissons Ratio (z) = 0.23263 0.18975
#
# Static dielectric constant tensor:
#      x y z
#    x 3.769780 -0.206550 -0.061500 
#    y -0.206550 3.670640 0.254000 
#    z -0.061500 0.254000 4.080910 
# 
# 
# High freq. dielectric constant tensor:
#      x y z
#    x 1.822950 -0.010490 -0.000310 
#    y -0.010490 1.817570 0.022970 
#    z -0.000310 0.022970 1.845260 
# 
# From -- ./inp_files/143968.got.cif
#   From: 2010.06.25/outbox.cif.g09.slc.cpg/sg2_72_cif.got.tgz:143968.got - 2010.06.27 13:26:56.
