data_PCOD8002688
_publ_section_title
;
Structure prediction by ZEFSAII (Michael W. Deem and Ramdas Pophale) SiO2 
 PCOD8002688
Probable space group: P -1
;
_chemical_formula_sum "Si O2"
_cell_formula_units_Z 16
_cell_length_a 11.522942
_cell_length_b 12.021248
_cell_length_c 17.433223
_cell_angle_alpha 49.625859
_cell_angle_beta 30.642060
_cell_angle_gamma 38.228129
_cell_volume 758.576248
_symmetry_space_group_name_H-M "P -1"
_symmetry_group_IT_number 2
_symmetry_cell_setting 'triclinic'
loop_
_space_group_symop_operation_xyz
x,y,z
-x,-y,-z
loop_
_atom_site_type_symbol
_atom_site_label
_atom_site_fract_x
_atom_site_fract_y
_atom_site_fract_z
Si Si1 0.844855 0.774392 0.470786
Si Si2 0.130538 0.590281 0.244557
Si Si3 0.078658 0.132795 0.987921
Si Si4 0.940432 0.246247 0.477436
Si Si5 0.390976 0.352154 0.546084
Si Si6 0.703952 0.139002 0.323068
Si Si7 0.409227 0.871704 0.317374
Si Si8 0.656616 0.251690 0.049449
O O1 0.539909 0.811699 0.621376
O O2 0.073542 0.608759 0.359848
O O3 0.964163 0.716746 0.513876
O O4 0.821992 0.950680 0.380483
O O5 0.327266 0.379908 0.202167
O O6 0.832334 0.692611 0.324987
O O7 0.283705 0.682525 0.092215
O O8 0.285625 0.191944 0.858458
O O9 0.260922 0.945442 0.921484
O O10 0.958406 0.122203 0.141697
O O11 0.823385 0.270339 0.015280
O O12 0.769453 0.434468 0.443349
O O13 0.734269 0.184362 0.637001
O O14 0.210244 0.087708 0.347132
O O15 0.595091 0.289473 0.383993
O O16 0.567030 0.233073 0.571876
#
# Coordination Sequence:
#
# PCOD8002688 Si02
#       8
#     2   2   2   2   2   2   2   2
#     4  10  21  39  61  89 127 161 200 250 309 368
#     4  10  20  36  57  94 120 156 195 257 304 366
#     4  11  22  37  60  92 125 163 193 253 319 358
#     4  11  25  41  68  86 118 172 213 248 295 369
#     4  11  22  41  66  91 121 160 210 255 301 363
#     4  10  22  36  65  93 124 158 196 255 319 363
#     4  11  24  45  63  89 123 163 215 253 295 361
#     4  10  21  32  59  89 127 153 196 248 315 366
#
# _framework density 21.092144000000001
#
# number of rings (size 3 to 8) (size 9 to 14) (size 15 to 20)
#    0.000    1.500    3.750    1.125    7.000    1.000 
#    0.000    1.250    0.000    0.000    0.000    0.000 
#    0.000    0.000    0.000    0.000    0.000    0.000 
#
# Total GULP energy -198426.666287 kJ/mol
# GULP energy per Si atom -12401.666643 kJ/mol
# Density = 2.104414 g / cm^3
# Si number density = 21.092144 Si / 1000 Ang^3
#
#
#
# Elastic Constant Matrix: (Units=GPa)
#
#
# Indices 1 2 3 4 5 6 
#
# 1 47.8799 7.1158 21.4956 2.0053 -5.6454 3.1654
# 2 7.1158 85.9138 13.1936 11.1314 9.0599 -1.7273
# 3 21.4956 13.1936 108.1909 4.4786 -8.3409 4.1043
# 4 2.0053 11.1314 4.4786 26.7392 -0.8054 0.1279
# 5 -5.6454 9.0599 -8.3409 -0.8054 21.4476 -0.0776
# 6 3.1654 -1.7273 4.1043 0.1279 -0.0776 25.3755
#
#
#
# Elastic Compliance Matrix: (Units=1/GPa)
#
#
# Indices 1 2 3 4 5 6 
#
# 1 0.023777 -0.001980 -0.003958 -0.000117 0.005542 -0.002443
# 2 -0.001980 0.013532 -0.001632 -0.005432 -0.007071 0.001438
# 3 -0.003958 -0.001632 0.010594 -0.000680 0.003737 -0.001316
# 4 -0.000117 -0.005432 -0.000680 0.039889 0.003495 -0.000436
# 5 0.005542 -0.007071 0.003737 0.003495 0.052650 -0.001634
# 6 -0.002443 0.001438 -0.001316 -0.000436 -0.001634 0.040021
#
#
# Mechanical properties :
#
#
# Convention : Reuss Voigt Hill
#
# Bulk Modulus (GPa) = 30.52054 36.17717 33.34886
# Shear Modulus (GPa) = 24.21031 28.05776 26.13404
#
# Velocity S-wave (km/s) = 3.39165 3.65121 3.52382
# Velocity P-wave (km/s) = 5.46253 5.91306 5.69226
#
# Compressibility (1/GPa) = 0.03276482
#
# Stress axis : x y z
#
# Youngs Moduli (GPa) = 42.05826 73.89664 94.38927
#
# Poissons Ratio (x) = 0.14631 0.37357
# Poissons Ratio (y) = 0.08327 0.15402
# Poissons Ratio (z) = 0.16645 0.12058
#
# Static dielectric constant tensor:
#      x y z
#    x 3.630690 -0.039320 -0.109440 
#    y -0.039320 3.869730 0.189530 
#    z -0.109440 0.189530 3.737680 
# 
# 
# High freq. dielectric constant tensor:
#      x y z
#    x 1.799050 -0.010930 -0.004800 
#    y -0.010930 1.834870 0.005000 
#    z -0.004800 0.005000 1.823380 
# 
# From -- ./inp_files/179332.got.cif
#   From: 2010.06.25/outbox.cif.g09.slc.cpg/sg2_90_cif.got.tgz:179332.got - 2010.06.27 13:26:56.
