data_PCOD8002990
_publ_section_title
;
Structure prediction by ZEFSAII (Michael W. Deem and Ramdas Pophale) SiO2 
 PCOD8002990
Probable space group: P -1
;
_chemical_formula_sum "Si O2"
_cell_formula_units_Z 16
_cell_length_a 19.750774
_cell_length_b 12.015979
_cell_length_c 8.158763
_cell_angle_alpha 115.795161
_cell_angle_beta 99.569743
_cell_angle_gamma 135.777877
_cell_volume 788.276334
_symmetry_space_group_name_H-M "P -1"
_symmetry_group_IT_number 2
_symmetry_cell_setting 'triclinic'
loop_
_space_group_symop_operation_xyz
x,y,z
-x,-y,-z
loop_
_atom_site_type_symbol
_atom_site_label
_atom_site_fract_x
_atom_site_fract_y
_atom_site_fract_z
Si Si1 0.365148 0.940605 0.514908
Si Si2 0.122725 0.947451 0.681905
Si Si3 0.871411 0.225291 0.169171
Si Si4 0.706172 0.551099 0.023049
Si Si5 0.680716 0.395566 0.570842
Si Si6 0.350086 0.920222 0.120836
Si Si7 0.188257 0.431442 0.613091
Si Si8 0.915657 0.364612 0.716085
O O1 0.528754 0.260685 0.786561
O O2 0.361532 0.814185 0.545146
O O3 0.314736 0.828751 0.237395
O O4 0.256014 0.868243 0.502388
O O5 0.193636 0.998068 0.906497
O O6 0.070216 0.752282 0.419299
O O7 0.983818 0.808077 0.592392
O O8 0.246352 0.229347 0.824184
O O9 0.000000 0.500000 0.500000
O O10 0.977720 0.359991 0.147694
O O11 0.731577 0.085849 0.971931
O O12 0.756833 0.570039 0.881059
O O13 0.781654 0.615753 0.257128
O O14 0.783683 0.576789 0.565826
O O15 0.527095 0.223431 0.361489
O O16 0.295470 0.720961 0.858416
O O17 0.000000 0.500000 0.000000
#
# Coordination Sequence:
#
# PCOD8002990 Si02
#       8
#     2   2   2   2   2   2   2   2
#     4  11  21  39  66  92 126 164 210 262 309 368
#     4  11  25  42  59  91 133 166 203 258 312 378
#     4  10  20  36  61  87 121 162 202 253 307 363
#     4  11  25  44  60  93 134 164 205 257 319 375
#     4  11  24  38  68  96 119 166 213 262 310 367
#     4  11  19  39  61  96 125 152 212 270 306 358
#     4  12  21  41  66  92 125 162 211 263 311 366
#     4  11  21  38  65  92 118 160 211 255 305 366
#
# _framework density 20.297452
#
# number of rings (size 3 to 8) (size 9 to 14) (size 15 to 20)
#    0.000    1.000    6.250    2.250    1.750    1.000 
#    2.250    2.500    0.000    0.000    0.000    0.000 
#    0.000    0.000    0.000    0.000    0.000    0.000 
#
# Total GULP energy -198222.781438 kJ/mol
# GULP energy per Si atom -12388.923840 kJ/mol
# Density = 2.025125 g / cm^3
# Si number density = 20.297452 Si / 1000 Ang^3
#
#
#
# Elastic Constant Matrix: (Units=GPa)
#
#
# Indices 1 2 3 4 5 6 
#
# 1 101.6783 65.9802 40.2160 -0.6601 23.1741 4.8599
# 2 65.9802 142.3075 49.9567 -19.0180 -0.2020 -9.1755
# 3 40.2160 49.9567 63.6867 -13.2417 12.1605 -9.1973
# 4 -0.6601 -19.0180 -13.2417 32.3116 -4.7775 -3.2820
# 5 23.1741 -0.2020 12.1605 -4.7775 33.0880 -0.6826
# 6 4.8599 -9.1755 -9.1973 -3.2820 -0.6826 38.1515
#
#
#
# Elastic Compliance Matrix: (Units=1/GPa)
#
#
# Indices 1 2 3 4 5 6 
#
# 1 0.023394 -0.010444 -0.007286 -0.011838 -0.015656 -0.008547
# 2 -0.010444 0.014996 -0.004668 0.008732 0.010481 0.004751
# 3 -0.007286 -0.004668 0.027459 0.008540 -0.003638 0.007095
# 4 -0.011838 0.008732 0.008540 0.042005 0.011467 0.009486
# 5 -0.015656 0.010481 -0.003638 0.011467 0.044356 0.005418
# 6 -0.008547 0.004751 0.007095 0.009486 0.005418 0.031066
#
#
# Mechanical properties :
#
#
# Convention : Reuss Voigt Hill
#
# Bulk Modulus (GPa) = 47.49888 68.88646 58.19267
# Shear Modulus (GPa) = 21.26841 30.81153 26.03997
#
# Velocity S-wave (km/s) = 3.24054 3.90038 3.58567
# Velocity P-wave (km/s) = 6.11994 7.36859 6.77310
#
# Compressibility (1/GPa) = 0.02105313
#
# Stress axis : x y z
#
# Youngs Moduli (GPa) = 42.74565 66.68386 36.41795
#
# Poissons Ratio (x) = 0.69646 0.26536
# Poissons Ratio (y) = 0.44644 0.16998
# Poissons Ratio (z) = 0.31146 0.31125
#
# Static dielectric constant tensor:
#      x y z
#    x 3.243320 0.094350 0.172170 
#    y 0.094350 4.230840 -0.334600 
#    z 0.172170 -0.334600 3.607820 
# 
# 
# High freq. dielectric constant tensor:
#      x y z
#    x 1.782820 0.006270 0.021240 
#    y 0.006270 1.806380 -0.020650 
#    z 0.021240 -0.020650 1.781220 
# 
# From -- ./inp_files/333624.got.cif
#   From: 2010.06.25/outbox.cif.g09.slc.cpg/sg2_167_cif.got.tgz:333624.got - 2010.06.27 13:26:56.
