data_PCOD8002479
_publ_section_title
;
Structure prediction by ZEFSAII (Michael W. Deem and Ramdas Pophale) SiO2 
 PCOD8002479
Probable space group: P -1
;
_chemical_formula_sum "Si O2"
_cell_formula_units_Z 14
_cell_length_a 10.800497
_cell_length_b 8.784949
_cell_length_c 12.922820
_cell_angle_alpha 107.416820
_cell_angle_beta 59.716385
_cell_angle_gamma 135.009246
_cell_volume 745.272561
_symmetry_space_group_name_H-M "P -1"
_symmetry_group_IT_number 2
_symmetry_cell_setting 'triclinic'
loop_
_space_group_symop_operation_xyz
x,y,z
-x,-y,-z
loop_
_atom_site_type_symbol
_atom_site_label
_atom_site_fract_x
_atom_site_fract_y
_atom_site_fract_z
Si Si1 0.836014 0.108176 0.620853
Si Si2 0.550277 0.422604 0.557086
Si Si3 0.100619 0.992279 0.221441
Si Si4 0.469123 0.304596 0.233301
Si Si5 0.883771 0.447350 0.345924
Si Si6 0.830812 0.060573 0.377069
Si Si7 0.101352 0.453839 0.872422
O O1 0.960472 0.098401 0.651722
O O2 0.891433 0.110919 0.481480
O O3 0.895845 0.337360 0.668295
O O4 0.608461 0.893195 0.694347
O O5 0.500000 0.500000 0.500000
O O6 0.570567 0.549280 0.674763
O O7 0.746939 0.474530 0.464897
O O8 0.382738 0.168583 0.595748
O O9 0.037663 0.804307 0.132278
O O10 0.336435 0.192891 0.161515
O O11 0.987146 0.067303 0.253337
O O12 0.694182 0.446101 0.142845
O O13 0.833035 0.234794 0.361620
O O14 0.857552 0.431424 0.230673
O O15 0.000000 0.500000 0.000000
#
# Coordination Sequence:
#
# PCOD8002479 Si02
#       7
#     2   2   2   2   2   2   2
#     4   9  19  33  54  84 117 151 184 224 279 355
#     4  12  18  33  59  82 120 149 187 223 280 359
#     4   9  20  36  58  81 112 153 194 223 283 342
#     4  10  20  35  63  85 108 146 202 223 281 343
#     4  11  23  34  52  93 120 148 188 239 292 332
#     4  12  19  33  56  88 127 149 177 238 294 342
#     4  11  22  41  61  81 109 152 205 244 272 334
#
# _framework density 18.785074999999999
#
# number of rings (size 3 to 8) (size 9 to 14) (size 15 to 20)
#    0.857    0.571    4.286    3.000    0.000    0.571 
#    0.000    0.714    0.000    0.857    0.000    0.000 
#    0.000    0.000    0.000    0.000    0.000    0.000 
#
# Total GULP energy -173465.549283 kJ/mol
# GULP energy per Si atom -12390.396377 kJ/mol
# Density = 1.874232 g / cm^3
# Si number density = 18.785075 Si / 1000 Ang^3
#
#
#
# Elastic Constant Matrix: (Units=GPa)
#
#
# Indices 1 2 3 4 5 6 
#
# 1 59.6420 44.2588 39.0742 10.1649 -21.1834 4.8307
# 2 44.2588 150.8585 38.6638 17.0284 -11.3012 6.8435
# 3 39.0742 38.6638 94.0542 15.2056 -28.4692 10.4372
# 4 10.1649 17.0284 15.2056 18.2950 -3.8710 -0.1225
# 5 -21.1834 -11.3012 -28.4692 -3.8710 17.5914 3.0130
# 6 4.8307 6.8435 10.4372 -0.1225 3.0130 32.5349
#
#
#
# Elastic Compliance Matrix: (Units=1/GPa)
#
#
# Indices 1 2 3 4 5 6 
#
# 1 0.039262 -0.007533 0.003946 -0.007818 0.048828 -0.010062
# 2 -0.007533 0.009315 -0.002708 -0.004025 -0.008492 0.000799
# 3 0.003946 -0.002708 0.028403 -0.013123 0.048431 -0.013663
# 4 -0.007818 -0.004025 -0.013123 0.069622 -0.019334 0.008270
# 5 0.048828 -0.008492 0.048431 -0.019334 0.190951 -0.038757
# 6 -0.010062 0.000799 -0.013663 0.008270 -0.038757 0.040065
#
#
# Mechanical properties :
#
#
# Convention : Reuss Voigt Hill
#
# Bulk Modulus (GPa) = 15.53055 60.94981 38.24018
# Shear Modulus (GPa) = 12.14562 25.85478 19.00020
#
# Velocity S-wave (km/s) = 2.54551 3.71394 3.18378
# Velocity P-wave (km/s) = 4.11399 7.13494 5.82376
#
# Compressibility (1/GPa) = 0.06438923
#
# Stress axis : x y z
#
# Youngs Moduli (GPa) = 25.47023 107.35679 35.20715
#
# Poissons Ratio (x) = 0.80873 -0.13893
# Poissons Ratio (y) = 0.19187 0.09534
# Poissons Ratio (z) = -0.10050 0.29073
#
# Static dielectric constant tensor:
#      x y z
#    x 3.190620 0.145970 -0.069710 
#    y 0.145970 3.910750 0.185610 
#    z -0.069710 0.185610 3.024920 
# 
# 
# High freq. dielectric constant tensor:
#      x y z
#    x 1.706780 0.017370 -0.010620 
#    y 0.017370 1.756390 0.018570 
#    z -0.010620 0.018570 1.682730 
# 
# From -- ./inp_files/264621.got.cif
#   From: 2010.06.25/outbox.cif.g09.slc.cpg/sg2_133_cif.got.tgz:264621.got - 2010.06.27 13:26:56.
