data_PCOD8002536
_publ_section_title
;
Structure prediction by ZEFSAII (Michael W. Deem and Ramdas Pophale) SiO2 
 PCOD8002536
Probable space group: P -1
;
_chemical_formula_sum "Si O2"
_cell_formula_units_Z 16
_cell_length_a 14.887126
_cell_length_b 6.736993
_cell_length_c 8.639744
_cell_angle_alpha 93.424519
_cell_angle_beta 87.300501
_cell_angle_gamma 137.334596
_cell_volume 586.198190
_symmetry_space_group_name_H-M "P -1"
_symmetry_group_IT_number 2
_symmetry_cell_setting 'triclinic'
loop_
_space_group_symop_operation_xyz
x,y,z
-x,-y,-z
loop_
_atom_site_type_symbol
_atom_site_label
_atom_site_fract_x
_atom_site_fract_y
_atom_site_fract_z
Si Si1 0.083772 0.391277 0.393088
Si Si2 0.582034 0.399128 0.406641
Si Si3 0.239538 0.734069 0.897947
Si Si4 0.989316 0.213061 0.047511
Si Si5 0.585362 0.321557 0.065462
Si Si6 0.168836 0.078828 0.426562
Si Si7 0.670849 0.092655 0.432307
Si Si8 0.722496 0.861461 0.904079
O O1 0.043356 0.357262 0.218793
O O2 0.132052 0.245180 0.404493
O O3 0.207940 0.734436 0.446178
O O4 0.960256 0.240532 0.509466
O O5 0.536673 0.352240 0.228508
O O6 0.708718 0.743181 0.453812
O O7 0.623046 0.241024 0.432540
O O8 0.453975 0.245121 0.516782
O O9 0.275032 0.557654 0.895072
O O10 0.276745 0.891612 0.737955
O O11 0.081147 0.485049 0.930646
O O12 0.326014 0.993789 0.038479
O O13 0.000000 0.000000 0.000000
O O14 0.836810 0.025902 0.034011
O O15 0.608199 0.513463 0.931415
O O16 0.500000 0.000000 0.000000
O O17 0.215186 0.051153 0.264204
#
# Coordination Sequence:
#
# PCOD8002536 Si02
#       8
#     2   2   2   2   2   2   2   2
#     4  10  20  35  66  92 127 171 219 265 326 385
#     4   9  20  37  64  93 128 168 217 264 325 388
#     4  11  25  44  66  98 133 170 218 270 327 393
#     4  12  22  40  67  98 131 169 217 270 326 390
#     4  11  25  43  70  94 130 175 221 267 325 387
#     4  10  20  36  61  98 126 171 217 266 322 392
#     4   9  20  38  62  93 128 171 213 267 323 391
#     4  12  25  43  68  97 134 172 217 271 329 387
#
# _framework density 27.294525
#
# number of rings (size 3 to 8) (size 9 to 14) (size 15 to 20)
#    0.000    1.500    2.500    1.875   12.250    0.500 
#    0.000    4.375    0.000    0.000    0.000    0.000 
#    0.000    0.000    0.000    0.000    0.000    0.000 
#
# Total GULP energy -198431.996936 kJ/mol
# GULP energy per Si atom -12401.999809 kJ/mol
# Density = 2.723240 g / cm^3
# Si number density = 27.294525 Si / 1000 Ang^3
#
#
#
# Elastic Constant Matrix: (Units=GPa)
#
#
# Indices 1 2 3 4 5 6 
#
# 1 34.8673 -5.7400 21.3334 -16.8339 -10.4435 3.8884
# 2 -5.7400 167.6003 66.5979 -10.5680 -13.0841 8.0773
# 3 21.3334 66.5979 215.2702 -8.6932 -23.4860 18.9586
# 4 -16.8339 -10.5680 -8.6932 49.2914 11.2014 -3.0895
# 5 -10.4435 -13.0841 -23.4860 11.2014 41.4503 0.7061
# 6 3.8884 8.0773 18.9586 -3.0895 0.7061 27.1718
#
#
#
# Elastic Compliance Matrix: (Units=1/GPa)
#
#
# Indices 1 2 3 4 5 6 
#
# 1 0.039790 0.004279 -0.003858 0.012291 0.005920 -0.003031
# 2 0.004279 0.007354 -0.002366 0.002228 0.001472 -0.000932
# 3 -0.003858 -0.002366 0.006241 -0.001447 0.002265 -0.003322
# 4 0.012291 0.002228 -0.001447 0.025717 -0.003997 0.001617
# 5 0.005920 0.001472 0.002265 -0.003997 0.028514 -0.004061
# 6 -0.003031 -0.000932 -0.003322 0.001617 -0.004061 0.040121
#
#
# Mechanical properties :
#
#
# Convention : Reuss Voigt Hill
#
# Bulk Modulus (GPa) = 20.20433 64.68004 42.44219
# Shear Modulus (GPa) = 29.73954 45.95245 37.84600
#
# Velocity S-wave (km/s) = 3.30446 4.10759 3.72772
# Velocity P-wave (km/s) = 4.68803 6.80036 5.84049
#
# Compressibility (1/GPa) = 0.04949434
#
# Stress axis : x y z
#
# Youngs Moduli (GPa) = 25.13184 135.98483 160.23131
#
# Poissons Ratio (x) = -0.58187 0.61815
# Poissons Ratio (y) = -0.10754 0.37917
# Poissons Ratio (z) = 0.09695 0.32179
#
# Static dielectric constant tensor:
#      x y z
#    x 6.118950 0.024000 -0.159140 
#    y 0.024000 5.208500 -0.015760 
#    z -0.159140 -0.015760 4.740430 
# 
# 
# High freq. dielectric constant tensor:
#      x y z
#    x 2.129800 -0.002620 -0.013100 
#    y -0.002620 2.110820 -0.000400 
#    z -0.013100 -0.000400 2.089950 
# 
# From -- ./inp_files/342820.got.cif
#   From: 2010.06.25/outbox.cif.g09.slc.cpg/sg2_172_cif.got.tgz:342820.got - 2010.06.27 13:26:56.
