data_PCOD8002847
_publ_section_title
;
Structure prediction by ZEFSAII (Michael W. Deem and Ramdas Pophale) SiO2 
 PCOD8002847
Probable space group: P -1
;
_chemical_formula_sum "Si O2"
_cell_formula_units_Z 14
_cell_length_a 13.441000
_cell_length_b 15.291843
_cell_length_c 11.182065
_cell_angle_alpha 66.908606
_cell_angle_beta 67.184117
_cell_angle_gamma 19.404394
_cell_volume 701.206814
_symmetry_space_group_name_H-M "P -1"
_symmetry_group_IT_number 2
_symmetry_cell_setting 'triclinic'
loop_
_space_group_symop_operation_xyz
x,y,z
-x,-y,-z
loop_
_atom_site_type_symbol
_atom_site_label
_atom_site_fract_x
_atom_site_fract_y
_atom_site_fract_z
Si Si1 0.649070 0.658857 0.271273
Si Si2 0.223885 0.530442 0.941782
Si Si3 0.339155 0.733089 0.946723
Si Si4 0.259569 0.846879 0.656611
Si Si5 0.999259 0.129146 0.298819
Si Si6 0.197039 0.282425 0.930403
Si Si7 0.822534 0.351127 0.493667
O O1 0.675327 0.609268 0.146982
O O2 0.720944 0.712700 0.219699
O O3 0.874205 0.417186 0.385041
O O4 0.311349 0.907166 0.331886
O O5 0.073350 0.752789 0.850841
O O6 0.505484 0.321019 0.006238
O O7 0.986157 0.660733 0.057247
O O8 0.362895 0.761064 0.790952
O O9 0.500000 0.500000 0.000000
O O10 0.000000 0.000000 0.000000
O O11 0.998922 0.982811 0.679542
O O12 0.542757 0.582168 0.588716
O O13 0.115940 0.067950 0.576146
O O14 0.760342 0.342366 0.404306
O O15 0.000000 0.500000 0.000000
O O16 0.500000 0.000000 0.000000
#
# Coordination Sequence:
#
# PCOD8002847 Si02
#       7
#     2   2   2   2   2   2   2
#     4  10  21  37  61  89 121 148 193 249 300 350
#     4  10  22  37  61  91 121 154 195 245 301 350
#     4  12  25  42  61  85 121 163 199 238 286 353
#     4  12  24  37  56  83 120 157 198 232 285 357
#     4  11  20  35  60  86 120 150 191 246 296 351
#     4  10  20  36  59  90 119 150 190 246 307 349
#     4  11  24  37  55  85 117 157 195 238 294 344
#
# _framework density 19.965578000000001
#
# number of rings (size 3 to 8) (size 9 to 14) (size 15 to 20)
#    0.000    1.143    4.286    2.571    4.000    0.000 
#    0.000    0.000    0.000    1.714    0.000    0.000 
#    0.000    0.000    0.000    0.000    0.000    0.000 
#
# Total GULP energy -173498.583870 kJ/mol
# GULP energy per Si atom -12392.755991 kJ/mol
# Density = 1.992014 g / cm^3
# Si number density = 19.965578 Si / 1000 Ang^3
#
#
#
# Elastic Constant Matrix: (Units=GPa)
#
#
# Indices 1 2 3 4 5 6 
#
# 1 67.9006 42.4969 52.6303 -5.0986 -13.9367 -9.5147
# 2 42.4969 125.0552 46.8061 -8.5842 -8.5288 5.9260
# 3 52.6303 46.8061 135.5417 -21.5157 -12.2983 3.0577
# 4 -5.0986 -8.5842 -21.5157 38.0932 5.8267 -5.8613
# 5 -13.9367 -8.5288 -12.2983 5.8267 23.3938 -5.8207
# 6 -9.5147 5.9260 3.0577 -5.8613 -5.8207 30.6184
#
#
#
# Elastic Compliance Matrix: (Units=1/GPa)
#
#
# Indices 1 2 3 4 5 6 
#
# 1 0.031048 -0.006996 -0.008982 -0.002653 0.015450 0.014329
# 2 -0.006996 0.010873 -0.001031 0.000552 -0.001990 -0.004448
# 3 -0.008982 -0.001031 0.011963 0.005071 -0.001471 -0.003095
# 4 -0.002653 0.000552 0.005071 0.030224 -0.005416 0.003319
# 5 0.015450 -0.001990 -0.001471 -0.005416 0.055494 0.014846
# 6 0.014329 -0.004448 -0.003095 0.003319 0.014846 0.041741
#
#
# Mechanical properties :
#
#
# Convention : Reuss Voigt Hill
#
# Bulk Modulus (GPa) = 50.33982 68.04046 59.19014
# Shear Modulus (GPa) = 22.52420 30.85869 26.69145
#
# Velocity S-wave (km/s) = 3.36244 3.93567 3.66029
# Velocity P-wave (km/s) = 6.35159 7.40308 6.89740
#
# Compressibility (1/GPa) = 0.01986499
#
# Stress axis : x y z
#
# Youngs Moduli (GPa) = 32.20776 91.97342 83.59217
#
# Poissons Ratio (x) = 0.64349 0.75086
# Poissons Ratio (y) = 0.22534 0.08615
# Poissons Ratio (z) = 0.28930 0.09479
#
# Static dielectric constant tensor:
#      x y z
#    x 3.694000 -0.008800 -0.485110 
#    y -0.008800 3.704950 0.088490 
#    z -0.485110 0.088490 4.011240 
# 
# 
# High freq. dielectric constant tensor:
#      x y z
#    x 1.740860 0.019890 -0.030340 
#    y 0.019890 1.786750 0.002360 
#    z -0.030340 0.002360 1.783520 
# 
# From -- ./inp_files/73840.got.cif
#   From: 2010.06.25/outbox.cif.g09.slc.cpg/sg2_37_cif.got.tgz:73840.got - 2010.06.27 13:26:56.
