data_PCOD8002894
_publ_section_title
;
Structure prediction by ZEFSAII (Michael W. Deem and Ramdas Pophale) SiO2 
 PCOD8002894
Probable space group: P -1
;
_chemical_formula_sum "Si O2"
_cell_formula_units_Z 16
_cell_length_a 11.981705
_cell_length_b 11.745421
_cell_length_c 20.047617
_cell_angle_alpha 146.870419
_cell_angle_beta 32.011538
_cell_angle_gamma 135.075315
_cell_volume 817.346304
_symmetry_space_group_name_H-M "P -1"
_symmetry_group_IT_number 2
_symmetry_cell_setting 'triclinic'
loop_
_space_group_symop_operation_xyz
x,y,z
-x,-y,-z
loop_
_atom_site_type_symbol
_atom_site_label
_atom_site_fract_x
_atom_site_fract_y
_atom_site_fract_z
Si Si1 0.215650 0.413472 0.046710
Si Si2 0.244516 0.433643 0.666637
Si Si3 0.082999 0.268814 0.420222
Si Si4 0.233265 0.093879 0.614820
Si Si5 0.546862 0.769632 0.043545
Si Si6 0.596003 0.760433 0.641531
Si Si7 0.713417 0.579019 0.735622
Si Si8 0.398711 0.217122 0.727934
O O1 0.341978 0.628555 0.087996
O O2 0.969503 0.459820 0.197617
O O3 0.275919 0.283499 0.017890
O O4 0.266363 0.273692 0.887925
O O5 0.203036 0.301449 0.689099
O O6 0.409020 0.613172 0.688541
O O7 0.337718 0.282844 0.488985
O O8 0.202172 0.278093 0.433929
O O9 0.246624 0.288430 0.286032
O O10 0.923851 0.462852 0.596369
O O11 0.967937 0.049098 0.364836
O O12 0.238947 0.153599 0.719295
O O13 0.448103 0.976424 0.426806
O O14 0.479289 0.004874 0.201009
O O15 0.642942 0.738770 0.906587
O O16 0.534565 0.410957 0.728237
#
# Coordination Sequence:
#
# PCOD8002894 Si02
#       8
#     2   2   2   2   2   2   2   2
#     4  10  21  38  60  84 111 145 185 229 276 328
#     4  11  24  39  56  81 113 147 184 229 278 328
#     4  10  20  36  60  85 111 147 186 225 272 327
#     4  10  20  36  60  85 111 147 186 225 272 327
#     4  10  21  38  60  84 111 145 185 229 276 328
#     4  11  24  39  56  81 113 147 184 229 278 328
#     4   9  19  36  58  85 115 145 181 227 276 326
#     4   9  19  36  58  85 115 145 181 227 276 326
#
# _framework density 19.575545999999999
#
# number of rings (size 3 to 8) (size 9 to 14) (size 15 to 20)
#    0.000    2.000    0.000    3.000    0.000    7.500 
#    0.000    0.000    0.000    0.000    0.000    0.000 
#    0.000    0.000    0.000    0.000    0.000    0.000 
#
# Total GULP energy -198493.692678 kJ/mol
# GULP energy per Si atom -12405.855792 kJ/mol
# Density = 1.953099 g / cm^3
# Si number density = 19.575546 Si / 1000 Ang^3
#
#
#
# Elastic Constant Matrix: (Units=GPa)
#
#
# Indices 1 2 3 4 5 6 
#
# 1 81.3657 20.2429 10.9642 8.5056 -5.7702 17.0542
# 2 20.2429 47.3136 13.7426 3.7390 -0.6607 7.1182
# 3 10.9642 13.7426 80.0473 13.0527 7.9297 11.3733
# 4 8.5056 3.7390 13.0527 29.1909 2.5398 -2.2143
# 5 -5.7702 -0.6607 7.9297 2.5398 26.4259 -1.4759
# 6 17.0542 7.1182 11.3733 -2.2143 -1.4759 31.2805
#
#
#
# Elastic Compliance Matrix: (Units=1/GPa)
#
#
# Indices 1 2 3 4 5 6 
#
# 1 0.015960 -0.005306 0.000322 -0.004994 0.003299 -0.007809
# 2 -0.005306 0.024614 -0.003273 -0.000292 0.000382 -0.001521
# 3 0.000322 -0.003273 0.015313 -0.006578 -0.004291 -0.005667
# 4 -0.004994 -0.000292 -0.006578 0.039503 -0.002481 0.007860
# 5 0.003299 0.000382 -0.004291 -0.002481 0.040176 0.001394
# 6 -0.007809 -0.001521 -0.005667 0.007860 0.001394 0.039255
#
#
# Mechanical properties :
#
#
# Convention : Reuss Voigt Hill
#
# Bulk Modulus (GPa) = 25.39892 33.18066 29.28979
# Shear Modulus (GPa) = 24.45476 28.29792 26.37634
#
# Velocity S-wave (km/s) = 3.53831 3.80620 3.67469
# Velocity P-wave (km/s) = 5.44939 6.02520 5.74451
#
# Compressibility (1/GPa) = 0.03937176
#
# Stress axis : x y z
#
# Youngs Moduli (GPa) = 62.65793 40.62783 65.30258
#
# Poissons Ratio (x) = 0.21558 -0.02102
# Poissons Ratio (y) = 0.33248 0.21374
# Poissons Ratio (z) = -0.02017 0.13298
#
# Static dielectric constant tensor:
#      x y z
#    x 3.619160 0.061000 0.066730 
#    y 0.061000 3.551450 -0.011190 
#    z 0.066730 -0.011190 3.517080 
# 
# 
# High freq. dielectric constant tensor:
#      x y z
#    x 1.773780 0.002670 0.004640 
#    y 0.002670 1.761490 0.002450 
#    z 0.004640 0.002450 1.762740 
# 
# From -- ./inp_files/243392.got.cif
#   From: 2010.06.25/outbox.cif.g09.slc.cpg/sg2_122_cif.got.tgz:243392.got - 2010.06.27 13:26:56.
