data_PCOD8002820
_publ_section_title
;
Structure prediction by ZEFSAII (Michael W. Deem and Ramdas Pophale) SiO2 
 PCOD8002820
Probable space group: P -1
;
_chemical_formula_sum "Si O2"
_cell_formula_units_Z 14
_cell_length_a 15.474244
_cell_length_b 13.880496
_cell_length_c 9.472886
_cell_angle_alpha 137.149223
_cell_angle_beta 145.501218
_cell_angle_gamma 35.202037
_cell_volume 653.125220
_symmetry_space_group_name_H-M "P -1"
_symmetry_group_IT_number 2
_symmetry_cell_setting 'triclinic'
loop_
_space_group_symop_operation_xyz
x,y,z
-x,-y,-z
loop_
_atom_site_type_symbol
_atom_site_label
_atom_site_fract_x
_atom_site_fract_y
_atom_site_fract_z
Si Si1 0.750070 0.151475 0.924008
Si Si2 0.135209 0.690504 0.541286
Si Si3 0.656214 0.600440 0.277219
Si Si4 0.214865 0.664905 0.069652
Si Si5 0.239292 0.765029 0.496415
Si Si6 0.153398 0.096310 0.820247
Si Si7 0.811121 0.815729 0.748160
O O1 0.545189 0.317684 0.844980
O O2 0.822903 0.169534 0.889832
O O3 0.748890 0.983687 0.754295
O O4 0.875105 0.159589 0.220911
O O5 0.196116 0.528381 0.545601
O O6 0.280103 0.643667 0.556810
O O7 0.931489 0.770077 0.283263
O O8 0.701515 0.740017 0.454595
O O9 0.666983 0.506001 0.045662
O O10 0.323971 0.653399 0.347780
O O11 0.027010 0.681493 0.873503
O O12 0.017389 0.888628 0.308761
O O13 0.295816 0.900873 0.748273
O O14 0.247028 0.143365 0.119342
#
# Coordination Sequence:
#
# PCOD8002820 Si02
#       7
#     2   2   2   2   2   2   2
#     4  11  21  38  57  82 112 152 185 219 274 341
#     4   9  16  34  57  78 105 144 188 228 255 328
#     4  11  24  35  53  87 122 145 169 223 302 332
#     4  10  20  36  59  87 105 138 198 234 264 311
#     4   8  14  31  56  83 101 133 190 237 254 306
#     4   8  15  30  57  82 103 136 195 223 272 299
#     4  11  20  37  60  82 112 146 186 230 268 333
#
# _framework density 21.435399
#
# number of rings (size 3 to 8) (size 9 to 14) (size 15 to 20)
#    0.857    1.429    1.429    3.857    0.000    1.714 
#    0.000    2.857    0.000    0.857    0.000    0.000 
#    0.000    0.000    0.000    0.000    0.000    0.000 
#
# Total GULP energy -173436.611899 kJ/mol
# GULP energy per Si atom -12388.329421 kJ/mol
# Density = 2.138661 g / cm^3
# Si number density = 21.435399 Si / 1000 Ang^3
#
#
#
# Elastic Constant Matrix: (Units=GPa)
#
#
# Indices 1 2 3 4 5 6 
#
# 1 71.1393 8.2347 36.8434 6.2737 -30.9526 7.2676
# 2 8.2347 55.9799 23.7886 21.1967 -9.1364 12.1761
# 3 36.8434 23.7886 64.2657 21.9165 -22.8261 4.9416
# 4 6.2737 21.1967 21.9165 24.2476 -5.2304 1.0689
# 5 -30.9526 -9.1364 -22.8261 -5.2304 29.4045 -5.4913
# 6 7.2676 12.1761 4.9416 1.0689 -5.4913 25.7407
#
#
#
# Elastic Compliance Matrix: (Units=1/GPa)
#
#
# Indices 1 2 3 4 5 6 
#
# 1 0.029758 0.002941 -0.011171 0.005117 0.023964 -0.002749
# 2 0.002941 0.031270 -0.002474 -0.024397 0.004075 -0.013265
# 3 -0.011171 -0.002474 0.034689 -0.024124 0.010270 0.000857
# 4 0.005117 -0.024397 -0.024124 0.081629 -0.004462 0.010385
# 5 0.023964 0.004075 0.010270 -0.004462 0.068448 0.004122
# 6 -0.002749 -0.013265 0.000857 0.010385 0.004122 0.046183
#
#
# Mechanical properties :
#
#
# Convention : Reuss Voigt Hill
#
# Bulk Modulus (GPa) = 13.45716 36.56871 25.01293
# Shear Modulus (GPa) = 14.78610 24.04644 19.41627
#
# Velocity S-wave (km/s) = 2.62925 3.35298 3.01292
# Velocity P-wave (km/s) = 3.93814 5.66453 4.87831
#
# Compressibility (1/GPa) = 0.07430991
#
# Stress axis : x y z
#
# Youngs Moduli (GPa) = 33.60422 31.97923 28.82751
#
# Poissons Ratio (x) = -0.09405 0.32204
# Poissons Ratio (y) = -0.09883 0.07131
# Poissons Ratio (z) = 0.37540 0.07911
#
# Static dielectric constant tensor:
#      x y z
#    x 3.628090 0.010750 -0.394030 
#    y 0.010750 3.582460 0.107720 
#    z -0.394030 0.107720 3.745890 
# 
# 
# High freq. dielectric constant tensor:
#      x y z
#    x 1.810730 0.006190 -0.034790 
#    y 0.006190 1.830070 0.006110 
#    z -0.034790 0.006110 1.824010 
# 
# From -- ./inp_files/304230.got.cif
#   From: 2010.06.25/outbox.cif.g09.slc.cpg/sg2_153_cif.got.tgz:304230.got - 2010.06.27 13:26:56.
