data_PCOD8002353
_publ_section_title
;
Structure prediction by ZEFSAII (Michael W. Deem and Ramdas Pophale) SiO2 
 PCOD8002353
Probable space group: P -1
;
_chemical_formula_sum "Si O2"
_cell_formula_units_Z 14
_cell_length_a 17.897457
_cell_length_b 9.545425
_cell_length_c 12.269959
_cell_angle_alpha 64.308002
_cell_angle_beta 29.916585
_cell_angle_gamma 85.816471
_cell_volume 696.150226
_symmetry_space_group_name_H-M "P -1"
_symmetry_group_IT_number 2
_symmetry_cell_setting 'triclinic'
loop_
_space_group_symop_operation_xyz
x,y,z
-x,-y,-z
loop_
_atom_site_type_symbol
_atom_site_label
_atom_site_fract_x
_atom_site_fract_y
_atom_site_fract_z
Si Si1 0.023070 0.124957 0.827187
Si Si2 0.714507 0.794372 0.725186
Si Si3 0.108647 0.750817 0.587214
Si Si4 0.994655 0.156601 0.514880
Si Si5 0.694270 0.849350 0.166763
Si Si6 0.280991 0.493685 0.722499
Si Si7 0.705859 0.440240 0.570271
O O1 0.202486 0.172345 0.512630
O O2 0.089681 0.340082 0.714967
O O3 0.000000 0.000000 0.000000
O O4 0.802528 0.985352 0.094661
O O5 0.807170 0.711975 0.702979
O O6 0.783295 0.011876 0.604667
O O7 0.473566 0.621190 0.104400
O O8 0.275339 0.731965 0.384421
O O9 0.005953 0.696304 0.615116
O O10 0.935918 0.581621 0.950364
O O11 0.000000 0.000000 0.500000
O O12 0.790004 0.016687 0.891975
O O13 0.451538 0.698406 0.513004
O O14 0.743592 0.701243 0.141821
O O15 0.334970 0.542743 0.509947
#
# Coordination Sequence:
#
# PCOD8002353 Si02
#       7
#     2   2   2   2   2   2   2
#     4  11  21  41  59  88 121 156 194 247 292 354
#     4  10  21  38  59  86 117 161 200 234 288 361
#     4  11  21  37  59  92 121 152 195 254 292 337
#     4   9  16  34  57  80 114 148 196 238 279 341
#     4  10  20  35  60  86 110 153 206 239 280 344
#     4  11  20  35  61  88 114 153 201 242 286 345
#     4  12  24  36  60  93 124 151 192 248 308 340
#
# _framework density 20.110602
#
# number of rings (size 3 to 8) (size 9 to 14) (size 15 to 20)
#    0.000    1.429    5.714    3.000    2.000    0.000 
#    0.000    3.571    0.000    1.714    0.000    0.000 
#    0.000    0.000    0.000    0.000    0.000    0.000 
#
# Total GULP energy -173480.819386 kJ/mol
# GULP energy per Si atom -12391.487099 kJ/mol
# Density = 2.006483 g / cm^3
# Si number density = 20.110602 Si / 1000 Ang^3
#
#
#
# Elastic Constant Matrix: (Units=GPa)
#
#
# Indices 1 2 3 4 5 6 
#
# 1 96.7772 28.6296 37.9820 -3.0638 12.1395 12.6941
# 2 28.6296 49.1156 13.1541 -12.1132 -3.1085 2.3019
# 3 37.9820 13.1541 78.2850 -4.3265 -3.8911 7.7996
# 4 -3.0638 -12.1132 -4.3265 29.5560 12.9978 -8.1977
# 5 12.1395 -3.1085 -3.8911 12.9978 35.8944 -3.8958
# 6 12.6941 2.3019 7.7996 -8.1977 -3.8958 31.2114
#
#
#
# Elastic Compliance Matrix: (Units=1/GPa)
#
#
# Indices 1 2 3 4 5 6 
#
# 1 0.017254 -0.008718 -0.006753 -0.001084 -0.007572 -0.005917
# 2 -0.008718 0.028141 -0.000260 0.011072 0.001855 0.004675
# 3 -0.006753 -0.000260 0.016365 -0.000477 0.004106 -0.000936
# 4 -0.001084 0.011072 -0.000477 0.047595 -0.014833 0.010393
# 5 -0.007572 0.001855 0.004106 -0.014833 0.036679 0.002599
# 6 -0.005917 0.004675 -0.000936 0.010393 0.002599 0.037389
#
#
# Mechanical properties :
#
#
# Convention : Reuss Voigt Hill
#
# Bulk Modulus (GPa) = 33.00685 42.63434 37.82060
# Shear Modulus (GPa) = 22.22362 28.95982 25.59172
#
# Velocity S-wave (km/s) = 3.32787 3.79889 3.57115
# Velocity P-wave (km/s) = 5.58700 6.36302 5.98759
#
# Compressibility (1/GPa) = 0.03029674
#
# Stress axis : x y z
#
# Youngs Moduli (GPa) = 57.95743 35.53593 61.10564
#
# Poissons Ratio (x) = 0.30980 0.41266
# Poissons Ratio (y) = 0.50528 0.01590
# Poissons Ratio (z) = 0.39140 0.00925
#
# Static dielectric constant tensor:
#      x y z
#    x 4.250280 0.188760 0.024580 
#    y 0.188760 3.365020 -0.127380 
#    z 0.024580 -0.127380 3.763180 
# 
# 
# High freq. dielectric constant tensor:
#      x y z
#    x 1.791480 0.009170 0.007450 
#    y 0.009170 1.741340 -0.008090 
#    z 0.007450 -0.008090 1.791720 
# 
# From -- ./inp_files/153954.got.cif
#   From: 2010.06.25/outbox.cif.g09.slc.cpg/sg2_77_cif.got.tgz:153954.got - 2010.06.27 13:26:56.
