data_PCOD8002772
_publ_section_title
;
Structure prediction by ZEFSAII (Michael W. Deem and Ramdas Pophale) SiO2 
 PCOD8002772
Probable space group: P -1
;
_chemical_formula_sum "Si O2"
_cell_formula_units_Z 16
_cell_length_a 14.893020
_cell_length_b 7.998040
_cell_length_c 11.162700
_cell_angle_alpha 70.014639
_cell_angle_beta 54.286860
_cell_angle_gamma 41.693482
_cell_volume 707.110325
_symmetry_space_group_name_H-M "P -1"
_symmetry_group_IT_number 2
_symmetry_cell_setting 'triclinic'
loop_
_space_group_symop_operation_xyz
x,y,z
-x,-y,-z
loop_
_atom_site_type_symbol
_atom_site_label
_atom_site_fract_x
_atom_site_fract_y
_atom_site_fract_z
Si Si1 0.081128 0.138130 0.991742
Si Si2 0.289406 0.659030 0.417897
Si Si3 0.260758 0.103683 0.286980
Si Si4 0.117945 0.377756 0.104125
Si Si5 0.791368 0.464462 0.724823
Si Si6 0.389977 0.304832 0.945164
Si Si7 0.901142 0.059420 0.293280
Si Si8 0.358585 0.700262 0.743752
O O1 0.067310 0.283652 0.077741
O O2 0.985915 0.070593 0.118203
O O3 0.004087 0.315449 0.889197
O O4 0.264958 0.890340 0.883261
O O5 0.253041 0.619873 0.326051
O O6 0.167205 0.733009 0.597219
O O7 0.470024 0.402661 0.376128
O O8 0.259841 0.907412 0.386845
O O9 0.116150 0.294934 0.258205
O O10 0.233860 0.298929 0.354484
O O11 0.424279 0.960515 0.122366
O O12 0.292005 0.257484 0.972347
O O13 0.682422 0.550299 0.905395
O O14 0.975098 0.223306 0.677135
O O15 0.385699 0.463512 0.809914
O O16 0.744594 0.150076 0.333160
#
# Coordination Sequence:
#
# PCOD8002772 Si02
#       8
#     2   2   2   2   2   2   2   2
#     4  11  22  36  68  93 121 164 219 264 317 379
#     4  11  27  42  65  96 132 177 210 257 322 392
#     4  10  23  39  63  97 130 160 215 269 317 378
#     4  10  20  36  58  99 124 155 206 278 315 359
#     4  11  22  40  68  92 128 174 211 263 324 374
#     4  10  20  37  65  94 128 154 209 281 321 357
#     4  12  23  44  64  92 136 170 211 261 322 388
#     4  11  22  40  68  92 122 170 216 264 318 375
#
# _framework density 22.627306000000001
#
# number of rings (size 3 to 8) (size 9 to 14) (size 15 to 20)
#    0.000    1.250    2.500    4.875    3.500    1.500 
#    0.000    3.750    0.000    5.250    0.000    0.000 
#    0.000    0.000    0.000    0.000    0.000    0.000 
#
# Total GULP energy -198262.425985 kJ/mol
# GULP energy per Si atom -12391.401624 kJ/mol
# Density = 2.257580 g / cm^3
# Si number density = 22.627306 Si / 1000 Ang^3
#
#
#
# Elastic Constant Matrix: (Units=GPa)
#
#
# Indices 1 2 3 4 5 6 
#
# 1 91.9053 46.3769 15.3813 6.7004 10.8578 -11.3359
# 2 46.3769 123.4475 25.8003 23.6068 -1.1715 -14.0979
# 3 15.3813 25.8003 84.5000 25.1137 9.0858 -9.5939
# 4 6.7004 23.6068 25.1137 26.7267 -1.7516 -2.9141
# 5 10.8578 -1.1715 9.0858 -1.7516 20.0678 0.9319
# 6 -11.3359 -14.0979 -9.5939 -2.9141 0.9319 32.9324
#
#
#
# Elastic Compliance Matrix: (Units=1/GPa)
#
#
# Indices 1 2 3 4 5 6 
#
# 1 0.014995 -0.005532 -0.000068 0.000974 -0.008464 0.003099
# 2 -0.005532 0.012194 -0.000136 -0.008804 0.002886 0.002416
# 3 -0.000068 -0.000136 0.018689 -0.017644 -0.010163 0.004089
# 4 0.000974 -0.008804 -0.017644 0.061972 0.012517 -0.003444
# 5 -0.008464 0.002886 -0.010163 0.012517 0.060516 -0.005244
# 6 0.003099 0.002416 0.004089 -0.003444 -0.005244 0.033501
#
#
# Mechanical properties :
#
#
# Convention : Reuss Voigt Hill
#
# Bulk Modulus (GPa) = 29.06370 52.77444 40.91907
# Shear Modulus (GPa) = 22.24133 30.09835 26.16984
#
# Velocity S-wave (km/s) = 3.13859 3.65112 3.40451
# Velocity P-wave (km/s) = 5.09968 6.41469 5.79461
#
# Compressibility (1/GPa) = 0.03440718
#
# Stress axis : x y z
#
# Youngs Moduli (GPa) = 66.69020 82.00846 53.50693
#
# Poissons Ratio (x) = 0.45364 0.00363
# Poissons Ratio (y) = 0.36890 0.00727
# Poissons Ratio (z) = 0.00453 0.01114
#
# Static dielectric constant tensor:
#      x y z
#    x 3.893120 -0.173750 -0.029710 
#    y -0.173750 4.429740 0.214680 
#    z -0.029710 0.214680 3.951740 
# 
# 
# High freq. dielectric constant tensor:
#      x y z
#    x 1.881360 -0.011060 0.003570 
#    y -0.011060 1.910720 0.012830 
#    z 0.003570 0.012830 1.876400 
# 
# From -- ./inp_files/419165.got.cif
#   From: 2010.06.25/outbox.cif.g09.slc.cpg/sg2_210_cif.got.tgz:419165.got - 2010.06.27 13:26:56.
