data_PCOD8002382
_publ_section_title
;
Structure prediction by ZEFSAII (Michael W. Deem and Ramdas Pophale) SiO2 
 PCOD8002382
Probable space group: P -1
;
_chemical_formula_sum "Si O2"
_cell_formula_units_Z 16
_cell_length_a 16.291491
_cell_length_b 16.547870
_cell_length_c 8.587442
_cell_angle_alpha 145.555364
_cell_angle_beta 143.896745
_cell_angle_gamma 37.026722
_cell_volume 708.422565
_symmetry_space_group_name_H-M "P -1"
_symmetry_group_IT_number 2
_symmetry_cell_setting 'triclinic'
loop_
_space_group_symop_operation_xyz
x,y,z
-x,-y,-z
loop_
_atom_site_type_symbol
_atom_site_label
_atom_site_fract_x
_atom_site_fract_y
_atom_site_fract_z
Si Si1 0.760373 0.603997 0.721692
Si Si2 0.045332 0.686960 0.948731
Si Si3 0.537191 0.143170 0.830280
Si Si4 0.964392 0.304503 0.700340
Si Si5 0.239719 0.985974 0.290971
Si Si6 0.061547 0.946842 0.209099
Si Si7 0.446017 0.129055 0.986784
Si Si8 0.758100 0.629362 0.402938
O O1 0.827216 0.418869 0.563615
O O2 0.706092 0.639058 0.517258
O O3 0.615203 0.700705 0.759281
O O4 0.881936 0.674474 0.069606
O O5 0.150355 0.549489 0.781445
O O6 0.867357 0.723656 0.699510
O O7 0.084912 0.637266 0.107807
O O8 0.085769 0.836667 0.220429
O O9 0.678216 0.130303 0.913206
O O10 0.572170 0.128294 0.048586
O O11 0.391450 0.300791 0.821135
O O12 0.500000 0.000000 0.500000
O O13 0.993230 0.126144 0.440069
O O14 0.320155 0.100542 0.642750
O O15 0.063798 0.088493 0.141682
O O16 0.220362 0.896008 0.275231
O O17 0.500000 0.000000 0.000000
#
# Coordination Sequence:
#
# PCOD8002382 Si02
#       8
#     2   2   2   2   2   2   2   2
#     4  10  20  35  60  91 121 155 205 254 301 350
#     4  10  21  37  61  95 120 163 201 252 309 360
#     4  10  20  38  60  87 118 157 202 251 294 357
#     4  10  21  36  59  89 125 157 200 256 302 358
#     4  10  23  38  61  89 119 164 205 241 309 361
#     4  11  22  39  64  86 129 160 205 247 308 375
#     4  11  21  38  65  91 122 155 205 254 301 357
#     4  10  21  37  64  91 123 155 209 254 301 357
#
# _framework density 22.585388999999999
#
# number of rings (size 3 to 8) (size 9 to 14) (size 15 to 20)
#    0.000    1.750    1.250    4.125    3.500    3.000 
#    2.250    0.625    2.750    1.500    0.000    0.000 
#    0.000    0.000    0.000    0.000    0.000    0.000 
#
# Total GULP energy -198281.911824 kJ/mol
# GULP energy per Si atom -12392.619489 kJ/mol
# Density = 2.253398 g / cm^3
# Si number density = 22.585389 Si / 1000 Ang^3
#
#
#
# Elastic Constant Matrix: (Units=GPa)
#
#
# Indices 1 2 3 4 5 6 
#
# 1 174.1808 46.9129 21.8745 15.3525 -17.6696 -10.0369
# 2 46.9129 87.3928 9.2733 17.2561 -1.1433 5.1810
# 3 21.8745 9.2733 43.4763 15.1348 -3.8642 0.4075
# 4 15.3525 17.2561 15.1348 33.8302 2.8976 0.1610
# 5 -17.6696 -1.1433 -3.8642 2.8976 32.8647 3.0263
# 6 -10.0369 5.1810 0.4075 0.1610 3.0263 31.9531
#
#
#
# Elastic Compliance Matrix: (Units=1/GPa)
#
#
# Indices 1 2 3 4 5 6 
#
# 1 0.007661 -0.003820 -0.002503 -0.000721 0.003504 0.002729
# 2 -0.003820 0.014816 0.000887 -0.006156 -0.000566 -0.003529
# 3 -0.002503 0.000887 0.028708 -0.012435 0.003300 -0.001546
# 4 -0.000721 -0.006156 -0.012435 0.039066 -0.005625 0.001266
# 5 0.003504 -0.000566 0.003300 -0.005625 0.033358 -0.001981
# 6 0.002729 -0.003529 -0.001546 0.001266 -0.001981 0.032926
#
#
# Mechanical properties :
#
#
# Convention : Reuss Voigt Hill
#
# Bulk Modulus (GPa) = 24.80531 51.24125 38.02328
# Shear Modulus (GPa) = 27.64816 34.86220 31.25518
#
# Velocity S-wave (km/s) = 3.50260 3.93310 3.72407
# Velocity P-wave (km/s) = 5.23109 6.58504 5.94672
#
# Compressibility (1/GPa) = 0.04031395
#
# Stress axis : x y z
#
# Youngs Moduli (GPa) = 130.53662 67.49263 34.83396
#
# Poissons Ratio (x) = 0.25784 0.08717
# Poissons Ratio (y) = 0.49869 -0.03091
# Poissons Ratio (z) = 0.32668 -0.05990
#
# Static dielectric constant tensor:
#      x y z
#    x 4.922460 -0.077650 0.057200 
#    y -0.077650 5.216320 -0.822490 
#    z 0.057200 -0.822490 4.128520 
# 
# 
# High freq. dielectric constant tensor:
#      x y z
#    x 1.917450 0.006550 -0.016470 
#    y 0.006550 1.874250 0.004340 
#    z -0.016470 0.004340 1.850130 
# 
# From -- ./inp_files/316132.got.cif
#   From: 2010.06.25/outbox.cif.g09.slc.cpg/sg2_159_cif.got.tgz:316132.got - 2010.06.27 13:26:56.
