data_PCOD8002355
_publ_section_title
;
Structure prediction by ZEFSAII (Michael W. Deem and Ramdas Pophale) SiO2 
 PCOD8002355
Probable space group: P -1
;
_chemical_formula_sum "Si O2"
_cell_formula_units_Z 16
_cell_length_a 11.737289
_cell_length_b 6.899305
_cell_length_c 15.131793
_cell_angle_alpha 92.558219
_cell_angle_beta 47.238786
_cell_angle_gamma 74.767889
_cell_volume 823.904108
_symmetry_space_group_name_H-M "P -1"
_symmetry_group_IT_number 2
_symmetry_cell_setting 'triclinic'
loop_
_space_group_symop_operation_xyz
x,y,z
-x,-y,-z
loop_
_atom_site_type_symbol
_atom_site_label
_atom_site_fract_x
_atom_site_fract_y
_atom_site_fract_z
Si Si1 0.848261 0.314153 0.821888
Si Si2 0.373212 0.858201 0.974292
Si Si3 0.319006 0.502989 0.695580
Si Si4 0.800545 0.107902 0.117565
Si Si5 0.688931 0.217314 0.461188
Si Si6 0.978964 0.949898 0.610471
Si Si7 0.810201 0.848148 0.270183
Si Si8 0.254732 0.229334 0.182835
O O1 0.841378 0.540983 0.803868
O O2 0.992368 0.205022 0.817455
O O3 0.890020 0.174649 0.709080
O O4 0.674120 0.323516 0.958081
O O5 0.297572 0.908290 0.917874
O O6 0.574519 0.781830 0.860255
O O7 0.290188 0.070111 0.079429
O O8 0.256117 0.646924 0.818914
O O9 0.512055 0.339917 0.605811
O O10 0.291304 0.649853 0.628649
O O11 0.206480 0.372025 0.734526
O O12 0.745621 0.981297 0.217920
O O13 0.000000 0.000000 0.000000
O O14 0.835905 0.190282 0.452401
O O15 0.702450 0.989383 0.412552
O O16 0.861889 0.817186 0.683012
O O17 0.000000 0.000000 0.500000
#
# Coordination Sequence:
#
# PCOD8002355 Si02
#       8
#     2   2   2   2   2   2   2   2
#     4  10  20  37  61  83 113 154 194 237 290 351
#     4  10  22  40  57  85 121 150 195 243 280 346
#     4  10  21  36  60  83 113 160 187 230 295 340
#     4  11  23  37  55  88 125 145 186 248 285 338
#     4   9  20  39  56  83 118 147 195 241 277 347
#     4  10  22  38  58  85 117 145 191 252 290 334
#     4  10  20  35  60  86 113 154 192 230 292 349
#     4  10  22  39  62  82 111 162 196 231 292 348
#
# _framework density 19.419736
#
# number of rings (size 3 to 8) (size 9 to 14) (size 15 to 20)
#    0.000    2.000    1.250    1.500    3.500    4.000 
#    0.000    2.500    0.000    0.000    0.000    0.000 
#    0.000    0.000    0.000    0.000    0.000    0.000 
#
# Total GULP energy -198423.297441 kJ/mol
# GULP energy per Si atom -12401.456090 kJ/mol
# Density = 1.937554 g / cm^3
# Si number density = 19.419736 Si / 1000 Ang^3
#
#
#
# Elastic Constant Matrix: (Units=GPa)
#
#
# Indices 1 2 3 4 5 6 
#
# 1 135.0245 38.5549 63.0280 -5.4237 1.5767 -5.2747
# 2 38.5549 101.9321 33.2856 -2.9307 -1.2423 9.0944
# 3 63.0280 33.2856 98.1643 -2.5373 -4.9940 -1.9332
# 4 -5.4237 -2.9307 -2.5373 30.6873 -2.6591 -1.8823
# 5 1.5767 -1.2423 -4.9940 -2.6591 22.7624 -2.3765
# 6 -5.2747 9.0944 -1.9332 -1.8823 -2.3765 33.7072
#
#
#
# Elastic Compliance Matrix: (Units=1/GPa)
#
#
# Indices 1 2 3 4 5 6 
#
# 1 0.011223 -0.002299 -0.006459 0.001177 -0.001981 0.001932
# 2 -0.002299 0.011873 -0.002622 0.000273 -0.000123 -0.003707
# 3 -0.006459 -0.002622 0.015441 0.000268 0.003814 0.000866
# 4 0.001177 0.000273 0.000268 0.033340 0.004125 0.002279
# 5 -0.001981 -0.000123 0.003814 0.004125 0.045736 0.003397
# 6 0.001932 -0.003707 0.000866 0.002279 0.003397 0.031386
#
#
# Mechanical properties :
#
#
# Convention : Reuss Voigt Hill
#
# Bulk Modulus (GPa) = 63.37952 67.20643 65.29297
# Shear Modulus (GPa) = 28.24553 30.78155 29.51354
#
# Velocity S-wave (km/s) = 3.81790 3.98561 3.90265
# Velocity P-wave (km/s) = 7.22098 7.47412 7.34864
#
# Compressibility (1/GPa) = 0.01577797
#
# Stress axis : x y z
#
# Youngs Moduli (GPa) = 89.10064 84.22262 64.76147
#
# Poissons Ratio (x) = 0.19360 0.41829
# Poissons Ratio (y) = 0.20481 0.16983
# Poissons Ratio (z) = 0.57550 0.22086
#
# Static dielectric constant tensor:
#      x y z
#    x 3.556750 0.049640 -0.093390 
#    y 0.049640 3.582320 0.118310 
#    z -0.093390 0.118310 3.559630 
# 
# 
# High freq. dielectric constant tensor:
#      x y z
#    x 1.759950 0.002460 -0.007430 
#    y 0.002460 1.760270 0.004880 
#    z -0.007430 0.004880 1.750870 
# 
# From -- ./inp_files/69028.got.cif
#   From: 2010.06.25/outbox.cif.g09.slc.cpg/sg2_35_cif.got.tgz:69028.got - 2010.06.27 13:26:56.
