data_PCOD8002262
_publ_section_title
;
Structure prediction by ZEFSAII (Michael W. Deem and Ramdas Pophale) SiO2 
 PCOD8002262
Probable space group: P -1
;
_chemical_formula_sum "Si O2"
_cell_formula_units_Z 16
_cell_length_a 8.737081
_cell_length_b 24.836887
_cell_length_c 11.913407
_cell_angle_alpha 151.813691
_cell_angle_beta 115.015233
_cell_angle_gamma 45.992841
_cell_volume 728.954714
_symmetry_space_group_name_H-M "P -1"
_symmetry_group_IT_number 2
_symmetry_cell_setting 'triclinic'
loop_
_space_group_symop_operation_xyz
x,y,z
-x,-y,-z
loop_
_atom_site_type_symbol
_atom_site_label
_atom_site_fract_x
_atom_site_fract_y
_atom_site_fract_z
Si Si1 0.234018 0.047921 0.662436
Si Si2 0.048055 0.955209 0.588240
Si Si3 0.143343 0.565797 0.755020
Si Si4 0.561998 0.025002 0.857040
Si Si5 0.163897 0.897951 0.972196
Si Si6 0.907094 0.310248 0.485096
Si Si7 0.513754 0.449386 0.038097
Si Si8 0.044011 0.368797 0.420729
O O1 0.516047 0.948435 0.607175
O O2 0.211324 0.970786 0.409442
O O3 0.084537 0.062646 0.746483
O O4 0.096743 0.232847 0.920235
O O5 0.302353 0.753092 0.267306
O O6 0.018151 0.979274 0.755013
O O7 0.397405 0.494037 0.749538
O O8 0.115702 0.464082 0.628989
O O9 0.156710 0.542175 0.581016
O O10 0.598779 0.133167 0.012758
O O11 0.301085 0.162989 0.102478
O O12 0.802318 0.867787 0.717636
O O13 0.239769 0.726343 0.679758
O O14 0.000000 0.000000 0.000000
O O15 0.764657 0.435454 0.781102
O O16 0.909477 0.401774 0.555386
O O17 0.500000 0.500000 0.000000
#
# Coordination Sequence:
#
# PCOD8002262 Si02
#       8
#     2   2   2   2   2   2   2   2
#     4   9  20  40  63  84 116 161 203 246 298 356
#     4  10  21  41  64  87 118 159 203 247 298 357
#     4   9  20  39  61  85 118 160 200 250 305 348
#     4  10  20  36  59  92 124 156 197 245 303 357
#     4  10  20  35  58  88 117 153 199 241 293 353
#     4  11  23  38  63  94 122 158 202 247 298 361
#     4  11  23  41  61  87 126 162 196 244 302 362
#     4  10  20  38  62  89 121 155 200 254 302 351
#
# _framework density 21.949238999999999
#
# number of rings (size 3 to 8) (size 9 to 14) (size 15 to 20)
#    0.000    2.000    0.000    4.125    0.000    4.000 
#    0.000   17.500    0.000    0.000    0.000    0.000 
#    0.000    0.000    0.000    0.000    0.000    0.000 
#
# Total GULP energy -198265.761951 kJ/mol
# GULP energy per Si atom -12391.610122 kJ/mol
# Density = 2.189928 g / cm^3
# Si number density = 21.949239 Si / 1000 Ang^3
#
#
#
# Elastic Constant Matrix: (Units=GPa)
#
#
# Indices 1 2 3 4 5 6 
#
# 1 88.8290 53.0687 53.1045 -8.3131 -0.4956 15.3397
# 2 53.0687 111.2948 35.8043 -12.9659 -4.9290 8.5131
# 3 53.1045 35.8043 80.2970 -14.1615 -0.8305 10.8523
# 4 -8.3131 -12.9659 -14.1615 24.6418 7.7729 2.8005
# 5 -0.4956 -4.9290 -0.8305 7.7729 36.3964 -10.1553
# 6 15.3397 8.5131 10.8523 2.8005 -10.1553 45.7909
#
#
#
# Elastic Compliance Matrix: (Units=1/GPa)
#
#
# Indices 1 2 3 4 5 6 
#
# 1 0.023185 -0.007209 -0.011953 -0.001902 -0.001596 -0.003831
# 2 -0.007209 0.013028 -0.000333 0.003974 0.000812 0.000009
# 3 -0.011953 -0.000333 0.022537 0.009795 -0.002461 -0.002420
# 4 -0.001902 0.003974 0.009795 0.052693 -0.012890 -0.008504
# 5 -0.001596 0.000812 -0.002461 -0.012890 0.032778 0.009025
# 6 -0.003831 0.000009 -0.002420 -0.008504 0.009025 0.026215
#
#
# Mechanical properties :
#
#
# Convention : Reuss Voigt Hill
#
# Bulk Modulus (GPa) = 50.61051 62.70841 56.65946
# Shear Modulus (GPa) = 23.14667 30.59537 26.87102
#
# Velocity S-wave (km/s) = 3.25091 3.73757 3.50270
# Velocity P-wave (km/s) = 6.09912 6.87442 6.49834
#
# Compressibility (1/GPa) = 0.01975874
#
# Stress axis : x y z
#
# Youngs Moduli (GPa) = 43.13105 76.75629 44.37212
#
# Poissons Ratio (x) = 0.55335 0.53038
# Poissons Ratio (y) = 0.31094 0.01479
# Poissons Ratio (z) = 0.51555 0.02559
#
# Static dielectric constant tensor:
#      x y z
#    x 4.335140 -0.243710 0.455590 
#    y -0.243710 4.044480 -0.162910 
#    z 0.455590 -0.162910 3.831270 
# 
# 
# High freq. dielectric constant tensor:
#      x y z
#    x 1.860190 -0.003010 0.021860 
#    y -0.003010 1.866130 -0.004410 
#    z 0.021860 -0.004410 1.847710 
# 
# From -- ./inp_files/406794.got.cif
#   From: 2010.06.25/outbox.cif.g09.slc.cpg/sg2_204_cif.got.tgz:406794.got - 2010.06.27 13:26:56.
