data_PCOD8002559
_publ_section_title
;
Structure prediction by ZEFSAII (Michael W. Deem and Ramdas Pophale) SiO2 
 PCOD8002559
Probable space group: P -1
;
_chemical_formula_sum "Si O2"
_cell_formula_units_Z 14
_cell_length_a 21.713818
_cell_length_b 12.206229
_cell_length_c 10.721060
_cell_angle_alpha 131.113744
_cell_angle_beta 143.921017
_cell_angle_gamma 24.683766
_cell_volume 663.873217
_symmetry_space_group_name_H-M "P -1"
_symmetry_group_IT_number 2
_symmetry_cell_setting 'triclinic'
loop_
_space_group_symop_operation_xyz
x,y,z
-x,-y,-z
loop_
_atom_site_type_symbol
_atom_site_label
_atom_site_fract_x
_atom_site_fract_y
_atom_site_fract_z
Si Si1 0.268604 0.586071 0.051271
Si Si2 0.424207 0.146778 0.149556
Si Si3 0.166889 0.974257 0.326844
Si Si4 0.060866 0.296646 0.811102
Si Si5 0.705177 0.731693 0.706145
Si Si6 0.877434 0.671418 0.554037
Si Si7 0.639853 0.112449 0.183031
O O1 0.343790 0.354781 0.073446
O O2 0.407949 0.436067 0.042845
O O3 0.293537 0.696500 0.263692
O O4 0.042803 0.839238 0.826112
O O5 0.341351 0.294222 0.259960
O O6 0.660946 0.858072 0.322304
O O7 0.342269 0.084466 0.933871
O O8 0.132314 0.143512 0.296292
O O9 0.284940 0.908550 0.581724
O O10 0.870404 0.447133 0.680998
O O11 0.978833 0.484998 0.701163
O O12 0.223525 0.992242 0.787694
O O13 0.188473 0.238973 0.075605
O O14 0.500000 0.000000 0.500000
O O15 0.000000 0.500000 0.500000
#
# Coordination Sequence:
#
# PCOD8002559 Si02
#       7
#     2   2   2   2   2   2   2
#     4  11  23  38  52  87 116 154 188 229 292 348
#     4  11  22  34  58  82 116 149 191 237 281 334
#     4  11  23  35  57  82 120 154 183 228 296 347
#     4  10  21  34  56  85 115 146 193 236 287 326
#     4  10  20  36  54  82 114 151 191 244 279 326
#     4  12  20  34  58  90 118 148 182 236 288 342
#     4  11  21  35  56  83 114 149 185 242 275 342
#
# _framework density 21.088363999999999
#
# number of rings (size 3 to 8) (size 9 to 14) (size 15 to 20)
#    0.000    1.143    4.286    3.429    0.000    0.000 
#    0.000    0.000    0.000    0.857    0.000   27.000 
#    0.000    0.000    0.000    0.000    0.000    0.000 
#
# Total GULP energy -173433.750283 kJ/mol
# GULP energy per Si atom -12388.125020 kJ/mol
# Density = 2.104037 g / cm^3
# Si number density = 21.088364 Si / 1000 Ang^3
#
#
#
# Elastic Constant Matrix: (Units=GPa)
#
#
# Indices 1 2 3 4 5 6 
#
# 1 78.4540 40.4782 15.7993 -3.6038 1.0460 -49.6267
# 2 40.4782 110.8809 22.8226 1.1568 9.8519 -46.6701
# 3 15.7993 22.8226 76.7775 -0.1596 8.2659 -3.9815
# 4 -3.6038 1.1568 -0.1596 33.8113 -4.3739 9.2800
# 5 1.0460 9.8519 8.2659 -4.3739 25.2929 -5.1704
# 6 -49.6267 -46.6701 -3.9815 9.2800 -5.1704 49.3788
#
#
#
# Elastic Compliance Matrix: (Units=1/GPa)
#
#
# Indices 1 2 3 4 5 6 
#
# 1 0.043472 0.007650 -0.009309 -0.009166 0.007447 0.052673
# 2 0.007650 0.018489 -0.005565 -0.007162 -0.001646 0.025888
# 3 -0.009309 -0.005565 0.016429 0.002520 -0.005308 -0.014321
# 4 -0.009166 -0.007162 0.002520 0.035412 0.003968 -0.022017
# 5 0.007447 -0.001646 -0.005308 0.003968 0.044209 0.009385
# 6 0.052673 0.025888 -0.014321 -0.022017 0.009385 0.101622
#
#
# Mechanical properties :
#
#
# Convention : Reuss Voigt Hill
#
# Bulk Modulus (GPa) = 15.63945 47.14584 31.39265
# Shear Modulus (GPa) = 16.92647 34.16408 25.54528
#
# Velocity S-wave (km/s) = 2.83617 4.02934 3.48421
# Velocity P-wave (km/s) = 4.26115 6.63719 5.57718
#
# Compressibility (1/GPa) = 0.06394085
#
# Stress axis : x y z
#
# Youngs Moduli (GPa) = 23.00323 54.08726 60.86908
#
# Poissons Ratio (x) = -0.41378 0.56664
# Poissons Ratio (y) = -0.17598 0.33876
# Poissons Ratio (z) = 0.21414 0.30102
#
# Static dielectric constant tensor:
#      x y z
#    x 4.201800 -0.850760 0.248390 
#    y -0.850760 4.426480 -0.182400 
#    z 0.248390 -0.182400 4.030960 
# 
# 
# High freq. dielectric constant tensor:
#      x y z
#    x 1.791170 -0.057180 0.011760 
#    y -0.057180 1.823050 -0.018910 
#    z 0.011760 -0.018910 1.841510 
# 
# From -- ./inp_files/476811.got.cif
#   From: 2010.06.25/outbox.cif.g09.slc.cpg/sg2_239_cif.got.tgz:476811.got - 2010.06.27 13:26:56.
