data_PCOD8002843
_publ_section_title
;
Structure prediction by ZEFSAII (Michael W. Deem and Ramdas Pophale) SiO2 
 PCOD8002843
Probable space group: P -1
;
_chemical_formula_sum "Si O2"
_cell_formula_units_Z 12
_cell_length_a 14.072475
_cell_length_b 8.615807
_cell_length_c 13.070714
_cell_angle_alpha 108.054420
_cell_angle_beta 30.774780
_cell_angle_gamma 124.223334
_cell_volume 611.636370
_symmetry_space_group_name_H-M "P -1"
_symmetry_group_IT_number 2
_symmetry_cell_setting 'triclinic'
loop_
_space_group_symop_operation_xyz
x,y,z
-x,-y,-z
loop_
_atom_site_type_symbol
_atom_site_label
_atom_site_fract_x
_atom_site_fract_y
_atom_site_fract_z
Si Si1 0.058911 0.554878 0.337262
Si Si2 0.285770 0.213708 0.566414
Si Si3 0.982773 0.228391 0.208982
Si Si4 0.425204 0.513185 0.961739
Si Si5 0.103819 0.189618 0.516752
Si Si6 0.175465 0.451537 0.863724
O O1 0.051707 0.732656 0.336440
O O2 0.000000 0.500000 0.500000
O O3 0.897045 0.346151 0.374243
O O4 0.328934 0.647093 0.088138
O O5 0.120139 0.126146 0.601880
O O6 0.215617 0.339656 0.716151
O O7 0.562156 0.344002 0.310523
O O8 0.216844 0.016315 0.655049
O O9 0.217630 0.288196 0.062065
O O10 0.049842 0.303456 0.046219
O O11 0.500000 0.500000 0.000000
O O12 0.637238 0.615592 0.710023
O O13 0.000000 0.000000 0.500000
O O14 0.000000 0.500000 0.000000
#
# Coordination Sequence:
#
# PCOD8002843 Si02
#       6
#     2   2   2   2   2   2
#     4  10  20  36  59  89 126 165 209 251 310 378
#     4  11  23  42  66  91 126 169 207 264 321 370
#     4  10  22  43  62  92 128 163 213 260 318 372
#     4  10  20  38  60  89 130 160 206 256 307 374
#     4  12  22  39  63  94 131 167 208 262 318 377
#     4  11  24  44  65  92 127 162 220 264 308 380
#
# _framework density 19.619502000000001
#
# number of rings (size 3 to 8) (size 9 to 14) (size 15 to 20)
#    1.000    0.333    3.333    3.500    0.000    1.333 
#    3.000    0.000    0.000    0.000    0.000    0.000 
#    0.000    0.000    0.000    0.000    0.000    0.000 
#
# Total GULP energy -148669.672358 kJ/mol
# GULP energy per Si atom -12389.139363 kJ/mol
# Density = 1.957485 g / cm^3
# Si number density = 19.619502 Si / 1000 Ang^3
#
#
#
# Elastic Constant Matrix: (Units=GPa)
#
#
# Indices 1 2 3 4 5 6 
#
# 1 127.3316 34.0061 35.4700 -0.0907 -0.1330 -9.3723
# 2 34.0061 107.2811 34.3680 0.6527 -13.2587 -11.3291
# 3 35.4700 34.3680 77.8274 1.7714 2.8787 -13.7553
# 4 -0.0907 0.6527 1.7714 38.9442 -6.7062 0.1399
# 5 -0.1330 -13.2587 2.8787 -6.7062 35.6108 4.6056
# 6 -9.3723 -11.3291 -13.7553 0.1399 4.6056 36.5968
#
#
#
# Elastic Compliance Matrix: (Units=1/GPa)
#
#
# Indices 1 2 3 4 5 6 
#
# 1 0.009320 -0.001893 -0.003287 0.000121 -0.000462 0.000623
# 2 -0.001893 0.012059 -0.004496 0.000835 0.004882 0.000941
# 3 -0.003287 -0.004496 0.017360 -0.001424 -0.003978 0.004797
# 4 0.000121 0.000835 -0.001424 0.026695 0.005590 -0.001051
# 5 -0.000462 0.004882 -0.003978 0.005590 0.031805 -0.004126
# 6 0.000623 0.000941 0.004797 -0.001051 -0.004126 0.030102
#
#
# Mechanical properties :
#
#
# Convention : Reuss Voigt Hill
#
# Bulk Modulus (GPa) = 51.58115 57.79201 54.68658
# Shear Modulus (GPa) = 32.64634 36.13678 34.39156
#
# Velocity S-wave (km/s) = 4.08361 4.29637 4.19134
# Velocity P-wave (km/s) = 6.97010 7.35745 7.16639
#
# Compressibility (1/GPa) = 0.01938693
#
# Stress axis : x y z
#
# Youngs Moduli (GPa) = 107.29243 82.92357 57.60430
#
# Poissons Ratio (x) = 0.15700 0.18936
# Poissons Ratio (y) = 0.20314 0.25897
# Poissons Ratio (z) = 0.35269 0.37280
#
# Static dielectric constant tensor:
#      x y z
#    x 3.698070 0.463010 -0.327100 
#    y 0.463010 4.744240 -0.650080 
#    z -0.327100 -0.650080 4.086940 
# 
# 
# High freq. dielectric constant tensor:
#      x y z
#    x 1.777450 0.002890 0.006960 
#    y 0.002890 1.754280 0.008810 
#    z 0.006960 0.008810 1.762480 
# 
# From -- ./inp_files/528710.got.cif
#   From: 2010.06.25/outbox.cif.g09.slc.cpg/sg2_265_cif.got.tgz:528710.got - 2010.06.27 13:26:56.
