data_PCOD8002822
_publ_section_title
;
Structure prediction by ZEFSAII (Michael W. Deem and Ramdas Pophale) SiO2 
 PCOD8002822
Probable space group: P -1
;
_chemical_formula_sum "Si O2"
_cell_formula_units_Z 16
_cell_length_a 10.231805
_cell_length_b 8.921656
_cell_length_c 13.373745
_cell_angle_alpha 88.532611
_cell_angle_beta 122.878505
_cell_angle_gamma 120.807973
_cell_volume 824.912528
_symmetry_space_group_name_H-M "P -1"
_symmetry_group_IT_number 2
_symmetry_cell_setting 'triclinic'
loop_
_space_group_symop_operation_xyz
x,y,z
-x,-y,-z
loop_
_atom_site_type_symbol
_atom_site_label
_atom_site_fract_x
_atom_site_fract_y
_atom_site_fract_z
Si Si1 0.234240 0.117042 0.856681
Si Si2 0.079975 0.865701 0.348697
Si Si3 0.424425 0.193094 0.604467
Si Si4 0.506744 0.260759 0.143969
Si Si5 0.624030 0.113295 0.835976
Si Si6 0.159015 0.634286 0.248345
Si Si7 0.294737 0.341925 0.698701
Si Si8 0.221256 0.761788 0.886746
O O1 0.354514 0.255492 0.810983
O O2 0.213373 0.926539 0.840468
O O3 0.342987 0.226873 0.001114
O O4 0.021522 0.073620 0.770461
O O5 0.283874 0.046938 0.465109
O O6 0.110840 0.724253 0.312749
O O7 0.935999 0.757484 0.385931
O O8 0.440456 0.089589 0.708259
O O9 0.638047 0.334094 0.641940
O O10 0.342349 0.304109 0.609478
O O11 0.581761 0.437629 0.240293
O O12 0.684080 0.289698 0.155878
O O13 0.411988 0.085291 0.181921
O O14 0.817301 0.265675 0.850224
O O15 0.645923 0.172389 0.960137
O O16 0.993828 0.415646 0.174781
#
# Coordination Sequence:
#
# PCOD8002822 Si02
#       8
#     2   2   2   2   2   2   2   2
#     4   9  21  33  62  83 116 146 184 240 278 328
#     4  10  21  40  58  83 113 154 193 231 282 336
#     4  10  21  39  60  79 117 155 188 234 284 330
#     4  11  19  37  61  87 116 144 196 228 289 334
#     4   9  22  35  60  83 117 148 184 236 280 334
#     4  10  22  39  60  84 115 154 186 233 288 341
#     4  10  20  36  59  87 112 147 193 238 275 332
#     4  11  18  39  58  90 112 151 190 228 287 346
#
# _framework density 19.395994000000002
#
# number of rings (size 3 to 8) (size 9 to 14) (size 15 to 20)
#    1.500    0.500    1.250    4.500    0.000    1.000 
#    2.250    3.750    0.000    0.000    0.000    0.000 
#    0.000    0.000    0.000    0.000    0.000    0.000 
#
# Total GULP energy -198280.963706 kJ/mol
# GULP energy per Si atom -12392.560232 kJ/mol
# Density = 1.935185 g / cm^3
# Si number density = 19.395994 Si / 1000 Ang^3
#
#
#
# Elastic Constant Matrix: (Units=GPa)
#
#
# Indices 1 2 3 4 5 6 
#
# 1 87.5819 14.3153 8.5460 2.5417 1.6539 -8.2346
# 2 14.3153 84.9966 13.9966 29.5831 1.1580 2.3043
# 3 8.5460 13.9966 55.4638 19.0353 13.5202 -6.1655
# 4 2.5417 29.5831 19.0353 21.3317 -1.1934 -2.3710
# 5 1.6539 1.1580 13.5202 -1.1934 29.6513 10.3547
# 6 -8.2346 2.3043 -6.1655 -2.3710 10.3547 20.3426
#
#
#
# Elastic Compliance Matrix: (Units=1/GPa)
#
#
# Indices 1 2 3 4 5 6 
#
# 1 0.012820 -0.004537 -0.002274 0.007449 -0.001527 0.006659
# 2 -0.004537 0.028202 0.012185 -0.050238 -0.007193 -0.003532
# 3 -0.002274 0.012185 0.043303 -0.054756 -0.029005 0.019205
# 4 0.007449 -0.050238 -0.054756 0.165772 0.035505 -0.006641
# 5 -0.001527 -0.007193 -0.029005 0.035505 0.061176 -0.035595
# 6 0.006659 -0.003532 0.019205 -0.006641 -0.035595 0.075419
#
#
# Mechanical properties :
#
#
# Convention : Reuss Voigt Hill
#
# Bulk Modulus (GPa) = 10.51837 33.52868 22.02352
# Shear Modulus (GPa) = 12.26585 27.01076 19.63831
#
# Velocity S-wave (km/s) = 2.51747 3.73580 3.18542
# Velocity P-wave (km/s) = 3.72625 5.99434 4.99085
#
# Compressibility (1/GPa) = 0.09507177
#
# Stress axis : x y z
#
# Youngs Moduli (GPa) = 78.00219 35.45851 23.09307
#
# Poissons Ratio (x) = 0.16087 0.05252
# Poissons Ratio (y) = 0.35389 -0.28138
# Poissons Ratio (z) = 0.17741 -0.43205
#
# Static dielectric constant tensor:
#      x y z
#    x 3.380090 -0.010370 0.107320 
#    y -0.010370 3.419110 0.100560 
#    z 0.107320 0.100560 3.289230 
# 
# 
# High freq. dielectric constant tensor:
#      x y z
#    x 1.751240 -0.005450 0.003980 
#    y -0.005450 1.742480 0.015920 
#    z 0.003980 0.015920 1.740930 
# 
# From -- ./inp_files/513257.got.cif
#   From: 2010.06.25/outbox.cif.g09.slc.cpg/sg2_257_cif.got.tgz:513257.got - 2010.06.27 13:26:56.
