data_PCOD8002801
_publ_section_title
;
Structure prediction by ZEFSAII (Michael W. Deem and Ramdas Pophale) SiO2 
 PCOD8002801
Probable space group: P -1
;
_chemical_formula_sum "Si O2"
_cell_formula_units_Z 14
_cell_length_a 11.726027
_cell_length_b 11.766513
_cell_length_c 14.955442
_cell_angle_alpha 28.377262
_cell_angle_beta 136.793130
_cell_angle_gamma 129.614101
_cell_volume 671.388433
_symmetry_space_group_name_H-M "P -1"
_symmetry_group_IT_number 2
_symmetry_cell_setting 'triclinic'
loop_
_space_group_symop_operation_xyz
x,y,z
-x,-y,-z
loop_
_atom_site_type_symbol
_atom_site_label
_atom_site_fract_x
_atom_site_fract_y
_atom_site_fract_z
Si Si1 0.693835 0.473143 0.149478
Si Si2 0.932471 0.040696 0.218036
Si Si3 0.138942 0.692299 0.465723
Si Si4 0.155037 0.999081 0.524548
Si Si5 0.314853 0.241460 0.602186
Si Si6 0.192204 0.009163 0.121427
Si Si7 0.312933 0.771388 0.185161
O O1 0.725179 0.403956 0.318929
O O2 0.780918 0.269011 0.278637
O O3 0.500000 0.500000 0.000000
O O4 0.769083 0.732566 0.992415
O O5 0.816978 0.862007 0.332365
O O6 0.029196 0.912802 0.283188
O O7 0.080584 0.141515 0.296643
O O8 0.813134 0.232035 0.969078
O O9 0.000000 0.500000 0.500000
O O10 0.239140 0.792841 0.367128
O O11 0.299370 0.139229 0.562110
O O12 0.000000 0.000000 0.500000
O O13 0.285818 0.523273 0.391157
O O14 0.503374 0.189154 0.777501
O O15 0.285041 0.975727 0.102667
O O16 0.000000 0.000000 0.000000
#
# Coordination Sequence:
#
# PCOD8002801 Si02
#       7
#     2   2   2   2   2   2   2
#     4  11  24  42  63  91 129 164 204 259 314 364
#     4  10  20  36  59  85 115 157 202 244 295 363
#     4  11  21  37  62  94 121 163 206 253 306 371
#     4   9  21  38  60  83 118 159 197 243 298 364
#     4  10  22  39  58  85 124 156 197 249 305 358
#     4  12  23  38  66  93 122 160 208 256 305 367
#     4  11  22  37  61  89 118 155 201 253 300 358
#
# _framework density 20.852309999999999
#
# number of rings (size 3 to 8) (size 9 to 14) (size 15 to 20)
#    0.000    1.429    2.857    2.143    4.000    1.143 
#    0.000   10.000    0.000    0.000    0.000    0.000 
#    0.000    0.000    0.000    0.000    0.000    0.000 
#
# Total GULP energy -173467.428880 kJ/mol
# GULP energy per Si atom -12390.530634 kJ/mol
# Density = 2.080485 g / cm^3
# Si number density = 20.852310 Si / 1000 Ang^3
#
#
#
# Elastic Constant Matrix: (Units=GPa)
#
#
# Indices 1 2 3 4 5 6 
#
# 1 57.0935 15.9425 29.4059 5.6681 2.0988 -1.4002
# 2 15.9425 96.7002 41.7254 10.8947 9.3402 -4.2944
# 3 29.4059 41.7254 118.5234 33.1540 8.0970 1.8591
# 4 5.6681 10.8947 33.1540 35.3142 -0.8751 1.7607
# 5 2.0988 9.3402 8.0970 -0.8751 33.3190 -0.5737
# 6 -1.4002 -4.2944 1.8591 1.7607 -0.5737 33.5373
#
#
#
# Elastic Compliance Matrix: (Units=1/GPa)
#
#
# Indices 1 2 3 4 5 6 
#
# 1 0.020366 -0.001350 -0.005170 0.001969 0.000419 0.000868
# 2 -0.001350 0.012584 -0.003916 -0.000137 -0.002465 0.001737
# 3 -0.005170 -0.003916 0.014528 -0.011614 -0.002429 -0.000954
# 4 0.001969 -0.000137 -0.011614 0.039104 0.003742 -0.001281
# 5 0.000419 -0.002465 -0.002429 0.003742 0.031369 0.000177
# 6 0.000868 0.001737 -0.000954 -0.001281 0.000177 0.030199
#
#
# Mechanical properties :
#
#
# Convention : Reuss Voigt Hill
#
# Bulk Modulus (GPa) = 37.58691 49.60719 43.59705
# Shear Modulus (GPa) = 28.10712 32.78364 30.44538
#
# Velocity S-wave (km/s) = 3.67538 3.96938 3.82520
# Velocity P-wave (km/s) = 6.00630 6.69697 6.36101
#
# Compressibility (1/GPa) = 0.02660501
#
# Stress axis : x y z
#
# Youngs Moduli (GPa) = 49.10244 79.46535 68.83239
#
# Poissons Ratio (x) = 0.10731 0.35589
# Poissons Ratio (y) = 0.06631 0.26952
# Poissons Ratio (z) = 0.25388 0.31116
#
# Static dielectric constant tensor:
#      x y z
#    x 4.060520 -0.420800 -0.274640 
#    y -0.420800 4.397790 0.426170 
#    z -0.274640 0.426170 4.175930 
# 
# 
# High freq. dielectric constant tensor:
#      x y z
#    x 1.807770 -0.011630 0.006030 
#    y -0.011630 1.819200 0.016000 
#    z 0.006030 0.016000 1.822240 
# 
# From -- ./inp_files/185462.got.cif
#   From: 2010.06.25/outbox.cif.g09.slc.cpg/sg2_93_cif.got.tgz:185462.got - 2010.06.27 13:26:56.
