data_PCOD8002015
_publ_section_title
;
Structure prediction by ZEFSAII (Michael W. Deem and Ramdas Pophale) SiO2 
 PCOD8002015
Probable space group: P -1
;
_chemical_formula_sum "Si O2"
_cell_formula_units_Z 16
_cell_length_a 16.007718
_cell_length_b 10.631155
_cell_length_c 7.386494
_cell_angle_alpha 81.649974
_cell_angle_beta 89.526055
_cell_angle_gamma 145.389254
_cell_volume 687.919146
_symmetry_space_group_name_H-M "P -1"
_symmetry_group_IT_number 2
_symmetry_cell_setting 'triclinic'
loop_
_space_group_symop_operation_xyz
x,y,z
-x,-y,-z
loop_
_atom_site_type_symbol
_atom_site_label
_atom_site_fract_x
_atom_site_fract_y
_atom_site_fract_z
Si Si1 0.565447 0.506410 0.833080
Si Si2 0.234153 0.350382 0.915130
Si Si3 0.290844 0.000208 0.982286
Si Si4 0.732412 0.949729 0.630342
Si Si5 0.678942 0.361099 0.434689
Si Si6 0.349274 0.939121 0.664966
Si Si7 0.943010 0.108730 0.093790
Si Si8 0.020266 0.176840 0.475747
O O1 0.426626 0.246346 0.818444
O O2 0.625652 0.689504 0.653859
O O3 0.500000 0.500000 0.000000
O O4 0.701235 0.590964 0.895849
O O5 0.352412 0.578418 0.741039
O O6 0.193022 0.166390 0.855775
O O7 0.082233 0.241695 0.940451
O O8 0.299382 0.879419 0.892576
O O9 0.125399 0.848378 0.989882
O O10 0.315513 0.028971 0.192944
O O11 0.721873 0.029414 0.443732
O O12 0.898547 0.096615 0.620882
O O13 0.721755 0.277845 0.372226
O O14 0.812571 0.582393 0.509928
O O15 0.530174 0.164968 0.600233
O O16 0.999680 0.208411 0.271975
O O17 0.000000 0.000000 0.500000
#
# Coordination Sequence:
#
# PCOD8002015 Si02
#       8
#     2   2   2   2   2   2   2   2
#     4  10  20  34  65 101 128 166 214 281 331 382
#     4  11  21  41  66  98 137 168 221 279 340 393
#     4  11  23  43  66  98 133 176 224 273 339 393
#     4  11  23  43  68 101 136 170 225 278 331 399
#     4  11  26  47  66  94 139 178 224 280 320 406
#     4  11  27  48  66  96 135 187 227 263 331 403
#     4  11  22  38  64 103 132 168 218 278 346 395
#     4  12  24  40  68 102 135 172 221 282 341 390
#
# _framework density 23.258547
#
# number of rings (size 3 to 8) (size 9 to 14) (size 15 to 20)
#    0.000    1.000    5.000    3.000    3.500    1.000 
#    2.250    3.125    0.000    0.000    0.000    0.000 
#    0.000    0.000    0.000    0.000    0.000    0.000 
#
# Total GULP energy -198299.502064 kJ/mol
# GULP energy per Si atom -12393.718879 kJ/mol
# Density = 2.320561 g / cm^3
# Si number density = 23.258547 Si / 1000 Ang^3
#
#
#
# Elastic Constant Matrix: (Units=GPa)
#
#
# Indices 1 2 3 4 5 6 
#
# 1 86.7374 27.7384 0.7581 13.3473 -13.2366 3.9704
# 2 27.7384 91.4662 10.3366 14.6286 -5.3379 4.1995
# 3 0.7581 10.3366 66.7773 18.2731 -12.0357 -9.3532
# 4 13.3473 14.6286 18.2731 28.2679 -6.3692 -0.3357
# 5 -13.2366 -5.3379 -12.0357 -6.3692 37.3498 5.7509
# 6 3.9704 4.1995 -9.3532 -0.3357 5.7509 26.4027
#
#
#
# Elastic Compliance Matrix: (Units=1/GPa)
#
#
# Indices 1 2 3 4 5 6 
#
# 1 0.014232 -0.003350 0.002464 -0.005543 0.004695 -0.001828
# 2 -0.003350 0.012859 -0.001027 -0.004464 -0.000144 -0.001931
# 3 0.002464 -0.001027 0.020135 -0.012642 0.004157 0.005860
# 4 -0.005543 -0.004464 -0.012642 0.048914 0.002091 -0.002768
# 5 0.004695 -0.000144 0.004157 0.002091 0.031028 -0.005942
# 6 -0.001828 -0.001931 0.005860 -0.002768 -0.005942 0.041792
#
#
# Mechanical properties :
#
#
# Convention : Reuss Voigt Hill
#
# Bulk Modulus (GPa) = 23.04155 35.84966 29.44560
# Shear Modulus (GPa) = 26.70172 32.14726 29.42449
#
# Velocity S-wave (km/s) = 3.39195 3.72179 3.56069
# Velocity P-wave (km/s) = 5.02679 5.82374 5.43988
#
# Compressibility (1/GPa) = 0.04339986
#
# Stress axis : x y z
#
# Youngs Moduli (GPa) = 70.26432 77.76495 49.66357
#
# Poissons Ratio (x) = 0.26052 -0.12237
# Poissons Ratio (y) = 0.23539 0.05102
# Poissons Ratio (z) = -0.17313 0.07989
#
# Static dielectric constant tensor:
#      x y z
#    x 4.239200 -0.284190 -0.294720 
#    y -0.284190 3.829710 -0.412580 
#    z -0.294720 -0.412580 3.954590 
# 
# 
# High freq. dielectric constant tensor:
#      x y z
#    x 1.925090 0.014770 -0.016000 
#    y 0.014770 1.903520 0.010070 
#    z -0.016000 0.010070 1.910040 
# 
# From -- ./inp_files/298537.got.cif
#   From: 2010.06.25/outbox.cif.g09.slc.cpg/sg2_150_cif.got.tgz:298537.got - 2010.06.27 13:26:56.
