data_PCOD8002983
_publ_section_title
;
Structure prediction by ZEFSAII (Michael W. Deem and Ramdas Pophale) SiO2 
 PCOD8002983
Probable space group: P -1
;
_chemical_formula_sum "Si O2"
_cell_formula_units_Z 16
_cell_length_a 12.832110
_cell_length_b 9.026197
_cell_length_c 14.635437
_cell_angle_alpha 73.945817
_cell_angle_beta 140.315009
_cell_angle_gamma 124.460694
_cell_volume 850.889642
_symmetry_space_group_name_H-M "P -1"
_symmetry_group_IT_number 2
_symmetry_cell_setting 'triclinic'
loop_
_space_group_symop_operation_xyz
x,y,z
-x,-y,-z
loop_
_atom_site_type_symbol
_atom_site_label
_atom_site_fract_x
_atom_site_fract_y
_atom_site_fract_z
Si Si1 0.997416 0.324714 0.139011
Si Si2 0.727352 0.594188 0.161790
Si Si3 0.994297 0.478932 0.297607
Si Si4 0.096804 0.292191 0.544711
Si Si5 0.701193 0.290411 0.801956
Si Si6 0.720590 0.124099 0.664326
Si Si7 0.953095 0.993868 0.755545
Si Si8 0.754564 0.894014 0.448663
O O1 0.958789 0.334807 0.218532
O O2 0.212323 0.506446 0.220323
O O3 0.822700 0.317879 0.969885
O O4 0.985822 0.137996 0.140582
O O5 0.796027 0.473475 0.179896
O O6 0.761233 0.595305 0.292870
O O7 0.847910 0.807399 0.170842
O O8 0.500000 0.500000 0.000000
O O9 0.053741 0.427056 0.440090
O O10 0.172364 0.690116 0.356755
O O11 0.214350 0.239310 0.568381
O O12 0.884228 0.107490 0.463348
O O13 0.725721 0.165103 0.767750
O O14 0.475397 0.186957 0.697767
O O15 0.828212 0.017969 0.743489
O O16 0.500000 0.000000 0.500000
O O17 0.811140 0.887029 0.591575
#
# Coordination Sequence:
#
# PCOD8002983 Si02
#       8
#     2   2   2   2   2   2   2   2
#     4  10  22  39  59  86 115 147 191 236 287 329
#     4  10  23  39  56  85 120 150 184 233 288 335
#     4  10  21  39  61  82 114 151 190 235 278 339
#     4  10  21  38  59  85 114 150 192 232 278 335
#     4  10  22  38  59  85 116 150 187 238 283 335
#     4  10  20  37  60  84 114 147 190 234 284 333
#     4  10  20  39  60  83 115 148 189 238 278 337
#     4  10  20  36  61  86 112 147 194 235 275 331
#
# _framework density 18.803847999999999
#
# number of rings (size 3 to 8) (size 9 to 14) (size 15 to 20)
#    0.000    2.000    2.500    0.375    1.750    3.000 
#    2.250    1.250    0.000    0.000    0.000    0.000 
#    0.000    0.000    0.000    0.000    0.000    0.000 
#
# Total GULP energy -198454.303702 kJ/mol
# GULP energy per Si atom -12403.393981 kJ/mol
# Density = 1.876105 g / cm^3
# Si number density = 18.803848 Si / 1000 Ang^3
#
#
#
# Elastic Constant Matrix: (Units=GPa)
#
#
# Indices 1 2 3 4 5 6 
#
# 1 108.6096 47.0114 51.4721 2.2808 12.9092 -3.6972
# 2 47.0114 79.2159 42.7766 -12.2361 9.9070 -14.6779
# 3 51.4721 42.7766 114.5617 7.9852 14.8983 6.1203
# 4 2.2808 -12.2361 7.9852 27.6451 2.4075 1.2554
# 5 12.9092 9.9070 14.8983 2.4075 31.7078 0.8568
# 6 -3.6972 -14.6779 6.1203 1.2554 0.8568 24.4821
#
#
#
# Elastic Compliance Matrix: (Units=1/GPa)
#
#
# Indices 1 2 3 4 5 6 
#
# 1 0.014000 -0.007108 -0.003127 -0.003195 -0.001737 -0.001141
# 2 -0.007108 0.027121 -0.008424 0.014544 -0.003176 0.016658
# 3 -0.003127 -0.008424 0.014517 -0.007081 -0.002143 -0.008714
# 4 -0.003195 0.014544 -0.007081 0.044872 -0.003535 0.007830
# 5 -0.001737 -0.003176 -0.002143 -0.003535 0.034585 -0.002660
# 6 -0.001141 0.016658 -0.008714 0.007830 -0.002660 0.052531
#
#
# Mechanical properties :
#
#
# Convention : Reuss Voigt Hill
#
# Bulk Modulus (GPa) = 54.58110 64.98974 59.78542
# Shear Modulus (GPa) = 21.64030 27.50880 24.57455
#
# Velocity S-wave (km/s) = 3.39609 3.82898 3.61901
# Velocity P-wave (km/s) = 6.66839 7.36105 7.02327
#
# Compressibility (1/GPa) = 0.01832136
#
# Stress axis : x y z
#
# Youngs Moduli (GPa) = 71.42621 36.87129 68.88470
#
# Poissons Ratio (x) = 0.26208 0.21539
# Poissons Ratio (y) = 0.50769 0.58028
# Poissons Ratio (z) = 0.22334 0.31060
#
# Static dielectric constant tensor:
#      x y z
#    x 3.687210 -0.037670 -0.097390 
#    y -0.037670 3.393180 0.051910 
#    z -0.097390 0.051910 3.286690 
# 
# 
# High freq. dielectric constant tensor:
#      x y z
#    x 1.745130 -0.005680 -0.003170 
#    y -0.005680 1.726550 0.001820 
#    z -0.003170 0.001820 1.724180 
# 
# From -- ./inp_files/177678.got.cif
#   From: 2010.06.25/outbox.cif.g09.slc.cpg/sg2_89_cif.got.tgz:177678.got - 2010.06.27 13:26:56.
