data_PCOD8002897
_publ_section_title
;
Structure prediction by ZEFSAII (Michael W. Deem and Ramdas Pophale) SiO2 
 PCOD8002897
Probable space group: P -1
;
_chemical_formula_sum "Si O2"
_cell_formula_units_Z 14
_cell_length_a 5.240146
_cell_length_b 16.077071
_cell_length_c 25.244423
_cell_angle_alpha 17.463192
_cell_angle_beta 93.560782
_cell_angle_gamma 93.465581
_cell_volume 636.984649
_symmetry_space_group_name_H-M "P -1"
_symmetry_group_IT_number 2
_symmetry_cell_setting 'triclinic'
loop_
_space_group_symop_operation_xyz
x,y,z
-x,-y,-z
loop_
_atom_site_type_symbol
_atom_site_label
_atom_site_fract_x
_atom_site_fract_y
_atom_site_fract_z
Si Si1 0.973199 0.669942 0.204457
Si Si2 0.206821 0.842899 0.285784
Si Si3 0.752506 0.152615 0.234219
Si Si4 0.735502 0.618895 0.861761
Si Si5 0.460682 0.740190 0.118540
Si Si6 0.687053 0.162041 0.061104
Si Si7 0.931546 0.612859 0.516201
O O1 0.724026 0.566304 0.231338
O O2 0.947525 0.577361 0.321059
O O3 0.226613 0.547795 0.253451
O O4 0.000000 0.000000 0.000000
O O5 0.163069 0.754678 0.399928
O O6 0.238472 0.573389 0.412705
O O7 0.468713 0.015508 0.183119
O O8 0.960203 0.014972 0.158597
O O9 0.508121 0.188879 0.246760
O O10 0.010601 0.193143 0.247257
O O11 0.751623 0.368753 0.055293
O O12 0.747557 0.843826 0.398312
O O13 0.712624 0.479474 0.888228
O O14 0.409517 0.848584 0.993476
O O15 0.500000 0.000000 0.000000
#
# Coordination Sequence:
#
# PCOD8002897 Si02
#       7
#     2   2   2   2   2   2   2
#     4  10  21  38  59  84 117 168 207 245 295 371
#     4  11  25  36  61  99 132 164 187 267 336 381
#     4  10  22  39  61  89 126 166 208 249 311 376
#     4  10  22  39  63  88 124 166 211 252 303 378
#     4  10  20  36  60  85 117 162 208 248 295 366
#     4  12  22  42  64  95 131 162 213 255 318 378
#     4  11  24  41  62  95 135 161 208 257 323 385
#
# _framework density 21.978553000000002
#
# number of rings (size 3 to 8) (size 9 to 14) (size 15 to 20)
#    0.000    1.429    1.429    5.143    4.000    5.714 
#    0.000    0.000    0.000    5.143    0.000    0.000 
#    0.000    0.000    0.000    0.000    0.000    0.000 
#
# Total GULP energy -173591.624084 kJ/mol
# GULP energy per Si atom -12399.401720 kJ/mol
# Density = 2.192853 g / cm^3
# Si number density = 21.978553 Si / 1000 Ang^3
#
#
#
# Elastic Constant Matrix: (Units=GPa)
#
#
# Indices 1 2 3 4 5 6 
#
# 1 168.4270 42.4410 30.4769 -14.4748 4.0450 4.4635
# 2 42.4410 114.6942 51.2345 -6.3757 4.7526 -9.1345
# 3 30.4769 51.2345 65.5562 -1.7885 13.9193 -9.0483
# 4 -14.4748 -6.3757 -1.7885 50.4341 -10.5770 3.0888
# 5 4.0450 4.7526 13.9193 -10.5770 20.8319 -1.8114
# 6 4.4635 -9.1345 -9.0483 3.0888 -1.8114 23.7317
#
#
#
# Elastic Compliance Matrix: (Units=1/GPa)
#
#
# Indices 1 2 3 4 5 6 
#
# 1 0.007080 -0.001556 -0.002823 0.002298 0.001758 -0.003172
# 2 -0.001556 0.014457 -0.011554 0.002117 0.005941 0.001630
# 3 -0.002823 -0.011554 0.030549 -0.005709 -0.019519 0.006985
# 4 0.002298 0.002117 -0.005709 0.023861 0.014672 -0.003780
# 5 0.001758 0.005941 -0.019519 0.014672 0.066597 -0.002312
# 6 -0.003172 0.001630 0.006985 -0.003780 -0.002312 0.046340
#
#
# Mechanical properties :
#
#
# Convention : Reuss Voigt Hill
#
# Bulk Modulus (GPa) = 49.45856 66.33135 57.89496
# Shear Modulus (GPa) = 21.97884 33.96786 27.97335
#
# Velocity S-wave (km/s) = 3.16573 3.93555 3.57144
# Velocity P-wave (km/s) = 5.99286 7.13421 6.58830
#
# Compressibility (1/GPa) = 0.02021895
#
# Stress axis : x y z
#
# Youngs Moduli (GPa) = 141.24955 69.16936 32.73399
#
# Poissons Ratio (x) = 0.10764 0.09242
# Poissons Ratio (y) = 0.21982 0.37821
# Poissons Ratio (z) = 0.39881 0.79918
#
# Static dielectric constant tensor:
#      x y z
#    x 3.175620 -0.063760 -0.066390 
#    y -0.063760 3.958260 -0.043680 
#    z -0.066390 -0.043680 3.668270 
# 
# 
# High freq. dielectric constant tensor:
#      x y z
#    x 1.886480 0.002210 0.005390 
#    y 0.002210 1.854910 0.000930 
#    z 0.005390 0.000930 1.827730 
# 
# From -- ./inp_files/604720.got.cif
#   From: 2010.06.25/outbox.cif.g09.slc.cpg/sg2_303_cif.got.tgz:604720.got - 2010.06.27 13:26:56.
