data_PCOD8002724
_publ_section_title
;
Structure prediction by ZEFSAII (Michael W. Deem and Ramdas Pophale) SiO2 
 PCOD8002724
Probable space group: P -1
;
_chemical_formula_sum "Si O2"
_cell_formula_units_Z 16
_cell_length_a 8.841521
_cell_length_b 13.299465
_cell_length_c 16.079530
_cell_angle_alpha 154.414824
_cell_angle_beta 108.074427
_cell_angle_gamma 69.725825
_cell_volume 765.925839
_symmetry_space_group_name_H-M "P -1"
_symmetry_group_IT_number 2
_symmetry_cell_setting 'triclinic'
loop_
_space_group_symop_operation_xyz
x,y,z
-x,-y,-z
loop_
_atom_site_type_symbol
_atom_site_label
_atom_site_fract_x
_atom_site_fract_y
_atom_site_fract_z
Si Si1 0.720946 0.174532 0.950991
Si Si2 0.945200 0.158720 0.218108
Si Si3 0.686042 0.700344 0.308306
Si Si4 0.915001 0.285568 0.796230
Si Si5 0.343577 0.050723 0.066817
Si Si6 0.881793 0.513251 0.615811
Si Si7 0.387788 0.843672 0.262396
Si Si8 0.030029 0.770241 0.415413
O O1 0.621529 0.137997 0.824323
O O2 0.619790 0.092931 0.949024
O O3 0.730415 0.447370 0.170731
O O4 0.899304 0.023317 0.862438
O O5 0.870341 0.305979 0.394435
O O6 0.989425 0.327764 0.277742
O O7 0.810901 0.017747 0.056979
O O8 0.557725 0.690070 0.204517
O O9 0.848054 0.771842 0.351969
O O10 0.615974 0.889908 0.507432
O O11 0.756314 0.282867 0.822104
O O12 0.861656 0.311478 0.708546
O O13 0.039277 0.038499 0.645331
O O14 0.000000 0.500000 0.000000
O O15 0.295217 0.328648 0.287444
O O16 0.500000 0.000000 0.000000
O O17 0.932106 0.408667 0.636177
#
# Coordination Sequence:
#
# PCOD8002724 Si02
#       8
#     2   2   2   2   2   2   2   2
#     4  11  21  38  63  87 117 159 203 242 287 350
#     4  10  21  39  65  90 113 155 204 246 290 344
#     4  10  20  37  59  86 121 154 199 245 283 346
#     4  10  21  35  54  82 118 152 193 239 285 343
#     4  11  25  41  59  91 124 151 190 246 307 356
#     4  10  21  40  65  88 116 155 205 245 283 352
#     4  10  22  38  59  87 117 159 199 239 294 343
#     4  10  20  36  58  85 116 155 193 238 291 338
#
# _framework density 20.889749999999999
#
# number of rings (size 3 to 8) (size 9 to 14) (size 15 to 20)
#    0.000    1.750    0.000    5.625    0.000    4.500 
#    0.000    6.250    0.000    0.000    0.000    0.000 
#    0.000    0.000    0.000    0.000    0.000    0.000 
#
# Total GULP energy -198404.513628 kJ/mol
# GULP energy per Si atom -12400.282102 kJ/mol
# Density = 2.084220 g / cm^3
# Si number density = 20.889750 Si / 1000 Ang^3
#
#
#
# Elastic Constant Matrix: (Units=GPa)
#
#
# Indices 1 2 3 4 5 6 
#
# 1 77.9004 52.5119 38.4410 -8.2008 -16.1906 13.4246
# 2 52.5119 151.5765 57.1117 5.0503 -4.1237 10.8292
# 3 38.4410 57.1117 113.6320 11.2552 -4.2751 1.4710
# 4 -8.2008 5.0503 11.2552 34.4452 -1.6335 -4.0040
# 5 -16.1906 -4.1237 -4.2751 -1.6335 29.7813 -4.4939
# 6 13.4246 10.8292 1.4710 -4.0040 -4.4939 23.0757
#
#
#
# Elastic Compliance Matrix: (Units=1/GPa)
#
#
# Indices 1 2 3 4 5 6 
#
# 1 0.023571 -0.005556 -0.005467 0.007863 0.010585 -0.007331
# 2 -0.005556 0.009755 -0.002877 -0.002168 -0.002508 -0.002026
# 3 -0.005467 -0.002877 0.012475 -0.004718 -0.001441 0.002636
# 4 0.007863 -0.002168 -0.004718 0.033458 0.005684 0.003656
# 5 0.010585 -0.002508 -0.001441 0.005684 0.039667 0.003822
# 6 -0.007331 -0.002026 0.002636 0.003656 0.003822 0.049762
#
#
# Mechanical properties :
#
#
# Convention : Reuss Voigt Hill
#
# Bulk Modulus (GPa) = 55.55295 71.02643 63.28969
# Shear Modulus (GPa) = 24.69284 30.46341 27.57813
#
# Velocity S-wave (km/s) = 3.44183 3.82291 3.63736
# Velocity P-wave (km/s) = 6.51507 7.31851 6.92844
#
# Compressibility (1/GPa) = 0.01800084
#
# Stress axis : x y z
#
# Youngs Moduli (GPa) = 42.42447 102.51284 80.16321
#
# Poissons Ratio (x) = 0.56959 0.43826
# Poissons Ratio (y) = 0.23572 0.23059
# Poissons Ratio (z) = 0.23194 0.29488
#
# Static dielectric constant tensor:
#      x y z
#    x 3.659650 0.071920 -0.220340 
#    y 0.071920 3.785120 0.093690 
#    z -0.220340 0.093690 4.072210 
# 
# 
# High freq. dielectric constant tensor:
#      x y z
#    x 1.793270 0.008260 -0.013040 
#    y 0.008260 1.821830 0.003790 
#    z -0.013040 0.003790 1.838220 
# 
# From -- ./inp_files/501262.got.cif
#   From: 2010.06.25/outbox.cif.g09.slc.cpg/sg2_251_cif.got.tgz:501262.got - 2010.06.27 13:26:56.
