data_PCOD8002685
_publ_section_title
;
Structure prediction by ZEFSAII (Michael W. Deem and Ramdas Pophale) SiO2 
 PCOD8002685
Probable space group: P -1
;
_chemical_formula_sum "Si O2"
_cell_formula_units_Z 16
_cell_length_a 12.097877
_cell_length_b 29.349746
_cell_length_c 10.246394
_cell_angle_alpha 25.510562
_cell_angle_beta 143.815443
_cell_angle_gamma 150.296280
_cell_volume 771.811420
_symmetry_space_group_name_H-M "P -1"
_symmetry_group_IT_number 2
_symmetry_cell_setting 'triclinic'
loop_
_space_group_symop_operation_xyz
x,y,z
-x,-y,-z
loop_
_atom_site_type_symbol
_atom_site_label
_atom_site_fract_x
_atom_site_fract_y
_atom_site_fract_z
Si Si1 0.375326 0.822945 0.881519
Si Si2 0.614199 0.116932 0.561146
Si Si3 0.757275 0.437376 0.486512
Si Si4 0.178172 0.343353 0.845681
Si Si5 0.736093 0.931035 0.156518
Si Si6 0.864417 0.104059 0.336365
Si Si7 0.554600 0.318816 0.337129
Si Si8 0.100354 0.626176 0.686502
O O1 0.405364 0.879712 0.621339
O O2 0.197689 0.841142 0.742185
O O3 0.286711 0.675579 0.168250
O O4 0.618009 0.895352 0.994789
O O5 0.714937 0.254057 0.363818
O O6 0.359248 0.017973 0.624039
O O7 0.773047 0.065968 0.881610
O O8 0.732654 0.536005 0.288716
O O9 0.587006 0.386184 0.333647
O O10 0.000000 0.500000 0.500000
O O11 0.102901 0.361996 0.583854
O O12 0.392075 0.335806 0.045611
O O13 0.975613 0.214338 0.049890
O O14 0.562659 0.830071 0.359428
O O15 0.966393 0.937067 0.353526
O O16 0.789076 0.379500 0.328518
O O17 0.000000 0.500000 0.000000
#
# Coordination Sequence:
#
# PCOD8002685 Si02
#       8
#     2   2   2   2   2   2   2   2
#     4  10  20  36  57  91 123 152 192 242 290 351
#     4  11  24  37  57  87 121 157 198 231 289 358
#     4  11  18  37  67  89 117 152 196 247 297 337
#     4  11  22  40  63  89 118 154 198 248 295 344
#     4   9  20  39  63  90 114 149 195 248 298 341
#     4  10  20  38  64  88 117 149 193 251 298 338
#     4  10  23  40  62  91 117 150 203 247 290 351
#     4  12  26  43  60  82 121 163 195 239 294 353
#
# _framework density 20.730454000000002
#
# number of rings (size 3 to 8) (size 9 to 14) (size 15 to 20)
#    0.000    1.500    2.500    4.125    0.000    5.500 
#    0.000    3.750    0.000    0.000    0.000    0.000 
#    0.000    0.000    0.000    0.000    0.000    0.000 
#
# Total GULP energy -198383.940578 kJ/mol
# GULP energy per Si atom -12398.996286 kJ/mol
# Density = 2.068327 g / cm^3
# Si number density = 20.730454 Si / 1000 Ang^3
#
#
#
# Elastic Constant Matrix: (Units=GPa)
#
#
# Indices 1 2 3 4 5 6 
#
# 1 43.8688 22.6237 34.5944 2.5006 4.1987 1.7168
# 2 22.6237 88.8612 59.8036 -9.9000 10.0846 2.9432
# 3 34.5944 59.8036 154.2151 1.5896 4.3784 7.9142
# 4 2.5006 -9.9000 1.5896 43.7293 1.7093 5.3889
# 5 4.1987 10.0846 4.3784 1.7093 23.9531 3.0494
# 6 1.7168 2.9432 7.9142 5.3889 3.0494 24.9290
#
#
#
# Elastic Compliance Matrix: (Units=1/GPa)
#
#
# Indices 1 2 3 4 5 6 
#
# 1 0.029117 -0.004167 -0.004866 -0.002443 -0.002394 0.000853
# 2 -0.004167 0.017294 -0.005641 0.004617 -0.005817 -0.000250
# 3 -0.004866 -0.005641 0.009832 -0.001169 0.001780 -0.002085
# 4 -0.002443 0.004617 -0.001169 0.024815 -0.002427 -0.005073
# 5 -0.002394 -0.005817 0.001780 -0.002427 0.045063 -0.004701
# 6 0.000853 -0.000250 -0.002085 -0.005073 -0.004701 0.042419
#
#
# Mechanical properties :
#
#
# Convention : Reuss Voigt Hill
#
# Bulk Modulus (GPa) = 37.18294 57.88762 47.53528
# Shear Modulus (GPa) = 24.17174 29.85050 27.01112
#
# Velocity S-wave (km/s) = 3.41838 3.79876 3.61358
# Velocity P-wave (km/s) = 5.79273 6.87207 6.35536
#
# Compressibility (1/GPa) = 0.02689406
#
# Stress axis : x y z
#
# Youngs Moduli (GPa) = 34.34464 57.82460 101.70534
#
# Poissons Ratio (x) = 0.24093 0.49495
# Poissons Ratio (y) = 0.14310 0.57375
# Poissons Ratio (z) = 0.16714 0.32621
#
# Static dielectric constant tensor:
#      x y z
#    x 3.407970 0.071820 -0.015090 
#    y 0.071820 3.788160 0.084110 
#    z -0.015090 0.084110 3.914820 
# 
# 
# High freq. dielectric constant tensor:
#      x y z
#    x 1.782900 0.006060 0.005710 
#    y 0.006060 1.811590 -0.004390 
#    z 0.005710 -0.004390 1.833290 
# 
# From -- ./inp_files/285781.got.cif
#   From: 2010.06.25/outbox.cif.g09.slc.cpg/sg2_143_cif.got.tgz:285781.got - 2010.06.27 13:26:56.
