data_PCOD8002027
_publ_section_title
;
Structure prediction by ZEFSAII (Michael W. Deem and Ramdas Pophale) SiO2 
 PCOD8002027
Probable space group: P -1
;
_chemical_formula_sum "Si O2"
_cell_formula_units_Z 16
_cell_length_a 20.935862
_cell_length_b 15.381281
_cell_length_c 10.421157
_cell_angle_alpha 51.070471
_cell_angle_beta 146.591347
_cell_angle_gamma 152.574905
_cell_volume 762.587180
_symmetry_space_group_name_H-M "P -1"
_symmetry_group_IT_number 2
_symmetry_cell_setting 'triclinic'
loop_
_space_group_symop_operation_xyz
x,y,z
-x,-y,-z
loop_
_atom_site_type_symbol
_atom_site_label
_atom_site_fract_x
_atom_site_fract_y
_atom_site_fract_z
Si Si1 0.569508 0.540728 0.286733
Si Si2 0.742518 0.590007 0.285133
Si Si3 0.827056 0.462697 0.097730
Si Si4 0.934119 0.129374 0.930637
Si Si5 0.005540 0.015972 0.343982
Si Si6 0.967533 0.601805 0.486229
Si Si7 0.300857 0.274949 0.312217
Si Si8 0.333816 0.054853 0.582916
O O1 0.692505 0.550526 0.391206
O O2 0.372085 0.321888 0.237164
O O3 0.742344 0.741588 0.490031
O O4 0.481747 0.566397 0.021563
O O5 0.832264 0.543865 0.431586
O O6 0.921536 0.830037 0.320471
O O7 0.825798 0.495083 0.216582
O O8 0.914143 0.639227 0.997219
O O9 0.988066 0.490157 0.318577
O O10 0.587614 0.234250 0.860071
O O11 0.727955 0.003181 0.618636
O O12 0.864028 0.005043 0.058013
O O13 0.071430 0.152611 0.051850
O O14 0.000000 0.000000 0.500000
O O15 0.197168 0.853069 0.621035
O O16 0.500000 0.500000 0.500000
O O17 0.278420 0.133814 0.467139
#
# Coordination Sequence:
#
# PCOD8002027 Si02
#       8
#     2   2   2   2   2   2   2   2
#     4  10  20  35  51  82 116 147 178 225 287 337
#     4  10  21  34  55  81 113 147 187 225 278 346
#     4  10  21  38  54  84 116 148 194 241 279 325
#     4  11  21  34  55  86 114 148 186 233 286 339
#     4  10  20  35  55  81 114 146 180 226 283 345
#     4  10  22  36  57  83 113 151 196 236 277 328
#     4  12  20  32  56  84 114 143 181 231 287 339
#     4  11  21  34  56  82 117 146 186 236 285 336
#
# _framework density 20.981209
#
# number of rings (size 3 to 8) (size 9 to 14) (size 15 to 20)
#    0.000    1.500    2.500    3.750    0.000    0.000 
#    0.000    0.000    0.000    6.750    0.000   19.250 
#    0.000    0.000    0.000    0.000    0.000    0.000 
#
# Total GULP energy -198308.583189 kJ/mol
# GULP energy per Si atom -12394.286449 kJ/mol
# Density = 2.093345 g / cm^3
# Si number density = 20.981209 Si / 1000 Ang^3
#
#
#
# Elastic Constant Matrix: (Units=GPa)
#
#
# Indices 1 2 3 4 5 6 
#
# 1 86.3556 29.2748 26.2962 -10.6442 11.6316 3.8181
# 2 29.2748 74.1321 12.6964 -16.7396 4.1159 0.5395
# 3 26.2962 12.6964 79.7765 4.5391 -3.3196 -4.8548
# 4 -10.6442 -16.7396 4.5391 39.4185 -9.3875 -3.6730
# 5 11.6316 4.1159 -3.3196 -9.3875 26.4293 -1.0515
# 6 3.8181 0.5395 -4.8548 -3.6730 -1.0515 33.7312
#
#
#
# Elastic Compliance Matrix: (Units=1/GPa)
#
#
# Indices 1 2 3 4 5 6 
#
# 1 0.015832 -0.004795 -0.004940 0.001004 -0.006585 -0.002522
# 2 -0.004795 0.017002 -0.001378 0.006555 0.001651 0.000838
# 3 -0.004940 -0.001378 0.014827 -0.002571 0.003439 0.002542
# 4 0.001004 0.006555 -0.002571 0.031258 0.009440 0.003109
# 5 -0.006585 0.001651 0.003439 0.009440 0.044407 0.003626
# 6 -0.002522 0.000838 0.002542 0.003109 0.003626 0.030736
#
#
# Mechanical properties :
#
#
# Convention : Reuss Voigt Hill
#
# Bulk Modulus (GPa) = 39.31910 41.86657 40.59284
# Shear Modulus (GPa) = 27.06112 31.38226 29.22169
#
# Velocity S-wave (km/s) = 3.59525 3.87166 3.73601
# Velocity P-wave (km/s) = 6.00127 6.32329 6.16438
#
# Compressibility (1/GPa) = 0.02543293
#
# Stress axis : x y z
#
# Youngs Moduli (GPa) = 63.16209 58.81794 67.44497
#
# Poissons Ratio (x) = 0.28205 0.33319
# Poissons Ratio (y) = 0.30288 0.09297
# Poissons Ratio (z) = 0.31203 0.08108
#
# Static dielectric constant tensor:
#      x y z
#    x 3.920190 0.214480 -0.099780 
#    y 0.214480 4.479900 0.314610 
#    z -0.099780 0.314610 3.864060 
# 
# 
# High freq. dielectric constant tensor:
#      x y z
#    x 1.798970 -0.005840 -0.027080 
#    y -0.005840 1.830160 0.017310 
#    z -0.027080 0.017310 1.813890 
# 
# From -- ./inp_files/471728.got.cif
#   From: 2010.06.25/outbox.cif.g09.slc.cpg/sg2_236_cif.got.tgz:471728.got - 2010.06.27 13:26:56.
