data_PCOD8002519
_publ_section_title
;
Structure prediction by ZEFSAII (Michael W. Deem and Ramdas Pophale) SiO2 
 PCOD8002519
Probable space group: P -1
;
_chemical_formula_sum "Si O2"
_cell_formula_units_Z 16
_cell_length_a 9.248316
_cell_length_b 11.786366
_cell_length_c 11.169345
_cell_angle_alpha 141.917469
_cell_angle_beta 82.529988
_cell_angle_gamma 96.252989
_cell_volume 744.534827
_symmetry_space_group_name_H-M "P -1"
_symmetry_group_IT_number 2
_symmetry_cell_setting 'triclinic'
loop_
_space_group_symop_operation_xyz
x,y,z
-x,-y,-z
loop_
_atom_site_type_symbol
_atom_site_label
_atom_site_fract_x
_atom_site_fract_y
_atom_site_fract_z
Si Si1 0.085159 0.325155 0.697593
Si Si2 0.065089 0.739593 0.751157
Si Si3 0.551880 0.441880 0.758709
Si Si4 0.837699 0.982885 0.851197
Si Si5 0.369391 0.153571 0.422848
Si Si6 0.126795 0.554711 0.362378
Si Si7 0.104501 0.726275 0.105352
Si Si8 0.581635 0.236988 0.824024
O O1 0.223258 0.200824 0.551570
O O2 0.959690 0.297029 0.586627
O O3 0.035394 0.270908 0.791347
O O4 0.121558 0.541972 0.872979
O O5 0.158856 0.617564 0.548096
O O6 0.947204 0.827229 0.748354
O O7 0.974852 0.628427 0.769849
O O8 0.178344 0.881309 0.919573
O O9 0.476290 0.332794 0.564559
O O10 0.720269 0.486175 0.751241
O O11 0.518647 0.305538 0.761431
O O12 0.480280 0.638767 0.957012
O O13 0.682949 0.895314 0.748996
O O14 0.908907 0.097302 0.830346
O O15 0.453951 0.977982 0.323799
O O16 0.245587 0.740978 0.185890
#
# Coordination Sequence:
#
# PCOD8002519 Si02
#       8
#     2   2   2   2   2   2   2   2
#     4  11  20  37  64 101 123 163 211 264 325 375
#     4  10  22  41  63  92 123 168 220 271 311 356
#     4  11  23  43  61  95 133 174 207 253 328 390
#     4  10  21  39  63  92 128 162 211 273 313 367
#     4  11  23  40  64  93 131 169 209 258 319 389
#     4  11  22  41  68  91 124 169 218 263 320 378
#     4  10  20  35  64  95 129 160 206 268 321 372
#     4  10  22  39  63  93 137 171 200 260 322 389
#
# _framework density 21.489927000000002
#
# number of rings (size 3 to 8) (size 9 to 14) (size 15 to 20)
#    0.000    1.500    5.000    0.375    0.000    3.000 
#    4.500    1.250    0.000    0.000    0.000    0.000 
#    0.000    0.000    0.000    0.000    0.000    0.000 
#
# Total GULP energy -198285.136840 kJ/mol
# GULP energy per Si atom -12392.821053 kJ/mol
# Density = 2.144102 g / cm^3
# Si number density = 21.489927 Si / 1000 Ang^3
#
#
#
# Elastic Constant Matrix: (Units=GPa)
#
#
# Indices 1 2 3 4 5 6 
#
# 1 45.9930 16.2367 20.6754 2.6776 -6.2579 -2.8502
# 2 16.2367 73.4059 18.7656 7.7270 -8.0953 -13.3609
# 3 20.6754 18.7656 111.9717 6.9952 5.1809 0.8388
# 4 2.6776 7.7270 6.9952 18.6999 -10.8971 -1.2219
# 5 -6.2579 -8.0953 5.1809 -10.8971 37.5686 -0.8992
# 6 -2.8502 -13.3609 0.8388 -1.2219 -0.8992 26.8665
#
#
#
# Elastic Compliance Matrix: (Units=1/GPa)
#
#
# Indices 1 2 3 4 5 6 
#
# 1 0.025765 -0.004096 -0.004459 0.002532 0.004785 0.001111
# 2 -0.004096 0.017193 -0.002057 -0.003827 0.002390 0.008086
# 3 -0.004459 -0.002057 0.010625 -0.005060 -0.004172 -0.002198
# 4 0.002532 -0.003827 -0.005060 0.068527 0.020227 0.002317
# 5 0.004785 0.002390 -0.004172 0.020227 0.034466 0.003900
# 6 0.001111 0.008086 -0.002198 0.002317 0.003900 0.041665
#
#
# Mechanical properties :
#
#
# Convention : Reuss Voigt Hill
#
# Bulk Modulus (GPa) = 30.90339 38.08067 34.49203
# Shear Modulus (GPa) = 21.71555 28.33986 25.02771
#
# Velocity S-wave (km/s) = 3.18228 3.63540 3.41636
# Velocity P-wave (km/s) = 5.28339 5.94813 5.62559
#
# Compressibility (1/GPa) = 0.03235891
#
# Stress axis : x y z
#
# Youngs Moduli (GPa) = 38.81185 58.16374 94.12144
#
# Poissons Ratio (x) = 0.23822 0.41969
# Poissons Ratio (y) = 0.15896 0.19362
# Poissons Ratio (z) = 0.17306 0.11965
#
# Static dielectric constant tensor:
#      x y z
#    x 3.665840 -0.227030 0.270080 
#    y -0.227030 3.681700 0.023410 
#    z 0.270080 0.023410 4.185630 
# 
# 
# High freq. dielectric constant tensor:
#      x y z
#    x 1.819520 -0.021960 0.012910 
#    y -0.021960 1.824160 0.003980 
#    z 0.012910 0.003980 1.861220 
# 
# From -- ./inp_files/391600.got.cif
#   From: 2010.06.25/outbox.cif.g09.slc.cpg/sg2_196_cif.got.tgz:391600.got - 2010.06.27 13:26:56.
