data_PCOD8002739
_publ_section_title
;
Structure prediction by ZEFSAII (Michael W. Deem and Ramdas Pophale) SiO2 
 PCOD8002739
Probable space group: P -1
;
_chemical_formula_sum "Si O2"
_cell_formula_units_Z 16
_cell_length_a 8.220754
_cell_length_b 7.974254
_cell_length_c 21.530019
_cell_angle_alpha 116.173945
_cell_angle_beta 39.554185
_cell_angle_gamma 125.933786
_cell_volume 727.562860
_symmetry_space_group_name_H-M "P -1"
_symmetry_group_IT_number 2
_symmetry_cell_setting 'triclinic'
loop_
_space_group_symop_operation_xyz
x,y,z
-x,-y,-z
loop_
_atom_site_type_symbol
_atom_site_label
_atom_site_fract_x
_atom_site_fract_y
_atom_site_fract_z
Si Si1 0.071572 0.751919 0.716023
Si Si2 0.661078 0.511498 0.636607
Si Si3 0.723725 0.238036 0.472577
Si Si4 0.248250 0.965432 0.887475
Si Si5 0.382965 0.191198 0.763780
Si Si6 0.554604 0.831455 0.879054
Si Si7 0.135886 0.744817 0.084795
Si Si8 0.104957 0.567913 0.796852
O O1 0.228641 0.705074 0.604630
O O2 0.035775 0.569933 0.745085
O O3 0.758915 0.725681 0.781401
O O4 0.255781 0.981568 0.725989
O O5 0.605110 0.379431 0.567422
O O6 0.647360 0.359122 0.674145
O O7 0.420207 0.592206 0.721453
O O8 0.967194 0.710498 0.579144
O O9 0.500000 0.000000 0.500000
O O10 0.461695 0.928914 0.864783
O O11 0.070522 0.760011 0.867740
O O12 0.440030 0.143021 0.810166
O O13 0.000000 0.000000 0.000000
O O14 0.183255 0.310050 0.849657
O O15 0.724522 0.009754 0.907319
O O16 0.284197 0.675608 0.973718
O O17 0.134535 0.633595 0.132436
#
# Coordination Sequence:
#
# PCOD8002739 Si02
#       8
#     2   2   2   2   2   2   2   2
#     4  10  21  38  62  88 125 168 206 264 317 369
#     4  10  22  42  68  95 126 165 210 261 322 383
#     4  11  22  41  71  95 122 163 210 264 330 380
#     4  11  21  37  59  89 127 169 209 254 309 370
#     4   9  18  38  60  86 128 166 204 253 315 373
#     4  10  20  36  58  86 121 167 210 248 311 366
#     4   9  19  36  57  82 121 166 203 250 299 370
#     4  10  23  40  59  92 127 162 210 257 311 378
#
# _framework density 21.991228
#
# number of rings (size 3 to 8) (size 9 to 14) (size 15 to 20)
#    0.000    2.000    2.500    0.750    1.750    2.500 
#    2.250    0.625    5.500    0.000    0.000    0.000 
#    0.000    0.000    0.000    0.000    0.000    0.000 
#
# Total GULP energy -198229.312139 kJ/mol
# GULP energy per Si atom -12389.332009 kJ/mol
# Density = 2.194117 g / cm^3
# Si number density = 21.991228 Si / 1000 Ang^3
#
#
#
# Elastic Constant Matrix: (Units=GPa)
#
#
# Indices 1 2 3 4 5 6 
#
# 1 117.3943 26.3342 42.1525 -18.8324 18.1917 -26.3086
# 2 26.3342 76.3238 45.3494 -12.7626 4.8392 -3.7217
# 3 42.1525 45.3494 132.4944 -9.9824 26.6623 -14.5035
# 4 -18.8324 -12.7626 -9.9824 29.0019 -0.6624 4.5404
# 5 18.1917 4.8392 26.6623 -0.6624 32.4599 -7.0400
# 6 -26.3086 -3.7217 -14.5035 4.5404 -7.0400 35.7092
#
#
#
# Elastic Compliance Matrix: (Units=1/GPa)
#
#
# Indices 1 2 3 4 5 6 
#
# 1 0.012526 -0.002016 -0.001298 0.005615 -0.004024 0.006984
# 2 -0.002016 0.017847 -0.005926 0.004897 0.002989 -0.002066
# 3 -0.001298 -0.005926 0.011722 0.000150 -0.007655 0.001659
# 4 0.005615 0.004897 0.000150 0.040428 -0.003414 -0.001106
# 5 -0.004024 0.002989 -0.007655 -0.003414 0.039362 0.002432
# 6 0.006984 -0.002066 0.001659 -0.001106 0.002432 0.034228
#
#
# Mechanical properties :
#
#
# Convention : Reuss Voigt Hill
#
# Bulk Modulus (GPa) = 42.34478 61.54273 51.94375
# Shear Modulus (GPa) = 27.40258 33.59263 30.49761
#
# Velocity S-wave (km/s) = 3.53380 3.91262 3.72803
# Velocity P-wave (km/s) = 5.99562 6.96113 6.49634
#
# Compressibility (1/GPa) = 0.02361566
#
# Stress axis : x y z
#
# Youngs Moduli (GPa) = 79.83402 56.03098 85.31087
#
# Poissons Ratio (x) = 0.11298 0.11070
# Poissons Ratio (y) = 0.16097 0.50553
# Poissons Ratio (z) = 0.10359 0.33203
#
# Static dielectric constant tensor:
#      x y z
#    x 3.838860 -0.081210 0.212460 
#    y -0.081210 3.875070 -0.127510 
#    z 0.212460 -0.127510 4.354270 
# 
# 
# High freq. dielectric constant tensor:
#      x y z
#    x 1.845530 0.002220 0.017560 
#    y 0.002220 1.854480 -0.002510 
#    z 0.017560 -0.002510 1.880380 
# 
# From -- ./inp_files/588024.got.cif
#   From: 2010.06.25/outbox.cif.g09.slc.cpg/sg2_295_cif.got.tgz:588024.got - 2010.06.27 13:26:56.
