data_PCOD8002571
_publ_section_title
;
Structure prediction by ZEFSAII (Michael W. Deem and Ramdas Pophale) SiO2 
 PCOD8002571
Probable space group: P -1
;
_chemical_formula_sum "Si O2"
_cell_formula_units_Z 16
_cell_length_a 11.538587
_cell_length_b 8.862180
_cell_length_c 12.297433
_cell_angle_alpha 127.068906
_cell_angle_beta 49.665295
_cell_angle_gamma 112.121310
_cell_volume 764.656600
_symmetry_space_group_name_H-M "P -1"
_symmetry_group_IT_number 2
_symmetry_cell_setting 'triclinic'
loop_
_space_group_symop_operation_xyz
x,y,z
-x,-y,-z
loop_
_atom_site_type_symbol
_atom_site_label
_atom_site_fract_x
_atom_site_fract_y
_atom_site_fract_z
Si Si1 0.188010 0.080319 0.011555
Si Si2 0.134828 0.352886 0.341275
Si Si3 0.455258 0.551115 0.670556
Si Si4 0.026365 0.255641 0.990837
Si Si5 0.150588 0.385903 0.752394
Si Si6 0.559750 0.461378 0.788321
Si Si7 0.294880 0.174506 0.369094
Si Si8 0.474760 0.811059 0.122019
O O1 0.090708 0.201126 0.211168
O O2 0.124752 0.869176 0.960284
O O3 0.365712 0.079150 0.936255
O O4 0.160369 0.174546 0.951145
O O5 0.268551 0.480924 0.271569
O O6 0.176987 0.237327 0.374899
O O7 0.000000 0.500000 0.500000
O O8 0.500000 0.500000 0.500000
O O9 0.274816 0.535011 0.786456
O O10 0.527138 0.414142 0.661146
O O11 0.535511 0.750856 0.728390
O O12 0.090105 0.253959 0.828300
O O13 0.983697 0.472284 0.146963
O O14 0.222727 0.249227 0.558076
O O15 0.528011 0.272433 0.791323
O O16 0.457269 0.641785 0.971712
O O17 0.327184 0.949515 0.255558
#
# Coordination Sequence:
#
# PCOD8002571 Si02
#       8
#     2   2   2   2   2   2   2   2
#     4  10  21  37  56  80 108 147 184 222 273 324
#     4  10  21  38  58  81 113 146 178 224 279 332
#     4   9  18  34  55  81 110 143 180 224 274 320
#     4  10  21  36  56  79 110 145 183 221 270 335
#     4  10  20  36  55  81 111 142 180 227 273 321
#     4   9  20  36  58  83 110 146 185 227 277 325
#     4  10  21  36  58  84 109 142 186 228 273 329
#     4  10  20  37  58  82 110 142 187 235 271 319
#
# _framework density 20.924426
#
# number of rings (size 3 to 8) (size 9 to 14) (size 15 to 20)
#    0.000    2.250    0.000    2.250    0.000    6.500 
#    0.000   14.375    0.000    0.000    0.000    0.000 
#    0.000    0.000    0.000    0.000    0.000    0.000 
#
# Total GULP energy -198271.661746 kJ/mol
# GULP energy per Si atom -12391.978859 kJ/mol
# Density = 2.087680 g / cm^3
# Si number density = 20.924426 Si / 1000 Ang^3
#
#
#
# Elastic Constant Matrix: (Units=GPa)
#
#
# Indices 1 2 3 4 5 6 
#
# 1 74.0734 40.4631 31.6629 5.6944 5.6538 -22.8858
# 2 40.4631 101.9590 53.7504 -5.5724 -2.2626 -32.9145
# 3 31.6629 53.7504 105.0511 6.9308 -9.0251 -28.9040
# 4 5.6944 -5.5724 6.9308 32.5301 -8.9352 -1.6612
# 5 5.6538 -2.2626 -9.0251 -8.9352 31.0106 -2.3564
# 6 -22.8858 -32.9145 -28.9040 -1.6612 -2.3564 29.5505
#
#
#
# Elastic Compliance Matrix: (Units=1/GPa)
#
#
# Indices 1 2 3 4 5 6 
#
# 1 0.020113 -0.005131 -0.001423 -0.005172 -0.005356 0.007752
# 2 -0.005131 0.019111 -0.004634 0.006949 0.004008 0.013490
# 3 -0.001423 -0.004634 0.015300 -0.002129 0.004440 0.008936
# 4 -0.005172 0.006949 -0.002129 0.036763 0.011777 0.004658
# 5 -0.005356 0.004008 0.004440 0.011777 0.038841 0.008418
# 6 0.007752 0.013490 0.008936 0.004658 0.008418 0.064543
#
#
# Mechanical properties :
#
#
# Convention : Reuss Voigt Hill
#
# Bulk Modulus (GPa) = 31.10678 59.20405 45.15541
# Shear Modulus (GPa) = 21.95285 28.96537 25.45911
#
# Velocity S-wave (km/s) = 3.24257 3.72463 3.49193
# Velocity P-wave (km/s) = 5.37750 6.84491 6.15510
#
# Compressibility (1/GPa) = 0.03214734
#
# Stress axis : x y z
#
# Youngs Moduli (GPa) = 49.72027 52.32683 65.36157
#
# Poissons Ratio (x) = 0.26847 0.09300
# Poissons Ratio (y) = 0.25510 0.30289
# Poissons Ratio (z) = 0.07075 0.24249
#
# Static dielectric constant tensor:
#      x y z
#    x 3.848950 0.014180 0.071520 
#    y 0.014180 3.850940 -0.207960 
#    z 0.071520 -0.207960 3.672840 
# 
# 
# High freq. dielectric constant tensor:
#      x y z
#    x 1.814560 -0.009930 0.003420 
#    y -0.009930 1.822300 -0.013100 
#    z 0.003420 -0.013100 1.807060 
# 
# From -- ./inp_files/257182.got.cif
#   From: 2010.06.25/outbox.cif.g09.slc.cpg/sg2_129_cif.got.tgz:257182.got - 2010.06.27 13:26:56.
