data_PCOD8002650
_publ_section_title
;
Structure prediction by ZEFSAII (Michael W. Deem and Ramdas Pophale) SiO2 
 PCOD8002650
Probable space group: P -1
;
_chemical_formula_sum "Si O2"
_cell_formula_units_Z 16
_cell_length_a 7.952253
_cell_length_b 13.978823
_cell_length_c 9.989300
_cell_angle_alpha 70.807924
_cell_angle_beta 134.980013
_cell_angle_gamma 100.247528
_cell_volume 739.349668
_symmetry_space_group_name_H-M "P -1"
_symmetry_group_IT_number 2
_symmetry_cell_setting 'triclinic'
loop_
_space_group_symop_operation_xyz
x,y,z
-x,-y,-z
loop_
_atom_site_type_symbol
_atom_site_label
_atom_site_fract_x
_atom_site_fract_y
_atom_site_fract_z
Si Si1 0.966312 0.002910 0.782333
Si Si2 0.716229 0.523460 0.418033
Si Si3 0.053413 0.359914 0.185117
Si Si4 0.816034 0.858139 0.548711
Si Si5 0.398095 0.019370 0.187763
Si Si6 0.819267 0.385154 0.315550
Si Si7 0.763507 0.433694 0.755946
Si Si8 0.776711 0.162954 0.417377
O O1 0.972322 0.925081 0.699507
O O2 0.808772 0.957513 0.829887
O O3 0.821892 0.109377 0.610676
O O4 0.244588 0.014546 0.967495
O O5 0.659137 0.476031 0.260783
O O6 0.799722 0.432433 0.615666
O O7 0.497309 0.591415 0.329714
O O8 0.917880 0.602796 0.479517
O O9 0.841702 0.387488 0.164761
O O10 0.203113 0.253226 0.347295
O O11 0.226634 0.449600 0.242771
O O12 0.946600 0.356017 0.975895
O O13 0.552957 0.912296 0.349270
O O14 0.965445 0.848652 0.501924
O O15 0.569177 0.111731 0.241703
O O16 0.705370 0.282054 0.342313
#
# Coordination Sequence:
#
# PCOD8002650 Si02
#       8
#     2   2   2   2   2   2   2   2
#     4  10  21  38  56  83 111 146 188 229 282 337
#     4   9  18  35  57  79 114 147 183 231 278 323
#     4   9  19  36  54  82 113 143 191 223 277 338
#     4  10  20  36  57  83 113 148 183 234 278 330
#     4  10  21  38  58  80 115 146 184 235 281 332
#     4   9  19  36  54  82 113 146 183 229 280 332
#     4   9  18  35  56  81 111 149 185 228 273 333
#     4  10  20  36  58  82 113 147 187 229 279 335
#
# _framework density 21.640640000000001
#
# number of rings (size 3 to 8) (size 9 to 14) (size 15 to 20)
#    0.000    2.500    0.000    3.000    0.000    4.500 
#   18.000    0.000    0.000    0.000    0.000    0.000 
#    0.000    0.000    0.000    0.000    0.000    0.000 
#
# Total GULP energy -198211.567412 kJ/mol
# GULP energy per Si atom -12388.222963 kJ/mol
# Density = 2.159138 g / cm^3
# Si number density = 21.640640 Si / 1000 Ang^3
#
#
#
# Elastic Constant Matrix: (Units=GPa)
#
#
# Indices 1 2 3 4 5 6 
#
# 1 41.3162 -0.2109 -4.6921 4.1073 6.9237 4.7275
# 2 -0.2109 71.3572 14.3476 -2.4341 7.4934 13.5838
# 3 -4.6921 14.3476 77.8355 16.7051 5.9375 1.6908
# 4 4.1073 -2.4341 16.7051 18.8159 -1.0212 -4.6056
# 5 6.9237 7.4934 5.9375 -1.0212 30.5207 4.9394
# 6 4.7275 13.5838 1.6908 -4.6056 4.9394 24.5310
#
#
#
# Elastic Compliance Matrix: (Units=1/GPa)
#
#
# Indices 1 2 3 4 5 6 
#
# 1 0.027943 0.000736 0.004890 -0.012452 -0.006737 -0.007111
# 2 0.000736 0.016540 -0.003254 0.002762 -0.002189 -0.008117
# 3 0.004890 -0.003254 0.018082 -0.018507 -0.003951 -0.003066
# 4 -0.012452 0.002762 -0.018507 0.076733 0.005825 0.015379
# 5 -0.006737 -0.002189 -0.003951 0.005825 0.036351 -0.003443
# 6 -0.007111 -0.008117 -0.003066 0.015379 -0.003443 0.050422
#
#
# Mechanical properties :
#
#
# Convention : Reuss Voigt Hill
#
# Bulk Modulus (GPa) = 14.85720 23.26646 19.06183
# Shear Modulus (GPa) = 20.51165 26.84447 23.67806
#
# Velocity S-wave (km/s) = 3.08202 3.52585 3.31138
# Velocity P-wave (km/s) = 4.42103 5.22973 4.84229
#
# Compressibility (1/GPa) = 0.06730745
#
# Stress axis : x y z
#
# Youngs Moduli (GPa) = 35.78712 60.46058 55.30315
#
# Poissons Ratio (x) = -0.04449 -0.27041
# Poissons Ratio (y) = -0.02633 0.17996
# Poissons Ratio (z) = -0.17498 0.19674
#
# Static dielectric constant tensor:
#      x y z
#    x 3.927270 0.106610 -0.248380 
#    y 0.106610 3.827090 0.154100 
#    z -0.248380 0.154100 3.872660 
# 
# 
# High freq. dielectric constant tensor:
#      x y z
#    x 1.853470 0.010300 -0.007500 
#    y 0.010300 1.831000 0.016160 
#    z -0.007500 0.016160 1.830220 
# 
# From -- ./inp_files/313019.got.cif
#   From: 2010.06.25/outbox.cif.g09.slc.cpg/sg2_157_cif.got.tgz:313019.got - 2010.06.27 13:26:56.
