data_PCOD8002488
_publ_section_title
;
Structure prediction by ZEFSAII (Michael W. Deem and Ramdas Pophale) SiO2 
 PCOD8002488
Probable space group: P -1
;
_chemical_formula_sum "Si O2"
_cell_formula_units_Z 14
_cell_length_a 11.340670
_cell_length_b 9.578974
_cell_length_c 11.718643
_cell_angle_alpha 47.993604
_cell_angle_beta 47.099662
_cell_angle_gamma 48.640905
_cell_volume 641.802747
_symmetry_space_group_name_H-M "P -1"
_symmetry_group_IT_number 2
_symmetry_cell_setting 'triclinic'
loop_
_space_group_symop_operation_xyz
x,y,z
-x,-y,-z
loop_
_atom_site_type_symbol
_atom_site_label
_atom_site_fract_x
_atom_site_fract_y
_atom_site_fract_z
Si Si1 0.746044 0.137485 0.195879
Si Si2 0.305955 0.411312 0.616520
Si Si3 0.355703 0.390971 0.324039
Si Si4 0.166639 0.119276 0.506672
Si Si5 0.083268 0.182858 0.928130
Si Si6 0.210071 0.831670 0.216682
Si Si7 0.653878 0.182203 0.627747
O O1 0.550668 0.270125 0.215676
O O2 0.742263 0.069593 0.365526
O O3 0.832807 0.930227 0.181881
O O4 0.873540 0.260903 0.027069
O O5 0.344847 0.374226 0.476931
O O6 0.131399 0.381152 0.789190
O O7 0.458114 0.242944 0.679907
O O8 0.281891 0.636488 0.547388
O O9 0.226266 0.304760 0.393432
O O10 0.306401 0.626250 0.192634
O O11 0.959045 0.197954 0.603945
O O12 0.225484 0.030653 0.390632
O O13 0.164654 0.028694 0.062179
O O14 0.334506 0.849299 0.226375
#
# Coordination Sequence:
#
# PCOD8002488 Si02
#       7
#     2   2   2   2   2   2   2
#     4  10  20  35  63  89 116 152 199 244 291 346
#     4  10  20  38  65  89 112 158 204 242 281 352
#     4  11  20  38  66  91 111 154 209 243 283 343
#     4  11  19  37  64  91 112 155 202 250 279 344
#     4  10  21  39  59  88 126 152 188 245 307 342
#     4  10  24  37  57  88 131 152 186 246 304 349
#     4  10  21  37  63  88 118 154 205 238 284 355
#
# _framework density 21.813555000000001
#
# number of rings (size 3 to 8) (size 9 to 14) (size 15 to 20)
#    0.000    1.714    2.857    2.143    0.000    1.143 
#    0.000    2.857    6.286    0.000    0.000    0.000 
#    0.000    0.000    0.000    0.000    0.000    0.000 
#
# Total GULP energy -173601.001336 kJ/mol
# GULP energy per Si atom -12400.071524 kJ/mol
# Density = 2.176391 g / cm^3
# Si number density = 21.813555 Si / 1000 Ang^3
#
#
#
# Elastic Constant Matrix: (Units=GPa)
#
#
# Indices 1 2 3 4 5 6 
#
# 1 65.0969 3.4227 13.6560 0.0946 -7.3155 12.0868
# 2 3.4227 61.1688 -1.4932 7.0559 -2.0982 15.5956
# 3 13.6560 -1.4932 59.9647 -0.6834 -13.2362 10.3272
# 4 0.0946 7.0559 -0.6834 16.9437 0.2820 -3.1121
# 5 -7.3155 -2.0982 -13.2362 0.2820 26.3145 -0.7836
# 6 12.0868 15.5956 10.3272 -3.1121 -0.7836 37.8509
#
#
#
# Elastic Compliance Matrix: (Units=1/GPa)
#
#
# Indices 1 2 3 4 5 6 
#
# 1 0.017159 0.000587 -0.002237 -0.001437 0.003554 -0.005155
# 2 0.000587 0.020206 0.002617 -0.010198 0.002902 -0.010005
# 3 -0.002237 0.002617 0.020377 -0.001490 0.009678 -0.005846
# 4 -0.001437 -0.010198 -0.001490 0.065159 -0.002351 0.010376
# 5 0.003554 0.002902 0.009678 -0.002351 0.043988 -0.004254
# 6 -0.005155 -0.010005 -0.005846 0.010376 -0.004254 0.034548
#
#
# Mechanical properties :
#
#
# Convention : Reuss Voigt Hill
#
# Bulk Modulus (GPa) = 16.75704 24.15571 20.45637
# Shear Modulus (GPa) = 22.78993 27.59813 25.19403
#
# Velocity S-wave (km/s) = 3.23578 3.56080 3.40217
# Velocity P-wave (km/s) = 4.65392 5.29183 4.98309
#
# Compressibility (1/GPa) = 0.05967641
#
# Stress axis : x y z
#
# Youngs Moduli (GPa) = 58.27915 49.48987 49.07441
#
# Poissons Ratio (x) = -0.02907 0.10978
# Poissons Ratio (y) = -0.03423 -0.12842
# Poissons Ratio (z) = 0.13038 -0.12951
#
# Static dielectric constant tensor:
#      x y z
#    x 4.151390 0.045850 -0.118020 
#    y 0.045850 3.717230 0.010130 
#    z -0.118020 0.010130 3.707970 
# 
# 
# High freq. dielectric constant tensor:
#      x y z
#    x 1.870930 0.000670 -0.004600 
#    y 0.000670 1.842620 0.000130 
#    z -0.004600 0.000130 1.837580 
# 
# From -- ./inp_files/149185.got.cif
#   From: 2010.06.25/outbox.cif.g09.slc.cpg/sg2_75_cif.got.tgz:149185.got - 2010.06.27 13:26:56.
