data_PCOD8002591
_publ_section_title
;
Structure prediction by ZEFSAII (Michael W. Deem and Ramdas Pophale) SiO2 
 PCOD8002591
Probable space group: P -1
;
_chemical_formula_sum "Si O2"
_cell_formula_units_Z 16
_cell_length_a 9.298027
_cell_length_b 14.789568
_cell_length_c 14.700820
_cell_angle_alpha 47.279319
_cell_angle_beta 33.608834
_cell_angle_gamma 49.114763
_cell_volume 801.907649
_symmetry_space_group_name_H-M "P -1"
_symmetry_group_IT_number 2
_symmetry_cell_setting 'triclinic'
loop_
_space_group_symop_operation_xyz
x,y,z
-x,-y,-z
loop_
_atom_site_type_symbol
_atom_site_label
_atom_site_fract_x
_atom_site_fract_y
_atom_site_fract_z
Si Si1 0.053024 0.028767 0.053634
Si Si2 0.687414 0.623983 0.646487
Si Si3 0.610125 0.074455 0.709530
Si Si4 0.124230 0.923176 0.607963
Si Si5 0.404843 0.334752 0.717370
Si Si6 0.119171 0.734700 0.903481
Si Si7 0.776899 0.901259 0.425748
Si Si8 0.242543 0.484450 0.516822
O O1 0.895409 0.168732 0.070500
O O2 0.363177 0.018443 0.906603
O O3 0.975847 0.920097 0.228373
O O4 0.000000 0.000000 0.000000
O O5 0.393734 0.627660 0.841162
O O6 0.739670 0.762334 0.531546
O O7 0.673857 0.582670 0.577306
O O8 0.922370 0.538228 0.641175
O O9 0.626279 0.114958 0.567031
O O10 0.598068 0.198256 0.693226
O O11 0.845993 0.951180 0.682568
O O12 0.135840 0.810748 0.749530
O O13 0.108356 0.062265 0.564401
O O14 0.302256 0.391064 0.634427
O O15 0.581714 0.411063 0.630503
O O16 0.138312 0.327628 0.919651
O O17 0.500000 0.000000 0.500000
#
# Coordination Sequence:
#
# PCOD8002591 Si02
#       8
#     2   2   2   2   2   2   2   2
#     4  10  21  33  54  90 117 156 186 232 296 361
#     4  11  22  40  61  91 116 159 199 251 290 358
#     4  10  21  35  60  83 125 150 197 237 293 365
#     4  10  20  36  55  94 117 158 184 238 306 362
#     4  10  22  42  60  85 112 166 198 255 288 349
#     4  10  22  36  64  83 123 151 195 248 298 354
#     4  11  20  34  60  85 118 151 183 237 300 356
#     4  10  24  41  63  82 118 159 211 243 296 339
#
# _framework density 19.952423
#
# number of rings (size 3 to 8) (size 9 to 14) (size 15 to 20)
#    0.000    1.750    2.500    2.250    3.500    6.500 
#    0.000    0.000    0.000    0.000    0.000    0.000 
#    0.000    0.000    0.000    0.000    0.000    0.000 
#
# Total GULP energy -198251.457251 kJ/mol
# GULP energy per Si atom -12390.716078 kJ/mol
# Density = 1.990701 g / cm^3
# Si number density = 19.952423 Si / 1000 Ang^3
#
#
#
# Elastic Constant Matrix: (Units=GPa)
#
#
# Indices 1 2 3 4 5 6 
#
# 1 76.3886 12.1529 21.2593 10.4321 -2.4404 5.0994
# 2 12.1529 51.1316 22.3671 16.2854 -7.2345 -2.8274
# 3 21.2593 22.3671 119.2376 19.0641 -2.0453 1.9743
# 4 10.4321 16.2854 19.0641 34.8945 3.5852 -5.9350
# 5 -2.4404 -7.2345 -2.0453 3.5852 20.3758 4.9040
# 6 5.0994 -2.8274 1.9743 -5.9350 4.9040 31.3989
#
#
#
# Elastic Compliance Matrix: (Units=1/GPa)
#
#
# Indices 1 2 3 4 5 6 
#
# 1 0.014589 -0.001411 -0.001650 -0.003657 0.002563 -0.003484
# 2 -0.001411 0.026316 -0.002581 -0.011821 0.011293 -0.001237
# 3 -0.001650 -0.002581 0.009851 -0.004035 0.000945 -0.001494
# 4 -0.003657 -0.011821 -0.004035 0.040621 -0.014529 0.009731
# 5 0.002563 0.011293 0.000945 -0.014529 0.058786 -0.011386
# 6 -0.003484 -0.001237 -0.001494 0.009731 -0.011386 0.036014
#
#
# Mechanical properties :
#
#
# Convention : Reuss Voigt Hill
#
# Bulk Modulus (GPa) = 25.33411 39.81292 32.57351
# Shear Modulus (GPa) = 23.73976 30.06575 26.90276
#
# Velocity S-wave (km/s) = 3.45312 3.88606 3.67597
# Velocity P-wave (km/s) = 5.35009 6.33502 5.86328
#
# Compressibility (1/GPa) = 0.03947247
#
# Stress axis : x y z
#
# Youngs Moduli (GPa) = 68.54692 37.99974 101.51204
#
# Poissons Ratio (x) = 0.05361 0.16749
# Poissons Ratio (y) = 0.09670 0.26198
# Poissons Ratio (z) = 0.11310 0.09807
#
# Static dielectric constant tensor:
#      x y z
#    x 3.723460 -0.106160 -0.089960 
#    y -0.106160 3.334590 0.275710 
#    z -0.089960 0.275710 3.925080 
# 
# 
# High freq. dielectric constant tensor:
#      x y z
#    x 1.780730 0.007730 -0.008560 
#    y 0.007730 1.770280 0.015210 
#    z -0.008560 0.015210 1.789150 
# 
# From -- ./inp_files/179961.got.cif
#   From: 2010.06.25/outbox.cif.g09.slc.cpg/sg2_90_cif.got.tgz:179961.got - 2010.06.27 13:26:56.
