data_PCOD8002985
_publ_section_title
;
Structure prediction by ZEFSAII (Michael W. Deem and Ramdas Pophale) SiO2 
 PCOD8002985
Probable space group: P -1
;
_chemical_formula_sum "Si O2"
_cell_formula_units_Z 14
_cell_length_a 11.607572
_cell_length_b 19.532987
_cell_length_c 9.203296
_cell_angle_alpha 136.844003
_cell_angle_beta 65.252183
_cell_angle_gamma 147.704428
_cell_volume 640.912999
_symmetry_space_group_name_H-M "P -1"
_symmetry_group_IT_number 2
_symmetry_cell_setting 'triclinic'
loop_
_space_group_symop_operation_xyz
x,y,z
-x,-y,-z
loop_
_atom_site_type_symbol
_atom_site_label
_atom_site_fract_x
_atom_site_fract_y
_atom_site_fract_z
Si Si1 0.062306 0.907479 0.527864
Si Si2 0.349461 0.292606 0.937169
Si Si3 0.712398 0.576428 0.430233
Si Si4 0.980314 0.386037 0.527563
Si Si5 0.499518 0.066334 0.462535
Si Si6 0.167182 0.723088 0.876510
Si Si7 0.258001 0.423269 0.056752
O O1 0.944838 0.800396 0.582271
O O2 0.876681 0.737447 0.241984
O O3 0.096741 0.051296 0.720594
O O4 0.348428 0.061832 0.583319
O O5 0.280220 0.364565 0.094535
O O6 0.561630 0.410994 0.129965
O O7 0.466858 0.355170 0.810194
O O8 0.500000 0.500000 0.500000
O O9 0.842651 0.587871 0.489747
O O10 0.171625 0.609433 0.740694
O O11 0.794518 0.289692 0.609924
O O12 0.797223 0.238667 0.256324
O O13 0.500000 0.000000 0.500000
O O14 0.374911 0.925099 0.171731
O O15 0.884730 0.573041 0.825115
#
# Coordination Sequence:
#
# PCOD8002985 Si02
#       7
#     2   2   2   2   2   2   2
#     4  10  21  38  59  91 115 156 203 246 303 352
#     4  10  20  36  61  86 119 159 200 245 298 355
#     4  11  24  39  57  86 122 157 201 248 297 359
#     4  11  23  41  62  89 124 162 201 245 304 362
#     4  11  22  39  63  91 121 154 200 255 296 354
#     4  10  23  40  62  89 121 162 201 248 306 355
#     4   9  19  38  59  88 121 154 199 249 294 357
#
# _framework density 21.843838000000002
#
# number of rings (size 3 to 8) (size 9 to 14) (size 15 to 20)
#    0.000    1.714    1.429    2.571    2.000    1.143 
#    0.000    7.143    0.000    0.000    0.000    0.000 
#    0.000    0.000    0.000    0.000    0.000    0.000 
#
# Total GULP energy -173525.488897 kJ/mol
# GULP energy per Si atom -12394.677778 kJ/mol
# Density = 2.179412 g / cm^3
# Si number density = 21.843838 Si / 1000 Ang^3
#
#
#
# Elastic Constant Matrix: (Units=GPa)
#
#
# Indices 1 2 3 4 5 6 
#
# 1 124.5134 59.4623 14.7809 5.3112 -4.2584 -9.8314
# 2 59.4623 123.5677 21.7631 6.2611 -11.4767 0.4907
# 3 14.7809 21.7631 49.0319 2.4555 -10.1864 -14.4397
# 4 5.3112 6.2611 2.4555 24.2845 -4.4153 -2.1086
# 5 -4.2584 -11.4767 -10.1864 -4.4153 26.8922 0.8325
# 6 -9.8314 0.4907 -14.4397 -2.1086 0.8325 45.0079
#
#
#
# Elastic Compliance Matrix: (Units=1/GPa)
#
#
# Indices 1 2 3 4 5 6 
#
# 1 0.010715 -0.005122 -0.000435 -0.000945 -0.000878 0.002229
# 2 -0.005122 0.011525 -0.003724 -0.001228 0.002574 -0.002545
# 3 -0.000435 -0.003724 0.026269 0.000595 0.008134 0.008251
# 4 -0.000945 -0.001228 0.000595 0.042997 0.006553 0.001891
# 5 -0.000878 0.002574 0.008134 0.006553 0.042242 0.001915
# 6 0.002229 -0.002545 0.008251 0.001891 0.001915 0.025433
#
#
# Mechanical properties :
#
#
# Convention : Reuss Voigt Hill
#
# Bulk Modulus (GPa) = 33.39434 54.34729 43.87081
# Shear Modulus (GPa) = 26.63427 32.64405 29.63916
#
# Velocity S-wave (km/s) = 3.49564 3.86998 3.68756
# Velocity P-wave (km/s) = 5.62260 6.70096 6.18533
#
# Compressibility (1/GPa) = 0.02994520
#
# Stress axis : x y z
#
# Youngs Moduli (GPa) = 93.32395 86.76856 38.06745
#
# Poissons Ratio (x) = 0.44445 0.01658
# Poissons Ratio (y) = 0.47803 0.14178
# Poissons Ratio (z) = 0.04064 0.32317
#
# Static dielectric constant tensor:
#      x y z
#    x 6.230920 1.689330 -0.280190 
#    y 1.689330 5.477550 -0.395810 
#    z -0.280190 -0.395810 3.667260 
# 
# 
# High freq. dielectric constant tensor:
#      x y z
#    x 1.868380 -0.007450 0.005300 
#    y -0.007450 1.862200 0.000260 
#    z 0.005300 0.000260 1.835030 
# 
# From -- ./inp_files/47384.got.cif
#   From: 2010.06.25/outbox.cif.g09.slc.cpg/sg2_24_cif.got.tgz:47384.got - 2010.06.27 13:26:56.
