data_PCOD8002960
_publ_section_title
;
Structure prediction by ZEFSAII (Michael W. Deem and Ramdas Pophale) SiO2 
 PCOD8002960
Probable space group: P -1
;
_chemical_formula_sum "Si O2"
_cell_formula_units_Z 16
_cell_length_a 14.833213
_cell_length_b 10.380124
_cell_length_c 9.035228
_cell_angle_alpha 66.582166
_cell_angle_beta 51.611569
_cell_angle_gamma 103.021250
_cell_volume 754.872584
_symmetry_space_group_name_H-M "P -1"
_symmetry_group_IT_number 2
_symmetry_cell_setting 'triclinic'
loop_
_space_group_symop_operation_xyz
x,y,z
-x,-y,-z
loop_
_atom_site_type_symbol
_atom_site_label
_atom_site_fract_x
_atom_site_fract_y
_atom_site_fract_z
Si Si1 0.854841 0.668458 0.050208
Si Si2 0.993937 0.834739 0.123949
Si Si3 0.560584 0.252301 0.488486
Si Si4 0.237319 0.086316 0.971065
Si Si5 0.748001 0.715974 0.642105
Si Si6 0.573092 0.994914 0.780064
Si Si7 0.519516 0.321180 0.175510
Si Si8 0.864758 0.069572 0.535213
O O1 0.959807 0.716219 0.066223
O O2 0.716414 0.450616 0.286016
O O3 0.785198 0.766736 0.091890
O O4 0.964097 0.740387 0.762847
O O5 0.857553 0.704829 0.439494
O O6 0.000000 0.000000 0.000000
O O7 0.158002 0.933287 0.987857
O O8 0.417630 0.205431 0.742090
O O9 0.572307 0.101204 0.595417
O O10 0.533366 0.242205 0.346083
O O11 0.153391 0.962593 0.258037
O O12 0.635559 0.711847 0.649370
O O13 0.845476 0.902988 0.553319
O O14 0.657931 0.541714 0.924578
O O15 0.746589 0.090621 0.588564
O O16 0.479119 0.781898 0.920517
O O17 0.500000 0.000000 0.000000
#
# Coordination Sequence:
#
# PCOD8002960 Si02
#       8
#     2   2   2   2   2   2   2   2
#     4  11  24  38  66 101 132 164 209 273 330 377
#     4  10  20  36  60  95 134 164 199 256 338 385
#     4  12  25  42  66  95 131 173 224 258 315 391
#     4  11  22  38  67  97 135 163 213 265 330 384
#     4  10  20  38  67  99 131 164 206 275 337 373
#     4  11  25  46  63  89 131 183 217 262 318 382
#     4  10  23  39  68  96 128 165 224 265 320 383
#     4  11  22  41  67  93 132 169 212 266 323 387
#
# _framework density 21.195627999999999
#
# number of rings (size 3 to 8) (size 9 to 14) (size 15 to 20)
#    0.000    1.250    3.750    3.375    5.250    1.500 
#    0.000    0.000    0.000    2.250    0.000    0.000 
#    0.000    0.000    0.000    0.000    0.000    0.000 
#
# Total GULP energy -198399.741504 kJ/mol
# GULP energy per Si atom -12399.983844 kJ/mol
# Density = 2.114739 g / cm^3
# Si number density = 21.195628 Si / 1000 Ang^3
#
#
#
# Elastic Constant Matrix: (Units=GPa)
#
#
# Indices 1 2 3 4 5 6 
#
# 1 71.6563 21.6709 21.1213 -16.1425 9.6733 1.7363
# 2 21.6709 59.8226 32.8885 -0.8723 -7.3462 2.8258
# 3 21.1213 32.8885 116.9899 -8.3569 -10.4935 10.5500
# 4 -16.1425 -0.8723 -8.3569 26.8692 6.2191 0.4451
# 5 9.6733 -7.3462 -10.4935 6.2191 39.4187 -0.6044
# 6 1.7363 2.8258 10.5500 0.4451 -0.6044 33.3596
#
#
#
# Elastic Compliance Matrix: (Units=1/GPa)
#
#
# Indices 1 2 3 4 5 6 
#
# 1 0.021195 -0.007815 -0.001416 0.014193 -0.009279 -0.000351
# 2 -0.007815 0.022922 -0.005014 -0.006891 0.005946 0.000251
# 3 -0.001416 -0.005014 0.010787 0.001942 0.001934 -0.002904
# 4 0.014193 -0.006891 0.001942 0.048928 -0.011995 -0.001639
# 5 -0.009279 0.005946 0.001934 -0.011995 0.031163 0.000092
# 6 -0.000351 0.000251 -0.002904 -0.001639 0.000092 0.030915
#
#
# Mechanical properties :
#
#
# Convention : Reuss Voigt Hill
#
# Bulk Modulus (GPa) = 37.86169 44.42557 41.14363
# Shear Modulus (GPa) = 24.60559 31.44871 28.02715
#
# Velocity S-wave (km/s) = 3.41087 3.85611 3.64030
# Velocity P-wave (km/s) = 5.78046 6.38994 6.09283
#
# Compressibility (1/GPa) = 0.02641193
#
# Stress axis : x y z
#
# Youngs Moduli (GPa) = 47.18072 43.62661 92.70294
#
# Poissons Ratio (x) = 0.34096 0.13130
# Poissons Ratio (y) = 0.36873 0.46485
# Poissons Ratio (z) = 0.06682 0.21876
#
# Static dielectric constant tensor:
#      x y z
#    x 4.268850 2.234840 2.630230 
#    y 2.234840 34.173360 41.461470 
#    z 2.630230 41.461470 60.185360 
# 
# 
# High freq. dielectric constant tensor:
#      x y z
#    x 1.839670 0.019230 -0.000290 
#    y 0.019230 1.798480 0.001290 
#    z -0.000290 0.001290 1.842760 
# 
# From -- ./inp_files/272820.got.cif
#   From: 2010.06.25/outbox.cif.g09.slc.cpg/sg2_137_cif.got.tgz:272820.got - 2010.06.27 13:26:56.
