data_PCOD8002892
_publ_section_title
;
Structure prediction by ZEFSAII (Michael W. Deem and Ramdas Pophale) SiO2 
 PCOD8002892
Probable space group: P -1
;
_chemical_formula_sum "Si O2"
_cell_formula_units_Z 16
_cell_length_a 9.491382
_cell_length_b 9.154084
_cell_length_c 14.991535
_cell_angle_alpha 80.575442
_cell_angle_beta 69.800595
_cell_angle_gamma 131.638771
_cell_volume 756.546489
_symmetry_space_group_name_H-M "P -1"
_symmetry_group_IT_number 2
_symmetry_cell_setting 'triclinic'
loop_
_space_group_symop_operation_xyz
x,y,z
-x,-y,-z
loop_
_atom_site_type_symbol
_atom_site_label
_atom_site_fract_x
_atom_site_fract_y
_atom_site_fract_z
Si Si1 0.039071 0.574648 0.247644
Si Si2 0.202812 0.321688 0.679425
Si Si3 0.926080 0.272273 0.454873
Si Si4 0.019930 0.389520 0.934536
Si Si5 0.446478 0.132903 0.861625
Si Si6 0.604528 0.239634 0.626423
Si Si7 0.219287 0.248227 0.882432
Si Si8 0.324473 0.177746 0.536121
O O1 0.315596 0.746997 0.158071
O O2 0.999359 0.707420 0.285095
O O3 0.905720 0.355344 0.361334
O O4 0.924645 0.486451 0.183149
O O5 0.175649 0.215227 0.789008
O O6 0.167140 0.183338 0.618056
O O7 0.469884 0.595009 0.593095
O O8 0.738947 0.191060 0.576231
O O9 0.193746 0.483224 0.416316
O O10 0.853706 0.050914 0.465555
O O11 0.231133 0.427612 0.899537
O O12 0.000000 0.500000 0.000000
O O13 0.772006 0.108310 0.013246
O O14 0.437150 0.078965 0.764497
O O15 0.443362 0.312270 0.850448
O O16 0.447075 0.173326 0.586038
O O17 0.000000 0.000000 0.000000
#
# Coordination Sequence:
#
# PCOD8002892 Si02
#       8
#     2   2   2   2   2   2   2   2
#     4  10  21  38  60  81 120 147 197 242 294 345
#     4  10  21  36  57  90 114 153 197 242 292 348
#     4  10  22  36  59  91 114 161 197 243 287 360
#     4  10  22  36  58  89 112 144 195 243 285 354
#     4  10  20  38  60  79 111 159 185 237 297 342
#     4  10  20  36  60  84 120 150 205 234 290 354
#     4   9  19  37  59  81 111 151 192 229 290 352
#     4  11  21  37  62  81 123 160 195 239 301 346
#
# _framework density 21.148734000000001
#
# number of rings (size 3 to 8) (size 9 to 14) (size 15 to 20)
#    0.000    2.000    2.500    0.750    1.750    1.000 
#    0.000    5.625    0.000    0.000    0.000    0.000 
#    0.000    0.000    0.000    0.000    0.000    0.000 
#
# Total GULP energy -198299.387292 kJ/mol
# GULP energy per Si atom -12393.711706 kJ/mol
# Density = 2.110060 g / cm^3
# Si number density = 21.148734 Si / 1000 Ang^3
#
#
#
# Elastic Constant Matrix: (Units=GPa)
#
#
# Indices 1 2 3 4 5 6 
#
# 1 109.1395 27.9594 13.3196 9.3604 -26.0364 -23.5556
# 2 27.9594 109.4748 3.5764 16.0299 -13.3888 -21.2801
# 3 13.3196 3.5764 79.7143 12.2498 2.0705 -6.9325
# 4 9.3604 16.0299 12.2498 24.8721 -8.7548 -7.1445
# 5 -26.0364 -13.3888 2.0705 -8.7548 35.3567 7.8877
# 6 -23.5556 -21.2801 -6.9325 -7.1445 7.8877 25.8953
#
#
#
# Elastic Compliance Matrix: (Units=1/GPa)
#
#
# Indices 1 2 3 4 5 6 
#
# 1 0.013311 -0.000895 -0.001910 0.001910 0.008055 0.008935
# 2 -0.000895 0.011621 0.001064 -0.005314 0.000728 0.007333
# 3 -0.001910 0.001064 0.014327 -0.007927 -0.004271 0.002086
# 4 0.001910 -0.005314 -0.007927 0.052666 0.011499 0.006276
# 5 0.008055 0.000728 -0.004271 0.011499 0.037945 -0.001604
# 6 0.008935 0.007333 0.002086 0.006276 -0.001604 0.055549
#
#
# Mechanical properties :
#
#
# Convention : Reuss Voigt Hill
#
# Bulk Modulus (GPa) = 27.95115 43.11549 35.53332
# Shear Modulus (GPa) = 24.89707 34.12305 29.51006
#
# Velocity S-wave (km/s) = 3.43481 4.02117 3.73950
# Velocity P-wave (km/s) = 5.38291 6.48003 5.95678
#
# Compressibility (1/GPa) = 0.03577670
#
# Stress axis : x y z
#
# Youngs Moduli (GPa) = 75.12515 86.05284 69.80004
#
# Poissons Ratio (x) = 0.07701 0.13329
# Poissons Ratio (y) = 0.06723 -0.07424
# Poissons Ratio (z) = 0.14346 -0.09152
#
# Static dielectric constant tensor:
#      x y z
#    x 4.172580 -0.410240 -0.152690 
#    y -0.410240 3.449330 0.225850 
#    z -0.152690 0.225850 4.181780 
# 
# 
# High freq. dielectric constant tensor:
#      x y z
#    x 1.835880 -0.024540 -0.003970 
#    y -0.024540 1.780020 0.016890 
#    z -0.003970 0.016890 1.851640 
# 
# From -- ./inp_files/218548.got.cif
#   From: 2010.06.25/outbox.cif.g09.slc.cpg/sg2_110_cif.got.tgz:218548.got - 2010.06.27 13:26:56.
