data_PCOD8002145
_publ_section_title
;
Structure prediction by ZEFSAII (Michael W. Deem and Ramdas Pophale) SiO2 
 PCOD8002145
Probable space group: P -1
;
_chemical_formula_sum "Si O2"
_cell_formula_units_Z 14
_cell_length_a 15.537986
_cell_length_b 9.295419
_cell_length_c 14.553571
_cell_angle_alpha 86.652743
_cell_angle_beta 27.398114
_cell_angle_gamma 67.676239
_cell_volume 676.080486
_symmetry_space_group_name_H-M "P -1"
_symmetry_group_IT_number 2
_symmetry_cell_setting 'triclinic'
loop_
_space_group_symop_operation_xyz
x,y,z
-x,-y,-z
loop_
_atom_site_type_symbol
_atom_site_label
_atom_site_fract_x
_atom_site_fract_y
_atom_site_fract_z
Si Si1 0.691268 0.262623 0.824082
Si Si2 0.251717 0.271470 0.244321
Si Si3 0.258481 0.784300 0.807133
Si Si4 0.136826 0.912178 0.523254
Si Si5 0.474762 0.066066 0.865372
Si Si6 0.828826 0.452485 0.189926
Si Si7 0.134299 0.077485 0.056381
O O1 0.844549 0.192486 0.583921
O O2 0.500000 0.500000 0.000000
O O3 0.527878 0.205640 0.986519
O O4 0.887757 0.156882 0.729926
O O5 0.000000 0.500000 0.500000
O O6 0.279830 0.134922 0.300622
O O7 0.225492 0.226182 0.166296
O O8 0.538856 0.664368 0.493787
O O9 0.216533 0.632291 0.851138
O O10 0.000000 0.000000 0.000000
O O11 0.260947 0.860756 0.901239
O O12 0.409978 0.848305 0.287957
O O13 0.087202 0.841437 0.661445
O O14 0.385721 0.017583 0.866782
O O15 0.989867 0.268714 0.118199
O O16 0.000000 0.500000 0.000000
#
# Coordination Sequence:
#
# PCOD8002145 Si02
#       7
#     2   2   2   2   2   2   2
#     4  10  20  35  58  80 116 169 210 255 309 357
#     4  10  20  35  56  82 119 163 215 256 302 357
#     4   9  22  43  67  96 126 164 203 260 324 390
#     4  10  22  38  55  86 122 159 208 258 306 361
#     4  10  22  37  55  86 120 161 207 258 306 355
#     4  10  23  44  70  97 128 164 207 259 326 395
#     4  11  23  39  64  94 129 165 208 266 315 382
#
# _framework density 20.707591000000001
#
# number of rings (size 3 to 8) (size 9 to 14) (size 15 to 20)
#    0.000    2.000    1.429    0.857    4.000    9.143 
#    0.000    1.429    0.000    0.000    0.000    0.000 
#    0.000    0.000    0.000    0.000    0.000    0.000 
#
# Total GULP energy -173451.436067 kJ/mol
# GULP energy per Si atom -12389.388291 kJ/mol
# Density = 2.066046 g / cm^3
# Si number density = 20.707591 Si / 1000 Ang^3
#
#
#
# Elastic Constant Matrix: (Units=GPa)
#
#
# Indices 1 2 3 4 5 6 
#
# 1 111.2434 42.2704 35.5040 -2.6994 8.4074 16.1352
# 2 42.2704 108.3228 53.1325 -7.7964 9.8856 1.8168
# 3 35.5040 53.1325 119.5057 6.7835 4.7457 0.7572
# 4 -2.6994 -7.7964 6.7835 49.1110 3.6025 0.5765
# 5 8.4074 9.8856 4.7457 3.6025 23.5663 -2.4655
# 6 16.1352 1.8168 0.7572 0.5765 -2.4655 30.2029
#
#
#
# Elastic Compliance Matrix: (Units=1/GPa)
#
#
# Indices 1 2 3 4 5 6 
#
# 1 0.012082 -0.003264 -0.002007 0.000744 -0.003330 -0.006494
# 2 -0.003264 0.013547 -0.005071 0.002948 -0.003876 0.000683
# 3 -0.002007 -0.005071 0.011314 -0.002572 0.001087 0.001231
# 4 0.000744 0.002948 -0.002572 0.021565 -0.004415 -0.001282
# 5 -0.003330 -0.003876 0.001087 -0.004415 0.046316 0.005850
# 6 -0.006494 0.000683 0.001231 -0.001282 0.005850 0.037008
#
#
# Mechanical properties :
#
#
# Convention : Reuss Voigt Hill
#
# Bulk Modulus (GPa) = 61.50629 66.76510 64.13569
# Shear Modulus (GPa) = 29.77334 34.45370 32.11352
#
# Velocity S-wave (km/s) = 3.79594 4.08342 3.94230
# Velocity P-wave (km/s) = 6.99850 7.38541 7.19456
#
# Compressibility (1/GPa) = 0.01625850
#
# Stress axis : x y z
#
# Youngs Moduli (GPa) = 82.77036 73.81599 88.38758
#
# Poissons Ratio (x) = 0.24092 0.17740
# Poissons Ratio (y) = 0.27014 0.44823
# Poissons Ratio (z) = 0.16613 0.37434
#
# Static dielectric constant tensor:
#      x y z
#    x 3.901420 0.376900 -0.014440 
#    y 0.376900 3.907450 -0.127670 
#    z -0.014440 -0.127670 4.076510 
# 
# 
# High freq. dielectric constant tensor:
#      x y z
#    x 1.800530 0.019440 -0.006330 
#    y 0.019440 1.809500 -0.001640 
#    z -0.006330 -0.001640 1.815780 
# 
# From -- ./inp_files/505842.got.cif
#   From: 2010.06.25/outbox.cif.g09.slc.cpg/sg2_253_cif.got.tgz:505842.got - 2010.06.27 13:26:56.
