data_PCOD8002926
_publ_section_title
;
Structure prediction by ZEFSAII (Michael W. Deem and Ramdas Pophale) SiO2 
 PCOD8002926
Probable space group: P -1
;
_chemical_formula_sum "Si O2"
_cell_formula_units_Z 12
_cell_length_a 5.219699
_cell_length_b 9.207668
_cell_length_c 15.565216
_cell_angle_alpha 111.444616
_cell_angle_beta 128.568262
_cell_angle_gamma 71.228378
_cell_volume 539.862027
_symmetry_space_group_name_H-M "P -1"
_symmetry_group_IT_number 2
_symmetry_cell_setting 'triclinic'
loop_
_space_group_symop_operation_xyz
x,y,z
-x,-y,-z
loop_
_atom_site_type_symbol
_atom_site_label
_atom_site_fract_x
_atom_site_fract_y
_atom_site_fract_z
Si Si1 0.604675 0.513268 0.619801
Si Si2 0.507347 0.711015 0.319883
Si Si3 0.296397 0.058689 0.315074
Si Si4 0.046716 0.712004 0.831545
Si Si5 0.085333 0.785244 0.568087
Si Si6 0.716487 0.568752 0.891951
O O1 0.500000 0.500000 0.500000
O O2 0.658724 0.343971 0.639371
O O3 0.302573 0.633762 0.624901
O O4 0.939770 0.591238 0.711453
O O5 0.466425 0.574185 0.213176
O O6 0.881374 0.733129 0.431064
O O7 0.304209 0.871215 0.278279
O O8 0.668372 0.098859 0.392520
O O9 0.080096 0.115451 0.197014
O O10 0.148365 0.129716 0.389087
O O11 0.444366 0.683998 0.914097
O O12 0.872623 0.674752 0.876359
O O13 0.000000 0.500000 0.000000
#
# Coordination Sequence:
#
# PCOD8002926 Si02
#       6
#     2   2   2   2   2   2
#     4  10  20  36  60  89 120 160 198 234 284 352
#     4  11  22  37  60  89 119 158 201 240 284 348
#     4  11  23  38  59  91 125 156 186 233 298 360
#     4  10  21  40  60  84 119 152 188 244 299 345
#     4  11  22  38  57  88 129 161 187 230 290 356
#     4  11  24  43  64  85 111 153 205 251 289 337
#
# _framework density 22.227902
#
# number of rings (size 3 to 8) (size 9 to 14) (size 15 to 20)
#    0.000    1.333    0.000    8.000    0.000    5.333 
#    0.000    1.667    0.000    0.000    0.000    0.000 
#    0.000    0.000    0.000    0.000    0.000    0.000 
#
# Total GULP energy -148685.059181 kJ/mol
# GULP energy per Si atom -12390.421598 kJ/mol
# Density = 2.217731 g / cm^3
# Si number density = 22.227902 Si / 1000 Ang^3
#
#
#
# Elastic Constant Matrix: (Units=GPa)
#
#
# Indices 1 2 3 4 5 6 
#
# 1 115.0977 44.6696 17.1503 -9.5431 9.2615 2.0182
# 2 44.6696 161.5285 31.6779 -31.8441 6.1796 26.3721
# 3 17.1503 31.6779 75.4963 -32.0498 4.6135 -5.1396
# 4 -9.5431 -31.8441 -32.0498 32.8097 -5.2694 -1.7072
# 5 9.2615 6.1796 4.6135 -5.2694 27.5400 -10.4089
# 6 2.0182 26.3721 -5.1396 -1.7072 -10.4089 19.0246
#
#
#
# Elastic Compliance Matrix: (Units=1/GPa)
#
#
# Indices 1 2 3 4 5 6 
#
# 1 0.010083 -0.002900 -0.001620 -0.001801 -0.002427 0.001023
# 2 -0.002900 0.012803 -0.003238 0.005833 -0.008778 -0.022594
# 3 -0.001620 -0.003238 0.025907 0.024021 0.008509 0.018471
# 4 -0.001801 0.005833 0.024021 0.061334 0.010788 0.010000
# 5 -0.002427 -0.008778 0.008509 0.010788 0.057572 0.047192
# 6 0.001023 -0.022594 0.018471 0.010000 0.047192 0.115483
#
#
# Mechanical properties :
#
#
# Convention : Reuss Voigt Hill
#
# Bulk Modulus (GPa) = 30.05219 59.90201 44.97710
# Shear Modulus (GPa) = 16.13993 33.11651 24.62822
#
# Velocity S-wave (km/s) = 2.69757 3.86406 3.33225
# Velocity P-wave (km/s) = 4.82202 6.84949 5.92315
#
# Compressibility (1/GPa) = 0.03327544
#
# Stress axis : x y z
#
# Youngs Moduli (GPa) = 99.17498 78.10954 38.59907
#
# Poissons Ratio (x) = 0.22651 0.06255
# Poissons Ratio (y) = 0.28760 0.12500
# Poissons Ratio (z) = 0.16071 0.25295
#
# Static dielectric constant tensor:
#      x y z
#    x 4.424890 -0.334300 0.241350 
#    y -0.334300 4.603470 -0.369710 
#    z 0.241350 -0.369710 3.936810 
# 
# 
# High freq. dielectric constant tensor:
#      x y z
#    x 1.880170 0.010130 0.011770 
#    y 0.010130 1.876650 -0.025010 
#    z 0.011770 -0.025010 1.853300 
# 
# From -- ./inp_files/29764.got.cif
#   From: 2010.06.25/outbox.cif.g09.slc.cpg/sg2_15_cif.got.tgz:29764.got - 2010.06.27 13:26:56.
