data_PCOD8002865
_publ_section_title
;
Structure prediction by ZEFSAII (Michael W. Deem and Ramdas Pophale) SiO2 
 PCOD8002865
Probable space group: P -1
;
_chemical_formula_sum "Si O2"
_cell_formula_units_Z 16
_cell_length_a 14.433534
_cell_length_b 14.974645
_cell_length_c 11.455254
_cell_angle_alpha 46.888221
_cell_angle_beta 114.586652
_cell_angle_gamma 151.612061
_cell_volume 726.821842
_symmetry_space_group_name_H-M "P -1"
_symmetry_group_IT_number 2
_symmetry_cell_setting 'triclinic'
loop_
_space_group_symop_operation_xyz
x,y,z
-x,-y,-z
loop_
_atom_site_type_symbol
_atom_site_label
_atom_site_fract_x
_atom_site_fract_y
_atom_site_fract_z
Si Si1 0.229676 0.303211 0.796137
Si Si2 0.755631 0.243593 0.457236
Si Si3 0.489335 0.834099 0.860000
Si Si4 0.639674 0.790813 0.151844
Si Si5 0.686783 0.120440 0.150615
Si Si6 0.164588 0.409399 0.863776
Si Si7 0.323350 0.539626 0.402485
Si Si8 0.981626 0.601277 0.739568
O O1 0.410218 0.386352 0.792039
O O2 0.305656 0.481799 0.775629
O O3 0.197104 0.333657 0.625974
O O4 0.000000 0.000000 0.000000
O O5 0.889436 0.516149 0.288474
O O6 0.870233 0.268256 0.412175
O O7 0.500000 0.000000 0.500000
O O8 0.729642 0.145570 0.654645
O O9 0.344974 0.794100 0.863388
O O10 0.329901 0.591550 0.899816
O O11 0.554607 0.816544 0.014572
O O12 0.499140 0.639798 0.335273
O O13 0.914614 0.086986 0.057327
O O14 0.860885 0.217767 0.223687
O O15 0.454321 0.798627 0.291287
O O16 0.800385 0.293119 0.936170
O O17 0.134563 0.391271 0.347067
#
# Coordination Sequence:
#
# PCOD8002865 Si02
#       8
#     2   2   2   2   2   2   2   2
#     4  10  25  47  65  90 123 172 228 272 305 360
#     4  10  20  36  59  96 128 162 200 253 319 387
#     4  11  23  39  64  96 130 165 209 255 324 390
#     4  11  25  43  65  90 123 172 219 265 311 366
#     4  11  23  40  64 102 136 165 202 254 328 399
#     4  10  22  43  63  90 132 166 208 269 315 369
#     4  12  25  41  69  95 128 173 212 258 328 377
#     4  11  23  38  63  98 142 161 202 257 316 399
#
# _framework density 22.013648
#
# number of rings (size 3 to 8) (size 9 to 14) (size 15 to 20)
#    0.000    1.250    3.750    2.250    8.750    1.000 
#    0.000    2.500    0.000    5.250    0.000    0.000 
#    0.000    0.000    0.000    0.000    0.000    0.000 
#
# Total GULP energy -198313.187632 kJ/mol
# GULP energy per Si atom -12394.574227 kJ/mol
# Density = 2.196354 g / cm^3
# Si number density = 22.013648 Si / 1000 Ang^3
#
#
#
# Elastic Constant Matrix: (Units=GPa)
#
#
# Indices 1 2 3 4 5 6 
#
# 1 135.6502 28.4139 28.2006 1.8121 -17.5400 -12.9145
# 2 28.4139 46.6764 23.3759 6.7737 2.2720 -5.3823
# 3 28.2006 23.3759 108.2585 19.8649 -17.1331 8.0878
# 4 1.8121 6.7737 19.8649 21.7443 1.0877 -0.8783
# 5 -17.5400 2.2720 -17.1331 1.0877 31.4882 5.4793
# 6 -12.9145 -5.3823 8.0878 -0.8783 5.4793 29.2581
#
#
#
# Elastic Compliance Matrix: (Units=1/GPa)
#
#
# Indices 1 2 3 4 5 6 
#
# 1 0.009572 -0.005427 -0.001137 0.001814 0.004566 0.002740
# 2 -0.005427 0.029614 -0.006705 -0.001881 -0.009910 0.006705
# 3 -0.001137 -0.006705 0.015594 -0.012912 0.010234 -0.008350
# 4 0.001814 -0.001881 -0.012912 0.058985 -0.009226 0.007522
# 5 0.004566 -0.009910 0.010234 -0.009226 0.042805 -0.010930
# 6 0.002740 0.006705 -0.008350 0.007522 -0.010930 0.041202
#
#
# Mechanical properties :
#
#
# Convention : Reuss Voigt Hill
#
# Bulk Modulus (GPa) = 35.40711 50.06289 42.73500
# Shear Modulus (GPa) = 21.39275 30.53776 25.96526
#
# Velocity S-wave (km/s) = 3.12074 3.72858 3.43812
# Velocity P-wave (km/s) = 5.39486 6.42865 5.93431
#
# Compressibility (1/GPa) = 0.02824291
#
# Stress axis : x y z
#
# Youngs Moduli (GPa) = 104.47166 33.76764 64.12848
#
# Poissons Ratio (x) = 0.18326 0.07288
# Poissons Ratio (y) = 0.56698 0.42997
# Poissons Ratio (z) = 0.11873 0.22641
#
# Static dielectric constant tensor:
#      x y z
#    x 4.293130 -0.085960 -0.063300 
#    y -0.085960 3.664520 0.039600 
#    z -0.063300 0.039600 4.460110 
# 
# 
# High freq. dielectric constant tensor:
#      x y z
#    x 1.872810 -0.001240 -0.015090 
#    y -0.001240 1.838130 0.010730 
#    z -0.015090 0.010730 1.876830 
# 
# From -- ./inp_files/455559.got.cif
#   From: 2010.06.25/outbox.cif.g09.slc.cpg/sg2_228_cif.got.tgz:455559.got - 2010.06.27 13:26:56.
