data_PCOD8002552
_publ_section_title
;
Structure prediction by ZEFSAII (Michael W. Deem and Ramdas Pophale) SiO2 
 PCOD8002552
Probable space group: P -1
;
_chemical_formula_sum "Si O2"
_cell_formula_units_Z 16
_cell_length_a 17.013249
_cell_length_b 8.839969
_cell_length_c 9.215735
_cell_angle_alpha 50.025116
_cell_angle_beta 104.656574
_cell_angle_gamma 74.484911
_cell_volume 837.039752
_symmetry_space_group_name_H-M "P -1"
_symmetry_group_IT_number 2
_symmetry_cell_setting 'triclinic'
loop_
_space_group_symop_operation_xyz
x,y,z
-x,-y,-z
loop_
_atom_site_type_symbol
_atom_site_label
_atom_site_fract_x
_atom_site_fract_y
_atom_site_fract_z
Si Si1 0.928174 0.263795 0.154177
Si Si2 0.877158 0.960383 0.460172
Si Si3 0.241262 0.518707 0.850725
Si Si4 0.671514 0.702314 0.276823
Si Si5 0.358695 0.169032 0.361874
Si Si6 0.495776 0.288119 0.453087
Si Si7 0.189534 0.370530 0.364175
Si Si8 0.473676 0.750802 0.184610
O O1 0.922441 0.030274 0.305974
O O2 0.854742 0.449805 0.134223
O O3 0.897146 0.375811 0.908358
O O4 0.040051 0.180578 0.287308
O O5 0.780901 0.212923 0.326822
O O6 0.850303 0.781329 0.497809
O O7 0.262925 0.403729 0.772823
O O8 0.337011 0.331197 0.109006
O O9 0.754512 0.581094 0.516757
O O10 0.590501 0.640474 0.282492
O O11 0.606185 0.993387 0.084717
O O12 0.407459 0.252545 0.448294
O O13 0.263351 0.208518 0.367917
O O14 0.430411 0.887069 0.530799
O O15 0.455485 0.561310 0.223329
O O16 0.552097 0.218874 0.675617
#
# Coordination Sequence:
#
# PCOD8002552 Si02
#       8
#     2   2   2   2   2   2   2   2
#     4   8  19  39  61  81 111 137 183 230 277 331
#     4   9  19  37  64  82 105 145 181 227 287 321
#     4   9  19  36  57  76 114 142 178 230 268 332
#     4  11  22  37  48  85 114 146 183 228 272 322
#     4  10  20  36  54  84 103 142 198 232 257 326
#     4  10  20  36  54  73 109 152 187 228 278 315
#     4  11  21  34  60  83 110 142 186 230 267 336
#     4  10  22  35  52  73 119 152 174 231 280 319
#
# _framework density 19.114982000000001
#
# number of rings (size 3 to 8) (size 9 to 14) (size 15 to 20)
#    0.750    1.500    2.500    0.375    3.500    0.000 
#    0.000    2.500    0.000    0.000    0.000    0.000 
#    0.000    0.000    0.000    0.000    0.000    0.000 
#
# Total GULP energy -198244.957254 kJ/mol
# GULP energy per Si atom -12390.309828 kJ/mol
# Density = 1.907148 g / cm^3
# Si number density = 19.114982 Si / 1000 Ang^3
#
#
#
# Elastic Constant Matrix: (Units=GPa)
#
#
# Indices 1 2 3 4 5 6 
#
# 1 38.5025 13.1218 0.7696 -2.0718 -4.1161 8.3190
# 2 13.1218 72.4985 24.1597 -1.3621 -3.8765 10.4471
# 3 0.7696 24.1597 82.4567 1.6978 4.4999 7.1781
# 4 -2.0718 -1.3621 1.6978 24.9947 1.7831 -5.2955
# 5 -4.1161 -3.8765 4.4999 1.7831 22.8986 -2.0527
# 6 8.3190 10.4471 7.1781 -5.2955 -2.0527 22.9246
#
#
#
# Elastic Compliance Matrix: (Units=1/GPa)
#
#
# Indices 1 2 3 4 5 6 
#
# 1 0.029765 -0.004447 0.001618 -0.000035 0.003478 -0.008978
# 2 -0.004447 0.016932 -0.004667 -0.000261 0.002604 -0.004468
# 3 0.001618 -0.004667 0.014006 -0.001571 -0.003445 -0.003517
# 4 -0.000035 -0.000261 -0.001571 0.042418 -0.002128 0.010232
# 5 0.003478 0.002604 -0.003445 -0.002128 0.045780 0.002238
# 6 -0.008978 -0.004468 -0.003517 0.010232 0.002238 0.052581
#
#
# Mechanical properties :
#
#
# Convention : Reuss Voigt Hill
#
# Bulk Modulus (GPa) = 21.87709 29.95110 25.91409
# Shear Modulus (GPa) = 21.57848 24.52402 23.05125
#
# Velocity S-wave (km/s) = 3.36352 3.58575 3.47641
# Velocity P-wave (km/s) = 5.15308 5.73118 5.44980
#
# Compressibility (1/GPa) = 0.04570992
#
# Stress axis : x y z
#
# Youngs Moduli (GPa) = 33.59603 59.06029 71.39544
#
# Poissons Ratio (x) = 0.26267 -0.11550
# Poissons Ratio (y) = 0.14942 0.33322
# Poissons Ratio (z) = -0.05435 0.27565
#
# Static dielectric constant tensor:
#      x y z
#    x 3.307230 0.022280 0.034150 
#    y 0.022280 3.169510 -0.109130 
#    z 0.034150 -0.109130 3.572480 
# 
# 
# High freq. dielectric constant tensor:
#      x y z
#    x 1.726500 0.003170 0.003010 
#    y 0.003170 1.713060 -0.006200 
#    z 0.003010 -0.006200 1.750520 
# 
# From -- ./inp_files/215432.got.cif
#   From: 2010.06.25/outbox.cif.g09.slc.cpg/sg2_108_cif.got.tgz:215432.got - 2010.06.27 13:26:56.
