data_PCOD8002072
_publ_section_title
;
Structure prediction by ZEFSAII (Michael W. Deem and Ramdas Pophale) SiO2 
 PCOD8002072
Probable space group: P -1
;
_chemical_formula_sum "Si O2"
_cell_formula_units_Z 16
_cell_length_a 11.170949
_cell_length_b 12.663679
_cell_length_c 12.534377
_cell_angle_alpha 58.166323
_cell_angle_beta 36.110489
_cell_angle_gamma 52.618902
_cell_volume 827.790215
_symmetry_space_group_name_H-M "P -1"
_symmetry_group_IT_number 2
_symmetry_cell_setting 'triclinic'
loop_
_space_group_symop_operation_xyz
x,y,z
-x,-y,-z
loop_
_atom_site_type_symbol
_atom_site_label
_atom_site_fract_x
_atom_site_fract_y
_atom_site_fract_z
Si Si1 0.045484 0.759915 0.251147
Si Si2 0.715123 0.467549 0.112451
Si Si3 0.741385 0.506056 0.636598
Si Si4 0.210242 0.962397 0.943417
Si Si5 0.280189 0.473322 0.689488
Si Si6 0.325397 0.220075 0.350328
Si Si7 0.080851 0.402141 0.267182
Si Si8 0.107359 0.251647 0.871723
O O1 0.833225 0.830728 0.438986
O O2 0.959198 0.743335 0.206093
O O3 0.204330 0.619423 0.257216
O O4 0.183551 0.857966 0.104114
O O5 0.466249 0.480396 0.293512
O O6 0.767923 0.531611 0.147759
O O7 0.756439 0.535033 0.937629
O O8 0.885912 0.315463 0.066066
O O9 0.672871 0.640176 0.681774
O O10 0.948261 0.488209 0.420169
O O11 0.435891 0.891087 0.756414
O O12 0.221635 0.099049 0.911475
O O13 0.000000 0.000000 0.000000
O O14 0.500000 0.500000 0.500000
O O15 0.269783 0.334613 0.723502
O O16 0.094074 0.596832 0.698249
O O17 0.225060 0.253545 0.284010
#
# Coordination Sequence:
#
# PCOD8002072 Si02
#       8
#     2   2   2   2   2   2   2   2
#     4  10  21  36  56  86 119 144 184 223 277 339
#     4  11  21  34  59  82 112 144 178 236 285 317
#     4  11  19  32  57  88 115 145 178 230 281 331
#     4  10  22  38  53  82 117 152 189 217 267 344
#     4  11  21  38  59  87 107 141 189 238 282 323
#     4  11  21  34  58  84 117 151 177 226 284 325
#     4  10  20  35  54  85 114 140 183 230 278 330
#     4  10  21  38  55  80 117 146 186 229 272 331
#
# _framework density 19.328569999999999
#
# number of rings (size 3 to 8) (size 9 to 14) (size 15 to 20)
#    0.000    1.500    1.250    8.250    0.000    3.500 
#    2.250    0.000    0.000    7.500    0.000    0.000 
#    0.000    0.000    0.000    0.000    0.000    0.000 
#
# Total GULP energy -198235.795500 kJ/mol
# GULP energy per Si atom -12389.737219 kJ/mol
# Density = 1.928458 g / cm^3
# Si number density = 19.328570 Si / 1000 Ang^3
#
#
#
# Elastic Constant Matrix: (Units=GPa)
#
#
# Indices 1 2 3 4 5 6 
#
# 1 87.9706 38.8971 24.7572 -1.5417 -7.3424 3.6296
# 2 38.8971 105.0952 50.3062 1.5595 -3.6546 3.7923
# 3 24.7572 50.3062 85.8062 2.8334 -3.3787 6.8848
# 4 -1.5417 1.5595 2.8334 29.2549 -7.3125 -10.6117
# 5 -7.3424 -3.6546 -3.3787 -7.3125 40.5820 1.1108
# 6 3.6296 3.7923 6.8848 -10.6117 1.1108 18.9524
#
#
#
# Elastic Compliance Matrix: (Units=1/GPa)
#
#
# Indices 1 2 3 4 5 6 
#
# 1 0.013949 -0.004448 -0.001324 0.001446 0.002291 -0.000625
# 2 -0.004448 0.014660 -0.007353 -0.000153 -0.000138 0.000512
# 3 -0.001324 -0.007353 0.016992 -0.003677 0.000028 -0.006508
# 4 0.001446 -0.000153 -0.003677 0.046102 0.007525 0.026461
# 5 0.002291 -0.000138 0.000028 0.007525 0.026340 0.002248
# 6 -0.000625 0.000512 -0.006508 0.026461 0.002248 0.069830
#
#
# Mechanical properties :
#
#
# Convention : Reuss Voigt Hill
#
# Bulk Modulus (GPa) = 51.67858 56.31031 53.99445
# Shear Modulus (GPa) = 22.66812 28.75196 25.71004
#
# Velocity S-wave (km/s) = 3.42830 3.86104 3.65109
# Velocity P-wave (km/s) = 6.51659 7.00524 6.76533
#
# Compressibility (1/GPa) = 0.01935038
#
# Stress axis : x y z
#
# Youngs Moduli (GPa) = 71.68850 68.21211 58.85160
#
# Poissons Ratio (x) = 0.30342 0.07794
# Poissons Ratio (y) = 0.31888 0.43274
# Poissons Ratio (z) = 0.09494 0.50156
#
# Static dielectric constant tensor:
#      x y z
#    x 3.689560 -0.214360 0.002140 
#    y -0.214360 3.765170 -0.168390 
#    z 0.002140 -0.168390 3.774660 
# 
# 
# High freq. dielectric constant tensor:
#      x y z
#    x 1.747080 -0.017650 -0.008730 
#    y -0.017650 1.723720 -0.004540 
#    z -0.008730 -0.004540 1.766650 
# 
# From -- ./inp_files/423521.got.cif
#   From: 2010.06.25/outbox.cif.g09.slc.cpg/sg2_212_cif.got.tgz:423521.got - 2010.06.27 13:26:56.
