data_PCOD8002619
_publ_section_title
;
Structure prediction by ZEFSAII (Michael W. Deem and Ramdas Pophale) SiO2 
 PCOD8002619
Probable space group: P -1
;
_chemical_formula_sum "Si O2"
_cell_formula_units_Z 14
_cell_length_a 13.450905
_cell_length_b 13.278748
_cell_length_c 14.591002
_cell_angle_alpha 145.958402
_cell_angle_beta 148.232052
_cell_angle_gamma 33.539991
_cell_volume 690.582339
_symmetry_space_group_name_H-M "P -1"
_symmetry_group_IT_number 2
_symmetry_cell_setting 'triclinic'
loop_
_space_group_symop_operation_xyz
x,y,z
-x,-y,-z
loop_
_atom_site_type_symbol
_atom_site_label
_atom_site_fract_x
_atom_site_fract_y
_atom_site_fract_z
Si Si1 0.600213 0.204811 0.315378
Si Si2 0.488138 0.229402 0.754458
Si Si3 0.186489 0.212250 0.908317
Si Si4 0.466885 0.418883 0.554540
Si Si5 0.825250 0.389995 0.109954
Si Si6 0.139065 0.585104 0.051905
Si Si7 0.280537 0.229458 0.401846
O O1 0.585408 0.243185 0.441325
O O2 0.656992 0.370584 0.436430
O O3 0.780264 0.986088 0.270098
O O4 0.385319 0.212988 0.115375
O O5 0.324446 0.376085 0.811016
O O6 0.359041 0.271919 0.591694
O O7 0.576258 0.002038 0.687010
O O8 0.692108 0.267084 0.930077
O O9 0.017755 0.235142 0.871668
O O10 0.104230 0.390568 0.904161
O O11 0.626996 0.442004 0.768512
O O12 0.304128 0.369465 0.447392
O O13 0.031960 0.291541 0.261984
O O14 0.912914 0.363994 0.056172
#
# Coordination Sequence:
#
# PCOD8002619 Si02
#       7
#     2   2   2   2   2   2   2
#     4   9  19  36  57  83 117 157 203 238 297 363
#     4  10  24  42  64  91 120 158 208 253 297 366
#     4   9  19  36  57  83 117 158 200 243 292 363
#     4  10  20  36  56  85 124 154 194 256 293 355
#     4  11  22  42  64  89 122 163 199 252 308 359
#     4  10  20  36  56  85 122 156 198 247 298 357
#     4  11  22  42  64  90 124 158 200 257 304 359
#
# _framework density 20.272746000000001
#
# number of rings (size 3 to 8) (size 9 to 14) (size 15 to 20)
#    0.000    2.000    1.429    1.714    2.000    1.714 
#    5.143    1.429    0.000    0.000    0.000    0.000 
#    0.000    0.000    0.000    0.000    0.000    0.000 
#
# Total GULP energy -173614.123243 kJ/mol
# GULP energy per Si atom -12401.008803 kJ/mol
# Density = 2.022660 g / cm^3
# Si number density = 20.272746 Si / 1000 Ang^3
#
#
#
# Elastic Constant Matrix: (Units=GPa)
#
#
# Indices 1 2 3 4 5 6 
#
# 1 86.9686 26.6159 27.7315 1.2739 3.2612 1.1901
# 2 26.6159 68.0329 27.6337 10.3007 2.3196 -10.5327
# 3 27.7315 27.6337 88.8983 2.3604 6.4144 -3.4515
# 4 1.2739 10.3007 2.3604 37.1332 -9.8924 -1.7089
# 5 3.2612 2.3196 6.4144 -9.8924 22.8936 0.8160
# 6 1.1901 -10.5327 -3.4515 -1.7089 0.8160 26.1520
#
#
#
# Elastic Compliance Matrix: (Units=1/GPa)
#
#
# Indices 1 2 3 4 5 6 
#
# 1 0.013959 -0.004827 -0.002976 0.000865 -0.000188 -0.002910
# 2 -0.004827 0.020423 -0.004185 -0.005663 -0.002927 0.007614
# 3 -0.002976 -0.004185 0.013734 -0.000449 -0.003206 0.000333
# 4 0.000865 -0.005663 -0.000449 0.032351 0.014581 -0.000720
# 5 -0.000188 -0.002927 -0.003206 0.014581 0.051282 -0.002241
# 6 -0.002910 0.007614 0.000333 -0.000720 -0.002241 0.041504
#
#
# Mechanical properties :
#
#
# Convention : Reuss Voigt Hill
#
# Bulk Modulus (GPa) = 41.42715 45.31799 43.37257
# Shear Modulus (GPa) = 24.35715 28.03032 26.19373
#
# Velocity S-wave (km/s) = 3.46999 3.72245 3.59843
# Velocity P-wave (km/s) = 6.04431 6.39360 6.22141
#
# Compressibility (1/GPa) = 0.02413876
#
# Stress axis : x y z
#
# Youngs Moduli (GPa) = 71.63852 48.96339 72.80948
#
# Poissons Ratio (x) = 0.23636 0.21670
# Poissons Ratio (y) = 0.34582 0.30474
# Poissons Ratio (z) = 0.21322 0.20494
#
# Static dielectric constant tensor:
#      x y z
#    x 3.510720 -0.071520 0.004700 
#    y -0.071520 3.661370 0.141430 
#    z 0.004700 0.141430 3.775900 
# 
# 
# High freq. dielectric constant tensor:
#      x y z
#    x 1.784600 -0.004480 0.001180 
#    y -0.004480 1.784480 0.001440 
#    z 0.001180 0.001440 1.804210 
# 
# From -- ./inp_files/188178.got.cif
#   From: 2010.06.25/outbox.cif.g09.slc.cpg/sg2_95_cif.got.tgz:188178.got - 2010.06.27 13:26:56.
