data_PCOD8002932
_publ_section_title
;
Structure prediction by ZEFSAII (Michael W. Deem and Ramdas Pophale) SiO2 
 PCOD8002932
Probable space group: P -1
;
_chemical_formula_sum "Si O2"
_cell_formula_units_Z 16
_cell_length_a 11.481407
_cell_length_b 9.608692
_cell_length_c 12.123530
_cell_angle_alpha 133.368759
_cell_angle_beta 126.512228
_cell_angle_gamma 71.831307
_cell_volume 770.661702
_symmetry_space_group_name_H-M "P -1"
_symmetry_group_IT_number 2
_symmetry_cell_setting 'triclinic'
loop_
_space_group_symop_operation_xyz
x,y,z
-x,-y,-z
loop_
_atom_site_type_symbol
_atom_site_label
_atom_site_fract_x
_atom_site_fract_y
_atom_site_fract_z
Si Si1 0.162109 0.579141 0.046375
Si Si2 0.423766 0.189875 0.341890
Si Si3 0.083016 0.356893 0.535332
Si Si4 0.219275 0.027352 0.336452
Si Si5 0.905875 0.328925 0.642438
Si Si6 0.324689 0.475824 0.294886
Si Si7 0.679713 0.973723 0.376458
Si Si8 0.671619 0.553701 0.122415
O O1 0.140127 0.802362 0.170092
O O2 0.236352 0.482589 0.136225
O O3 0.269730 0.586414 0.006946
O O4 0.009062 0.437924 0.857329
O O5 0.349323 0.259868 0.226424
O O6 0.519590 0.381326 0.554907
O O7 0.532585 0.042673 0.286145
O O8 0.299205 0.087903 0.299037
O O9 0.246263 0.463195 0.722650
O O10 0.000000 0.500000 0.500000
O O11 0.990714 0.302128 0.564395
O O12 0.096459 0.165435 0.366664
O O13 0.340177 0.058474 0.519800
O O14 0.771159 0.449997 0.618788
O O15 0.832960 0.116940 0.525957
O O16 0.704156 0.777968 0.222702
O O17 0.500000 0.500000 0.000000
#
# Coordination Sequence:
#
# PCOD8002932 Si02
#       8
#     2   2   2   2   2   2   2   2
#     4  11  22  38  63  91 118 160 208 256 303 360
#     4  10  20  36  60  90 122 153 206 251 307 365
#     4  10  23  41  64  90 125 170 200 250 313 366
#     4  11  21  36  65  91 117 161 209 249 302 375
#     4  10  21  42  61  85 125 157 213 243 304 375
#     4  10  21  36  60  89 121 161 194 259 310 351
#     4  10  21  39  64  89 115 167 204 245 307 375
#     4  10  23  40  64  90 125 159 206 256 306 365
#
# _framework density 20.761379999999999
#
# number of rings (size 3 to 8) (size 9 to 14) (size 15 to 20)
#    0.000    1.750    2.500    2.250    3.500    4.500 
#    0.000    7.500    0.000    0.000    0.000    0.000 
#    0.000    0.000    0.000    0.000    0.000    0.000 
#
# Total GULP energy -198278.740865 kJ/mol
# GULP energy per Si atom -12392.421304 kJ/mol
# Density = 2.071413 g / cm^3
# Si number density = 20.761380 Si / 1000 Ang^3
#
#
#
# Elastic Constant Matrix: (Units=GPa)
#
#
# Indices 1 2 3 4 5 6 
#
# 1 70.3342 40.9154 54.5117 -0.8784 11.5925 -12.0474
# 2 40.9154 155.4897 58.2401 -3.9324 5.3317 -21.3536
# 3 54.5117 58.2401 94.2890 8.7404 3.8662 -8.1694
# 4 -0.8784 -3.9324 8.7404 25.0812 -4.7457 -3.0210
# 5 11.5925 5.3317 3.8662 -4.7457 33.4818 5.5074
# 6 -12.0474 -21.3536 -8.1694 -3.0210 5.5074 36.5223
#
#
#
# Elastic Compliance Matrix: (Units=1/GPa)
#
#
# Indices 1 2 3 4 5 6 
#
# 1 0.030416 -0.000031 -0.017080 0.006284 -0.008991 0.008070
# 2 -0.000031 0.009325 -0.005648 0.003791 -0.001050 0.004651
# 3 -0.017080 -0.005648 0.024330 -0.009901 0.003394 -0.004825
# 4 0.006284 0.003791 -0.009901 0.045515 0.003953 0.005243
# 5 -0.008991 -0.001050 0.003394 0.003953 0.034583 -0.007708
# 6 0.008070 0.004651 -0.004825 0.005243 -0.007708 0.033279
#
#
# Mechanical properties :
#
#
# Convention : Reuss Voigt Hill
#
# Bulk Modulus (GPa) = 53.89765 69.71636 61.80701
# Shear Modulus (GPa) = 21.81978 30.11344 25.96661
#
# Velocity S-wave (km/s) = 3.24540 3.81262 3.54038
# Velocity P-wave (km/s) = 6.32933 7.28245 6.82255
#
# Compressibility (1/GPa) = 0.01855368
#
# Stress axis : x y z
#
# Youngs Moduli (GPa) = 32.87711 107.23506 41.10230
#
# Poissons Ratio (x) = 0.00328 0.70204
# Poissons Ratio (y) = 0.00101 0.23213
# Poissons Ratio (z) = 0.56156 0.60563
#
# Static dielectric constant tensor:
#      x y z
#    x 3.965900 -0.187410 -0.104640 
#    y -0.187410 3.909740 -0.029330 
#    z -0.104640 -0.029330 3.925420 
# 
# 
# High freq. dielectric constant tensor:
#      x y z
#    x 1.822520 -0.013150 0.003740 
#    y -0.013150 1.811820 0.008260 
#    z 0.003740 0.008260 1.792010 
# 
# From -- ./inp_files/420105.got.cif
#   From: 2010.06.25/outbox.cif.g09.slc.cpg/sg2_211_cif.got.tgz:420105.got - 2010.06.27 13:26:56.
