data_PCOD8002350
_publ_section_title
;
Structure prediction by ZEFSAII (Michael W. Deem and Ramdas Pophale) SiO2 
 PCOD8002350
Probable space group: P -1
;
_chemical_formula_sum "Si O2"
_cell_formula_units_Z 16
_cell_length_a 11.211718
_cell_length_b 16.100953
_cell_length_c 11.064264
_cell_angle_alpha 79.938605
_cell_angle_beta 154.768238
_cell_angle_gamma 100.235017
_cell_volume 837.403358
_symmetry_space_group_name_H-M "P -1"
_symmetry_group_IT_number 2
_symmetry_cell_setting 'triclinic'
loop_
_space_group_symop_operation_xyz
x,y,z
-x,-y,-z
loop_
_atom_site_type_symbol
_atom_site_label
_atom_site_fract_x
_atom_site_fract_y
_atom_site_fract_z
Si Si1 0.059716 0.465002 0.694365
Si Si2 0.915512 0.719602 0.185180
Si Si3 0.522373 0.195471 0.899777
Si Si4 0.065394 0.903326 0.586195
Si Si5 0.167035 0.346179 0.130557
Si Si6 0.383957 0.790393 0.760141
Si Si7 0.521188 0.497508 0.744115
Si Si8 0.418472 0.670403 0.287287
O O1 0.183783 0.371715 0.828062
O O2 0.000000 0.500000 0.500000
O O3 0.772066 0.460679 0.508112
O O4 0.302605 0.523151 0.967710
O O5 0.216537 0.738751 0.516498
O O6 0.927578 0.714040 0.052518
O O7 0.704535 0.792773 0.007648
O O8 0.210030 0.157306 0.641164
O O9 0.557079 0.250031 0.798659
O O10 0.609766 0.250824 0.087194
O O11 0.736552 0.117951 0.111664
O O12 0.243171 0.880967 0.631845
O O13 0.000000 0.000000 0.500000
O O14 0.285163 0.438216 0.174287
O O15 0.407376 0.303418 0.439762
O O16 0.901006 0.355621 0.969890
O O17 0.447154 0.410739 0.628887
#
# Coordination Sequence:
#
# PCOD8002350 Si02
#       8
#     2   2   2   2   2   2   2   2
#     4  11  24  34  53  78 113 152 190 240 302 335
#     4  11  21  37  54  79 116 148 194 237 269 349
#     4  10  22  35  58  95 114 146 182 225 305 327
#     4  10  20  38  60  93 125 140 174 220 292 367
#     4  11  23  39  55  80 110 164 204 242 279 315
#     4  10  20  35  60  84 117 141 179 227 290 337
#     4  11  23  39  54  79 108 158 205 246 287 325
#     4  12  23  38  60  80 117 148 205 249 278 332
#
# _framework density 19.106683
#
# number of rings (size 3 to 8) (size 9 to 14) (size 15 to 20)
#    0.750    0.500    1.250    6.750    3.500    0.000 
#    0.000    0.000    0.000    0.000    0.000   17.500 
#    0.000    0.000    0.000    0.000    0.000    0.000 
#
# Total GULP energy -198236.247473 kJ/mol
# GULP energy per Si atom -12389.765467 kJ/mol
# Density = 1.906320 g / cm^3
# Si number density = 19.106683 Si / 1000 Ang^3
#
#
#
# Elastic Constant Matrix: (Units=GPa)
#
#
# Indices 1 2 3 4 5 6 
#
# 1 68.4600 38.9766 28.6863 -9.9364 -6.1880 -1.7562
# 2 38.9766 67.7070 21.4803 -15.8664 4.3480 -4.1486
# 3 28.6863 21.4803 115.8505 -8.0045 -3.6623 1.6677
# 4 -9.9364 -15.8664 -8.0045 25.1398 -2.3541 0.5741
# 5 -6.1880 4.3480 -3.6623 -2.3541 48.5543 -4.5716
# 6 -1.7562 -4.1486 1.6677 0.5741 -4.5716 17.5018
#
#
#
# Elastic Compliance Matrix: (Units=1/GPa)
#
#
# Indices 1 2 3 4 5 6 
#
# 1 0.023677 -0.012615 -0.003361 0.000684 0.003995 0.000727
# 2 -0.012615 0.025158 -0.000986 0.010205 -0.003097 0.003648
# 3 -0.003361 -0.000986 0.009762 0.001221 0.000318 -0.001458
# 4 0.000684 0.010205 0.001221 0.047004 0.001663 0.001264
# 5 0.003995 -0.003097 0.000318 0.001663 0.021988 0.005325
# 6 0.000727 0.003648 -0.001458 0.001264 0.005325 0.059563
#
#
# Mechanical properties :
#
#
# Convention : Reuss Voigt Hill
#
# Bulk Modulus (GPa) = 40.53067 47.81154 44.17110
# Shear Modulus (GPa) = 21.80540 29.09747 25.45144
#
# Velocity S-wave (km/s) = 3.38190 3.90666 3.65371
# Velocity P-wave (km/s) = 6.04223 6.73997 6.40061
#
# Compressibility (1/GPa) = 0.02467267
#
# Stress axis : x y z
#
# Youngs Moduli (GPa) = 42.23572 39.74810 102.43603
#
# Poissons Ratio (x) = 0.50144 0.34424
# Poissons Ratio (y) = 0.53282 0.10103
# Poissons Ratio (z) = 0.14193 0.03920
#
# Static dielectric constant tensor:
#      x y z
#    x 3.519610 -0.130460 -0.096280 
#    y -0.130460 3.042050 -0.055160 
#    z -0.096280 -0.055160 3.908150 
# 
# 
# High freq. dielectric constant tensor:
#      x y z
#    x 1.736020 -0.012830 -0.000680 
#    y -0.012830 1.687620 -0.004620 
#    z -0.000680 -0.004620 1.779960 
# 
# From -- ./inp_files/436734.got.cif
#   From: 2010.06.25/outbox.cif.g09.slc.cpg/sg2_219_cif.got.tgz:436734.got - 2010.06.27 13:26:56.
