data_PCOD8002116
_publ_section_title
;
Structure prediction by ZEFSAII (Michael W. Deem and Ramdas Pophale) SiO2 
 PCOD8002116
Probable space group: P -1
;
_chemical_formula_sum "Si O2"
_cell_formula_units_Z 16
_cell_length_a 9.174130
_cell_length_b 17.550807
_cell_length_c 11.571253
_cell_angle_alpha 59.226450
_cell_angle_beta 110.590389
_cell_angle_gamma 148.108674
_cell_volume 831.549119
_symmetry_space_group_name_H-M "P -1"
_symmetry_group_IT_number 2
_symmetry_cell_setting 'triclinic'
loop_
_space_group_symop_operation_xyz
x,y,z
-x,-y,-z
loop_
_atom_site_type_symbol
_atom_site_label
_atom_site_fract_x
_atom_site_fract_y
_atom_site_fract_z
Si Si1 0.295407 0.682815 0.070698
Si Si2 0.135810 0.018530 0.353443
Si Si3 0.326947 0.908348 0.881937
Si Si4 0.572742 0.467850 0.145802
Si Si5 0.025963 0.151875 0.336041
Si Si6 0.059544 0.801902 0.118144
Si Si7 0.847826 0.862912 0.149524
Si Si8 0.313638 0.659730 0.828885
O O1 0.531574 0.749666 0.164957
O O2 0.016967 0.494614 0.173745
O O3 0.272735 0.778972 0.000482
O O4 0.375577 0.705203 0.943912
O O5 0.056212 0.905264 0.510627
O O6 0.991204 0.925049 0.265394
O O7 0.477513 0.177242 0.312280
O O8 0.018578 0.057962 0.332449
O O9 0.186811 0.874315 0.751275
O O10 0.656401 0.088124 0.818516
O O11 0.180487 0.895300 0.955593
O O12 0.585272 0.389134 0.131631
O O13 0.858252 0.622966 0.174922
O O14 0.330999 0.342054 0.271779
O O15 0.500000 0.500000 0.000000
O O16 0.867449 0.777888 0.156140
O O17 0.000000 0.000000 0.000000
#
# Coordination Sequence:
#
# PCOD8002116 Si02
#       8
#     2   2   2   2   2   2   2   2
#     4  11  21  34  59  92 116 146 195 248 289 332
#     4  10  22  40  60  85 116 163 193 232 296 349
#     4  11  21  36  58  90 118 147 192 247 291 339
#     4  11  19  34  59  88 117 151 192 244 290 337
#     4  10  22  39  61  85 120 154 197 236 289 358
#     4  11  22  34  57  92 117 148 193 241 296 332
#     4  12  21  37  60  85 119 154 194 240 287 346
#     4  10  20  35  55  85 120 148 193 242 286 341
#
# _framework density 19.241197
#
# number of rings (size 3 to 8) (size 9 to 14) (size 15 to 20)
#    0.000    1.250    5.000    1.500    1.750    1.000 
#    0.000    4.375    0.000    4.500    0.000    0.000 
#    0.000    0.000    0.000    0.000    0.000    0.000 
#
# Total GULP energy -198226.474873 kJ/mol
# GULP energy per Si atom -12389.154680 kJ/mol
# Density = 1.919740 g / cm^3
# Si number density = 19.241197 Si / 1000 Ang^3
#
#
#
# Elastic Constant Matrix: (Units=GPa)
#
#
# Indices 1 2 3 4 5 6 
#
# 1 68.0613 41.7951 48.9537 3.4285 -5.1258 12.6252
# 2 41.7951 123.7273 50.3077 -7.9136 -4.4284 11.9680
# 3 48.9537 50.3077 105.5989 -7.5742 -13.2840 6.0426
# 4 3.4285 -7.9136 -7.5742 29.9410 3.2358 -4.9588
# 5 -5.1258 -4.4284 -13.2840 3.2358 20.4603 1.8093
# 6 12.6252 11.9680 6.0426 -4.9588 1.8093 29.9973
#
#
#
# Elastic Compliance Matrix: (Units=1/GPa)
#
#
# Indices 1 2 3 4 5 6 
#
# 1 0.027146 -0.004600 -0.010335 -0.008564 0.001245 -0.008998
# 2 -0.004600 0.011134 -0.003031 0.002577 -0.000994 -0.001410
# 3 -0.010335 -0.003031 0.016714 0.004300 0.006705 0.002499
# 4 -0.008564 0.002577 0.004300 0.038133 -0.005565 0.008349
# 5 0.001245 -0.000994 0.006705 -0.005565 0.054709 -0.005698
# 6 -0.008998 -0.001410 0.002499 0.008349 -0.005698 0.038907
#
#
# Mechanical properties :
#
#
# Convention : Reuss Voigt Hill
#
# Bulk Modulus (GPa) = 52.46525 64.38895 58.42710
# Shear Modulus (GPa) = 21.83117 26.50179 24.16648
#
# Velocity S-wave (km/s) = 3.37204 3.71529 3.54782
# Velocity P-wave (km/s) = 6.51822 7.20703 6.87126
#
# Compressibility (1/GPa) = 0.01906023
#
# Stress axis : x y z
#
# Youngs Moduli (GPa) = 36.83828 89.81171 59.82920
#
# Poissons Ratio (x) = 0.41315 0.61836
# Poissons Ratio (y) = 0.16946 0.18137
# Poissons Ratio (z) = 0.38074 0.27226
#
# Static dielectric constant tensor:
#      x y z
#    x 5.384870 0.938750 -0.103420 
#    y 0.938750 4.462610 -0.007250 
#    z -0.103420 -0.007250 3.305570 
# 
# 
# High freq. dielectric constant tensor:
#      x y z
#    x 1.753960 0.003260 -0.017380 
#    y 0.003260 1.765140 -0.009600 
#    z -0.017380 -0.009600 1.706810 
# 
# From -- ./inp_files/271517.got.cif
#   From: 2010.06.25/outbox.cif.g09.slc.cpg/sg2_136_cif.got.tgz:271517.got - 2010.06.27 13:26:56.
