data_PCOD8002828
_publ_section_title
;
Structure prediction by ZEFSAII (Michael W. Deem and Ramdas Pophale) SiO2 
 PCOD8002828
Probable space group: P -1
;
_chemical_formula_sum "Si O2"
_cell_formula_units_Z 16
_cell_length_a 14.226572
_cell_length_b 13.986804
_cell_length_c 14.780015
_cell_angle_alpha 143.870521
_cell_angle_beta 27.073958
_cell_angle_gamma 150.853569
_cell_volume 645.934841
_symmetry_space_group_name_H-M "P -1"
_symmetry_group_IT_number 2
_symmetry_cell_setting 'triclinic'
loop_
_space_group_symop_operation_xyz
x,y,z
-x,-y,-z
loop_
_atom_site_type_symbol
_atom_site_label
_atom_site_fract_x
_atom_site_fract_y
_atom_site_fract_z
Si Si1 0.240587 0.576869 0.790840
Si Si2 0.818736 0.305189 0.257759
Si Si3 0.695584 0.594798 0.002044
Si Si4 0.895806 0.871003 0.874535
Si Si5 0.523727 0.824596 0.391892
Si Si6 0.781748 0.782120 0.552250
Si Si7 0.436238 0.820545 0.263160
Si Si8 0.086628 0.311453 0.450981
O O1 0.254536 0.705850 0.792087
O O2 0.499037 0.725374 0.737971
O O3 0.204761 0.377815 0.636900
O O4 0.000000 0.500000 0.000000
O O5 0.593373 0.131341 0.384333
O O6 0.102670 0.370853 0.069293
O O7 0.798343 0.463473 0.452939
O O8 0.862534 0.781407 0.934093
O O9 0.580073 0.388684 0.889044
O O10 0.484425 0.611645 0.246902
O O11 0.804232 0.704959 0.749189
O O12 0.724848 0.962930 0.083168
O O13 0.180223 0.042107 0.743224
O O14 0.411017 0.857845 0.421293
O O15 0.834267 0.781718 0.612419
O O16 0.000000 0.000000 0.500000
O O17 0.219547 0.806361 0.379574
#
# Coordination Sequence:
#
# PCOD8002828 Si02
#       8
#     2   2   2   2   2   2   2   2
#     4  10  24  47  73  99 133 172 220 282 339 401
#     4  10  22  39  63  89 116 162 211 251 317 383
#     4  10  20  36  59  87 122 164 208 248 303 372
#     4  11  22  35  55  89 128 163 199 255 309 367
#     4  11  22  35  56  88 129 163 200 257 306 370
#     4  10  24  46  71 100 134 168 221 281 343 396
#     4  10  20  37  59  85 121 167 211 248 303 374
#     4  10  22  39  62  85 121 160 210 255 313 379
#
# _framework density 24.770299999999999
#
# number of rings (size 3 to 8) (size 9 to 14) (size 15 to 20)
#    0.000    1.750    0.000    5.250    1.750   11.500 
#    0.000    0.000    0.000    0.000    0.000    0.000 
#    0.000    0.000    0.000    0.000    0.000    0.000 
#
# Total GULP energy -198317.793717 kJ/mol
# GULP energy per Si atom -12394.862107 kJ/mol
# Density = 2.471392 g / cm^3
# Si number density = 24.770300 Si / 1000 Ang^3
#
#
#
# Elastic Constant Matrix: (Units=GPa)
#
#
# Indices 1 2 3 4 5 6 
#
# 1 158.1960 17.5900 61.7102 -10.4096 -12.6693 8.6225
# 2 17.5900 75.2203 25.1525 -6.8472 -4.0811 17.4594
# 3 61.7102 25.1525 146.5655 -15.4812 2.0655 2.5241
# 4 -10.4096 -6.8472 -15.4812 33.7301 7.2255 -2.8830
# 5 -12.6693 -4.0811 2.0655 7.2255 31.4292 -3.5496
# 6 8.6225 17.4594 2.5241 -2.8830 -3.5496 33.3962
#
#
#
# Elastic Compliance Matrix: (Units=1/GPa)
#
#
# Indices 1 2 3 4 5 6 
#
# 1 0.007987 -0.000264 -0.003332 0.000075 0.003238 -0.001322
# 2 -0.000264 0.016183 -0.002415 0.001203 0.000973 -0.008003
# 3 -0.003332 -0.002415 0.009010 0.003351 -0.002858 0.001427
# 4 0.000075 0.001203 0.003351 0.033164 -0.007527 0.001161
# 5 0.003238 0.000973 -0.002858 -0.007527 0.035391 0.001983
# 6 -0.001322 -0.008003 0.001427 0.001161 0.001983 0.034672
#
#
# Mechanical properties :
#
#
# Convention : Reuss Voigt Hill
#
# Bulk Modulus (GPa) = 47.26487 65.43191 56.34839
# Shear Modulus (GPa) = 32.15795 38.07971 35.11883
#
# Velocity S-wave (km/s) = 3.60703 3.92511 3.76943
# Velocity P-wave (km/s) = 6.03906 6.85674 6.46085
#
# Compressibility (1/GPa) = 0.02115736
#
# Stress axis : x y z
#
# Youngs Moduli (GPa) = 125.20604 61.79194 110.98741
#
# Poissons Ratio (x) = 0.01632 0.36985
# Poissons Ratio (y) = 0.03307 0.26802
# Poissons Ratio (z) = 0.41723 0.14922
#
# Static dielectric constant tensor:
#      x y z
#    x 4.726010 -0.055300 0.272620 
#    y -0.055300 5.362000 0.289200 
#    z 0.272620 0.289200 5.678840 
# 
# 
# High freq. dielectric constant tensor:
#      x y z
#    x 1.966130 0.023600 -0.016170 
#    y 0.023600 2.027760 0.020310 
#    z -0.016170 0.020310 2.016590 
# 
# From -- ./inp_files/534405.got.cif
#   From: 2010.06.25/outbox.cif.g09.slc.cpg/sg2_268_cif.got.tgz:534405.got - 2010.06.27 13:26:56.
