data_PCOD8002401
_publ_section_title
;
Structure prediction by ZEFSAII (Michael W. Deem and Ramdas Pophale) SiO2 
 PCOD8002401
Probable space group: P -1
;
_chemical_formula_sum "Si O2"
_cell_formula_units_Z 14
_cell_length_a 8.345701
_cell_length_b 15.390799
_cell_length_c 12.086460
_cell_angle_alpha 62.386531
_cell_angle_beta 51.971969
_cell_angle_gamma 105.574407
_cell_volume 659.085075
_symmetry_space_group_name_H-M "P -1"
_symmetry_group_IT_number 2
_symmetry_cell_setting 'triclinic'
loop_
_space_group_symop_operation_xyz
x,y,z
-x,-y,-z
loop_
_atom_site_type_symbol
_atom_site_label
_atom_site_fract_x
_atom_site_fract_y
_atom_site_fract_z
Si Si1 0.666018 0.368384 0.869869
Si Si2 0.570562 0.312458 0.570578
Si Si3 0.685209 0.436713 0.219208
Si Si4 0.302706 0.330492 0.226944
Si Si5 0.182974 0.781149 0.176067
Si Si6 0.392774 0.888216 0.270614
Si Si7 0.484757 0.434166 0.704491
O O1 0.608308 0.237629 0.926111
O O2 0.612647 0.426381 0.762071
O O3 0.037602 0.527760 0.662829
O O4 0.396147 0.278018 0.135568
O O5 0.516728 0.311143 0.464405
O O6 0.446413 0.155051 0.741418
O O7 0.361141 0.309392 0.738050
O O8 0.405801 0.341267 0.300830
O O9 0.786587 0.585582 0.134166
O O10 0.000000 0.500000 0.000000
O O11 0.907079 0.199466 0.465700
O O12 0.500000 0.500000 0.000000
O O13 0.232536 0.828257 0.253574
O O14 0.793299 0.614270 0.415094
O O15 0.314511 0.918872 0.959811
#
# Coordination Sequence:
#
# PCOD8002401 Si02
#       7
#     2   2   2   2   2   2   2
#     4  11  19  36  61  85 113 144 185 238 274 328
#     4  11  20  35  57  87 114 142 186 232 281 327
#     4  12  22  34  55  89 114 146 183 234 280 330
#     4  12  20  36  59  85 113 145 189 233 276 328
#     4  10  20  35  61  84 113 142 192 232 273 328
#     4  11  20  36  60  86 109 148 189 230 277 333
#     4  11  20  38  58  88 111 147 185 235 276 327
#
# _framework density 21.241567
#
# number of rings (size 3 to 8) (size 9 to 14) (size 15 to 20)
#    0.000    0.857    8.571    1.286    0.000    0.571 
#    0.000    0.714    0.000    0.857    0.000    0.000 
#    0.000    0.000    0.000    0.000    0.000    0.000 
#
# Total GULP energy -173584.215910 kJ/mol
# GULP energy per Si atom -12398.872565 kJ/mol
# Density = 2.119322 g / cm^3
# Si number density = 21.241567 Si / 1000 Ang^3
#
#
#
# Elastic Constant Matrix: (Units=GPa)
#
#
# Indices 1 2 3 4 5 6 
#
# 1 83.2765 32.3726 35.2551 0.8060 20.0891 -19.3150
# 2 32.3726 105.1923 61.2087 17.6952 -3.6325 -45.4699
# 3 35.2551 61.2087 85.9233 5.2358 21.9953 -17.4457
# 4 0.8060 17.6952 5.2358 43.6461 -10.8217 2.2979
# 5 20.0891 -3.6325 21.9953 -10.8217 28.7796 5.8743
# 6 -19.3150 -45.4699 -17.4457 2.2979 5.8743 42.1301
#
#
#
# Elastic Compliance Matrix: (Units=1/GPa)
#
#
# Indices 1 2 3 4 5 6 
#
# 1 0.019036 -0.001209 -0.000339 -0.004532 -0.016904 0.009886
# 2 -0.001209 0.040125 -0.024663 -0.011436 0.014090 0.031198
# 3 -0.000339 -0.024663 0.034878 -0.000702 -0.028087 -0.008376
# 4 -0.004532 -0.011436 -0.000702 0.033362 0.018708 -0.019139
# 5 -0.016904 0.014090 -0.028087 0.018708 0.080167 -0.016372
# 6 0.009886 0.031198 -0.008376 -0.019139 -0.016372 0.061798
#
#
# Mechanical properties :
#
#
# Convention : Reuss Voigt Hill
#
# Bulk Modulus (GPa) = 24.02817 59.11835 41.57326
# Shear Modulus (GPa) = 14.89594 32.61486 23.75540
#
# Velocity S-wave (km/s) = 2.65101 3.92270 3.34779
# Velocity P-wave (km/s) = 4.55048 6.95763 5.87859
#
# Compressibility (1/GPa) = 0.04161782
#
# Stress axis : x y z
#
# Youngs Moduli (GPa) = 52.53120 24.92195 28.67100
#
# Poissons Ratio (x) = 0.03013 0.00971
# Poissons Ratio (y) = 0.06352 0.70712
# Poissons Ratio (z) = 0.01779 0.61465
#
# Static dielectric constant tensor:
#      x y z
#    x 3.852010 -0.429790 0.189470 
#    y -0.429790 4.302270 0.403370 
#    z 0.189470 0.403370 3.834380 
# 
# 
# High freq. dielectric constant tensor:
#      x y z
#    x 1.833840 -0.026980 0.021690 
#    y -0.026980 1.834170 0.031200 
#    z 0.021690 0.031200 1.806460 
# 
# From -- ./inp_files/159122.got.cif
#   From: 2010.06.25/outbox.cif.g09.slc.cpg/sg2_80_cif.got.tgz:159122.got - 2010.06.27 13:26:56.
