data_PCOD8002250
_publ_section_title
;
Structure prediction by ZEFSAII (Michael W. Deem and Ramdas Pophale) SiO2 
 PCOD8002250
Probable space group: P -1
;
_chemical_formula_sum "Si O2"
_cell_formula_units_Z 16
_cell_length_a 11.289044
_cell_length_b 24.794432
_cell_length_c 14.768824
_cell_angle_alpha 149.850748
_cell_angle_beta 29.721141
_cell_angle_gamma 154.489239
_cell_volume 816.796962
_symmetry_space_group_name_H-M "P -1"
_symmetry_group_IT_number 2
_symmetry_cell_setting 'triclinic'
loop_
_space_group_symop_operation_xyz
x,y,z
-x,-y,-z
loop_
_atom_site_type_symbol
_atom_site_label
_atom_site_fract_x
_atom_site_fract_y
_atom_site_fract_z
Si Si1 0.847106 0.330211 0.519672
Si Si2 0.082389 0.853063 0.188745
Si Si3 0.272895 0.692782 0.909295
Si Si4 0.350613 0.487323 0.842237
Si Si5 0.685522 0.383360 0.425538
Si Si6 0.404352 0.386943 0.324099
Si Si7 0.560216 0.843840 0.610164
Si Si8 0.606284 0.627840 0.053224
O O1 0.648095 0.194410 0.394630
O O2 0.622706 0.335853 0.739287
O O3 0.022322 0.460598 0.523864
O O4 0.061741 0.317019 0.421322
O O5 0.827657 0.834104 0.394569
O O6 0.933368 0.753301 0.055971
O O7 0.307398 0.006789 0.227078
O O8 0.277085 0.820968 0.072118
O O9 0.286348 0.628649 0.716319
O O10 0.555513 0.724075 0.825308
O O11 0.970860 0.576625 0.993838
O O12 0.388764 0.370626 0.629070
O O13 0.388227 0.555259 0.819583
O O14 0.613617 0.595086 0.895610
O O15 0.656581 0.263813 0.324347
O O16 0.500000 0.500000 0.500000
O O17 0.500000 0.500000 0.000000
#
# Coordination Sequence:
#
# PCOD8002250 Si02
#       8
#     2   2   2   2   2   2   2   2
#     4  10  20  35  58  86 122 151 199 248 293 349
#     4  10  22  37  61  85 124 158 199 242 299 364
#     4  12  21  38  57  89 119 157 199 241 294 355
#     4  11  20  36  60  88 121 157 188 250 300 342
#     4  11  20  35  61  88 120 150 195 247 306 347
#     4  11  22  37  56  88 120 155 202 246 291 347
#     4  10  21  39  58  89 119 162 195 245 305 353
#     4  11  18  35  60  90 121 150 196 243 302 358
#
# _framework density 19.588712000000001
#
# number of rings (size 3 to 8) (size 9 to 14) (size 15 to 20)
#    0.000    1.250    6.250    1.500    0.000    3.500 
#    0.000    0.625    0.000    0.000    0.000    6.125 
#    0.000    0.000    0.000    0.000    0.000    0.000 
#
# Total GULP energy -198247.484371 kJ/mol
# GULP energy per Si atom -12390.467773 kJ/mol
# Density = 1.954413 g / cm^3
# Si number density = 19.588712 Si / 1000 Ang^3
#
#
#
# Elastic Constant Matrix: (Units=GPa)
#
#
# Indices 1 2 3 4 5 6 
#
# 1 114.3834 40.6313 68.3785 -0.2706 -15.3587 -0.5865
# 2 40.6313 70.5929 36.5468 12.2415 1.6491 5.6774
# 3 68.3785 36.5468 94.2196 -0.9791 -5.5094 -2.5253
# 4 -0.2706 12.2415 -0.9791 26.4739 -5.2530 4.6446
# 5 -15.3587 1.6491 -5.5094 -5.2530 44.8012 -3.2882
# 6 -0.5865 5.6774 -2.5253 4.6446 -3.2882 23.3328
#
#
#
# Elastic Compliance Matrix: (Units=1/GPa)
#
#
# Indices 1 2 3 4 5 6 
#
# 1 0.017575 -0.005598 -0.010210 0.003326 0.005424 0.000801
# 2 -0.005598 0.022428 -0.005168 -0.010782 -0.004990 -0.004714
# 3 -0.010210 -0.005168 0.020104 0.002497 -0.000352 0.002630
# 4 0.003326 -0.010782 0.002497 0.045113 0.006763 -0.005050
# 5 0.005424 -0.004990 -0.000352 0.006763 0.025374 0.003542
# 6 0.000801 -0.004714 0.002630 -0.005050 0.003542 0.045814
#
#
# Mechanical properties :
#
#
# Convention : Reuss Voigt Hill
#
# Bulk Modulus (GPa) = 55.07766 63.36767 59.22267
# Shear Modulus (GPa) = 22.28055 27.83087 25.05571
#
# Velocity S-wave (km/s) = 3.37622 3.77339 3.58032
# Velocity P-wave (km/s) = 6.58609 7.16965 6.88406
#
# Compressibility (1/GPa) = 0.01815618
#
# Stress axis : x y z
#
# Youngs Moduli (GPa) = 56.89921 44.58650 49.74186
#
# Poissons Ratio (x) = 0.24958 0.50788
# Poissons Ratio (y) = 0.31850 0.25704
# Poissons Ratio (z) = 0.58096 0.23040
#
# Static dielectric constant tensor:
#      x y z
#    x 3.696250 0.025570 -0.046960 
#    y 0.025570 3.360680 -0.071890 
#    z -0.046960 -0.071890 3.751040 
# 
# 
# High freq. dielectric constant tensor:
#      x y z
#    x 1.757170 -0.004370 -0.001260 
#    y -0.004370 1.723130 -0.017050 
#    z -0.001260 -0.017050 1.782600 
# 
# From -- ./inp_files/423565.got.cif
#   From: 2010.06.25/outbox.cif.g09.slc.cpg/sg2_212_cif.got.tgz:423565.got - 2010.06.27 13:26:56.
