data_PCOD8002814
_publ_section_title
;
Structure prediction by ZEFSAII (Michael W. Deem and Ramdas Pophale) SiO2 
 PCOD8002814
Probable space group: P -1
;
_chemical_formula_sum "Si O2"
_cell_formula_units_Z 16
_cell_length_a 9.498396
_cell_length_b 10.920577
_cell_length_c 11.502774
_cell_angle_alpha 62.985301
_cell_angle_beta 45.038325
_cell_angle_gamma 70.521454
_cell_volume 751.990958
_symmetry_space_group_name_H-M "P -1"
_symmetry_group_IT_number 2
_symmetry_cell_setting 'triclinic'
loop_
_space_group_symop_operation_xyz
x,y,z
-x,-y,-z
loop_
_atom_site_type_symbol
_atom_site_label
_atom_site_fract_x
_atom_site_fract_y
_atom_site_fract_z
Si Si1 0.835998 0.395716 0.683641
Si Si2 0.102013 0.711298 0.061626
Si Si3 0.675682 0.810302 0.523413
Si Si4 0.153613 0.376683 0.944768
Si Si5 0.007507 0.861424 0.715587
Si Si6 0.731016 0.059823 0.261693
Si Si7 0.941335 0.164427 0.568851
Si Si8 0.459344 0.550474 0.794034
O O1 0.932534 0.318984 0.771132
O O2 0.626596 0.468967 0.807587
O O3 0.000000 0.500000 0.500000
O O4 0.793191 0.277159 0.664563
O O5 0.894488 0.682109 0.129458
O O6 0.152130 0.872587 0.943513
O O7 0.287718 0.617490 0.945553
O O8 0.502758 0.910141 0.633136
O O9 0.836260 0.792368 0.540209
O O10 0.580765 0.666564 0.602992
O O11 0.767560 0.893877 0.322586
O O12 0.371011 0.442711 0.799286
O O13 0.138240 0.256653 0.102866
O O14 0.000000 0.500000 0.000000
O O15 0.085838 0.820752 0.559683
O O16 0.192229 0.868320 0.694243
O O17 0.893792 0.010029 0.707242
#
# Coordination Sequence:
#
# PCOD8002814 Si02
#       8
#     2   2   2   2   2   2   2   2
#     4  12  24  37  55  88 125 149 188 238 290 339
#     4   9  20  38  59  85 111 153 191 233 290 338
#     4   9  16  32  54  87 110 141 186 237 282 326
#     4   9  19  35  62  84 112 147 198 236 275 347
#     4   9  19  38  59  84 106 155 195 231 283 336
#     4   8  16  33  60  82 110 141 199 236 273 341
#     4  10  21  36  58  79 118 152 190 235 281 339
#     4  10  20  36  59  86 114 153 192 233 280 346
#
# _framework density 21.276852000000002
#
# number of rings (size 3 to 8) (size 9 to 14) (size 15 to 20)
#    0.000    2.500    1.250    1.125    3.500    2.000 
#    0.000    8.125    0.000    0.000    0.000    0.000 
#    0.000    0.000    0.000    0.000    0.000    0.000 
#
# Total GULP energy -198231.133303 kJ/mol
# GULP energy per Si atom -12389.445831 kJ/mol
# Density = 2.122842 g / cm^3
# Si number density = 21.276852 Si / 1000 Ang^3
#
#
#
# Elastic Constant Matrix: (Units=GPa)
#
#
# Indices 1 2 3 4 5 6 
#
# 1 78.8381 16.3321 49.5869 -22.7497 3.6238 -1.8136
# 2 16.3321 85.9309 39.5594 -32.2761 6.8282 9.2999
# 3 49.5869 39.5594 102.9931 -44.5996 16.5217 14.0758
# 4 -22.7497 -32.2761 -44.5996 38.1212 1.0216 -5.4817
# 5 3.6238 6.8282 16.5217 1.0216 38.6567 -2.8128
# 6 -1.8136 9.2999 14.0758 -5.4817 -2.8128 27.4452
#
#
#
# Elastic Compliance Matrix: (Units=1/GPa)
#
#
# Indices 1 2 3 4 5 6 
#
# 1 0.019604 0.000300 -0.011151 -0.000144 0.003405 0.007233
# 2 0.000300 0.017942 0.001398 0.016561 -0.004518 -0.003932
# 3 -0.011151 0.001398 0.031664 0.030104 -0.014470 -0.012920
# 4 -0.000144 0.016561 0.030104 0.074727 -0.018336 -0.008014
# 5 0.003405 -0.004518 -0.014470 -0.018336 0.033669 0.008966
# 6 0.007233 -0.003932 -0.012920 -0.008014 0.008966 0.044191
#
#
# Mechanical properties :
#
#
# Convention : Reuss Voigt Hill
#
# Bulk Modulus (GPa) = 19.87905 53.19101 36.53503
# Shear Modulus (GPa) = 19.41964 31.66354 25.54159
#
# Velocity S-wave (km/s) = 3.02439 3.86186 3.46850
# Velocity P-wave (km/s) = 4.64319 6.70366 5.76621
#
# Compressibility (1/GPa) = 0.05030423
#
# Stress axis : x y z
#
# Youngs Moduli (GPa) = 51.01021 55.73632 31.58118
#
# Poissons Ratio (x) = -0.01673 0.35215
# Poissons Ratio (y) = -0.01531 -0.04414
# Poissons Ratio (z) = 0.56880 -0.07790
#
# Static dielectric constant tensor:
#      x y z
#    x 4.105230 0.007570 -0.164600 
#    y 0.007570 4.072170 -0.571060 
#    z -0.164600 -0.571060 3.724590 
# 
# 
# High freq. dielectric constant tensor:
#      x y z
#    x 1.829770 -0.010760 -0.004860 
#    y -0.010760 1.835380 -0.039730 
#    z -0.004860 -0.039730 1.810500 
# 
# From -- ./inp_files/389150.got.cif
#   From: 2010.06.25/outbox.cif.g09.slc.cpg/sg2_195_cif.got.tgz:389150.got - 2010.06.27 13:26:56.
