data_PCOD8002948
_publ_section_title
;
Structure prediction by ZEFSAII (Michael W. Deem and Ramdas Pophale) SiO2 
 PCOD8002948
Probable space group: P -1
;
_chemical_formula_sum "Si O2"
_cell_formula_units_Z 16
_cell_length_a 21.330996
_cell_length_b 9.486296
_cell_length_c 8.428041
_cell_angle_alpha 102.791632
_cell_angle_beta 74.256317
_cell_angle_gamma 152.792964
_cell_volume 749.715730
_symmetry_space_group_name_H-M "P -1"
_symmetry_group_IT_number 2
_symmetry_cell_setting 'triclinic'
loop_
_space_group_symop_operation_xyz
x,y,z
-x,-y,-z
loop_
_atom_site_type_symbol
_atom_site_label
_atom_site_fract_x
_atom_site_fract_y
_atom_site_fract_z
Si Si1 0.856973 0.678431 0.600421
Si Si2 0.695986 0.107224 0.655730
Si Si3 0.444955 0.784425 0.851991
Si Si4 0.264762 0.616901 0.702841
Si Si5 0.634576 0.878940 0.312604
Si Si6 0.747291 0.836596 0.040922
Si Si7 0.967078 0.049685 0.899598
Si Si8 0.613679 0.709018 0.834272
O O1 0.841122 0.479947 0.624198
O O2 0.739533 0.467534 0.490602
O O3 0.847678 0.757193 0.785608
O O4 0.000000 0.000000 0.500000
O O5 0.574648 0.990484 0.707041
O O6 0.674109 0.952800 0.488426
O O7 0.690272 0.007333 0.800160
O O8 0.327654 0.628872 0.786740
O O9 0.379477 0.513644 0.906189
O O10 0.500000 0.000000 0.000000
O O11 0.109283 0.362552 0.790851
O O12 0.351952 0.934507 0.722240
O O13 0.737212 0.966364 0.177753
O O14 0.470823 0.520022 0.314666
O O15 0.732119 0.839207 0.861954
O O16 0.897712 0.058073 0.023203
O O17 0.000000 0.000000 0.000000
O O18 0.500000 0.500000 0.000000
#
# Coordination Sequence:
#
# PCOD8002948 Si02
#       8
#     2   2   2   2   2   2   2   2
#     4   9  22  43  63  92 128 168 220 260 318 384
#     4  11  22  39  66  94 130 174 206 265 333 375
#     4  12  23  36  65 101 127 167 220 261 326 387
#     4  10  23  41  64  91 132 170 215 276 317 379
#     4  10  22  40  60  92 133 167 213 263 323 390
#     4  11  23  39  61  94 129 169 220 264 317 386
#     4  11  22  41  66  92 122 177 218 274 321 369
#     4  10  20  36  60  92 130 166 205 265 316 381
#
# _framework density 21.341422000000001
#
# number of rings (size 3 to 8) (size 9 to 14) (size 15 to 20)
#    0.000    1.500    3.750    1.875    1.750    3.500 
#    0.000    0.000    0.000    3.750    0.000    0.000 
#    0.000    0.000    0.000    0.000    0.000    0.000 
#
# Total GULP energy -198258.995936 kJ/mol
# GULP energy per Si atom -12391.187246 kJ/mol
# Density = 2.129285 g / cm^3
# Si number density = 21.341422 Si / 1000 Ang^3
#
#
#
# Elastic Constant Matrix: (Units=GPa)
#
#
# Indices 1 2 3 4 5 6 
#
# 1 125.9354 35.4318 47.8095 2.2499 10.1771 0.6208
# 2 35.4318 104.3451 32.6406 -9.6136 12.1354 -20.5895
# 3 47.8095 32.6406 101.1642 9.2335 6.8263 -5.6860
# 4 2.2499 -9.6136 9.2335 37.8290 -9.4089 5.7733
# 5 10.1771 12.1354 6.8263 -9.4089 33.9317 -8.0440
# 6 0.6208 -20.5895 -5.6860 5.7733 -8.0440 33.2775
#
#
#
# Elastic Compliance Matrix: (Units=1/GPa)
#
#
# Indices 1 2 3 4 5 6 
#
# 1 0.010422 -0.002640 -0.004059 -0.000387 -0.002179 -0.002981
# 2 -0.002640 0.013094 -0.002790 0.002884 -0.000880 0.006961
# 3 -0.004059 -0.002790 0.013235 -0.004193 -0.001371 0.001007
# 4 -0.000387 0.002884 -0.004193 0.030519 0.007840 -0.002324
# 5 -0.002179 -0.000880 -0.001371 0.007840 0.034361 0.006208
# 6 -0.002981 0.006961 0.001007 -0.002324 0.006208 0.036489
#
#
# Mechanical properties :
#
#
# Convention : Reuss Voigt Hill
#
# Bulk Modulus (GPa) = 56.26072 62.57873 59.41972
# Shear Modulus (GPa) = 30.67090 35.37850 33.02470
#
# Velocity S-wave (km/s) = 3.79509 4.07595 3.93803
# Velocity P-wave (km/s) = 6.75449 7.17896 6.96996
#
# Compressibility (1/GPa) = 0.01777439
#
# Stress axis : x y z
#
# Youngs Moduli (GPa) = 95.95285 76.36876 75.55671
#
# Poissons Ratio (x) = 0.20158 0.30667
# Poissons Ratio (y) = 0.25328 0.21081
# Poissons Ratio (z) = 0.38945 0.21307
#
# Static dielectric constant tensor:
#      x y z
#    x 3.890330 -0.106050 0.214980 
#    y -0.106050 4.036560 0.097780 
#    z 0.214980 0.097780 4.163450 
# 
# 
# High freq. dielectric constant tensor:
#      x y z
#    x 1.816500 -0.018330 0.015230 
#    y -0.018330 1.839390 -0.002650 
#    z 0.015230 -0.002650 1.846130 
# 
# From -- ./inp_files/343652.got.cif
#   From: 2010.06.25/outbox.cif.g09.slc.cpg/sg2_172_cif.got.tgz:343652.got - 2010.06.27 13:26:56.
