data_PCOD8002512
_publ_section_title
;
Structure prediction by ZEFSAII (Michael W. Deem and Ramdas Pophale) SiO2 
 PCOD8002512
Probable space group: P -1
;
_chemical_formula_sum "Si O2"
_cell_formula_units_Z 16
_cell_length_a 9.112878
_cell_length_b 15.162753
_cell_length_c 11.508709
_cell_angle_alpha 40.773929
_cell_angle_beta 56.562090
_cell_angle_gamma 55.409970
_cell_volume 832.986774
_symmetry_space_group_name_H-M "P -1"
_symmetry_group_IT_number 2
_symmetry_cell_setting 'triclinic'
loop_
_space_group_symop_operation_xyz
x,y,z
-x,-y,-z
loop_
_atom_site_type_symbol
_atom_site_label
_atom_site_fract_x
_atom_site_fract_y
_atom_site_fract_z
Si Si1 0.774353 0.760428 0.408081
Si Si2 0.245219 0.481328 0.188042
Si Si3 0.480557 0.381255 0.714219
Si Si4 0.859188 0.183573 0.794409
Si Si5 0.048789 0.892686 0.918260
Si Si6 0.394903 0.953743 0.695093
Si Si7 0.480305 0.364175 0.993192
Si Si8 0.861608 0.676453 0.190025
O O1 0.685464 0.657777 0.623229
O O2 0.791719 0.708175 0.320395
O O3 0.974890 0.753697 0.379360
O O4 0.648784 0.922720 0.311140
O O5 0.340561 0.601886 0.063429
O O6 0.025509 0.533526 0.248216
O O7 0.301570 0.438107 0.073944
O O8 0.500000 0.500000 0.500000
O O9 0.671525 0.263527 0.735947
O O10 0.449412 0.431886 0.810703
O O11 0.310285 0.324083 0.812303
O O12 0.843620 0.195020 0.929696
O O13 0.890303 0.023131 0.903922
O O14 0.204867 0.939945 0.732900
O O15 0.948192 0.798383 0.982367
O O16 0.500000 0.000000 0.500000
O O17 0.502562 0.803175 0.852501
#
# Coordination Sequence:
#
# PCOD8002512 Si02
#       8
#     2   2   2   2   2   2   2   2
#     4  10  20  35  64  92 116 154 204 257 298 351
#     4  11  21  39  62  87 119 157 208 255 298 351
#     4  12  24  39  58  88 128 164 198 242 305 373
#     4   9  18  35  59  83 119 146 202 245 296 342
#     4   9  18  36  59  87 110 154 194 256 290 344
#     4  11  19  37  64  94 117 148 206 259 305 343
#     4  11  23  39  62  88 121 162 203 253 299 359
#     4  11  22  35  59  89 124 159 200 244 305 360
#
# _framework density 19.207986999999999
#
# number of rings (size 3 to 8) (size 9 to 14) (size 15 to 20)
#    0.000    1.500    3.750    3.375    0.000    1.000 
#    0.000    0.000    0.000    0.750    0.000    0.000 
#    0.000    0.000    0.000    0.000    0.000    0.000 
#
# Total GULP energy -198309.881465 kJ/mol
# GULP energy per Si atom -12394.367592 kJ/mol
# Density = 1.916427 g / cm^3
# Si number density = 19.207987 Si / 1000 Ang^3
#
#
#
# Elastic Constant Matrix: (Units=GPa)
#
#
# Indices 1 2 3 4 5 6 
#
# 1 101.8989 39.3549 29.3887 0.1759 -1.5651 -7.1401
# 2 39.3549 125.3917 48.0967 6.7303 8.3664 -3.2409
# 3 29.3887 48.0967 113.4905 6.5590 -3.4784 -1.2800
# 4 0.1759 6.7303 6.5590 36.5805 -0.7021 0.3825
# 5 -1.5651 8.3664 -3.4784 -0.7021 28.2094 -0.7037
# 6 -7.1401 -3.2409 -1.2800 0.3825 -0.7037 20.5525
#
#
#
# Elastic Compliance Matrix: (Units=1/GPa)
#
#
# Indices 1 2 3 4 5 6 
#
# 1 0.011766 -0.003091 -0.001699 0.000808 0.001468 0.003530
# 2 -0.003091 0.010734 -0.003785 -0.001358 -0.003849 0.000276
# 3 -0.001699 -0.003785 0.010993 -0.001217 0.002343 -0.000399
# 4 0.000808 -0.001358 -0.001217 0.027825 0.000978 -0.000494
# 5 0.001468 -0.003849 0.002343 0.000978 0.037018 0.001298
# 6 0.003530 0.000276 -0.000399 -0.000494 0.001298 0.049954
#
#
# Mechanical properties :
#
#
# Convention : Reuss Voigt Hill
#
# Bulk Modulus (GPa) = 61.18799 63.82908 62.50854
# Shear Modulus (GPa) = 29.25908 31.99786 30.62847
#
# Velocity S-wave (km/s) = 3.90715 4.08593 3.99754
# Velocity P-wave (km/s) = 7.23043 7.45402 7.34307
#
# Compressibility (1/GPa) = 0.01634308
#
# Stress axis : x y z
#
# Youngs Moduli (GPa) = 84.99089 93.16360 90.96860
#
# Poissons Ratio (x) = 0.28801 0.15452
# Poissons Ratio (y) = 0.26274 0.34429
# Poissons Ratio (z) = 0.14437 0.35260
#
# Static dielectric constant tensor:
#      x y z
#    x 3.433960 -0.126800 -0.226010 
#    y -0.126800 3.734450 -0.069250 
#    z -0.226010 -0.069250 3.671480 
# 
# 
# High freq. dielectric constant tensor:
#      x y z
#    x 1.706370 -0.013040 -0.031230 
#    y -0.013040 1.763250 -0.006310 
#    z -0.031230 -0.006310 1.751250 
# 
# From -- ./inp_files/398365.got.cif
#   From: 2010.06.25/outbox.cif.g09.slc.cpg/sg2_200_cif.got.tgz:398365.got - 2010.06.27 13:26:56.
