data_PCOD8002209
_publ_section_title
;
Structure prediction by ZEFSAII (Michael W. Deem and Ramdas Pophale) SiO2 
 PCOD8002209
Probable space group: P -1
;
_chemical_formula_sum "Si O2"
_cell_formula_units_Z 12
_cell_length_a 28.982566
_cell_length_b 28.943163
_cell_length_c 9.792556
_cell_angle_alpha 24.893320
_cell_angle_beta 25.097229
_cell_angle_gamma 9.879006
_cell_volume 585.060312
_symmetry_space_group_name_H-M "P -1"
_symmetry_group_IT_number 2
_symmetry_cell_setting 'triclinic'
loop_
_space_group_symop_operation_xyz
x,y,z
-x,-y,-z
loop_
_atom_site_type_symbol
_atom_site_label
_atom_site_fract_x
_atom_site_fract_y
_atom_site_fract_z
Si Si1 0.782055 0.419745 0.643401
Si Si2 0.554735 0.884870 0.367571
Si Si3 0.058954 0.756745 0.620130
Si Si4 0.043904 0.368513 0.621158
Si Si5 0.596159 0.363845 0.250946
Si Si6 0.330338 0.998381 0.398720
O O1 0.879844 0.335506 0.451031
O O2 0.527361 0.736237 0.490231
O O3 0.691086 0.381431 0.037529
O O4 0.026316 0.231073 0.592881
O O5 0.795848 0.597438 0.566425
O O6 0.426538 0.920454 0.505702
O O7 0.325584 0.135424 0.416102
O O8 0.682986 0.871699 0.986369
O O9 0.335100 0.540911 0.536962
O O10 0.929608 0.774988 0.997400
O O11 0.847654 0.050959 0.396588
O O12 0.000000 0.500000 0.500000
O O13 0.500000 0.500000 0.000000
#
# Coordination Sequence:
#
# PCOD8002209 Si02
#       6
#     2   2   2   2   2   2
#     4  11  20  36  61  88 111 147 195 235 286 332
#     4  11  24  40  57  86 117 152 190 231 287 332
#     4  11  21  36  58  88 121 147 181 240 292 334
#     4  12  24  39  61  86 118 152 186 227 287 354
#     4  10  20  35  57  87 118 147 187 239 287 328
#     4  11  22  38  61  83 115 150 193 241 272 334
#
# _framework density 20.510705999999999
#
# number of rings (size 3 to 8) (size 9 to 14) (size 15 to 20)
#    0.000    1.000    0.000   10.500    0.000    2.667 
#    0.000    0.000    0.000   20.000    0.000    0.000 
#    0.000    0.000    0.000    0.000    0.000    0.000 
#
# Total GULP energy -148853.845295 kJ/mol
# GULP energy per Si atom -12404.487108 kJ/mol
# Density = 2.046402 g / cm^3
# Si number density = 20.510706 Si / 1000 Ang^3
#
#
#
# Elastic Constant Matrix: (Units=GPa)
#
#
# Indices 1 2 3 4 5 6 
#
# 1 51.5544 -9.8221 30.1008 -4.0275 -17.9620 -6.1095
# 2 -9.8221 75.1346 3.7140 -5.2760 -8.1911 2.6526
# 3 30.1008 3.7140 71.3990 -4.5333 -16.0294 -3.1649
# 4 -4.0275 -5.2760 -4.5333 37.5322 -4.9345 -9.8378
# 5 -17.9620 -8.1911 -16.0294 -4.9345 30.4778 4.6256
# 6 -6.1095 2.6526 -3.1649 -9.8378 4.6256 33.7799
#
#
#
# Elastic Compliance Matrix: (Units=1/GPa)
#
#
# Indices 1 2 3 4 5 6 
#
# 1 0.033497 0.007025 -0.010118 0.006664 0.016749 0.004206
# 2 0.007025 0.015452 -0.001736 0.003739 0.008002 -0.000113
# 3 -0.010118 -0.001736 0.019358 0.001539 0.003998 0.000021
# 4 0.006664 0.003739 0.001539 0.031674 0.009508 0.008979
# 5 0.016749 0.008002 0.003998 0.009508 0.048643 -0.001117
# 6 0.004206 -0.000113 0.000021 0.008979 -0.001117 0.033143
#
#
# Mechanical properties :
#
#
# Convention : Reuss Voigt Hill
#
# Bulk Modulus (GPa) = 17.05073 27.34149 22.19611
# Shear Modulus (GPa) = 23.69943 31.96433 27.83188
#
# Velocity S-wave (km/s) = 3.40290 3.95197 3.68767
# Velocity P-wave (km/s) = 4.87553 5.84665 5.38304
#
# Compressibility (1/GPa) = 0.05864850
#
# Stress axis : x y z
#
# Youngs Moduli (GPa) = 29.85334 64.71455 51.65907
#
# Poissons Ratio (x) = -0.45459 0.52266
# Poissons Ratio (y) = -0.20971 0.08970
# Poissons Ratio (z) = 0.30204 0.11237
#
# Static dielectric constant tensor:
#      x y z
#    x 3.865550 -0.180770 -0.331130 
#    y -0.180770 3.781970 -0.029620 
#    z -0.331130 -0.029620 3.639900 
# 
# 
# High freq. dielectric constant tensor:
#      x y z
#    x 1.791310 -0.009000 -0.024580 
#    y -0.009000 1.824120 -0.001280 
#    z -0.024580 -0.001280 1.797760 
# 
# From -- ./inp_files/36513.got.cif
#   From: 2010.06.25/outbox.cif.g09.slc.cpg/sg2_19_cif.got.tgz:36513.got - 2010.06.27 13:26:56.
