data_PCOD8002363
_publ_section_title
;
Structure prediction by ZEFSAII (Michael W. Deem and Ramdas Pophale) SiO2 
 PCOD8002363
Probable space group: P -1
;
_chemical_formula_sum "Si O2"
_cell_formula_units_Z 16
_cell_length_a 9.776512
_cell_length_b 23.662155
_cell_length_c 15.560025
_cell_angle_alpha 18.738819
_cell_angle_beta 42.075845
_cell_angle_gamma 46.792889
_cell_volume 772.104074
_symmetry_space_group_name_H-M "P -1"
_symmetry_group_IT_number 2
_symmetry_cell_setting 'triclinic'
loop_
_space_group_symop_operation_xyz
x,y,z
-x,-y,-z
loop_
_atom_site_type_symbol
_atom_site_label
_atom_site_fract_x
_atom_site_fract_y
_atom_site_fract_z
Si Si1 0.670595 0.897592 0.323352
Si Si2 0.798383 0.094238 0.738188
Si Si3 0.903935 0.224070 0.677801
Si Si4 0.995315 0.797346 0.971367
Si Si5 0.288937 0.484153 0.569333
Si Si6 0.535518 0.779792 0.387988
Si Si7 0.730619 0.447073 0.713271
Si Si8 0.440836 0.852509 0.670587
O O1 0.514935 0.783584 0.495907
O O2 0.597036 0.869685 0.494718
O O3 0.884973 0.818784 0.316911
O O4 0.711046 0.104903 0.982281
O O5 0.937628 0.971585 0.795789
O O6 0.928151 0.204259 0.592063
O O7 0.691399 0.238551 0.521638
O O8 0.626869 0.976248 0.039747
O O9 0.872593 0.424891 0.427068
O O10 0.206857 0.862279 0.730301
O O11 0.810724 0.718205 0.109146
O O12 0.048008 0.630977 0.250491
O O13 0.500000 0.500000 0.500000
O O14 0.316486 0.582257 0.323297
O O15 0.695161 0.648008 0.466220
O O16 0.552826 0.333061 0.014640
O O17 0.500000 0.000000 0.500000
#
# Coordination Sequence:
#
# PCOD8002363 Si02
#       8
#     2   2   2   2   2   2   2   2
#     4  10  21  37  62  88 117 156 213 256 302 365
#     4  10  20  37  59  89 128 156 199 253 313 368
#     4  10  22  35  63  90 120 156 205 265 305 364
#     4  10  23  38  66  89 122 168 205 254 307 376
#     4  12  23  37  62  97 129 153 206 260 311 365
#     4  10  20  35  60  88 120 162 201 250 315 360
#     4  10  22  38  66  86 125 163 209 254 307 369
#     4  10  22  40  63  88 122 164 214 256 308 366
#
# _framework density 20.722595999999999
#
# number of rings (size 3 to 8) (size 9 to 14) (size 15 to 20)
#    0.750    1.000    1.250    3.375    8.750    0.500 
#    0.000    0.625    2.750    3.750    0.000    0.000 
#    0.000    0.000    0.000    0.000    0.000    0.000 
#
# Total GULP energy -198228.358653 kJ/mol
# GULP energy per Si atom -12389.272416 kJ/mol
# Density = 2.067543 g / cm^3
# Si number density = 20.722596 Si / 1000 Ang^3
#
#
#
# Elastic Constant Matrix: (Units=GPa)
#
#
# Indices 1 2 3 4 5 6 
#
# 1 121.2624 37.8335 34.4794 0.9485 3.2755 16.9179
# 2 37.8335 122.6554 31.8412 -12.5080 5.3199 18.7596
# 3 34.4794 31.8412 27.1914 -3.0177 -0.2049 6.0308
# 4 0.9485 -12.5080 -3.0177 28.6686 -4.3483 -4.2184
# 5 3.2755 5.3199 -0.2049 -4.3483 22.6151 -4.0517
# 6 16.9179 18.7596 6.0308 -4.2184 -4.0517 35.8626
#
#
#
# Elastic Compliance Matrix: (Units=1/GPa)
#
#
# Indices 1 2 3 4 5 6 
#
# 1 0.013886 0.000992 -0.018082 -0.003235 -0.003899 -0.004850
# 2 0.000992 0.012927 -0.015055 0.002765 -0.003647 -0.004785
# 3 -0.018082 -0.015055 0.076759 0.004133 0.008537 0.004947
# 4 -0.003235 0.002765 0.004133 0.038577 0.008140 0.004842
# 5 -0.003899 -0.003647 0.008537 0.008140 0.048858 0.008789
# 6 -0.004850 -0.004785 0.004947 0.004842 0.008789 0.033406
#
#
# Mechanical properties :
#
#
# Convention : Reuss Voigt Hill
#
# Bulk Modulus (GPa) = 25.45628 53.26862 39.36245
# Shear Modulus (GPa) = 16.56746 28.55959 22.56353
#
# Velocity S-wave (km/s) = 2.83059 3.71642 3.30333
# Velocity P-wave (km/s) = 4.79520 6.64658 5.79530
#
# Compressibility (1/GPa) = 0.03928304
#
# Stress axis : x y z
#
# Youngs Moduli (GPa) = 72.01693 77.35606 13.02771
#
# Poissons Ratio (x) = -0.07673 0.23556
# Poissons Ratio (y) = -0.07143 0.19613
# Poissons Ratio (z) = 1.30218 1.16458
#
# Static dielectric constant tensor:
#      x y z
#    x 3.985910 0.137780 0.075130 
#    y 0.137780 3.651900 -0.063510 
#    z 0.075130 -0.063510 3.594560 
# 
# 
# High freq. dielectric constant tensor:
#      x y z
#    x 1.816990 0.008050 -0.003080 
#    y 0.008050 1.811940 -0.015650 
#    z -0.003080 -0.015650 1.771880 
# 
# From -- ./inp_files/508695.got.cif
#   From: 2010.06.25/outbox.cif.g09.slc.cpg/sg2_255_cif.got.tgz:508695.got - 2010.06.27 13:26:56.
