data_PCOD8002137
_publ_section_title
;
Structure prediction by ZEFSAII (Michael W. Deem and Ramdas Pophale) SiO2 
 PCOD8002137
Probable space group: P -1
;
_chemical_formula_sum "Si O2"
_cell_formula_units_Z 10
_cell_length_a 10.080070
_cell_length_b 14.515655
_cell_length_c 8.461374
_cell_angle_alpha 148.117660
_cell_angle_beta 118.495917
_cell_angle_gamma 50.241966
_cell_volume 496.019024
_symmetry_space_group_name_H-M "P -1"
_symmetry_group_IT_number 2
_symmetry_cell_setting 'triclinic'
loop_
_space_group_symop_operation_xyz
x,y,z
-x,-y,-z
loop_
_atom_site_type_symbol
_atom_site_label
_atom_site_fract_x
_atom_site_fract_y
_atom_site_fract_z
Si Si1 0.326280 0.607446 0.402102
Si Si2 0.056876 0.172565 0.435933
Si Si3 0.631010 0.774312 0.294802
Si Si4 0.426920 0.397520 0.694941
Si Si5 0.188366 0.728699 0.826340
O O1 0.427983 0.705676 0.512750
O O2 0.342133 0.624954 0.627105
O O3 0.119076 0.733223 0.420095
O O4 0.403262 0.376501 0.050730
O O5 0.170556 0.275489 0.692568
O O6 0.997282 0.214567 0.277142
O O7 0.175891 0.932126 0.182907
O O8 0.603291 0.756871 0.442290
O O9 0.500000 0.000000 0.500000
O O10 0.241046 0.567622 0.762451
O O11 0.500000 0.500000 0.000000
#
# Coordination Sequence:
#
# PCOD8002137 Si02
#       5
#     2   2   2   2   2
#     4   9  19  37  59  80 106 145 181 218 271 322
#     4   9  19  36  61  79 110 139 181 223 272 315
#     4  11  22  37  54  81 114 144 179 225 268 315
#     4  10  20  35  56  81 110 145 179 219 271 324
#     4   9  19  37  61  78 109 143 181 219 272 324
#
# _framework density 20.160518
#
# number of rings (size 3 to 8) (size 9 to 14) (size 15 to 20)
#    1.200    1.200    0.000    3.600    0.000    0.800 
#    0.000   15.000    0.000    0.000    0.000    0.000 
#    0.000    0.000    0.000    0.000    0.000    0.000 
#
# Total GULP energy -123892.510463 kJ/mol
# GULP energy per Si atom -12389.251046 kJ/mol
# Density = 2.011463 g / cm^3
# Si number density = 20.160518 Si / 1000 Ang^3
#
#
#
# Elastic Constant Matrix: (Units=GPa)
#
#
# Indices 1 2 3 4 5 6 
#
# 1 76.5400 39.5373 18.6632 21.3175 -2.2077 9.6748
# 2 39.5373 126.9387 23.1513 24.5403 -2.1142 20.5335
# 3 18.6632 23.1513 75.2877 17.2944 -12.2675 10.6325
# 4 21.3175 24.5403 17.2944 30.3694 -6.0210 3.4370
# 5 -2.2077 -2.1142 -12.2675 -6.0210 24.6401 -3.8214
# 6 9.6748 20.5335 10.6325 3.4370 -3.8214 27.4019
#
#
#
# Elastic Compliance Matrix: (Units=1/GPa)
#
#
# Indices 1 2 3 4 5 6 
#
# 1 0.017880 -0.003139 -0.001271 -0.009395 -0.001994 -0.002567
# 2 -0.003139 0.011190 -0.000682 -0.006141 -0.002176 -0.006545
# 3 -0.001271 -0.000682 0.016835 -0.006508 0.006011 -0.003917
# 4 -0.009395 -0.006141 -0.006508 0.049215 0.008258 0.005423
# 5 -0.001994 -0.002176 0.006011 0.008258 0.046066 0.005391
# 6 -0.002567 -0.006545 -0.003917 0.005423 0.005391 0.043897
#
#
# Mechanical properties :
#
#
# Convention : Reuss Voigt Hill
#
# Bulk Modulus (GPa) = 27.99582 49.05221 38.52401
# Shear Modulus (GPa) = 24.13437 29.64323 26.88880
#
# Velocity S-wave (km/s) = 3.46368 3.83869 3.65600
# Velocity P-wave (km/s) = 5.46925 6.63559 6.08045
#
# Compressibility (1/GPa) = 0.03571962
#
# Stress axis : x y z
#
# Youngs Moduli (GPa) = 55.92793 89.36907 59.39964
#
# Poissons Ratio (x) = 0.28051 0.07552
# Poissons Ratio (y) = 0.17555 0.04054
# Poissons Ratio (z) = 0.07110 0.06099
#
# Static dielectric constant tensor:
#      x y z
#    x 4.003360 0.113160 -0.114220 
#    y 0.113160 3.709080 -0.060710 
#    z -0.114220 -0.060710 3.361800 
# 
# 
# High freq. dielectric constant tensor:
#      x y z
#    x 1.777490 -0.019780 -0.007470 
#    y -0.019780 1.790660 -0.000620 
#    z -0.007470 -0.000620 1.763200 
# 
# From -- ./inp_files/144786.got.cif
#   From: 2010.06.25/outbox.cif.g09.slc.cpg/sg2_73_cif.got.tgz:144786.got - 2010.06.27 13:26:56.
