data_PCOD8002195
_publ_section_title
;
Structure prediction by ZEFSAII (Michael W. Deem and Ramdas Pophale) SiO2 
 PCOD8002195
Probable space group: P -1
;
_chemical_formula_sum "Si O2"
_cell_formula_units_Z 14
_cell_length_a 12.249510
_cell_length_b 13.174238
_cell_length_c 16.571462
_cell_angle_alpha 153.316001
_cell_angle_beta 142.238776
_cell_angle_gamma 46.646251
_cell_volume 733.495244
_symmetry_space_group_name_H-M "P -1"
_symmetry_group_IT_number 2
_symmetry_cell_setting 'triclinic'
loop_
_space_group_symop_operation_xyz
x,y,z
-x,-y,-z
loop_
_atom_site_type_symbol
_atom_site_label
_atom_site_fract_x
_atom_site_fract_y
_atom_site_fract_z
Si Si1 0.429387 0.195547 0.043857
Si Si2 0.358650 0.498513 0.729609
Si Si3 0.353559 0.444457 0.943377
Si Si4 0.788400 0.989919 0.362497
Si Si5 0.242828 0.202901 0.314038
Si Si6 0.871425 0.318823 0.132489
Si Si7 0.425741 0.592942 0.440342
O O1 0.602037 0.298839 0.167961
O O2 0.355064 0.387833 0.194841
O O3 0.270608 0.099277 0.824221
O O4 0.500000 0.000000 0.000000
O O5 0.276019 0.275037 0.477656
O O6 0.218582 0.568890 0.763954
O O7 0.552146 0.446745 0.843884
O O8 0.302829 0.177743 0.741161
O O9 0.174915 0.558065 0.891238
O O10 0.500000 0.500000 0.000000
O O11 0.733539 0.245081 0.523635
O O12 0.000000 0.000000 0.500000
O O13 0.415411 0.252730 0.396881
O O14 0.083778 0.341918 0.283584
O O15 0.198994 0.938673 0.098759
O O16 0.500000 0.500000 0.500000
#
# Coordination Sequence:
#
# PCOD8002195 Si02
#       7
#     2   2   2   2   2   2   2
#     4  10  20  37  60  87 116 161 199 235 298 360
#     4   9  19  35  55  82 114 150 190 239 284 351
#     4   9  19  37  60  79 115 155 189 231 297 345
#     4  11  24  40  61  89 122 154 200 253 294 348
#     4  10  21  35  57  85 113 147 199 238 289 345
#     4  10  20  35  57  84 117 148 190 246 285 344
#     4  11  22  37  63  83 117 161 196 240 299 353
#
# _framework density 19.086694999999999
#
# number of rings (size 3 to 8) (size 9 to 14) (size 15 to 20)
#    0.000    2.000    1.429    3.000    2.000    1.143 
#    0.000    4.286    0.000    0.000    0.000    0.000 
#    0.000    0.000    0.000    0.000    0.000    0.000 
#
# Total GULP energy -173545.824417 kJ/mol
# GULP energy per Si atom -12396.130315 kJ/mol
# Density = 1.904325 g / cm^3
# Si number density = 19.086695 Si / 1000 Ang^3
#
#
#
# Elastic Constant Matrix: (Units=GPa)
#
#
# Indices 1 2 3 4 5 6 
#
# 1 71.8424 45.2346 41.8858 -1.3794 -8.7934 -7.1110
# 2 45.2346 134.0381 38.9436 -6.3689 -9.3208 -3.1390
# 3 41.8858 38.9436 105.4369 -11.3297 -17.0094 -8.5869
# 4 -1.3794 -6.3689 -11.3297 25.0208 -2.1322 0.4956
# 5 -8.7934 -9.3208 -17.0094 -2.1322 27.5526 1.9094
# 6 -7.1110 -3.1390 -8.5869 0.4956 1.9094 34.2936
#
#
#
# Elastic Compliance Matrix: (Units=1/GPa)
#
#
# Indices 1 2 3 4 5 6 
#
# 1 0.021357 -0.005357 -0.006569 -0.003160 0.000544 0.002309
# 2 -0.005357 0.009749 -0.001163 0.001761 0.001048 -0.000593
# 3 -0.006569 -0.001163 0.014450 0.006432 0.006812 0.001677
# 4 -0.003160 0.001761 0.006432 0.043743 0.006936 0.000098
# 5 0.000544 0.001048 0.006812 0.006936 0.041599 -0.000502
# 6 0.002309 -0.000593 0.001677 0.000098 -0.000502 0.030031
#
#
# Mechanical properties :
#
#
# Convention : Reuss Voigt Hill
#
# Bulk Modulus (GPa) = 51.60576 62.60507 57.10541
# Shear Modulus (GPa) = 25.83090 29.72361 27.77725
#
# Velocity S-wave (km/s) = 3.68278 3.95054 3.81900
# Velocity P-wave (km/s) = 6.72161 7.32670 7.03067
#
# Compressibility (1/GPa) = 0.01937768
#
# Stress axis : x y z
#
# Youngs Moduli (GPa) = 46.82343 102.57576 69.20226
#
# Poissons Ratio (x) = 0.54950 0.45462
# Poissons Ratio (y) = 0.25083 0.08047
# Poissons Ratio (z) = 0.30760 0.11927
#
# Static dielectric constant tensor:
#      x y z
#    x 3.209170 0.106860 0.041600 
#    y 0.106860 3.969010 -0.231850 
#    z 0.041600 -0.231850 3.667880 
# 
# 
# High freq. dielectric constant tensor:
#      x y z
#    x 1.728740 0.011050 -0.002410 
#    y 0.011050 1.751570 -0.006810 
#    z -0.002410 -0.006810 1.749370 
# 
# From -- ./inp_files/179770.got.cif
#   From: 2010.06.25/outbox.cif.g09.slc.cpg/sg2_90_cif.got.tgz:179770.got - 2010.06.27 13:26:56.
