data_PCOD8002190
_publ_section_title
;
Structure prediction by ZEFSAII (Michael W. Deem and Ramdas Pophale) SiO2 
 PCOD8002190
Probable space group: P -1
;
_chemical_formula_sum "Si O2"
_cell_formula_units_Z 16
_cell_length_a 14.153982
_cell_length_b 11.112324
_cell_length_c 9.151475
_cell_angle_alpha 120.640235
_cell_angle_beta 110.431283
_cell_angle_gamma 113.973027
_cell_volume 799.788203
_symmetry_space_group_name_H-M "P -1"
_symmetry_group_IT_number 2
_symmetry_cell_setting 'triclinic'
loop_
_space_group_symop_operation_xyz
x,y,z
-x,-y,-z
loop_
_atom_site_type_symbol
_atom_site_label
_atom_site_fract_x
_atom_site_fract_y
_atom_site_fract_z
Si Si1 0.001906 0.956798 0.807701
Si Si2 0.502841 0.552440 0.198131
Si Si3 0.270197 0.127359 0.890448
Si Si4 0.303999 0.861580 0.436896
Si Si5 0.134733 0.461676 0.630404
Si Si6 0.622378 0.290603 0.846692
Si Si7 0.826890 0.268079 0.417199
Si Si8 0.200557 0.055311 0.471007
O O1 0.903302 0.719766 0.585203
O O2 0.949312 0.032194 0.724201
O O3 0.166987 0.092964 0.933686
O O4 0.000000 0.000000 0.000000
O O5 0.409592 0.601396 0.195330
O O6 0.673273 0.750529 0.445520
O O7 0.500000 0.500000 0.000000
O O8 0.430597 0.359358 0.141050
O O9 0.278784 0.969749 0.825354
O O10 0.214306 0.103319 0.680503
O O11 0.299412 0.741640 0.235412
O O12 0.227737 0.721402 0.453227
O O13 0.206461 0.894583 0.351025
O O14 0.469723 0.077497 0.696209
O O15 0.190773 0.632902 0.652904
O O16 0.993234 0.378386 0.588469
O O17 0.267155 0.562638 0.872891
#
# Coordination Sequence:
#
# PCOD8002190 Si02
#       8
#     2   2   2   2   2   2   2   2
#     4  11  23  36  53  80 111 141 179 224 267 314
#     4   9  17  32  57  81 103 134 179 223 262 311
#     4   9  18  35  57  80 105 139 183 222 263 318
#     4   9  20  36  56  84 109 136 179 224 265 312
#     4  10  21  37  54  76 110 147 179 216 268 320
#     4  10  20  35  57  84 110 137 176 224 267 316
#     4   9  20  36  53  79 111 146 180 215 263 320
#     4   9  18  35  57  78 105 141 177 220 270 317
#
# _framework density 20.005296999999999
#
# number of rings (size 3 to 8) (size 9 to 14) (size 15 to 20)
#    0.000    2.500    0.000    2.625    0.000    7.000 
#    0.000    0.625    0.000    0.000    0.000    0.000 
#    0.000    0.000    0.000    0.000    0.000    0.000 
#
# Total GULP energy -198346.202898 kJ/mol
# GULP energy per Si atom -12396.637681 kJ/mol
# Density = 1.995976 g / cm^3
# Si number density = 20.005297 Si / 1000 Ang^3
#
#
#
# Elastic Constant Matrix: (Units=GPa)
#
#
# Indices 1 2 3 4 5 6 
#
# 1 98.0378 34.9859 14.6787 -2.4635 -20.9738 11.4301
# 2 34.9859 104.1138 19.7120 20.9735 -10.1499 14.6111
# 3 14.6787 19.7120 56.9938 6.8455 -14.3316 7.1341
# 4 -2.4635 20.9735 6.8455 25.6523 -1.2125 -2.1721
# 5 -20.9738 -10.1499 -14.3316 -1.2125 22.8295 -3.6664
# 6 11.4301 14.6111 7.1341 -2.1721 -3.6664 27.0744
#
#
#
# Elastic Compliance Matrix: (Units=1/GPa)
#
#
# Indices 1 2 3 4 5 6 
#
# 1 0.014665 -0.004752 0.000317 0.005614 0.011586 -0.001691
# 2 -0.004752 0.015014 -0.001712 -0.012872 -0.000533 -0.006750
# 3 0.000317 -0.001712 0.022205 -0.004209 0.012655 -0.003685
# 4 0.005614 -0.012872 -0.004209 0.052073 0.001167 0.010022
# 5 0.011586 -0.000533 0.012655 0.001167 0.062312 0.000594
# 6 -0.001691 -0.006750 -0.003685 0.010022 0.000594 0.043147
#
#
# Mechanical properties :
#
#
# Convention : Reuss Voigt Hill
#
# Bulk Modulus (GPa) = 25.25794 44.21096 34.73445
# Shear Modulus (GPa) = 21.28488 27.76249 24.52369
#
# Velocity S-wave (km/s) = 3.26538 3.72930 3.50503
# Velocity P-wave (km/s) = 5.18363 6.37897 5.81211
#
# Compressibility (1/GPa) = 0.03959151
#
# Stress axis : x y z
#
# Youngs Moduli (GPa) = 68.18738 66.60312 45.03457
#
# Poissons Ratio (x) = 0.31651 -0.01430
# Poissons Ratio (y) = 0.32404 0.07710
# Poissons Ratio (z) = -0.02165 0.11403
#
# Static dielectric constant tensor:
#      x y z
#    x 3.907410 -0.068710 -0.090930 
#    y -0.068710 4.078880 0.602930 
#    z -0.090930 0.602930 3.514670 
# 
# 
# High freq. dielectric constant tensor:
#      x y z
#    x 1.795300 0.003560 -0.003520 
#    y 0.003560 1.775370 0.027270 
#    z -0.003520 0.027270 1.747960 
# 
# From -- ./inp_files/257201.got.cif
#   From: 2010.06.25/outbox.cif.g09.slc.cpg/sg2_129_cif.got.tgz:257201.got - 2010.06.27 13:26:56.
