data_PCOD8002160
_publ_section_title
;
Structure prediction by ZEFSAII (Michael W. Deem and Ramdas Pophale) SiO2 
 PCOD8002160
Probable space group: P -1
;
_chemical_formula_sum "Si O2"
_cell_formula_units_Z 16
_cell_length_a 11.145071
_cell_length_b 15.820790
_cell_length_c 8.872115
_cell_angle_alpha 77.368643
_cell_angle_beta 117.118797
_cell_angle_gamma 145.779193
_cell_volume 742.894653
_symmetry_space_group_name_H-M "P -1"
_symmetry_group_IT_number 2
_symmetry_cell_setting 'triclinic'
loop_
_space_group_symop_operation_xyz
x,y,z
-x,-y,-z
loop_
_atom_site_type_symbol
_atom_site_label
_atom_site_fract_x
_atom_site_fract_y
_atom_site_fract_z
Si Si1 0.539248 0.434369 0.189746
Si Si2 0.109535 0.777734 0.944077
Si Si3 0.383673 0.529477 0.109403
Si Si4 0.600235 0.816191 0.035386
Si Si5 0.390131 0.026070 0.779491
Si Si6 0.009087 0.887170 0.035362
Si Si7 0.614800 0.966260 0.558498
Si Si8 0.714389 0.353216 0.368894
O O1 0.522163 0.514264 0.244581
O O2 0.647779 0.415542 0.361171
O O3 0.699197 0.533871 0.088621
O O4 0.280462 0.255448 0.044805
O O5 0.861677 0.584941 0.884772
O O6 0.219118 0.854631 0.809292
O O7 0.330096 0.855111 0.137250
O O8 0.022740 0.821860 0.941631
O O9 0.565245 0.709394 0.153901
O O10 0.603197 0.893477 0.128427
O O11 0.369259 0.704703 0.831581
O O12 0.855617 0.955933 0.027056
O O13 0.286437 0.996186 0.569151
O O14 0.148657 0.926396 0.246131
O O15 0.406041 0.783386 0.541943
O O16 0.500000 0.000000 0.500000
O O17 0.000000 0.500000 0.500000
#
# Coordination Sequence:
#
# PCOD8002160 Si02
#       8
#     2   2   2   2   2   2   2   2
#     4   9  19  36  63  85 113 155 192 239 294 341
#     4   9  18  33  57  82 116 156 195 234 277 354
#     4   9  18  33  59  86 107 149 198 235 273 348
#     4   9  20  35  58  91 116 153 194 235 286 352
#     4  10  20  35  56  85 120 160 190 234 296 332
#     4   9  18  37  59  87 116 150 200 241 280 341
#     4  11  22  35  59  89 118 149 197 248 282 336
#     4  10  23  39  57  88 121 144 188 251 294 339
#
# _framework density 21.537375000000001
#
# number of rings (size 3 to 8) (size 9 to 14) (size 15 to 20)
#    0.000    2.500    1.250    0.000    5.250    6.000 
#    0.000    0.000    0.000   20.250    0.000    0.000 
#    0.000    0.000    0.000    0.000    0.000    0.000 
#
# Total GULP energy -198247.990997 kJ/mol
# GULP energy per Si atom -12390.499437 kJ/mol
# Density = 2.148835 g / cm^3
# Si number density = 21.537375 Si / 1000 Ang^3
#
#
#
# Elastic Constant Matrix: (Units=GPa)
#
#
# Indices 1 2 3 4 5 6 
#
# 1 52.0599 57.8990 24.5866 -12.5658 14.5940 2.6952
# 2 57.8990 138.4127 52.8042 -13.1465 22.7812 1.6471
# 3 24.5866 52.8042 91.4375 -7.8540 11.0072 4.2091
# 4 -12.5658 -13.1465 -7.8540 28.8305 -0.4603 10.3942
# 5 14.5940 22.7812 11.0072 -0.4603 36.6051 -3.0568
# 6 2.6952 1.6471 4.2091 10.3942 -3.0568 36.3100
#
#
#
# Elastic Compliance Matrix: (Units=1/GPa)
#
#
# Indices 1 2 3 4 5 6 
#
# 1 0.041336 -0.014514 -0.000302 0.013697 -0.007764 -0.006950
# 2 -0.014514 0.015414 -0.004863 -0.001036 -0.002270 0.001047
# 3 -0.000302 -0.004863 0.014281 0.002308 -0.001301 -0.002183
# 4 0.013697 -0.001036 0.002308 0.046105 -0.006179 -0.014956
# 5 -0.007764 -0.002270 -0.001301 -0.006179 0.032586 0.005342
# 6 -0.006950 0.001047 -0.002183 -0.014956 0.005342 0.032993
#
#
# Mechanical properties :
#
#
# Convention : Reuss Voigt Hill
#
# Bulk Modulus (GPa) = 31.57224 61.38771 46.47998
# Shear Modulus (GPa) = 21.49327 30.12380 25.80853
#
# Velocity S-wave (km/s) = 3.16247 3.74394 3.46542
# Velocity P-wave (km/s) = 5.29396 6.87417 6.13516
#
# Compressibility (1/GPa) = 0.03167339
#
# Stress axis : x y z
#
# Youngs Moduli (GPa) = 24.19193 64.87588 70.02306
#
# Poissons Ratio (x) = 0.94164 0.02113
# Poissons Ratio (y) = 0.35113 0.34050
# Poissons Ratio (z) = 0.00730 0.31547
#
# Static dielectric constant tensor:
#      x y z
#    x 3.906990 -0.001290 0.180160 
#    y -0.001290 4.536580 -0.278660 
#    z 0.180160 -0.278660 3.506730 
# 
# 
# High freq. dielectric constant tensor:
#      x y z
#    x 1.847700 -0.005990 0.017000 
#    y -0.005990 1.868140 -0.017420 
#    z 0.017000 -0.017420 1.797760 
# 
# From -- ./inp_files/277749.got.cif
#   From: 2010.06.25/outbox.cif.g09.slc.cpg/sg2_139_cif.got.tgz:277749.got - 2010.06.27 13:26:56.
