data_PCOD8002905
_publ_section_title
;
Structure prediction by ZEFSAII (Michael W. Deem and Ramdas Pophale) SiO2 
 PCOD8002905
Probable space group: P -1
;
_chemical_formula_sum "Si O2"
_cell_formula_units_Z 16
_cell_length_a 11.526125
_cell_length_b 8.781863
_cell_length_c 12.087737
_cell_angle_alpha 110.537319
_cell_angle_beta 53.466498
_cell_angle_gamma 117.716445
_cell_volume 865.599363
_symmetry_space_group_name_H-M "P -1"
_symmetry_group_IT_number 2
_symmetry_cell_setting 'triclinic'
loop_
_space_group_symop_operation_xyz
x,y,z
-x,-y,-z
loop_
_atom_site_type_symbol
_atom_site_label
_atom_site_fract_x
_atom_site_fract_y
_atom_site_fract_z
Si Si1 0.659601 0.637380 0.399717
Si Si2 0.954078 0.914740 0.831184
Si Si3 0.949097 0.551921 0.713812
Si Si4 0.789791 0.056497 0.129061
Si Si5 0.790637 0.285574 0.566677
Si Si6 0.887474 0.960550 0.449374
Si Si7 0.469176 0.143355 0.628755
Si Si8 0.107595 0.546736 0.844217
O O1 0.500000 0.500000 0.500000
O O2 0.761532 0.765230 0.471204
O O3 0.625051 0.758333 0.358544
O O4 0.764697 0.544553 0.255195
O O5 0.881291 0.707706 0.803888
O O6 0.100077 0.958972 0.839094
O O7 0.005328 0.015491 0.713204
O O8 0.826170 0.981019 0.974164
O O9 0.821502 0.387152 0.690865
O O10 0.096157 0.612878 0.567154
O O11 0.995892 0.491940 0.788305
O O12 0.797765 0.251041 0.157021
O O13 0.619152 0.945480 0.233602
O O14 0.626699 0.281328 0.615865
O O15 0.795833 0.094592 0.533305
O O16 0.000000 0.000000 0.500000
O O17 0.500000 0.000000 0.500000
O O18 0.000000 0.500000 0.000000
#
# Coordination Sequence:
#
# PCOD8002905 Si02
#       8
#     2   2   2   2   2   2   2   2
#     4  12  24  37  59  95 126 154 204 262 310 352
#     4   9  18  36  60  86 108 157 206 240 287 363
#     4   9  19  37  60  86 118 150 203 249 291 353
#     4  10  20  36  62  82 118 155 200 242 293 359
#     4  10  20  36  60  87 115 156 199 246 298 360
#     4  11  21  36  61  86 121 157 200 246 309 366
#     4  12  21  38  62  86 118 157 202 244 304 368
#     4  11  23  37  61  91 124 156 200 255 305 356
#
# _framework density 18.484302
#
# number of rings (size 3 to 8) (size 9 to 14) (size 15 to 20)
#    0.000    1.500    2.500    4.500    3.500    2.000 
#    0.000    0.625    2.750    1.500    0.000    0.000 
#    0.000    0.000    0.000    0.000    0.000    0.000 
#
# Total GULP energy -198414.002243 kJ/mol
# GULP energy per Si atom -12400.875140 kJ/mol
# Density = 1.844223 g / cm^3
# Si number density = 18.484302 Si / 1000 Ang^3
#
#
#
# Elastic Constant Matrix: (Units=GPa)
#
#
# Indices 1 2 3 4 5 6 
#
# 1 98.7827 53.5661 52.7993 6.3105 3.0360 5.2089
# 2 53.5661 110.4355 60.5428 8.1212 -1.3645 11.0023
# 3 52.7993 60.5428 114.1577 15.6267 3.8348 4.7875
# 4 6.3105 8.1212 15.6267 31.0295 -3.6946 2.3215
# 5 3.0360 -1.3645 3.8348 -3.6946 29.0293 0.6653
# 6 5.2089 11.0023 4.7875 2.3215 0.6653 33.2197
#
#
#
# Elastic Compliance Matrix: (Units=1/GPa)
#
#
# Indices 1 2 3 4 5 6 
#
# 1 0.015195 -0.005001 -0.004370 0.000282 -0.001209 -0.000092
# 2 -0.005001 0.014859 -0.005553 0.000428 0.002088 -0.003409
# 3 -0.004370 -0.005553 0.014498 -0.005311 -0.002415 0.000854
# 4 0.000282 0.000428 -0.005311 0.035509 0.005257 -0.002007
# 5 -0.001209 0.002088 -0.002415 0.005257 0.035689 -0.001236
# 6 -0.000092 -0.003409 0.000854 -0.002007 -0.001236 0.031288
#
#
# Mechanical properties :
#
#
# Convention : Reuss Voigt Hill
#
# Bulk Modulus (GPa) = 68.00794 73.02139 70.51466
# Shear Modulus (GPa) = 27.50483 29.08688 28.29586
#
# Velocity S-wave (km/s) = 3.86166 3.97117 3.91679
# Velocity P-wave (km/s) = 7.53361 7.78570 7.66070
#
# Compressibility (1/GPa) = 0.01470417
#
# Stress axis : x y z
#
# Youngs Moduli (GPa) = 65.81260 67.29912 68.97448
#
# Poissons Ratio (x) = 0.33657 0.30139
# Poissons Ratio (y) = 0.32914 0.38302
# Poissons Ratio (z) = 0.28757 0.37372
#
# Static dielectric constant tensor:
#      x y z
#    x 3.553350 0.050170 0.035610 
#    y 0.050170 3.654030 0.172590 
#    z 0.035610 0.172590 3.500340 
# 
# 
# High freq. dielectric constant tensor:
#      x y z
#    x 1.701980 -0.005800 0.003220 
#    y -0.005800 1.729860 0.008830 
#    z 0.003220 0.008830 1.713760 
# 
# From -- ./inp_files/256795.got.cif
#   From: 2010.06.25/outbox.cif.g09.slc.cpg/sg2_129_cif.got.tgz:256795.got - 2010.06.27 13:26:56.
