data_PCOD8002372
_publ_section_title
;
Structure prediction by ZEFSAII (Michael W. Deem and Ramdas Pophale) SiO2 
 PCOD8002372
Probable space group: P -1
;
_chemical_formula_sum "Si O2"
_cell_formula_units_Z 16
_cell_length_a 8.149515
_cell_length_b 11.428586
_cell_length_c 13.361596
_cell_angle_alpha 105.612221
_cell_angle_beta 41.098043
_cell_angle_gamma 119.138206
_cell_volume 704.078483
_symmetry_space_group_name_H-M "P -1"
_symmetry_group_IT_number 2
_symmetry_cell_setting 'triclinic'
loop_
_space_group_symop_operation_xyz
x,y,z
-x,-y,-z
loop_
_atom_site_type_symbol
_atom_site_label
_atom_site_fract_x
_atom_site_fract_y
_atom_site_fract_z
Si Si1 0.159031 0.164677 0.678279
Si Si2 0.750059 0.690478 0.843023
Si Si3 0.074520 0.046927 0.089087
Si Si4 0.626821 0.411012 0.824796
Si Si5 0.388291 0.692979 0.835737
Si Si6 0.322028 0.071491 0.398995
Si Si7 0.787507 0.612814 0.162762
Si Si8 0.336068 0.846169 0.229486
O O1 0.068435 0.076238 0.799318
O O2 0.906810 0.143890 0.717386
O O3 0.360290 0.122622 0.508999
O O4 0.303202 0.319488 0.687800
O O5 0.849503 0.572028 0.747044
O O6 0.652411 0.737875 0.798592
O O7 0.987948 0.825631 0.819052
O O8 0.473626 0.613728 0.020148
O O9 0.410599 0.112355 0.955711
O O10 0.000000 0.000000 0.000000
O O11 0.363032 0.378263 0.867176
O O12 0.756041 0.305691 0.717429
O O13 0.492152 0.797103 0.721299
O O14 0.296220 0.541090 0.801895
O O15 0.121687 0.697438 0.012333
O O16 0.428372 0.955616 0.304873
O O17 0.000000 0.000000 0.500000
#
# Coordination Sequence:
#
# PCOD8002372 Si02
#       8
#     2   2   2   2   2   2   2   2
#     4  11  21  36  58  81 110 152 192 233 286 342
#     4   9  17  32  54  80 112 146 182 228 286 332
#     4  11  21  35  59  87 113 143 191 244 284 331
#     4   9  18  32  54  84 115 142 180 239 291 336
#     4  10  20  37  61  86 114 150 193 241 281 337
#     4  10  22  37  56  80 114 155 196 232 277 343
#     4  10  20  35  60  90 114 143 193 244 288 329
#     4  10  20  36  56  81 113 149 190 235 283 340
#
# _framework density 22.724737999999999
#
# number of rings (size 3 to 8) (size 9 to 14) (size 15 to 20)
#    0.000    2.000    0.000    5.625    0.000    1.500 
#    0.000    2.500    0.000   24.750    0.000    0.000 
#    0.000    3.000    0.000    0.000    0.000    0.000 
#
# Total GULP energy -198258.190189 kJ/mol
# GULP energy per Si atom -12391.136887 kJ/mol
# Density = 2.267302 g / cm^3
# Si number density = 22.724738 Si / 1000 Ang^3
#
#
#
# Elastic Constant Matrix: (Units=GPa)
#
#
# Indices 1 2 3 4 5 6 
#
# 1 47.7696 40.5987 23.3221 -2.4506 28.2786 -12.0559
# 2 40.5987 209.5870 68.2446 25.9506 26.3595 -9.6415
# 3 23.3221 68.2446 63.0131 26.8546 10.0574 -3.5667
# 4 -2.4506 25.9506 26.8546 29.4673 14.2868 1.0275
# 5 28.2786 26.3595 10.0574 14.2868 19.2169 4.6584
# 6 -12.0559 -9.6415 -3.5667 1.0275 4.6584 35.7712
#
#
#
# Elastic Compliance Matrix: (Units=1/GPa)
#
#
# Indices 1 2 3 4 5 6 
#
# 1 -0.013327 -0.004681 0.016613 -0.033255 0.044218 -0.008900
# 2 -0.004681 0.007686 -0.005711 -0.002572 0.001287 -0.000169
# 3 0.016613 -0.005711 0.020267 0.003092 -0.031982 0.010157
# 4 -0.033255 -0.002572 0.003092 0.006960 0.050111 -0.018318
# 5 0.044218 0.001287 -0.031982 0.050111 -0.039125 0.015716
# 6 -0.008900 -0.000169 0.010157 -0.018318 0.015716 0.024403
#
#
# Mechanical properties :
#
#
# Convention : Reuss Voigt Hill
#
# Bulk Modulus (GPa) = 36.94229 64.96672 50.95450
# Shear Modulus (GPa) = 1451.38282 29.43806 740.41044
#
# Velocity S-wave (km/s) = 25.29953 3.60310 18.06998
# Velocity P-wave (km/s) = 29.49090 6.77941 21.39712
#
# Compressibility (1/GPa) = 0.02706925
#
# Stress axis : x y z
#
# Youngs Moduli (GPa) = -75.03471 130.10043 49.34041
#
# Poissons Ratio (x) = 0.60902 -0.81971
# Poissons Ratio (y) = -0.35125 0.28177
# Poissons Ratio (z) = 1.24657 0.74297
#
# Static dielectric constant tensor:
#      x y z
#    x 3.797720 -0.085160 0.070770 
#    y -0.085160 5.017240 0.605580 
#    z 0.070770 0.605580 4.254430 
# 
# 
# High freq. dielectric constant tensor:
#      x y z
#    x 1.874050 -0.003020 0.020070 
#    y -0.003020 1.934020 0.021060 
#    z 0.020070 0.021060 1.856140 
# 
# From -- ./inp_files/390349.got.cif
#   From: 2010.06.25/outbox.cif.g09.slc.cpg/sg2_196_cif.got.tgz:390349.got - 2010.06.27 13:26:56.
