data_PCOD8002520
_publ_section_title
;
Structure prediction by ZEFSAII (Michael W. Deem and Ramdas Pophale) SiO2 
 PCOD8002520
Probable space group: P -1
;
_chemical_formula_sum "Si O2"
_cell_formula_units_Z 16
_cell_length_a 18.812782
_cell_length_b 8.262871
_cell_length_c 12.549332
_cell_angle_alpha 122.926507
_cell_angle_beta 135.963156
_cell_angle_gamma 35.035803
_cell_volume 773.493841
_symmetry_space_group_name_H-M "P -1"
_symmetry_group_IT_number 2
_symmetry_cell_setting 'triclinic'
loop_
_space_group_symop_operation_xyz
x,y,z
-x,-y,-z
loop_
_atom_site_type_symbol
_atom_site_label
_atom_site_fract_x
_atom_site_fract_y
_atom_site_fract_z
Si Si1 0.179127 0.971122 0.671919
Si Si2 0.882263 0.827493 0.901965
Si Si3 0.854471 0.366155 0.377648
Si Si4 0.811439 0.793941 0.028421
Si Si5 0.665318 0.008491 0.341975
Si Si6 0.238061 0.878845 0.327236
Si Si7 0.329997 0.388496 0.129379
Si Si8 0.076099 0.827810 0.849996
O O1 0.217681 0.025797 0.841310
O O2 0.272352 0.946168 0.670367
O O3 0.005147 0.235412 0.548357
O O4 0.219455 0.687637 0.637819
O O5 0.010761 0.498735 0.892978
O O6 0.763185 0.998556 0.739263
O O7 0.775124 0.938594 0.927324
O O8 0.967661 0.911665 0.046314
O O9 0.757101 0.688068 0.356552
O O10 0.890699 0.196653 0.248262
O O11 0.694300 0.782883 0.904400
O O12 0.656301 0.160386 0.488978
O O13 0.498334 0.175432 0.190234
O O14 0.299371 0.582975 0.260170
O O15 0.066678 0.114271 0.270676
O O16 0.220850 0.543429 0.964734
#
# Coordination Sequence:
#
# PCOD8002520 Si02
#       8
#     2   2   2   2   2   2   2   2
#     4  11  24  42  68  98 127 171 218 266 319 384
#     4  10  20  35  64  96 120 162 216 267 315 365
#     4  11  24  42  66 100 129 167 220 264 317 390
#     4  11  20  37  62  95 128 161 210 271 317 372
#     4  12  26  44  65  95 136 176 204 265 332 384
#     4  11  21  43  67  92 123 171 219 263 317 379
#     4  11  24  41  65  96 129 168 217 262 326 383
#     4  11  19  41  67  94 125 166 218 268 310 380
#
# _framework density 20.685362000000001
#
# number of rings (size 3 to 8) (size 9 to 14) (size 15 to 20)
#    0.000    1.000    5.000    3.000    0.000    2.000 
#    6.750    1.875    0.000    0.000    0.000    0.000 
#    0.000    0.000    0.000    0.000    0.000    0.000 
#
# Total GULP energy -198323.327398 kJ/mol
# GULP energy per Si atom -12395.207962 kJ/mol
# Density = 2.063828 g / cm^3
# Si number density = 20.685362 Si / 1000 Ang^3
#
#
#
# Elastic Constant Matrix: (Units=GPa)
#
#
# Indices 1 2 3 4 5 6 
#
# 1 159.6923 38.3308 49.9353 -5.5457 -7.5551 6.5049
# 2 38.3308 51.8324 15.2520 -1.5482 5.4786 1.6510
# 3 49.9353 15.2520 73.2959 2.0451 -3.6933 -8.7319
# 4 -5.5457 -1.5482 2.0451 31.0509 -8.8121 1.2738
# 5 -7.5551 5.4786 -3.6933 -8.8121 28.2566 -0.9760
# 6 6.5049 1.6510 -8.7319 1.2738 -0.9760 22.8326
#
#
#
# Elastic Compliance Matrix: (Units=1/GPa)
#
#
# Indices 1 2 3 4 5 6 
#
# 1 0.010051 -0.005793 -0.006109 0.003196 0.003843 -0.004795
# 2 -0.005793 0.024795 -0.001642 -0.001672 -0.007127 -0.000982
# 3 -0.006109 -0.001642 0.019382 -0.002632 0.000724 0.009449
# 4 0.003196 -0.001672 -0.002632 0.036430 0.012082 -0.003312
# 5 0.003843 -0.007127 0.000724 0.012082 0.041690 0.000805
# 6 -0.004795 -0.000982 0.009449 -0.003312 0.000805 0.049067
#
#
# Mechanical properties :
#
#
# Convention : Reuss Voigt Hill
#
# Bulk Modulus (GPa) = 36.84580 54.65078 45.74829
# Shear Modulus (GPa) = 22.98321 28.51484 25.74902
#
# Velocity S-wave (km/s) = 3.33691 3.71685 3.53199
# Velocity P-wave (km/s) = 5.71820 6.70055 6.22877
#
# Compressibility (1/GPa) = 0.02714014
#
# Stress axis : x y z
#
# Youngs Moduli (GPa) = 99.49350 40.33079 51.59307
#
# Poissons Ratio (x) = 0.23365 0.31517
# Poissons Ratio (y) = 0.57640 0.08472
# Poissons Ratio (z) = 0.60778 0.06623
#
# Static dielectric constant tensor:
#      x y z
#    x 4.048850 0.188940 -0.116720 
#    y 0.188940 3.485010 0.134100 
#    z -0.116720 0.134100 3.781310 
# 
# 
# High freq. dielectric constant tensor:
#      x y z
#    x 1.821750 0.011240 -0.009510 
#    y 0.011240 1.785130 0.015700 
#    z -0.009510 0.015700 1.812750 
# 
# From -- ./inp_files/226509.got.cif
#   From: 2010.06.25/outbox.cif.g09.slc.cpg/sg2_114_cif.got.tgz:226509.got - 2010.06.27 13:26:56.
