data_PCOD8002263
_publ_section_title
;
Structure prediction by ZEFSAII (Michael W. Deem and Ramdas Pophale) SiO2 
 PCOD8002263
Probable space group: P -1
;
_chemical_formula_sum "Si O2"
_cell_formula_units_Z 16
_cell_length_a 14.322184
_cell_length_b 19.039204
_cell_length_c 15.683715
_cell_angle_alpha 23.801103
_cell_angle_beta 40.077769
_cell_angle_gamma 28.233162
_cell_volume 797.476733
_symmetry_space_group_name_H-M "P -1"
_symmetry_group_IT_number 2
_symmetry_cell_setting 'triclinic'
loop_
_space_group_symop_operation_xyz
x,y,z
-x,-y,-z
loop_
_atom_site_type_symbol
_atom_site_label
_atom_site_fract_x
_atom_site_fract_y
_atom_site_fract_z
Si Si1 0.873700 0.463748 0.044501
Si Si2 0.555252 0.043642 0.232451
Si Si3 0.343090 0.920255 0.059105
Si Si4 0.051679 0.735124 0.961966
Si Si5 0.073367 0.838403 0.339726
Si Si6 0.796925 0.533118 0.202836
Si Si7 0.373622 0.378709 0.262917
Si Si8 0.702167 0.179137 0.123037
O O1 0.687147 0.751147 0.838025
O O2 0.889751 0.313338 0.124180
O O3 0.088859 0.381126 0.986280
O O4 0.833754 0.400081 0.234259
O O5 0.619379 0.149318 0.131469
O O6 0.627540 0.795524 0.488238
O O7 0.664396 0.976341 0.140493
O O8 0.283374 0.766056 0.255135
O O9 0.558809 0.756707 0.135566
O O10 0.176059 0.143995 0.991364
O O11 0.206522 0.493245 0.178550
O O12 0.071222 0.920540 0.767825
O O13 0.114857 0.627825 0.595527
O O14 0.938899 0.924102 0.252942
O O15 0.587950 0.215028 0.248568
O O16 0.325844 0.586795 0.125614
#
# Coordination Sequence:
#
# PCOD8002263 Si02
#       8
#     2   2   2   2   2   2   2   2
#     4  10  21  36  58  90 106 146 199 235 283 348
#     4  11  21  37  63  85 119 153 190 234 294 333
#     4   9  22  39  55  83 117 152 190 237 276 352
#     4   9  20  37  53  83 117 141 191 229 284 342
#     4   9  20  37  56  82 113 149 190 228 290 339
#     4  10  20  37  62  78 113 149 192 243 281 337
#     4  10  20  35  58  88 119 151 187 238 287 338
#     4  10  20  35  60  90 116 149 191 240 279 352
#
# _framework density 20.063281
#
# number of rings (size 3 to 8) (size 9 to 14) (size 15 to 20)
#    0.750    1.500    1.250    1.500    1.750    2.000 
#    0.000    1.250    8.250    0.000    0.000    0.000 
#    0.000    0.000    0.000    0.000    0.000    0.000 
#
# Total GULP energy -198229.088883 kJ/mol
# GULP energy per Si atom -12389.318055 kJ/mol
# Density = 2.001762 g / cm^3
# Si number density = 20.063281 Si / 1000 Ang^3
#
#
#
# Elastic Constant Matrix: (Units=GPa)
#
#
# Indices 1 2 3 4 5 6 
#
# 1 69.3380 13.0596 17.8036 -10.3497 5.8725 -11.9228
# 2 13.0596 61.3339 6.8424 -3.2792 2.2563 -19.5406
# 3 17.8036 6.8424 62.9528 0.7746 4.2066 -0.5231
# 4 -10.3497 -3.2792 0.7746 17.7985 -3.6929 4.2728
# 5 5.8725 2.2563 4.2066 -3.6929 21.2824 -4.3153
# 6 -11.9228 -19.5406 -0.5231 4.2728 -4.3153 42.1173
#
#
#
# Elastic Compliance Matrix: (Units=1/GPa)
#
#
# Indices 1 2 3 4 5 6 
#
# 1 0.018075 -0.001745 -0.004905 0.009321 -0.001579 0.003139
# 2 -0.001745 0.019603 -0.001614 0.000732 0.000586 0.008567
# 3 -0.004905 -0.001614 0.017687 -0.004118 -0.003053 -0.001813
# 4 0.009321 0.000732 -0.004118 0.064392 0.008789 -0.002705
# 5 -0.001579 0.000586 -0.003053 0.008789 0.050311 0.004050
# 6 0.003139 0.008567 -0.001813 -0.002705 0.004050 0.029273
#
#
# Mechanical properties :
#
#
# Convention : Reuss Voigt Hill
#
# Bulk Modulus (GPa) = 25.74910 29.89288 27.82099
# Shear Modulus (GPa) = 21.85175 26.63425 24.24300
#
# Velocity S-wave (km/s) = 3.30379 3.64746 3.47987
# Velocity P-wave (km/s) = 5.23595 5.71579 5.48112
#
# Compressibility (1/GPa) = 0.03883630
#
# Stress axis : x y z
#
# Youngs Moduli (GPa) = 55.32479 51.01353 56.53790
#
# Poissons Ratio (x) = 0.08902 0.27733
# Poissons Ratio (y) = 0.09654 0.09126
# Poissons Ratio (z) = 0.27138 0.08234
#
# Static dielectric constant tensor:
#      x y z
#    x 3.722730 -0.136260 0.128880 
#    y -0.136260 3.638660 0.003690 
#    z 0.128880 0.003690 3.259780 
# 
# 
# High freq. dielectric constant tensor:
#      x y z
#    x 1.785160 -0.018280 0.014630 
#    y -0.018280 1.781540 0.001700 
#    z 0.014630 0.001700 1.751870 
# 
# From -- ./inp_files/574299.got.cif
#   From: 2010.06.25/outbox.cif.g09.slc.cpg/sg2_288_cif.got.tgz:574299.got - 2010.06.27 13:26:56.
