data_PCOD8002501
_publ_section_title
;
Structure prediction by ZEFSAII (Michael W. Deem and Ramdas Pophale) SiO2 
 PCOD8002501
Probable space group: P -1
;
_chemical_formula_sum "Si O2"
_cell_formula_units_Z 16
_cell_length_a 12.022832
_cell_length_b 13.603561
_cell_length_c 9.059195
_cell_angle_alpha 72.516387
_cell_angle_beta 46.157347
_cell_angle_gamma 47.314186
_cell_volume 744.466790
_symmetry_space_group_name_H-M "P -1"
_symmetry_group_IT_number 2
_symmetry_cell_setting 'triclinic'
loop_
_space_group_symop_operation_xyz
x,y,z
-x,-y,-z
loop_
_atom_site_type_symbol
_atom_site_label
_atom_site_fract_x
_atom_site_fract_y
_atom_site_fract_z
Si Si1 0.548391 0.388992 0.387736
Si Si2 0.773117 0.810685 0.736173
Si Si3 0.859488 0.288636 0.753915
Si Si4 0.455808 0.444216 0.915763
Si Si5 0.262603 0.319870 0.733204
Si Si6 0.347397 0.069028 0.879313
Si Si7 0.991704 0.121899 0.000759
Si Si8 0.151550 0.430022 0.097861
O O1 0.500000 0.500000 0.500000
O O2 0.496608 0.466497 0.244288
O O3 0.412196 0.348242 0.552140
O O4 0.791816 0.241068 0.234492
O O5 0.818954 0.667715 0.757673
O O6 0.975841 0.774066 0.500166
O O7 0.577068 0.915417 0.759051
O O8 0.741669 0.869160 0.902810
O O9 0.670773 0.301505 0.855769
O O10 0.979205 0.190486 0.829662
O O11 0.731513 0.452149 0.838604
O O12 0.359602 0.406712 0.907125
O O13 0.379879 0.155933 0.705969
O O14 0.070567 0.407169 0.750448
O O15 0.144810 0.375610 0.973170
O O16 0.198492 0.057162 0.934002
O O17 0.000000 0.000000 0.000000
#
# Coordination Sequence:
#
# PCOD8002501 Si02
#       8
#     2   2   2   2   2   2   2   2
#     4  11  22  39  70 101 129 175 232 283 332 394
#     4  10  23  42  67  96 128 175 224 279 335 398
#     4  10  23  41  62  90 136 173 216 273 347 396
#     4  10  21  39  60  96 135 168 217 284 333 405
#     4  10  20  36  65  99 128 169 223 280 329 391
#     4  10  24  45  67  94 135 175 232 276 327 413
#     4  11  27  46  64  97 140 182 220 274 342 415
#     4  10  20  35  63  95 128 166 221 277 334 383
#
# _framework density 21.491893999999998
#
# number of rings (size 3 to 8) (size 9 to 14) (size 15 to 20)
#    0.000    1.750    1.250    2.250    8.750    1.000 
#    2.250    0.625    0.000    0.000    0.000    0.000 
#    0.000    0.000    0.000    0.000    0.000    0.000 
#
# Total GULP energy -198240.974224 kJ/mol
# GULP energy per Si atom -12390.060889 kJ/mol
# Density = 2.144298 g / cm^3
# Si number density = 21.491894 Si / 1000 Ang^3
#
#
#
# Elastic Constant Matrix: (Units=GPa)
#
#
# Indices 1 2 3 4 5 6 
#
# 1 134.6508 67.0774 39.0896 -3.8813 -30.7200 -19.5870
# 2 67.0774 140.6775 46.7676 -2.5331 -13.4362 -18.4696
# 3 39.0896 46.7676 99.5110 1.3842 -17.7154 -3.4733
# 4 -3.8813 -2.5331 1.3842 30.0515 3.5270 -5.0384
# 5 -30.7200 -13.4362 -17.7154 3.5270 29.5114 4.7860
# 6 -19.5870 -18.4696 -3.4733 -5.0384 4.7860 37.3930
#
#
#
# Elastic Compliance Matrix: (Units=1/GPa)
#
#
# Indices 1 2 3 4 5 6 
#
# 1 0.012628 -0.004278 -0.001077 0.000693 0.009946 0.003222
# 2 -0.004278 0.010552 -0.003632 0.001322 -0.002495 0.003131
# 3 -0.001077 -0.003632 0.013151 -0.002082 0.005717 -0.002149
# 4 0.000693 0.001322 -0.002082 0.035221 -0.005146 0.006227
# 5 0.009946 -0.002495 0.005717 -0.005146 0.047517 -0.002267
# 6 0.003222 0.003131 -0.002149 0.006227 -0.002267 0.030907
#
#
# Mechanical properties :
#
#
# Convention : Reuss Voigt Hill
#
# Bulk Modulus (GPa) = 54.47223 75.63427 65.05325
# Shear Modulus (GPa) = 28.72428 34.18484 31.45456
#
# Velocity S-wave (km/s) = 3.65981 3.99255 3.82979
# Velocity P-wave (km/s) = 6.57719 7.51813 7.06335
#
# Compressibility (1/GPa) = 0.01835798
#
# Stress axis : x y z
#
# Youngs Moduli (GPa) = 79.18915 94.76550 76.04087
#
# Poissons Ratio (x) = 0.40540 0.08186
# Poissons Ratio (y) = 0.33876 0.27619
# Poissons Ratio (z) = 0.08525 0.34420
#
# Static dielectric constant tensor:
#      x y z
#    x 3.891370 -0.227630 0.036490 
#    y -0.227630 4.148680 0.016090 
#    z 0.036490 0.016090 3.789220 
# 
# 
# High freq. dielectric constant tensor:
#      x y z
#    x 1.844890 -0.019230 -0.004730 
#    y -0.019230 1.843100 -0.001430 
#    z -0.004730 -0.001430 1.836890 
# 
# From -- ./inp_files/272311.got.cif
#   From: 2010.06.25/outbox.cif.g09.slc.cpg/sg2_137_cif.got.tgz:272311.got - 2010.06.27 13:26:56.
