data_PCOD8002060
_publ_section_title
;
Structure prediction by ZEFSAII (Michael W. Deem and Ramdas Pophale) SiO2 
 PCOD8002060
Probable space group: P -1
;
_chemical_formula_sum "Si O2"
_cell_formula_units_Z 16
_cell_length_a 13.308242
_cell_length_b 9.386694
_cell_length_c 16.285972
_cell_angle_alpha 58.177465
_cell_angle_beta 73.426115
_cell_angle_gamma 33.447785
_cell_volume 899.295730
_symmetry_space_group_name_H-M "P -1"
_symmetry_group_IT_number 2
_symmetry_cell_setting 'triclinic'
loop_
_space_group_symop_operation_xyz
x,y,z
-x,-y,-z
loop_
_atom_site_type_symbol
_atom_site_label
_atom_site_fract_x
_atom_site_fract_y
_atom_site_fract_z
Si Si1 0.475522 0.504595 0.760797
Si Si2 0.483513 0.163694 0.022370
Si Si3 0.991909 0.706765 0.763224
Si Si4 0.193976 0.846065 0.855758
Si Si5 0.142019 0.153710 0.925288
Si Si6 0.589710 0.738599 0.229984
Si Si7 0.570737 0.326822 0.619817
Si Si8 0.106202 0.003258 0.132649
O O1 0.288114 0.811329 0.764240
O O2 0.464798 0.314034 0.817722
O O3 0.482514 0.554974 0.647979
O O4 0.662415 0.321407 0.820193
O O5 0.671304 0.027516 0.016286
O O6 0.486659 0.055514 0.141304
O O7 0.299085 0.529870 0.950021
O O8 0.500000 0.000000 0.000000
O O9 0.006419 0.485716 0.823637
O O10 0.178672 0.547367 0.729712
O O11 0.973743 0.778334 0.840839
O O12 0.803465 0.016971 0.662162
O O13 0.975823 0.077376 0.818112
O O14 0.206581 0.957588 0.892688
O O15 0.035116 0.183067 0.009162
O O16 0.509248 0.757679 0.326169
O O17 0.500000 0.500000 0.500000
#
# Coordination Sequence:
#
# PCOD8002060 Si02
#       8
#     2   2   2   2   2   2   2   2
#     4   9  19  34  52  77 103 139 174 215 264 308
#     4  11  18  33  52  72 106 149 179 205 251 308
#     4  10  20  35  54  77 107 139 178 216 263 318
#     4  12  21  34  49  75 119 144 179 211 252 315
#     4  11  23  32  48  81 112 148 177 213 255 303
#     4   9  18  33  50  81  98 137 173 210 270 300
#     4   9  19  35  57  83 101 125 179 234 270 306
#     4  11  19  33  51  73 105 150 181 208 251 309
#
# _framework density 17.791699000000001
#
# number of rings (size 3 to 8) (size 9 to 14) (size 15 to 20)
#    0.750    1.000    3.750    1.875    1.750    0.500 
#    0.000    0.000    0.000    0.750    0.000    7.000 
#    0.000    0.000    0.000    0.000    0.000    0.000 
#
# Total GULP energy -198234.287042 kJ/mol
# GULP energy per Si atom -12389.642940 kJ/mol
# Density = 1.775120 g / cm^3
# Si number density = 17.791699 Si / 1000 Ang^3
#
#
#
# Elastic Constant Matrix: (Units=GPa)
#
#
# Indices 1 2 3 4 5 6 
#
# 1 93.5504 45.4778 33.0979 7.0925 8.5618 -13.3250
# 2 45.4778 53.4313 38.0581 9.0607 8.3406 -3.3929
# 3 33.0979 38.0581 100.7181 8.3894 4.3964 -7.5178
# 4 7.0925 9.0607 8.3894 15.3176 -3.9623 3.4799
# 5 8.5618 8.3406 4.3964 -3.9623 19.3157 5.5554
# 6 -13.3250 -3.3929 -7.5178 3.4799 5.5554 38.7740
#
#
#
# Elastic Compliance Matrix: (Units=1/GPa)
#
#
# Indices 1 2 3 4 5 6 
#
# 1 0.019524 -0.015200 0.000229 -0.002784 -0.004533 0.006323
# 2 -0.015200 0.043283 -0.009353 -0.016937 -0.013350 0.000183
# 3 0.000229 -0.009353 0.013802 -0.002749 -0.000413 0.002242
# 4 -0.002784 -0.016937 -0.002749 0.089964 0.032129 -0.015649
# 5 -0.004533 -0.013350 -0.000413 0.032129 0.070783 -0.015831
# 6 0.006323 0.000183 0.002242 -0.015649 -0.015831 0.032087
#
#
# Mechanical properties :
#
#
# Convention : Reuss Voigt Hill
#
# Bulk Modulus (GPa) = 35.76346 53.44083 44.60215
# Shear Modulus (GPa) = 15.27136 23.41921 19.34528
#
# Velocity S-wave (km/s) = 2.93293 3.63202 3.30103
# Velocity P-wave (km/s) = 5.62265 6.90586 6.29703
#
# Compressibility (1/GPa) = 0.02796150
#
# Stress axis : x y z
#
# Youngs Moduli (GPa) = 51.21891 23.10392 72.45370
#
# Poissons Ratio (x) = 0.35118 -0.01662
# Poissons Ratio (y) = 0.77853 0.67765
# Poissons Ratio (z) = -0.01175 0.21609
#
# Static dielectric constant tensor:
#      x y z
#    x 3.433720 -0.281620 -0.060340 
#    y -0.281620 3.203940 0.144170 
#    z -0.060340 0.144170 2.967800 
# 
# 
# High freq. dielectric constant tensor:
#      x y z
#    x 1.696300 -0.026990 -0.000090 
#    y -0.026990 1.670370 0.018910 
#    z -0.000090 0.018910 1.649070 
# 
# From -- ./inp_files/514200.got.cif
#   From: 2010.06.25/outbox.cif.g09.slc.cpg/sg2_258_cif.got.tgz:514200.got - 2010.06.27 13:26:56.
