data_PCOD8002213
_publ_section_title
;
Structure prediction by ZEFSAII (Michael W. Deem and Ramdas Pophale) SiO2 
 PCOD8002213
Probable space group: P -1
;
_chemical_formula_sum "Si O2"
_cell_formula_units_Z 14
_cell_length_a 8.838319
_cell_length_b 10.888636
_cell_length_c 10.989669
_cell_angle_alpha 138.846580
_cell_angle_beta 82.569573
_cell_angle_gamma 75.870571
_cell_volume 588.104974
_symmetry_space_group_name_H-M "P -1"
_symmetry_group_IT_number 2
_symmetry_cell_setting 'triclinic'
loop_
_space_group_symop_operation_xyz
x,y,z
-x,-y,-z
loop_
_atom_site_type_symbol
_atom_site_label
_atom_site_fract_x
_atom_site_fract_y
_atom_site_fract_z
Si Si1 0.325638 0.723038 0.020784
Si Si2 0.865868 0.528699 0.139725
Si Si3 0.335482 0.084525 0.393203
Si Si4 0.350509 0.507520 0.369120
Si Si5 0.116383 0.075341 0.111976
Si Si6 0.412761 0.842455 0.727668
Si Si7 0.997404 0.522829 0.372222
O O1 0.366477 0.839940 0.216129
O O2 0.243864 0.583348 0.974702
O O3 0.498008 0.572271 0.809153
O O4 0.177846 0.933001 0.119554
O O5 0.723947 0.789302 0.376437
O O6 0.977296 0.417216 0.168820
O O7 0.000000 0.500000 0.000000
O O8 0.520226 0.054350 0.302967
O O9 0.181147 0.234413 0.419460
O O10 0.306320 0.743617 0.597965
O O11 0.416586 0.346369 0.357645
O O12 0.173964 0.535078 0.348866
O O13 0.283416 0.030401 0.976158
O O14 0.006804 0.346552 0.344699
O O15 0.000000 0.000000 0.000000
#
# Coordination Sequence:
#
# PCOD8002213 Si02
#       7
#     2   2   2   2   2   2   2
#     4  11  21  39  62  87 122 158 191 244 306 356
#     4  10  23  43  60  85 118 155 208 255 293 340
#     4  10  22  39  61  89 113 165 197 239 303 347
#     4  10  20  35  57  88 125 158 192 237 297 361
#     4  11  21  34  57  92 124 154 191 234 298 364
#     4  10  21  35  57  88 130 160 185 239 299 361
#     4  10  22  36  57  91 120 154 199 245 288 356
#
# _framework density 23.805275999999999
#
# number of rings (size 3 to 8) (size 9 to 14) (size 15 to 20)
#    0.857    0.857    2.857    1.714    6.000    4.000 
#    0.000    0.714    0.000    1.714    0.000    0.000 
#    0.000    0.000    0.000    0.000    0.000    0.000 
#
# Total GULP energy -173547.060067 kJ/mol
# GULP energy per Si atom -12396.218576 kJ/mol
# Density = 2.375109 g / cm^3
# Si number density = 23.805276 Si / 1000 Ang^3
#
#
#
# Elastic Constant Matrix: (Units=GPa)
#
#
# Indices 1 2 3 4 5 6 
#
# 1 76.1748 10.5431 6.4660 12.3311 19.9087 32.6969
# 2 10.5431 36.0251 23.8591 -5.2999 0.8228 29.0461
# 3 6.4660 23.8591 135.6905 17.9826 12.6630 34.6767
# 4 12.3311 -5.2999 17.9826 32.0702 14.8171 -3.2627
# 5 19.9087 0.8228 12.6630 14.8171 33.8709 5.2029
# 6 32.6969 29.0461 34.6767 -3.2627 5.2029 44.0511
#
#
#
# Elastic Compliance Matrix: (Units=1/GPa)
#
#
# Indices 1 2 3 4 5 6 
#
# 1 0.034124 0.017221 0.009644 -0.015267 -0.010620 -0.044152
# 2 0.017221 0.069587 0.002962 -0.001642 -0.002865 -0.060781
# 3 0.009644 0.002962 0.013304 -0.011538 -0.002574 -0.020134
# 4 -0.015267 -0.001642 -0.011538 0.052331 -0.013712 0.026993
# 5 -0.010620 -0.002865 -0.002574 -0.013712 0.041901 0.005834
# 6 -0.044152 -0.060781 -0.020134 0.026993 0.005834 0.112710
#
#
# Mechanical properties :
#
#
# Convention : Reuss Voigt Hill
#
# Bulk Modulus (GPa) = 5.66033 36.62519 21.14276
# Shear Modulus (GPa) = 15.47062 35.79992 25.63527
#
# Velocity S-wave (km/s) = 2.55204 3.88218 3.28514
# Velocity P-wave (km/s) = 3.32668 5.95934 4.82600
#
# Compressibility (1/GPa) = 0.17666823
#
# Stress axis : x y z
#
# Youngs Moduli (GPa) = 29.30467 14.37055 75.16452
#
# Poissons Ratio (x) = -0.24748 -0.72486
# Poissons Ratio (y) = -0.50466 -0.22261
# Poissons Ratio (z) = -0.28260 -0.04256
#
# Static dielectric constant tensor:
#      x y z
#    x 4.262520 0.040690 0.197660 
#    y 0.040690 3.646150 0.086460 
#    z 0.197660 0.086460 5.300800 
# 
# 
# High freq. dielectric constant tensor:
#      x y z
#    x 1.952640 0.015130 0.010670 
#    y 0.015130 1.888030 0.010030 
#    z 0.010670 0.010030 1.975560 
# 
# From -- ./inp_files/200064.got.cif
#   From: 2010.06.25/outbox.cif.g09.slc.cpg/sg2_101_cif.got.tgz:200064.got - 2010.06.27 13:26:56.
