data_PCOD8002834
_publ_section_title
;
Structure prediction by ZEFSAII (Michael W. Deem and Ramdas Pophale) SiO2 
 PCOD8002834
Probable space group: P -1
;
_chemical_formula_sum "Si O2"
_cell_formula_units_Z 12
_cell_length_a 8.806657
_cell_length_b 11.438271
_cell_length_c 11.353884
_cell_angle_alpha 39.841285
_cell_angle_beta 64.513362
_cell_angle_gamma 90.903856
_cell_volume 529.845332
_symmetry_space_group_name_H-M "P -1"
_symmetry_group_IT_number 2
_symmetry_cell_setting 'triclinic'
loop_
_space_group_symop_operation_xyz
x,y,z
-x,-y,-z
loop_
_atom_site_type_symbol
_atom_site_label
_atom_site_fract_x
_atom_site_fract_y
_atom_site_fract_z
Si Si1 0.449287 0.905605 0.780625
Si Si2 0.021981 0.667132 0.202226
Si Si3 0.937513 0.717837 0.453082
Si Si4 0.904755 0.801066 0.914271
Si Si5 0.492709 0.444109 0.910011
Si Si6 0.209564 0.747658 0.753211
O O1 0.349452 0.762379 0.802421
O O2 0.647880 0.161799 0.482523
O O3 0.534216 0.790694 0.914459
O O4 0.267223 0.886464 0.932192
O O5 0.003718 0.433211 0.382953
O O6 0.886247 0.672223 0.140852
O O7 0.939897 0.689317 0.334930
O O8 0.707207 0.641980 0.621578
O O9 0.100138 0.984367 0.226648
O O10 0.708503 0.603405 0.053535
O O11 0.123883 0.895315 0.700915
O O12 0.500000 0.500000 0.000000
O O13 0.000000 0.500000 0.000000
#
# Coordination Sequence:
#
# PCOD8002834 Si02
#       6
#     2   2   2   2   2   2
#     4   9  20  37  56  84 121 159 200 249 305 361
#     4   9  21  43  66  89 125 166 203 256 310 365
#     4  10  22  44  65  89 127 163 205 257 310 366
#     4  11  23  38  64  94 120 163 210 252 308 369
#     4  11  23  38  59  92 126 160 207 258 306 363
#     4  10  20  36  59  88 121 160 203 251 306 361
#
# _framework density 22.648118
#
# number of rings (size 3 to 8) (size 9 to 14) (size 15 to 20)
#    0.000    2.000    0.000    2.500    0.000   10.000 
#    0.000   12.500    0.000    0.000    0.000    0.000 
#    0.000    0.000    0.000    0.000    0.000    0.000 
#
# Total GULP energy -148729.328740 kJ/mol
# GULP energy per Si atom -12394.110728 kJ/mol
# Density = 2.259657 g / cm^3
# Si number density = 22.648118 Si / 1000 Ang^3
#
#
#
# Elastic Constant Matrix: (Units=GPa)
#
#
# Indices 1 2 3 4 5 6 
#
# 1 118.0622 37.8536 48.5296 2.8551 -1.5810 15.4373
# 2 37.8536 93.1607 54.8806 13.2442 -1.1847 2.6593
# 3 48.5296 54.8806 140.6749 16.1164 1.1192 11.8059
# 4 2.8551 13.2442 16.1164 49.2633 -4.7203 0.9377
# 5 -1.5810 -1.1847 1.1192 -4.7203 25.4192 -3.7124
# 6 15.4373 2.6593 11.8059 0.9377 -3.7124 26.4794
#
#
#
# Elastic Compliance Matrix: (Units=1/GPa)
#
#
# Indices 1 2 3 4 5 6 
#
# 1 0.011067 -0.003159 -0.002276 0.001058 0.000086 -0.005145
# 2 -0.003159 0.015080 -0.004755 -0.002301 0.000671 0.002623
# 3 -0.002276 -0.004755 0.010240 -0.002039 -0.001619 -0.002916
# 4 0.001058 -0.002301 -0.002039 0.021916 0.004167 0.000331
# 5 0.000086 0.000671 -0.001619 0.004167 0.041131 0.006223
# 6 -0.005145 0.002623 -0.002916 0.000331 0.006223 0.042662
#
#
# Mechanical properties :
#
#
# Convention : Reuss Voigt Hill
#
# Bulk Modulus (GPa) = 62.47083 70.49170 66.48127
# Shear Modulus (GPa) = 29.79563 34.27466 32.03514
#
# Velocity S-wave (km/s) = 3.63104 3.89441 3.76503
# Velocity P-wave (km/s) = 6.72476 7.17037 6.95114
#
# Compressibility (1/GPa) = 0.01600747
#
# Stress axis : x y z
#
# Youngs Moduli (GPa) = 90.36238 66.31505 97.65702
#
# Poissons Ratio (x) = 0.20946 0.22223
# Poissons Ratio (y) = 0.28542 0.46437
# Poissons Ratio (z) = 0.20563 0.31533
#
# Static dielectric constant tensor:
#      x y z
#    x 4.240650 -0.306910 0.067760 
#    y -0.306910 3.991120 0.228250 
#    z 0.067760 0.228250 4.117910 
# 
# 
# High freq. dielectric constant tensor:
#      x y z
#    x 1.898750 -0.012140 0.006080 
#    y -0.012140 1.874130 0.008860 
#    z 0.006080 0.008860 1.894410 
# 
# From -- ./inp_files/27410.got.cif
#   From: 2010.06.25/outbox.cif.g09.slc.cpg/sg2_14_cif.got.tgz:27410.got - 2010.06.27 13:26:56.
