data_PCOD8002912
_publ_section_title
;
Structure prediction by ZEFSAII (Michael W. Deem and Ramdas Pophale) SiO2 
 PCOD8002912
Probable space group: P -1
;
_chemical_formula_sum "Si O2"
_cell_formula_units_Z 16
_cell_length_a 9.374266
_cell_length_b 11.480157
_cell_length_c 9.410153
_cell_angle_alpha 59.012628
_cell_angle_beta 79.757933
_cell_angle_gamma 63.456352
_cell_volume 774.854168
_symmetry_space_group_name_H-M "P -1"
_symmetry_group_IT_number 2
_symmetry_cell_setting 'triclinic'
loop_
_space_group_symop_operation_xyz
x,y,z
-x,-y,-z
loop_
_atom_site_type_symbol
_atom_site_label
_atom_site_fract_x
_atom_site_fract_y
_atom_site_fract_z
Si Si1 0.135426 0.438260 0.737625
Si Si2 0.674170 0.136283 0.754186
Si Si3 0.795157 0.680798 0.681114
Si Si4 0.772915 0.807544 0.896873
Si Si5 0.637451 0.399914 0.429067
Si Si6 0.590406 0.132526 0.078492
Si Si7 0.502118 0.631177 0.824831
Si Si8 0.666837 0.814979 0.336584
O O1 0.252280 0.519943 0.692359
O O2 0.195130 0.335573 0.653758
O O3 0.958494 0.561361 0.661084
O O4 0.125645 0.336140 0.934412
O O5 0.741292 0.242318 0.592185
O O6 0.506269 0.168848 0.688197
O O7 0.793676 0.959584 0.834842
O O8 0.649766 0.186972 0.892253
O O9 0.831579 0.767892 0.749963
O O10 0.687754 0.599450 0.807513
O O11 0.687469 0.804717 0.508864
O O12 0.590193 0.840998 0.935346
O O13 0.500000 0.500000 0.500000
O O14 0.563147 0.363201 0.324674
O O15 0.604360 0.216601 0.165529
O O16 0.696935 0.955880 0.189338
O O17 0.500000 0.500000 0.000000
#
# Coordination Sequence:
#
# PCOD8002912 Si02
#       8
#     2   2   2   2   2   2   2   2
#     4  12  22  41  61  90 126 167 197 242 308 376
#     4  11  19  37  63  91 116 157 207 261 295 352
#     4  11  24  37  61  92 125 157 203 250 301 369
#     4  10  20  36  60  87 119 161 203 246 302 359
#     4  12  22  37  64  94 123 156 206 250 306 357
#     4  10  20  36  64  89 120 152 211 260 296 348
#     4  11  23  39  62  95 121 156 201 261 304 349
#     4  11  20  37  63  91 117 159 208 252 300 353
#
# _framework density 20.649046999999999
#
# number of rings (size 3 to 8) (size 9 to 14) (size 15 to 20)
#    0.000    1.000    5.000    3.750    1.750    1.500 
#    0.000    0.625    2.750    1.500    0.000    0.000 
#    0.000    0.000    0.000    0.000    0.000    0.000 
#
# Total GULP energy -198373.287011 kJ/mol
# GULP energy per Si atom -12398.330438 kJ/mol
# Density = 2.060205 g / cm^3
# Si number density = 20.649047 Si / 1000 Ang^3
#
#
#
# Elastic Constant Matrix: (Units=GPa)
#
#
# Indices 1 2 3 4 5 6 
#
# 1 43.6406 32.5478 16.0664 -2.3555 0.1162 0.7309
# 2 32.5478 96.7481 26.9425 -4.5210 -0.1218 11.9491
# 3 16.0664 26.9425 116.7939 -5.0462 4.2745 9.2823
# 4 -2.3555 -4.5210 -5.0462 36.5985 10.1739 2.1926
# 5 0.1162 -0.1218 4.2745 10.1739 23.7850 0.1500
# 6 0.7309 11.9491 9.2823 2.1926 0.1500 28.2766
#
#
#
# Elastic Compliance Matrix: (Units=1/GPa)
#
#
# Indices 1 2 3 4 5 6 
#
# 1 0.031514 -0.010505 -0.002257 0.000126 0.000116 0.004355
# 2 -0.010505 0.015058 -0.001512 0.001357 -0.000144 -0.005700
# 3 -0.002257 -0.001512 0.009597 0.001839 -0.002492 -0.002583
# 4 0.000126 0.001357 0.001839 0.031836 -0.013919 -0.003575
# 5 0.000116 -0.000144 -0.002492 -0.013919 0.048433 0.001698
# 6 0.004355 -0.005700 -0.002583 -0.003575 0.001698 0.038777
#
#
# Mechanical properties :
#
#
# Convention : Reuss Voigt Hill
#
# Bulk Modulus (GPa) = 36.20266 45.36622 40.78444
# Shear Modulus (GPa) = 23.47746 29.84040 26.65893
#
# Velocity S-wave (km/s) = 3.37556 3.80560 3.59702
# Velocity P-wave (km/s) = 5.72390 6.42868 6.08650
#
# Compressibility (1/GPa) = 0.02762228
#
# Stress axis : x y z
#
# Youngs Moduli (GPa) = 31.73223 66.40778 104.19775
#
# Poissons Ratio (x) = 0.69763 0.23514
# Poissons Ratio (y) = 0.33335 0.15751
# Poissons Ratio (z) = 0.07161 0.10039
#
# Static dielectric constant tensor:
#      x y z
#    x 3.357990 0.369300 -0.069990 
#    y 0.369300 4.271620 -0.004220 
#    z -0.069990 -0.004220 4.053550 
# 
# 
# High freq. dielectric constant tensor:
#      x y z
#    x 1.753180 0.016390 -0.002080 
#    y 0.016390 1.817850 0.002200 
#    z -0.002080 0.002200 1.832090 
# 
# From -- ./inp_files/185052.got.cif
#   From: 2010.06.25/outbox.cif.g09.slc.cpg/sg2_93_cif.got.tgz:185052.got - 2010.06.27 13:26:56.
