data_PCOD8002553
_publ_section_title
;
Structure prediction by ZEFSAII (Michael W. Deem and Ramdas Pophale) SiO2 
 PCOD8002553
Probable space group: P -1
;
_chemical_formula_sum "Si O2"
_cell_formula_units_Z 16
_cell_length_a 16.090754
_cell_length_b 9.527190
_cell_length_c 7.722200
_cell_angle_alpha 53.571770
_cell_angle_beta 125.888031
_cell_angle_gamma 97.254620
_cell_volume 725.626057
_symmetry_space_group_name_H-M "P -1"
_symmetry_group_IT_number 2
_symmetry_cell_setting 'triclinic'
loop_
_space_group_symop_operation_xyz
x,y,z
-x,-y,-z
loop_
_atom_site_type_symbol
_atom_site_label
_atom_site_fract_x
_atom_site_fract_y
_atom_site_fract_z
Si Si1 0.730245 0.359540 0.557831
Si Si2 0.688391 0.681128 0.034784
Si Si3 0.901625 0.591377 0.181908
Si Si4 0.606515 0.658007 0.606190
Si Si5 0.110759 0.014379 0.051151
Si Si6 0.626506 0.267570 0.819780
Si Si7 0.794148 0.901765 0.225815
Si Si8 0.174909 0.417952 0.259102
O O1 0.659336 0.539016 0.231191
O O2 0.643010 0.315830 0.605068
O O3 0.823241 0.408339 0.749519
O O4 0.792842 0.179821 0.648604
O O5 0.800739 0.553069 0.175100
O O6 0.705651 0.852093 0.032261
O O7 0.599869 0.749141 0.722954
O O8 0.872811 0.812070 0.959349
O O9 0.000000 0.500000 0.500000
O O10 0.913980 0.512228 0.057230
O O11 0.629292 0.436656 0.820435
O O12 0.491935 0.756499 0.295981
O O13 0.703391 0.687661 0.590773
O O14 0.116292 0.052674 0.820891
O O15 0.000000 0.000000 0.000000
O O16 0.724780 0.079023 0.126891
O O17 0.856455 0.729522 0.551404
#
# Coordination Sequence:
#
# PCOD8002553 Si02
#       8
#     2   2   2   2   2   2   2   2
#     4   9  18  35  55  75 105 138 172 216 261 307
#     4   9  18  33  52  74 103 140 174 213 262 306
#     4  10  20  36  56  76 101 135 177 217 261 316
#     4   9  18  32  52  77 107 141 174 210 257 311
#     4  10  20  36  54  75 102 133 172 218 266 310
#     4   9  18  32  51  79 108 137 174 213 256 307
#     4   9  19  35  53  75 104 137 175 218 260 308
#     4   9  19  37  56  75 105 141 173 213 262 310
#
# _framework density 22.049921999999999
#
# number of rings (size 3 to 8) (size 9 to 14) (size 15 to 20)
#    0.000    2.750    0.000    0.750    0.000    2.500 
#    0.000   13.750    0.000    0.000    0.000    0.000 
#    0.000    0.000    0.000    0.000    0.000    0.000 
#
# Total GULP energy -198236.861031 kJ/mol
# GULP energy per Si atom -12389.803814 kJ/mol
# Density = 2.199974 g / cm^3
# Si number density = 22.049922 Si / 1000 Ang^3
#
#
#
# Elastic Constant Matrix: (Units=GPa)
#
#
# Indices 1 2 3 4 5 6 
#
# 1 67.3702 9.6106 20.7281 -3.8085 -3.6802 12.4390
# 2 9.6106 67.0430 20.8073 -0.5608 -2.4124 -9.3872
# 3 20.7281 20.8073 49.2115 3.8121 -7.7080 5.7879
# 4 -3.8085 -0.5608 3.8121 34.7822 0.0363 -2.8562
# 5 -3.6802 -2.4124 -7.7080 0.0363 23.8464 -4.3842
# 6 12.4390 -9.3872 5.7879 -2.8562 -4.3842 30.4400
#
#
#
# Elastic Compliance Matrix: (Units=1/GPa)
#
#
# Indices 1 2 3 4 5 6 
#
# 1 0.018401 -0.001523 -0.006600 0.002170 -0.000669 -0.006627
# 2 -0.001523 0.018933 -0.008397 0.001739 0.000488 0.008291
# 3 -0.006600 -0.008397 0.028573 -0.004391 0.006491 -0.004802
# 4 0.002170 0.001739 -0.004391 0.029762 -0.000361 0.003225
# 5 -0.000669 0.000488 0.006491 -0.000361 0.045017 0.005639
# 6 -0.006627 0.008291 -0.004802 0.003225 0.005639 0.040144
#
#
# Mechanical properties :
#
#
# Convention : Reuss Voigt Hill
#
# Bulk Modulus (GPa) = 30.42664 31.76853 31.09758
# Shear Modulus (GPa) = 22.23936 26.64563 24.44249
#
# Velocity S-wave (km/s) = 3.17928 3.48001 3.33304
# Velocity P-wave (km/s) = 5.22552 5.53047 5.38015
#
# Compressibility (1/GPa) = 0.03286594
#
# Stress axis : x y z
#
# Youngs Moduli (GPa) = 54.34477 52.81701 34.99868
#
# Poissons Ratio (x) = 0.08045 0.23099
# Poissons Ratio (y) = 0.08278 0.29389
# Poissons Ratio (z) = 0.35868 0.44351
#
# Static dielectric constant tensor:
#      x y z
#    x 4.030180 -0.071010 -0.170300 
#    y -0.071010 4.129120 -0.094140 
#    z -0.170300 -0.094140 3.562970 
# 
# 
# High freq. dielectric constant tensor:
#      x y z
#    x 1.867830 -0.001140 -0.014520 
#    y -0.001140 1.863910 -0.010730 
#    z -0.014520 -0.010730 1.824740 
# 
# From -- ./inp_files/327730.got.cif
#   From: 2010.06.25/outbox.cif.g09.slc.cpg/sg2_164_cif.got.tgz:327730.got - 2010.06.27 13:26:56.
