data_PCOD8002335
_publ_section_title
;
Structure prediction by ZEFSAII (Michael W. Deem and Ramdas Pophale) SiO2 
 PCOD8002335
Probable space group: P -1
;
_chemical_formula_sum "Si O2"
_cell_formula_units_Z 14
_cell_length_a 9.363222
_cell_length_b 11.312255
_cell_length_c 12.514287
_cell_angle_alpha 110.037096
_cell_angle_beta 143.860731
_cell_angle_gamma 88.051660
_cell_volume 660.187823
_symmetry_space_group_name_H-M "P -1"
_symmetry_group_IT_number 2
_symmetry_cell_setting 'triclinic'
loop_
_space_group_symop_operation_xyz
x,y,z
-x,-y,-z
loop_
_atom_site_type_symbol
_atom_site_label
_atom_site_fract_x
_atom_site_fract_y
_atom_site_fract_z
Si Si1 0.630306 0.146696 0.259410
Si Si2 0.261280 0.338619 0.374068
Si Si3 0.875331 0.488246 0.802994
Si Si4 0.077952 0.917921 0.770830
Si Si5 0.693757 0.591191 0.053789
Si Si6 0.273964 0.550872 0.616949
Si Si7 0.961426 0.091900 0.598181
O O1 0.856396 0.163004 0.311635
O O2 0.616182 0.291332 0.307550
O O3 0.702593 0.112314 0.411127
O O4 0.349871 0.023526 0.021844
O O5 0.571400 0.365233 0.570864
O O6 0.145216 0.366549 0.198631
O O7 0.216352 0.452383 0.451401
O O8 0.093607 0.184353 0.270977
O O9 0.055815 0.446597 0.818117
O O10 0.000000 0.500000 0.000000
O O11 0.920019 0.004330 0.655768
O O12 0.786569 0.755166 0.187729
O O13 0.500000 0.500000 0.000000
O O14 0.517419 0.543962 0.826324
O O15 0.000000 0.500000 0.500000
O O16 0.000000 0.000000 0.500000
#
# Coordination Sequence:
#
# PCOD8002335 Si02
#       7
#     2   2   2   2   2   2   2
#     4  10  20  35  59  91 135 167 210 273 324 382
#     4  11  24  42  68  94 133 179 220 272 335 400
#     4  11  25  45  67  98 136 174 223 278 336 396
#     4  10  21  37  58  93 129 171 215 263 329 396
#     4  12  25  41  69 101 133 171 228 280 327 395
#     4  12  21  38  65  99 133 168 222 274 325 386
#     4  10  22  38  61  95 134 169 212 274 332 385
#
# _framework density 21.206085000000002
#
# number of rings (size 3 to 8) (size 9 to 14) (size 15 to 20)
#    0.000    1.143    4.286    2.571    2.000    1.143 
#    0.000    0.714    0.000    8.571    0.000    0.000 
#    0.000    0.000    0.000    0.000    0.000    0.000 
#
# Total GULP energy -173506.678133 kJ/mol
# GULP energy per Si atom -12393.334152 kJ/mol
# Density = 2.115782 g / cm^3
# Si number density = 21.206085 Si / 1000 Ang^3
#
#
#
# Elastic Constant Matrix: (Units=GPa)
#
#
# Indices 1 2 3 4 5 6 
#
# 1 78.4429 35.9334 25.5967 -2.8664 22.6607 6.7606
# 2 35.9334 147.5278 46.5070 -14.1901 11.0000 34.1556
# 3 25.5967 46.5070 92.5580 -26.2959 6.6021 12.3023
# 4 -2.8664 -14.1901 -26.2959 49.5005 -0.9784 -5.5486
# 5 22.6607 11.0000 6.6021 -0.9784 32.9291 -3.3879
# 6 6.7606 34.1556 12.3023 -5.5486 -3.3879 39.8968
#
#
#
# Elastic Compliance Matrix: (Units=1/GPa)
#
#
# Indices 1 2 3 4 5 6 
#
# 1 0.018250 -0.002449 -0.003369 -0.001787 -0.011238 -0.001160
# 2 -0.002449 0.010323 -0.003328 0.000169 -0.001866 -0.007531
# 3 -0.003369 -0.003328 0.015403 0.007009 0.000518 -0.000311
# 4 -0.001787 0.000169 0.007009 0.024039 0.000626 0.001393
# 5 -0.011238 -0.001866 0.000518 0.000626 0.039337 0.006770
# 6 -0.001160 -0.007531 -0.000311 0.001393 0.006770 0.032573
#
#
# Mechanical properties :
#
#
# Convention : Reuss Voigt Hill
#
# Bulk Modulus (GPa) = 38.93035 59.40035 49.16535
# Shear Modulus (GPa) = 29.98018 38.49807 34.23912
#
# Velocity S-wave (km/s) = 3.76407 4.26540 4.02255
# Velocity P-wave (km/s) = 6.10647 7.23395 6.69399
#
# Compressibility (1/GPa) = 0.02568690
#
# Stress axis : x y z
#
# Youngs Moduli (GPa) = 54.79391 96.87294 64.92100
#
# Poissons Ratio (x) = 0.23720 0.21869
# Poissons Ratio (y) = 0.13417 0.21603
# Poissons Ratio (z) = 0.18457 0.32236
#
# Static dielectric constant tensor:
#      x y z
#    x 3.525630 -0.182760 0.089450 
#    y -0.182760 4.069410 -0.195790 
#    z 0.089450 -0.195790 3.897690 
# 
# 
# High freq. dielectric constant tensor:
#      x y z
#    x 1.803700 0.003940 -0.004870 
#    y 0.003940 1.847460 -0.019060 
#    z -0.004870 -0.019060 1.843980 
# 
# From -- ./inp_files/314677.got.cif
#   From: 2010.06.25/outbox.cif.g09.slc.cpg/sg2_158_cif.got.tgz:314677.got - 2010.06.27 13:26:56.
