data_PCOD8002749
_publ_section_title
;
Structure prediction by ZEFSAII (Michael W. Deem and Ramdas Pophale) SiO2 
 PCOD8002749
Probable space group: P -1
;
_chemical_formula_sum "Si O2"
_cell_formula_units_Z 16
_cell_length_a 14.093415
_cell_length_b 6.131956
_cell_length_c 8.897583
_cell_angle_alpha 86.903954
_cell_angle_beta 114.997842
_cell_angle_gamma 95.565537
_cell_volume 693.542741
_symmetry_space_group_name_H-M "P -1"
_symmetry_group_IT_number 2
_symmetry_cell_setting 'triclinic'
loop_
_space_group_symop_operation_xyz
x,y,z
-x,-y,-z
loop_
_atom_site_type_symbol
_atom_site_label
_atom_site_fract_x
_atom_site_fract_y
_atom_site_fract_z
Si Si1 0.841289 0.367414 0.932813
Si Si2 0.308384 0.997107 0.514104
Si Si3 0.718113 0.653538 0.267476
Si Si4 0.560836 0.371112 0.336275
Si Si5 0.829684 0.000357 0.149126
Si Si6 0.005819 0.309820 0.801637
Si Si7 0.862961 0.295394 0.446049
Si Si8 0.655076 0.624934 0.679881
O O1 0.902999 0.274709 0.837987
O O2 0.758587 0.534747 0.820750
O O3 0.923274 0.479045 0.102983
O O4 0.782309 0.164783 0.992571
O O5 0.282984 0.189215 0.599004
O O6 0.319721 0.116916 0.355037
O O7 0.415243 0.885251 0.634575
O O8 0.214900 0.805630 0.469715
O O9 0.611108 0.489700 0.213386
O O10 0.736162 0.806644 0.125594
O O11 0.819912 0.515909 0.345499
O O12 0.615534 0.481953 0.516109
O O13 0.436255 0.389731 0.253977
O O14 0.930953 0.906189 0.143767
O O15 0.870089 0.119205 0.325321
O O16 0.972808 0.354182 0.604314
#
# Coordination Sequence:
#
# PCOD8002749 Si02
#       8
#     2   2   2   2   2   2   2   2
#     4  11  25  40  57  88 129 159 193 246 303 358
#     4   9  17  32  59  89 116 148 192 247 296 344
#     4   9  19  36  59  89 117 146 194 250 294 344
#     4   9  18  35  62  90 117 152 200 247 294 353
#     4  11  23  39  61  86 121 164 202 243 294 352
#     4  11  24  41  60  85 120 162 204 247 297 350
#     4  10  21  39  63  88 118 158 207 249 287 347
#     4  10  20  36  58  88 122 157 196 245 298 354
#
# _framework density 23.069955
#
# number of rings (size 3 to 8) (size 9 to 14) (size 15 to 20)
#    0.000    2.000    0.000    4.125    0.000    8.000 
#    0.000    0.625    0.000   10.500    0.000    0.000 
#    0.000    0.000    0.000    0.000    0.000    0.000 
#
# Total GULP energy -198298.719672 kJ/mol
# GULP energy per Si atom -12393.669979 kJ/mol
# Density = 2.301745 g / cm^3
# Si number density = 23.069955 Si / 1000 Ang^3
#
#
#
# Elastic Constant Matrix: (Units=GPa)
#
#
# Indices 1 2 3 4 5 6 
#
# 1 127.2167 42.0453 43.1717 -23.0247 -11.0877 -9.7391
# 2 42.0453 106.4254 33.5724 -30.3321 -14.6915 -5.7384
# 3 43.1717 33.5724 54.8659 -22.0106 -13.0609 13.7020
# 4 -23.0247 -30.3321 -22.0106 45.5537 6.0793 -15.4498
# 5 -11.0877 -14.6915 -13.0609 6.0793 21.7662 -5.0438
# 6 -9.7391 -5.7384 13.7020 -15.4498 -5.0438 35.2759
#
#
#
# Elastic Compliance Matrix: (Units=1/GPa)
#
#
# Indices 1 2 3 4 5 6 
#
# 1 0.013259 0.000392 -0.010897 0.005016 0.001481 0.010366
# 2 0.000392 0.015816 -0.007132 0.010100 0.006271 0.010771
# 3 -0.010897 -0.007132 0.037821 0.001103 0.008030 -0.017228
# 4 0.005016 0.010100 0.001103 0.037916 0.004028 0.019781
# 5 0.001481 0.006271 0.008030 0.004028 0.056513 0.008154
# 6 0.010366 0.010771 -0.017228 0.019781 0.008154 0.049483
#
#
# Mechanical properties :
#
#
# Convention : Reuss Voigt Hill
#
# Bulk Modulus (GPa) = 31.62278 58.45411 45.03845
# Shear Modulus (GPa) = 19.48372 31.83373 25.65873
#
# Velocity S-wave (km/s) = 2.90927 3.71870 3.33861
# Velocity P-wave (km/s) = 5.00222 6.62051 5.86742
#
# Compressibility (1/GPa) = 0.03162277
#
# Stress axis : x y z
#
# Youngs Moduli (GPa) = 75.41785 63.22700 26.44014
#
# Poissons Ratio (x) = -0.02479 0.28812
# Poissons Ratio (y) = -0.02957 0.18857
# Poissons Ratio (z) = 0.82184 0.45093
#
# Static dielectric constant tensor:
#      x y z
#    x 4.506320 0.131010 -0.418030 
#    y 0.131010 4.388460 -0.243140 
#    z -0.418030 -0.243140 3.828700 
# 
# 
# High freq. dielectric constant tensor:
#      x y z
#    x 1.917230 -0.005990 -0.025810 
#    y -0.005990 1.923490 -0.013430 
#    z -0.025810 -0.013430 1.876550 
# 
# From -- ./inp_files/93201.got.cif
#   From: 2010.06.25/outbox.cif.g09.slc.cpg/sg2_47_cif.got.tgz:93201.got - 2010.06.27 13:26:56.
