data_PCOD8002437
_publ_section_title
;
Structure prediction by ZEFSAII (Michael W. Deem and Ramdas Pophale) SiO2 
 PCOD8002437
Probable space group: P -1
;
_chemical_formula_sum "Si O2"
_cell_formula_units_Z 16
_cell_length_a 9.029761
_cell_length_b 16.548132
_cell_length_c 11.315132
_cell_angle_alpha 72.718450
_cell_angle_beta 108.026886
_cell_angle_gamma 151.673436
_cell_volume 761.742539
_symmetry_space_group_name_H-M "P -1"
_symmetry_group_IT_number 2
_symmetry_cell_setting 'triclinic'
loop_
_space_group_symop_operation_xyz
x,y,z
-x,-y,-z
loop_
_atom_site_type_symbol
_atom_site_label
_atom_site_fract_x
_atom_site_fract_y
_atom_site_fract_z
Si Si1 0.420781 0.048232 0.686528
Si Si2 0.424613 0.134057 0.035992
Si Si3 0.712615 0.311820 0.456734
Si Si4 0.235303 0.223253 0.995018
Si Si5 0.212757 0.762631 0.717411
Si Si6 0.291995 0.428357 0.144179
Si Si7 0.768335 0.186469 0.940223
Si Si8 0.256049 0.229778 0.265156
O O1 0.540831 0.169763 0.567122
O O2 0.720648 0.176211 0.792868
O O3 0.320941 0.911525 0.662334
O O4 0.118811 0.946987 0.722592
O O5 0.311077 0.174503 0.960570
O O6 0.520632 0.165312 0.181811
O O7 0.704658 0.246247 0.964854
O O8 0.135017 0.931116 0.033529
O O9 0.848911 0.314936 0.386562
O O10 0.443365 0.250581 0.379227
O O11 0.000000 0.500000 0.500000
O O12 0.338869 0.250323 0.141011
O O13 0.401969 0.377753 0.901667
O O14 0.908253 0.613809 0.791437
O O15 0.390249 0.387806 0.251152
O O16 0.105478 0.316468 0.022101
O O17 0.500000 0.000000 0.000000
#
# Coordination Sequence:
#
# PCOD8002437 Si02
#       8
#     2   2   2   2   2   2   2   2
#     4  11  23  42  70  88 127 173 215 251 314 382
#     4  10  20  35  61  94 132 159 202 254 324 384
#     4  12  28  45  63  92 125 172 221 267 305 365
#     4  11  21  35  59 100 134 160 201 261 327 378
#     4  10  22  45  64  92 126 168 213 259 313 385
#     4  10  23  37  68  97 131 161 203 265 328 372
#     4  11  18  37  65  97 124 162 204 255 321 387
#     4  11  22  43  62  92 128 164 213 256 311 378
#
# _framework density 21.004470999999999
#
# number of rings (size 3 to 8) (size 9 to 14) (size 15 to 20)
#    0.000    1.250    6.250    1.125    1.750    4.000 
#    0.000    2.500    0.000    0.000    0.000    0.000 
#    0.000    0.000    0.000    0.000    0.000    0.000 
#
# Total GULP energy -198279.578774 kJ/mol
# GULP energy per Si atom -12392.473673 kJ/mol
# Density = 2.095666 g / cm^3
# Si number density = 21.004471 Si / 1000 Ang^3
#
#
#
# Elastic Constant Matrix: (Units=GPa)
#
#
# Indices 1 2 3 4 5 6 
#
# 1 90.5063 32.3999 44.9590 -7.0336 4.9860 -6.6576
# 2 32.3999 90.1943 42.8681 -15.3313 -7.8964 -11.5435
# 3 44.9590 42.8681 124.8371 -10.9134 2.3111 -7.6307
# 4 -7.0336 -15.3313 -10.9134 30.8960 -0.4269 -3.1269
# 5 4.9860 -7.8964 2.3111 -0.4269 35.2801 5.5078
# 6 -6.6576 -11.5435 -7.6307 -3.1269 5.5078 20.8881
#
#
#
# Elastic Compliance Matrix: (Units=1/GPa)
#
#
# Indices 1 2 3 4 5 6 
#
# 1 0.014496 -0.003244 -0.003872 0.000510 -0.002865 0.002245
# 2 -0.003244 0.016215 -0.003449 0.006825 0.003333 0.006810
# 3 -0.003872 -0.003449 0.010807 0.001341 -0.001120 0.001304
# 4 0.000510 0.006825 0.001341 0.037354 0.000267 0.009946
# 5 -0.002865 0.003333 -0.001120 0.000267 0.030751 -0.007549
# 6 0.002245 0.006810 0.001304 0.009946 -0.007549 0.056309
#
#
# Mechanical properties :
#
#
# Convention : Reuss Voigt Hill
#
# Bulk Modulus (GPa) = 49.04551 60.66575 54.85563
# Shear Modulus (GPa) = 25.79227 29.76688 27.77957
#
# Velocity S-wave (km/s) = 3.50800 3.76861 3.64064
# Velocity P-wave (km/s) = 6.30942 6.91965 6.62157
#
# Compressibility (1/GPa) = 0.02038923
#
# Stress axis : x y z
#
# Youngs Moduli (GPa) = 68.98342 61.67108 92.53454
#
# Poissons Ratio (x) = 0.20005 0.35828
# Poissons Ratio (y) = 0.22378 0.31912
# Poissons Ratio (z) = 0.26709 0.21268
#
# Static dielectric constant tensor:
#      x y z
#    x 3.998660 0.012330 0.237600 
#    y 0.012330 3.649660 -0.048400 
#    z 0.237600 -0.048400 3.432560 
# 
# 
# High freq. dielectric constant tensor:
#      x y z
#    x 1.851390 -0.007870 0.004890 
#    y -0.007870 1.810980 -0.004160 
#    z 0.004890 -0.004160 1.804230 
# 
# From -- ./inp_files/185333.got.cif
#   From: 2010.06.25/outbox.cif.g09.slc.cpg/sg2_93_cif.got.tgz:185333.got - 2010.06.27 13:26:56.
