data_PCOD8002362
_publ_section_title
;
Structure prediction by ZEFSAII (Michael W. Deem and Ramdas Pophale) SiO2 
 PCOD8002362
Probable space group: P -1
;
_chemical_formula_sum "Si O2"
_cell_formula_units_Z 16
_cell_length_a 12.786368
_cell_length_b 9.187732
_cell_length_c 10.430125
_cell_angle_alpha 51.432631
_cell_angle_beta 94.648305
_cell_angle_gamma 122.863227
_cell_volume 740.413906
_symmetry_space_group_name_H-M "P -1"
_symmetry_group_IT_number 2
_symmetry_cell_setting 'triclinic'
loop_
_space_group_symop_operation_xyz
x,y,z
-x,-y,-z
loop_
_atom_site_type_symbol
_atom_site_label
_atom_site_fract_x
_atom_site_fract_y
_atom_site_fract_z
Si Si1 0.056651 0.559332 0.115248
Si Si2 0.173525 0.146245 0.045223
Si Si3 0.895681 0.791101 0.739453
Si Si4 0.084415 0.373296 0.734508
Si Si5 0.436517 0.228832 0.641524
Si Si6 0.195278 0.154269 0.549863
Si Si7 0.688991 0.001304 0.990030
Si Si8 0.304171 0.655139 0.393600
O O1 0.119802 0.424554 0.215855
O O2 0.939760 0.482039 0.248541
O O3 0.000000 0.500000 0.000000
O O4 0.174309 0.840395 0.996923
O O5 0.198199 0.287461 0.101786
O O6 0.150209 0.268499 0.864746
O O7 0.306778 0.180469 0.997382
O O8 0.055460 0.858616 0.213269
O O9 0.848509 0.896596 0.576620
O O10 0.050829 0.979554 0.704403
O O11 0.186906 0.571307 0.529792
O O12 0.500000 0.500000 0.500000
O O13 0.292333 0.084700 0.630458
O O14 0.426830 0.145977 0.833921
O O15 0.547033 0.211295 0.598293
O O16 0.269677 0.426216 0.443639
O O17 0.677410 0.163822 0.807877
#
# Coordination Sequence:
#
# PCOD8002362 Si02
#       8
#     2   2   2   2   2   2   2   2
#     4  11  21  35  60  93 128 157 189 253 308 361
#     4  10  20  35  60  87 126 157 196 247 301 361
#     4  11  20  36  61  90 126 159 189 249 304 365
#     4  10  21  35  59  91 122 158 204 242 302 355
#     4  10  22  40  64  85 117 163 208 249 295 357
#     4  10  21  36  59  89 122 160 204 235 305 360
#     4  11  23  38  61  93 120 154 210 251 301 354
#     4  11  21  39  61  89 123 158 210 252 287 355
#
# _framework density 21.609535999999999
#
# number of rings (size 3 to 8) (size 9 to 14) (size 15 to 20)
#    0.000    1.500    3.750    2.625    1.750    4.000 
#    0.000    0.000    0.000   15.000    0.000    0.000 
#    0.000    0.000    0.000    0.000    0.000    0.000 
#
# Total GULP energy -198230.415306 kJ/mol
# GULP energy per Si atom -12389.400957 kJ/mol
# Density = 2.156035 g / cm^3
# Si number density = 21.609536 Si / 1000 Ang^3
#
#
#
# Elastic Constant Matrix: (Units=GPa)
#
#
# Indices 1 2 3 4 5 6 
#
# 1 91.1790 37.3746 19.3456 8.8537 -5.8336 -3.8736
# 2 37.3746 53.6639 16.0681 9.5280 1.2570 -4.5389
# 3 19.3456 16.0681 104.2920 13.5880 -6.0444 -5.8090
# 4 8.8537 9.5280 13.5880 23.5719 -2.0355 4.6420
# 5 -5.8336 1.2570 -6.0444 -2.0355 27.5449 0.6707
# 6 -3.8736 -4.5389 -5.8090 4.6420 0.6707 34.8265
#
#
#
# Elastic Compliance Matrix: (Units=1/GPa)
#
#
# Indices 1 2 3 4 5 6 
#
# 1 0.015869 -0.010677 -0.000970 -0.000827 0.003568 0.000253
# 2 -0.010677 0.028248 -0.001454 -0.007620 -0.004514 0.003354
# 3 -0.000970 -0.001454 0.010958 -0.005653 0.001793 0.002249
# 4 -0.000827 -0.007620 -0.005653 0.051077 0.002923 -0.008892
# 5 0.003568 -0.004514 0.001793 0.002923 0.037900 -0.001012
# 6 0.000253 0.003354 0.002249 -0.008892 -0.001012 0.030759
#
#
# Mechanical properties :
#
#
# Convention : Reuss Voigt Hill
#
# Bulk Modulus (GPa) = 34.63279 43.85685 39.24482
# Shear Modulus (GPa) = 23.73748 28.94510 26.34129
#
# Velocity S-wave (km/s) = 3.31792 3.66383 3.49516
# Velocity P-wave (km/s) = 5.54432 6.18364 5.87269
#
# Compressibility (1/GPa) = 0.02887437
#
# Stress axis : x y z
#
# Youngs Moduli (GPa) = 63.01528 35.40040 91.25696
#
# Poissons Ratio (x) = 0.37797 0.08852
# Poissons Ratio (y) = 0.67282 0.13265
# Poissons Ratio (z) = 0.06112 0.05146
#
# Static dielectric constant tensor:
#      x y z
#    x 4.432200 0.063440 -0.011130 
#    y 0.063440 3.734220 0.022580 
#    z -0.011130 0.022580 3.905910 
# 
# 
# High freq. dielectric constant tensor:
#      x y z
#    x 1.853070 -0.004990 0.009660 
#    y -0.004990 1.810380 0.014270 
#    z 0.009660 0.014270 1.850150 
# 
# From -- ./inp_files/418927.got.cif
#   From: 2010.06.25/outbox.cif.g09.slc.cpg/sg2_210_cif.got.tgz:418927.got - 2010.06.27 13:26:56.
