data_PCOD8002005
_publ_section_title
;
Structure prediction by ZEFSAII (Michael W. Deem and Ramdas Pophale) SiO2 
 PCOD8002005
Probable space group: P -1
;
_chemical_formula_sum "Si O2"
_cell_formula_units_Z 16
_cell_length_a 13.775341
_cell_length_b 9.225164
_cell_length_c 13.990546
_cell_angle_alpha 96.005520
_cell_angle_beta 122.926312
_cell_angle_gamma 132.399925
_cell_volume 716.081704
_symmetry_space_group_name_H-M "P -1"
_symmetry_group_IT_number 2
_symmetry_cell_setting 'triclinic'
loop_
_space_group_symop_operation_xyz
x,y,z
-x,-y,-z
loop_
_atom_site_type_symbol
_atom_site_label
_atom_site_fract_x
_atom_site_fract_y
_atom_site_fract_z
Si Si1 0.872639 0.250300 0.344444
Si Si2 0.797968 0.951750 0.425987
Si Si3 0.228115 0.790310 0.448354
Si Si4 0.300384 0.857017 0.280250
Si Si5 0.373347 0.798600 0.009519
Si Si6 0.383386 0.323202 0.063100
Si Si7 0.851955 0.190996 0.990426
Si Si8 0.195168 0.322517 0.807420
O O1 0.000000 0.500000 0.500000
O O2 0.980952 0.420342 0.310324
O O3 0.922305 0.139314 0.403106
O O4 0.586555 0.944746 0.184382
O O5 0.553684 0.596183 0.247895
O O6 0.733653 0.029565 0.451283
O O7 0.983202 0.060055 0.597551
O O8 0.249163 0.870732 0.357086
O O9 0.430221 0.892207 0.579172
O O10 0.237573 0.912169 0.173834
O O11 0.136761 0.530370 0.162701
O O12 0.269517 0.803857 0.024141
O O13 0.166142 0.456328 0.840436
O O14 0.500000 0.000000 0.000000
O O15 0.547200 0.404744 0.087806
O O16 0.206072 0.025186 0.006611
O O17 0.203130 0.221913 0.894958
#
# Coordination Sequence:
#
# PCOD8002005 Si02
#       8
#     2   2   2   2   2   2   2   2
#     4  10  20  34  64 101 127 160 209 269 328 385
#     4  11  22  43  66  96 134 173 205 266 342 402
#     4  10  22  40  66  96 126 167 226 271 314 379
#     4  10  23  42  63  92 126 171 233 271 302 373
#     4  12  20  37  67 100 128 165 218 268 329 392
#     4  11  25  42  60 100 140 166 206 266 339 404
#     4  11  23  41  67  92 129 175 215 272 325 376
#     4  11  24  40  63 100 136 169 204 262 342 404
#
# _framework density 22.343820000000001
#
# number of rings (size 3 to 8) (size 9 to 14) (size 15 to 20)
#    0.000    1.250    2.500    4.875    1.750    0.000 
#    4.500    1.250    0.000    0.000    0.000    0.000 
#    0.000    0.000    0.000    0.000    0.000    0.000 
#
# Total GULP energy -198260.454699 kJ/mol
# GULP energy per Si atom -12391.278419 kJ/mol
# Density = 2.229296 g / cm^3
# Si number density = 22.343820 Si / 1000 Ang^3
#
#
#
# Elastic Constant Matrix: (Units=GPa)
#
#
# Indices 1 2 3 4 5 6 
#
# 1 57.7916 19.0240 0.6246 -3.4908 -2.2912 1.8254
# 2 19.0240 140.3648 26.2813 -15.5160 -5.9570 -6.2331
# 3 0.6246 26.2813 94.3964 -12.0275 -1.9713 -7.8243
# 4 -3.4908 -15.5160 -12.0275 35.2355 3.7961 0.2622
# 5 -2.2912 -5.9570 -1.9713 3.7961 28.5832 4.2900
# 6 1.8254 -6.2331 -7.8243 0.2622 4.2900 26.7439
#
#
#
# Elastic Compliance Matrix: (Units=1/GPa)
#
#
# Indices 1 2 3 4 5 6 
#
# 1 0.018282 -0.002529 0.000551 0.000775 0.001154 -0.001869
# 2 -0.002529 0.008192 -0.001794 0.002646 0.000819 0.001400
# 3 0.000551 -0.001794 0.011751 0.003298 -0.000410 0.003016
# 4 0.000775 0.002646 0.003298 0.031118 -0.003561 0.001795
# 5 0.001154 0.000819 -0.000410 -0.003561 0.036570 -0.005839
# 6 -0.001869 0.001400 0.003016 0.001795 -0.005839 0.039647
#
#
# Mechanical properties :
#
#
# Convention : Reuss Voigt Hill
#
# Bulk Modulus (GPa) = 32.59331 42.71252 37.65291
# Shear Modulus (GPa) = 30.61265 34.55405 32.58335
#
# Velocity S-wave (km/s) = 3.70546 3.93678 3.82287
# Velocity P-wave (km/s) = 5.73813 6.31046 6.03109
#
# Compressibility (1/GPa) = 0.03068114
#
# Stress axis : x y z
#
# Youngs Moduli (GPa) = 54.69929 122.06447 85.09932
#
# Poissons Ratio (x) = 0.30874 -0.04691
# Poissons Ratio (y) = 0.13835 0.15266
# Poissons Ratio (z) = -0.03015 0.21897
#
# Static dielectric constant tensor:
#      x y z
#    x 3.999040 0.243850 0.267950 
#    y 0.243850 4.399960 -0.048900 
#    z 0.267950 -0.048900 5.118180 
# 
# 
# High freq. dielectric constant tensor:
#      x y z
#    x 1.855570 0.004140 -0.007340 
#    y 0.004140 1.872580 -0.020210 
#    z -0.007340 -0.020210 1.904850 
# 
# From -- ./inp_files/529793.got.cif
#   From: 2010.06.25/outbox.cif.g09.slc.cpg/sg2_265_cif.got.tgz:529793.got - 2010.06.27 13:26:56.
