data_PCOD8002906
_publ_section_title
;
Structure prediction by ZEFSAII (Michael W. Deem and Ramdas Pophale) SiO2 
 PCOD8002906
Probable space group: P -1
;
_chemical_formula_sum "Si O2"
_cell_formula_units_Z 16
_cell_length_a 12.837203
_cell_length_b 7.607919
_cell_length_c 11.499557
_cell_angle_alpha 137.140147
_cell_angle_beta 77.183882
_cell_angle_gamma 108.103762
_cell_volume 726.089781
_symmetry_space_group_name_H-M "P -1"
_symmetry_group_IT_number 2
_symmetry_cell_setting 'triclinic'
loop_
_space_group_symop_operation_xyz
x,y,z
-x,-y,-z
loop_
_atom_site_type_symbol
_atom_site_label
_atom_site_fract_x
_atom_site_fract_y
_atom_site_fract_z
Si Si1 0.259642 0.095066 0.321951
Si Si2 0.272998 0.309330 0.811365
Si Si3 0.257797 0.574547 0.189823
Si Si4 0.726464 0.405826 0.273764
Si Si5 0.888991 0.712041 0.712373
Si Si6 0.132411 0.795304 0.685664
Si Si7 0.501350 0.293446 0.797300
Si Si8 0.499522 0.213958 0.311847
O O1 0.270376 0.356843 0.522145
O O2 0.173234 0.079364 0.230600
O O3 0.377988 0.091670 0.230830
O O4 0.223193 0.847975 0.298713
O O5 0.228265 0.483050 0.809332
O O6 0.399803 0.308670 0.744797
O O7 0.198964 0.013342 0.686433
O O8 0.264453 0.423273 0.995509
O O9 0.166707 0.396703 0.205928
O O10 0.376826 0.630002 0.252980
O O11 0.801856 0.217194 0.215687
O O12 0.600383 0.239200 0.208739
O O13 0.885228 0.480087 0.509300
O O14 0.014841 0.857357 0.776839
O O15 0.478190 0.987364 0.692694
O O16 0.500000 0.500000 0.000000
O O17 0.500000 0.500000 0.500000
#
# Coordination Sequence:
#
# PCOD8002906 Si02
#       8
#     2   2   2   2   2   2   2   2
#     4   9  20  38  56  86 117 148 196 242 295 343
#     4  11  22  37  60  87 120 156 194 239 296 356
#     4  10  22  39  56  87 120 154 194 238 295 354
#     4  10  20  36  60  87 116 151 193 247 293 345
#     4  10  22  40  64  80 116 159 196 245 289 346
#     4  10  22  41  60  88 112 154 205 240 290 347
#     4   9  19  37  55  85 126 158 194 237 298 368
#     4   9  17  34  57  86 118 149 198 248 289 351
#
# _framework density 22.035843
#
# number of rings (size 3 to 8) (size 9 to 14) (size 15 to 20)
#    0.000    2.250    1.250    0.750    1.750    2.500 
#    0.000    9.375    0.000    0.000    0.000    0.000 
#    0.000    0.000    0.000    0.000    0.000    0.000 
#
# Total GULP energy -198292.332850 kJ/mol
# GULP energy per Si atom -12393.270803 kJ/mol
# Density = 2.198569 g / cm^3
# Si number density = 22.035843 Si / 1000 Ang^3
#
#
#
# Elastic Constant Matrix: (Units=GPa)
#
#
# Indices 1 2 3 4 5 6 
#
# 1 172.8709 70.9758 14.0266 -21.4677 -10.1976 -0.6069
# 2 70.9758 112.0715 6.5063 -20.6963 -0.8951 -5.0391
# 3 14.0266 6.5063 13.8993 -0.2918 -2.8408 -4.6155
# 4 -21.4677 -20.6963 -0.2918 30.4507 1.2826 0.3887
# 5 -10.1976 -0.8951 -2.8408 1.2826 14.8038 3.0667
# 6 -0.6069 -5.0391 -4.6155 0.3887 3.0667 30.5096
#
#
#
# Elastic Compliance Matrix: (Units=1/GPa)
#
#
# Indices 1 2 3 4 5 6 
#
# 1 0.008897 -0.004809 -0.006384 0.002767 0.004808 -0.002102
# 2 -0.004809 0.013154 -0.001213 0.005666 -0.003695 0.002193
# 3 -0.006384 -0.001213 0.084698 -0.005075 0.009826 0.011563
# 4 0.002767 0.005666 -0.005075 0.038681 -0.002064 -0.000062
# 5 0.004808 -0.003695 0.009826 -0.002064 0.074038 -0.006444
# 6 -0.002102 0.002193 0.011563 -0.000062 -0.006444 0.035495
#
#
# Mechanical properties :
#
#
# Convention : Reuss Voigt Hill
#
# Bulk Modulus (GPa) = 12.20448 53.53988 32.87218
# Shear Modulus (GPa) = 16.28200 28.97503 22.62851
#
# Velocity S-wave (km/s) = 2.72120 3.63010 3.20800
# Velocity P-wave (km/s) = 3.92730 6.47453 5.35459
#
# Compressibility (1/GPa) = 0.08193714
#
# Stress axis : x y z
#
# Youngs Moduli (GPa) = 112.39723 76.02063 11.80666
#
# Poissons Ratio (x) = 0.36558 0.07538
# Poissons Ratio (y) = 0.54052 0.01432
# Poissons Ratio (z) = 0.71759 0.09219
#
# Static dielectric constant tensor:
#      x y z
#    x 4.708950 -0.070850 -0.135370 
#    y -0.070850 3.937540 0.235560 
#    z -0.135370 0.235560 3.498010 
# 
# 
# High freq. dielectric constant tensor:
#      x y z
#    x 1.873130 -0.002290 -0.005840 
#    y -0.002290 1.866700 0.019880 
#    z -0.005840 0.019880 1.835590 
# 
# From -- ./inp_files/270790.got.cif
#   From: 2010.06.25/outbox.cif.g09.slc.cpg/sg2_136_cif.got.tgz:270790.got - 2010.06.27 13:26:56.
