data_PCOD8002383
_publ_section_title
;
Structure prediction by ZEFSAII (Michael W. Deem and Ramdas Pophale) SiO2 
 PCOD8002383
Probable space group: P -1
;
_chemical_formula_sum "Si O2"
_cell_formula_units_Z 16
_cell_length_a 14.717219
_cell_length_b 11.151921
_cell_length_c 19.500891
_cell_angle_alpha 147.548006
_cell_angle_beta 150.179082
_cell_angle_gamma 51.994866
_cell_volume 768.559591
_symmetry_space_group_name_H-M "P -1"
_symmetry_group_IT_number 2
_symmetry_cell_setting 'triclinic'
loop_
_space_group_symop_operation_xyz
x,y,z
-x,-y,-z
loop_
_atom_site_type_symbol
_atom_site_label
_atom_site_fract_x
_atom_site_fract_y
_atom_site_fract_z
Si Si1 0.225630 0.064491 0.971650
Si Si2 0.332089 0.891241 0.744716
Si Si3 0.845253 0.270786 0.599244
Si Si4 0.187823 0.235542 0.886714
Si Si5 0.583666 0.425446 0.592333
Si Si6 0.508199 0.266364 0.622502
Si Si7 0.847035 0.616602 0.560363
Si Si8 0.140149 0.283126 0.227478
O O1 0.439023 0.070818 0.093801
O O2 0.259648 0.278961 0.154220
O O3 0.122901 0.111160 0.858833
O O4 0.076315 0.791725 0.771417
O O5 0.235808 0.855492 0.588245
O O6 0.214780 0.679937 0.625639
O O7 0.332466 0.140282 0.895386
O O8 0.667693 0.247889 0.524545
O O9 0.969062 0.570444 0.812629
O O10 0.985945 0.160909 0.673079
O O11 0.302822 0.532186 0.114335
O O12 0.529166 0.319840 0.581869
O O13 0.368214 0.375669 0.388659
O O14 0.307792 0.290055 0.531286
O O15 0.500000 0.000000 0.500000
O O16 0.814069 0.622951 0.621609
O O17 0.000000 0.000000 0.000000
#
# Coordination Sequence:
#
# PCOD8002383 Si02
#       8
#     2   2   2   2   2   2   2   2
#     4  11  22  41  69  93 125 170 219 266 316 380
#     4  11  23  48  62  93 131 171 225 253 314 389
#     4  11  23  38  65  94 128 169 208 265 323 382
#     4  11  25  42  66  90 133 176 204 270 322 374
#     4  10  21  38  61  98 126 163 216 265 324 378
#     4  10  23  40  60  96 136 160 207 274 325 379
#     4  10  22  39  65  93 120 170 216 265 310 381
#     4  10  20  35  60  91 130 163 208 263 317 385
#
# _framework density 20.818165
#
# number of rings (size 3 to 8) (size 9 to 14) (size 15 to 20)
#    0.000    1.500    5.000    1.875    8.750    1.500 
#    0.000    0.000    0.000    3.000    0.000    0.000 
#    0.000    0.000    0.000    0.000    0.000    0.000 
#
# Total GULP energy -198239.532302 kJ/mol
# GULP energy per Si atom -12389.970769 kJ/mol
# Density = 2.077078 g / cm^3
# Si number density = 20.818165 Si / 1000 Ang^3
#
#
#
# Elastic Constant Matrix: (Units=GPa)
#
#
# Indices 1 2 3 4 5 6 
#
# 1 70.5198 26.4096 40.9671 6.4647 0.9632 -0.6282
# 2 26.4096 110.3869 44.9705 -6.7364 -6.1390 2.3706
# 3 40.9671 44.9705 88.6123 5.9171 17.0868 8.2453
# 4 6.4647 -6.7364 5.9171 35.3621 2.7628 -8.5693
# 5 0.9632 -6.1390 17.0868 2.7628 38.3491 2.2078
# 6 -0.6282 2.3706 8.2453 -8.5693 2.2078 27.9940
#
#
#
# Elastic Compliance Matrix: (Units=1/GPa)
#
#
# Indices 1 2 3 4 5 6 
#
# 1 0.020335 -0.000837 -0.009801 -0.001913 0.003714 0.002535
# 2 -0.000837 0.012800 -0.007518 0.003921 0.005027 0.001915
# 3 -0.009801 -0.007518 0.022524 -0.004228 -0.010303 -0.006699
# 4 -0.001913 0.003921 -0.004228 0.032766 -0.000431 0.010934
# 5 0.003714 0.005027 -0.010303 -0.000431 0.031404 0.000084
# 6 0.002535 0.001915 -0.006699 0.010934 0.000084 0.040930
#
#
# Mechanical properties :
#
#
# Convention : Reuss Voigt Hill
#
# Bulk Modulus (GPa) = 51.68878 54.91261 53.30070
# Shear Modulus (GPa) = 24.56756 30.81917 27.69336
#
# Velocity S-wave (km/s) = 3.43899 3.85177 3.65122
# Velocity P-wave (km/s) = 6.37585 6.79824 6.59043
#
# Compressibility (1/GPa) = 0.01934656
#
# Stress axis : x y z
#
# Youngs Moduli (GPa) = 49.17746 78.12546 44.39696
#
# Poissons Ratio (x) = 0.06538 0.43512
# Poissons Ratio (y) = 0.04116 0.33380
# Poissons Ratio (z) = 0.48197 0.58738
#
# Static dielectric constant tensor:
#      x y z
#    x 3.859070 -0.004840 -0.150550 
#    y -0.004840 4.121150 0.026020 
#    z -0.150550 0.026020 3.634490 
# 
# 
# High freq. dielectric constant tensor:
#      x y z
#    x 1.824360 0.009520 -0.012480 
#    y 0.009520 1.813150 -0.002350 
#    z -0.012480 -0.002350 1.808000 
# 
# From -- ./inp_files/523941.got.cif
#   From: 2010.06.25/outbox.cif.g09.slc.cpg/sg2_262_cif.got.tgz:523941.got - 2010.06.27 13:26:56.
