data_PCOD8002319
_publ_section_title
;
Structure prediction by ZEFSAII (Michael W. Deem and Ramdas Pophale) SiO2 
 PCOD8002319
Probable space group: P -1
;
_chemical_formula_sum "Si O2"
_cell_formula_units_Z 16
_cell_length_a 9.938258
_cell_length_b 8.232857
_cell_length_c 13.297502
_cell_angle_alpha 87.707569
_cell_angle_beta 45.018621
_cell_angle_gamma 83.927459
_cell_volume 764.331304
_symmetry_space_group_name_H-M "P -1"
_symmetry_group_IT_number 2
_symmetry_cell_setting 'triclinic'
loop_
_space_group_symop_operation_xyz
x,y,z
-x,-y,-z
loop_
_atom_site_type_symbol
_atom_site_label
_atom_site_fract_x
_atom_site_fract_y
_atom_site_fract_z
Si Si1 0.485155 0.335494 0.371713
Si Si2 0.539261 0.669267 0.385091
Si Si3 0.706135 0.275904 0.780262
Si Si4 0.343711 0.006793 0.670704
Si Si5 0.372368 0.169818 0.061874
Si Si6 0.967437 0.007482 0.751049
Si Si7 0.152765 0.782974 0.501954
Si Si8 0.228381 0.366982 0.316253
O O1 0.603705 0.496769 0.297325
O O2 0.398657 0.340595 0.530295
O O3 0.310729 0.353141 0.385549
O O4 0.617293 0.164050 0.284095
O O5 0.627248 0.827267 0.285533
O O6 0.306867 0.695686 0.501270
O O7 0.836549 0.178233 0.799085
O O8 0.737219 0.181286 0.659834
O O9 0.764417 0.456107 0.739269
O O10 0.479772 0.286532 0.928518
O O11 0.125914 0.028629 0.749370
O O12 0.500000 0.000000 0.500000
O O13 0.356562 0.240215 0.181213
O O14 0.159395 0.135087 0.139639
O O15 0.500000 0.000000 0.000000
O O16 0.064344 0.953381 0.593686
O O17 0.992910 0.663863 0.563391
#
# Coordination Sequence:
#
# PCOD8002319 Si02
#       8
#     2   2   2   2   2   2   2   2
#     4  10  21  37  58  89 132 160 198 259 310 375
#     4  10  21  36  56  90 134 165 196 249 327 365
#     4  11  22  36  63  89 128 157 204 257 316 366
#     4  10  20  35  59  88 124 167 201 244 319 367
#     4   9  22  43  60  86 122 168 204 260 311 370
#     4  10  21  39  59  92 122 161 211 253 306 370
#     4  11  21  36  58 100 122 155 209 261 307 369
#     4  11  23  37  64  97 122 156 212 261 317 362
#
# _framework density 20.933329000000001
#
# number of rings (size 3 to 8) (size 9 to 14) (size 15 to 20)
#    0.000    1.750    3.750    1.125    3.500    4.000 
#    0.000    0.000    0.000    7.500    0.000    0.000 
#    0.000    0.000    0.000    0.000    0.000    0.000 
#
# Total GULP energy -198261.693840 kJ/mol
# GULP energy per Si atom -12391.355865 kJ/mol
# Density = 2.088568 g / cm^3
# Si number density = 20.933329 Si / 1000 Ang^3
#
#
#
# Elastic Constant Matrix: (Units=GPa)
#
#
# Indices 1 2 3 4 5 6 
#
# 1 146.5037 67.4295 41.3962 -15.0030 -16.1425 11.6355
# 2 67.4295 161.3711 14.5259 -4.9376 -6.3097 10.0309
# 3 41.3962 14.5259 83.9809 -3.3102 -10.7102 8.5433
# 4 -15.0030 -4.9376 -3.3102 19.2441 1.0313 0.0649
# 5 -16.1425 -6.3097 -10.7102 1.0313 16.6924 -1.1018
# 6 11.6355 10.0309 8.5433 0.0649 -1.1018 32.3967
#
#
#
# Elastic Compliance Matrix: (Units=1/GPa)
#
#
# Indices 1 2 3 4 5 6 
#
# 1 0.011097 -0.003752 -0.003555 0.006734 0.006505 -0.001678
# 2 -0.003752 0.007751 0.000552 -0.000818 -0.000374 -0.001209
# 3 -0.003555 0.000552 0.014567 -0.000436 0.005977 -0.002531
# 4 0.006734 -0.000818 -0.000436 0.056814 0.002276 -0.002087
# 5 0.006505 -0.000374 0.005977 0.002276 0.069657 -0.001432
# 6 -0.001678 -0.001209 -0.002531 -0.002087 -0.001432 0.032467
#
#
# Mechanical properties :
#
#
# Convention : Reuss Voigt Hill
#
# Bulk Modulus (GPa) = 50.24141 70.95099 60.59620
# Shear Modulus (GPa) = 23.52957 31.56691 27.54824
#
# Velocity S-wave (km/s) = 3.35628 3.88748 3.63161
# Velocity P-wave (km/s) = 6.25078 7.35645 6.82604
#
# Compressibility (1/GPa) = 0.01990390
#
# Stress axis : x y z
#
# Youngs Moduli (GPa) = 90.11460 129.02289 68.64829
#
# Poissons Ratio (x) = 0.48411 0.24406
# Poissons Ratio (y) = 0.33812 -0.03789
# Poissons Ratio (z) = 0.32037 -0.07122
#
# Static dielectric constant tensor:
#      x y z
#    x 3.764350 0.177260 -0.235850 
#    y 0.177260 4.532610 -0.135900 
#    z -0.235850 -0.135900 3.997340 
# 
# 
# High freq. dielectric constant tensor:
#      x y z
#    x 1.814620 0.010810 -0.010710 
#    y 0.010810 1.843180 0.000520 
#    z -0.010710 0.000520 1.769810 
# 
# From -- ./inp_files/224386.got.cif
#   From: 2010.06.25/outbox.cif.g09.slc.cpg/sg2_113_cif.got.tgz:224386.got - 2010.06.27 13:26:56.
