data_PCOD8002646
_publ_section_title
;
Structure prediction by ZEFSAII (Michael W. Deem and Ramdas Pophale) SiO2 
 PCOD8002646
Probable space group: P -1
;
_chemical_formula_sum "Si O2"
_cell_formula_units_Z 16
_cell_length_a 18.550930
_cell_length_b 7.764383
_cell_length_c 13.373175
_cell_angle_alpha 95.009782
_cell_angle_beta 45.049111
_cell_angle_gamma 58.290919
_cell_volume 751.262119
_symmetry_space_group_name_H-M "P -1"
_symmetry_group_IT_number 2
_symmetry_cell_setting 'triclinic'
loop_
_space_group_symop_operation_xyz
x,y,z
-x,-y,-z
loop_
_atom_site_type_symbol
_atom_site_label
_atom_site_fract_x
_atom_site_fract_y
_atom_site_fract_z
Si Si1 0.937762 0.735296 0.927799
Si Si2 0.604396 0.339666 0.738971
Si Si3 0.104231 0.578847 0.376348
Si Si4 0.884546 0.646455 0.461473
Si Si5 0.669975 0.424621 0.260170
Si Si6 0.741354 0.292231 0.803038
Si Si7 0.903504 0.427959 0.030713
Si Si8 0.319015 0.748292 0.554165
O O1 0.041058 0.574886 0.713017
O O2 0.834711 0.702801 0.060324
O O3 0.088634 0.569629 0.856510
O O4 0.786290 0.099363 0.086194
O O5 0.663530 0.381184 0.771975
O O6 0.627079 0.406932 0.614711
O O7 0.724258 0.996482 0.597850
O O8 0.392939 0.585965 0.973430
O O9 0.200187 0.349177 0.365067
O O10 0.234692 0.536831 0.196069
O O11 0.054499 0.514966 0.334568
O O12 0.927015 0.923180 0.615152
O O13 0.461422 0.705309 0.436943
O O14 0.664050 0.423085 0.386824
O O15 0.765263 0.469600 0.136693
O O16 0.110192 0.109418 0.770633
#
# Coordination Sequence:
#
# PCOD8002646 Si02
#       8
#     2   2   2   2   2   2   2   2
#     4  10  20  37  61  89 117 159 198 244 300 351
#     4  10  20  36  58  81 117 149 185 244 294 339
#     4   9  20  37  58  83 112 146 196 234 282 361
#     4  10  20  36  57  82 117 149 183 243 295 340
#     4  10  23  39  63  88 120 162 203 243 296 354
#     4   9  20  37  58  84 109 151 192 233 291 348
#     4  10  21  41  63  84 124 159 199 248 294 353
#     4  10  20  39  59  88 121 154 199 254 288 350
#
# _framework density 21.297494
#
# number of rings (size 3 to 8) (size 9 to 14) (size 15 to 20)
#    0.000    2.250    1.250    1.500    1.750    3.500 
#    0.000   11.250   13.750    0.000    0.000    0.000 
#    0.000    0.000    0.000    0.000    0.000    0.000 
#
# Total GULP energy -198362.833986 kJ/mol
# GULP energy per Si atom -12397.677124 kJ/mol
# Density = 2.124902 g / cm^3
# Si number density = 21.297494 Si / 1000 Ang^3
#
#
#
# Elastic Constant Matrix: (Units=GPa)
#
#
# Indices 1 2 3 4 5 6 
#
# 1 61.3594 14.8887 33.9263 -5.8403 -5.1454 15.2555
# 2 14.8887 40.1012 3.5422 -3.5630 -4.7704 12.9253
# 3 33.9263 3.5422 80.1050 -2.9729 6.0476 0.2027
# 4 -5.8403 -3.5630 -2.9729 9.8588 -3.3710 -0.8812
# 5 -5.1454 -4.7704 6.0476 -3.3710 45.0063 -11.6009
# 6 15.2555 12.9253 0.2027 -0.8812 -11.6009 33.1550
#
#
#
# Elastic Compliance Matrix: (Units=1/GPa)
#
#
# Indices 1 2 3 4 5 6 
#
# 1 0.027167 -0.004806 -0.011048 0.011035 0.002486 -0.009396
# 2 -0.004806 0.030380 0.000949 0.007864 0.000771 -0.009159
# 3 -0.011048 0.000949 0.017254 -0.001585 -0.002663 0.003634
# 4 0.011035 0.007864 -0.001585 0.113780 0.010456 -0.001451
# 5 0.002486 0.000771 -0.002663 0.010456 0.025752 0.007861
# 6 -0.009396 -0.009159 0.003634 -0.001451 0.007861 0.040745
#
#
# Mechanical properties :
#
#
# Convention : Reuss Voigt Hill
#
# Bulk Modulus (GPa) = 22.22665 31.80887 27.01776
# Shear Modulus (GPa) = 16.67315 26.21790 21.44552
#
# Velocity S-wave (km/s) = 2.80101 3.51241 3.17669
# Velocity P-wave (km/s) = 4.57382 5.60512 5.11552
#
# Compressibility (1/GPa) = 0.04499103
#
# Stress axis : x y z
#
# Youngs Moduli (GPa) = 36.80967 32.91643 57.95897
#
# Poissons Ratio (x) = 0.15819 0.64031
# Poissons Ratio (y) = 0.17690 -0.05499
# Poissons Ratio (z) = 0.40666 -0.03123
#
# Static dielectric constant tensor:
#      x y z
#    x 3.802580 0.004100 -0.008820 
#    y 0.004100 3.730940 -0.083710 
#    z -0.008820 -0.083710 3.794260 
# 
# 
# High freq. dielectric constant tensor:
#      x y z
#    x 1.825480 -0.004100 0.005570 
#    y -0.004100 1.823630 -0.009480 
#    z 0.005570 -0.009480 1.828870 
# 
# From -- ./inp_files/461377.got.cif
#   From: 2010.06.25/outbox.cif.g09.slc.cpg/sg2_231_cif.got.tgz:461377.got - 2010.06.27 13:26:56.
