data_PCOD8002595
_publ_section_title
;
Structure prediction by ZEFSAII (Michael W. Deem and Ramdas Pophale) SiO2 
 PCOD8002595
Probable space group: P -1
;
_chemical_formula_sum "Si O2"
_cell_formula_units_Z 16
_cell_length_a 10.747200
_cell_length_b 22.591994
_cell_length_c 19.493618
_cell_angle_alpha 159.791373
_cell_angle_beta 28.919907
_cell_angle_gamma 140.012632
_cell_volume 746.197582
_symmetry_space_group_name_H-M "P -1"
_symmetry_group_IT_number 2
_symmetry_cell_setting 'triclinic'
loop_
_space_group_symop_operation_xyz
x,y,z
-x,-y,-z
loop_
_atom_site_type_symbol
_atom_site_label
_atom_site_fract_x
_atom_site_fract_y
_atom_site_fract_z
Si Si1 0.037182 0.658983 0.374296
Si Si2 0.253388 0.264133 0.055837
Si Si3 0.941335 0.036467 0.217765
Si Si4 0.180500 0.479232 0.551373
Si Si5 0.472393 0.740833 0.676752
Si Si6 0.674843 0.743179 0.437152
Si Si7 0.261494 0.587580 0.041284
Si Si8 0.730541 0.865667 0.944162
O O1 0.014092 0.505437 0.271586
O O2 0.728082 0.773634 0.625645
O O3 0.217869 0.573088 0.127953
O O4 0.180537 0.784785 0.482338
O O5 0.182132 0.246923 0.150839
O O6 0.002377 0.422609 0.317816
O O7 0.530827 0.304937 0.956090
O O8 0.272889 0.072518 0.801435
O O9 0.017382 0.080141 0.150607
O O10 0.216248 0.922475 0.001051
O O11 0.404542 0.573983 0.563726
O O12 0.333063 0.268300 0.227595
O O13 0.540101 0.683043 0.502274
O O14 0.994567 0.702645 0.253003
O O15 0.629902 0.621320 0.263458
O O16 0.535399 0.957469 0.722330
#
# Coordination Sequence:
#
# PCOD8002595 Si02
#       8
#     2   2   2   2   2   2   2   2
#     4  10  20  36  56  78 112 152 184 223 271 328
#     4  11  22  36  55  82 117 149 180 226 275 331
#     4   9  20  35  56  85 110 139 185 233 281 327
#     4  10  21  35  58  88 113 140 184 232 280 329
#     4   9  17  35  60  84 109 138 183 239 281 313
#     4   9  20  39  61  84 108 143 188 230 272 329
#     4  10  22  39  57  80 115 153 183 217 274 335
#     4  10  20  37  61  85 109 139 184 240 283 314
#
# _framework density 21.442042000000001
#
# number of rings (size 3 to 8) (size 9 to 14) (size 15 to 20)
#    0.000    2.250    0.000    2.250    0.000    6.500 
#    0.000    2.500    0.000    0.000    0.000    0.000 
#    0.000    0.000    0.000    0.000    0.000    0.000 
#
# Total GULP energy -198347.467797 kJ/mol
# GULP energy per Si atom -12396.716737 kJ/mol
# Density = 2.139324 g / cm^3
# Si number density = 21.442042 Si / 1000 Ang^3
#
#
#
# Elastic Constant Matrix: (Units=GPa)
#
#
# Indices 1 2 3 4 5 6 
#
# 1 79.9159 48.1802 28.0332 0.1882 19.2369 -16.0327
# 2 48.1802 128.5058 42.6095 14.4278 16.6071 2.8937
# 3 28.0332 42.6095 71.1307 3.6536 21.3234 -9.8922
# 4 0.1882 14.4278 3.6536 17.7067 2.1866 -3.6820
# 5 19.2369 16.6071 21.3234 2.1866 35.6234 4.9876
# 6 -16.0327 2.8937 -9.8922 -3.6820 4.9876 40.5832
#
#
#
# Elastic Compliance Matrix: (Units=1/GPa)
#
#
# Indices 1 2 3 4 5 6 
#
# 1 0.022517 -0.008741 0.000742 0.010565 -0.010856 0.011992
# 2 -0.008741 0.014352 -0.006769 -0.012294 0.003918 -0.007724
# 3 0.000742 -0.006769 0.022327 0.004057 -0.011987 0.008059
# 4 0.010565 -0.012294 0.004057 0.069381 -0.008534 0.013383
# 5 -0.010856 0.003918 -0.011987 -0.008534 0.041680 -0.013386
# 6 0.011992 -0.007724 0.008059 0.013383 -0.013386 0.034753
#
#
# Mechanical properties :
#
#
# Convention : Reuss Voigt Hill
#
# Bulk Modulus (GPa) = 33.71773 57.46646 45.59209
# Shear Modulus (GPa) = 20.45549 29.49796 24.97672
#
# Velocity S-wave (km/s) = 3.09202 3.71308 3.41669
# Velocity P-wave (km/s) = 5.33916 6.72619 6.07241
#
# Compressibility (1/GPa) = 0.02965799
#
# Stress axis : x y z
#
# Youngs Moduli (GPa) = 44.41035 69.67894 44.78901
#
# Poissons Ratio (x) = 0.60910 -0.03322
# Poissons Ratio (y) = 0.38821 0.30318
# Poissons Ratio (z) = -0.03294 0.47166
#
# Static dielectric constant tensor:
#      x y z
#    x 3.909130 -0.057300 0.084940 
#    y -0.057300 3.963700 0.151920 
#    z 0.084940 0.151920 3.630580 
# 
# 
# High freq. dielectric constant tensor:
#      x y z
#    x 1.848820 -0.003760 0.010700 
#    y -0.003760 1.840090 0.014580 
#    z 0.010700 0.014580 1.819960 
# 
# From -- ./inp_files/471086.got.cif
#   From: 2010.06.25/outbox.cif.g09.slc.cpg/sg2_236_cif.got.tgz:471086.got - 2010.06.27 13:26:56.
