data_PCOD8002993
_publ_section_title
;
Structure prediction by ZEFSAII (Michael W. Deem and Ramdas Pophale) SiO2 
 PCOD8002993
Probable space group: P -1
;
_chemical_formula_sum "Si O2"
_cell_formula_units_Z 16
_cell_length_a 16.068605
_cell_length_b 8.524175
_cell_length_c 12.141570
_cell_angle_alpha 97.677272
_cell_angle_beta 153.300025
_cell_angle_gamma 92.218445
_cell_volume 692.320175
_symmetry_space_group_name_H-M "P -1"
_symmetry_group_IT_number 2
_symmetry_cell_setting 'triclinic'
loop_
_space_group_symop_operation_xyz
x,y,z
-x,-y,-z
loop_
_atom_site_type_symbol
_atom_site_label
_atom_site_fract_x
_atom_site_fract_y
_atom_site_fract_z
Si Si1 0.907978 0.142642 0.919731
Si Si2 0.457247 0.517956 0.790985
Si Si3 0.526132 0.668308 0.661169
Si Si4 0.279249 0.692517 0.889511
Si Si5 0.839211 0.566846 0.909880
Si Si6 0.364202 0.820822 0.780345
Si Si7 0.572830 0.042425 0.352902
Si Si8 0.001194 0.631400 0.757004
O O1 0.692890 0.049126 0.606139
O O2 0.898566 0.190915 0.041785
O O3 0.019515 0.324688 0.009317
O O4 0.000000 0.000000 0.000000
O O5 0.492601 0.526673 0.702452
O O6 0.617290 0.445694 0.023947
O O7 0.496252 0.703491 0.905185
O O8 0.229791 0.400469 0.534372
O O9 0.719628 0.682629 0.822544
O O10 0.323558 0.609374 0.343467
O O11 0.571963 0.854062 0.783575
O O12 0.449178 0.851180 0.159544
O O13 0.209544 0.735695 0.689482
O O14 0.091524 0.635109 0.742192
O O15 0.968195 0.523697 0.154629
O O16 0.280207 0.858222 0.566480
O O17 0.500000 0.000000 0.000000
#
# Coordination Sequence:
#
# PCOD8002993 Si02
#       8
#     2   2   2   2   2   2   2   2
#     4  12  25  39  61  96 135 168 209 264 315 381
#     4  11  21  41  66  94 125 164 214 262 322 377
#     4  10  20  36  61  87 123 174 207 253 312 385
#     4  11  24  42  65  97 126 166 222 266 315 373
#     4  11  21  38  59  89 129 169 213 246 318 388
#     4   9  21  43  69  89 125 172 211 267 323 369
#     4  10  22  40  65  87 129 174 208 259 324 372
#     4  12  24  40  66  97 133 168 208 264 319 383
#
# _framework density 23.110693000000001
#
# number of rings (size 3 to 8) (size 9 to 14) (size 15 to 20)
#    0.000    1.250    3.750    3.000    1.750    1.000 
#    0.000    0.000    0.000    3.750    0.000    0.000 
#    0.000    0.000    0.000    0.000    0.000    0.000 
#
# Total GULP energy -198284.445568 kJ/mol
# GULP energy per Si atom -12392.777848 kJ/mol
# Density = 2.305809 g / cm^3
# Si number density = 23.110693 Si / 1000 Ang^3
#
#
#
# Elastic Constant Matrix: (Units=GPa)
#
#
# Indices 1 2 3 4 5 6 
#
# 1 109.1632 5.8285 3.6117 -4.9630 7.3324 -2.3875
# 2 5.8285 78.5728 -5.3511 11.3890 -2.2537 -15.8176
# 3 3.6117 -5.3511 35.9352 -2.4553 7.8929 -5.7938
# 4 -4.9630 11.3890 -2.4553 26.9637 -3.3595 -7.6491
# 5 7.3324 -2.2537 7.8929 -3.3595 30.7516 2.4662
# 6 -2.3875 -15.8176 -5.7938 -7.6491 2.4662 36.1839
#
#
#
# Elastic Compliance Matrix: (Units=1/GPa)
#
#
# Indices 1 2 3 4 5 6 
#
# 1 0.009471 -0.000939 -0.000381 0.002055 -0.002063 0.000729
# 2 -0.000939 0.014855 0.003063 -0.004523 -0.000449 0.005997
# 3 -0.000381 0.003063 0.031477 0.002612 -0.008077 0.007456
# 4 0.002055 -0.004523 0.002612 0.041992 0.002512 0.007282
# 5 -0.002063 -0.000449 -0.008077 0.002512 0.035608 -0.003521
# 6 0.000729 0.005997 0.007456 0.007282 -0.003521 0.033279
#
#
# Mechanical properties :
#
#
# Convention : Reuss Voigt Hill
#
# Bulk Modulus (GPa) = 16.86630 25.76105 21.31367
# Shear Modulus (GPa) = 27.32847 33.41864 30.37356
#
# Velocity S-wave (km/s) = 3.44249 3.80679 3.62921
# Velocity P-wave (km/s) = 4.80779 5.52206 5.17726
#
# Compressibility (1/GPa) = 0.05928984
#
# Stress axis : x y z
#
# Youngs Moduli (GPa) = 105.58249 67.31615 31.76945
#
# Poissons Ratio (x) = 0.06320 0.01209
# Poissons Ratio (y) = 0.09913 -0.09730
# Poissons Ratio (z) = 0.04019 -0.20617
#
# Static dielectric constant tensor:
#      x y z
#    x 4.673710 0.021960 -0.312590 
#    y 0.021960 4.300010 -0.088260 
#    z -0.312590 -0.088260 3.799510 
# 
# 
# High freq. dielectric constant tensor:
#      x y z
#    x 1.932030 -0.010960 -0.019660 
#    y -0.010960 1.919230 0.003800 
#    z -0.019660 0.003800 1.879310 
# 
# From -- ./inp_files/188383.got.cif
#   From: 2010.06.25/outbox.cif.g09.slc.cpg/sg2_95_cif.got.tgz:188383.got - 2010.06.27 13:26:56.
