data_PCOD8002663
_publ_section_title
;
Structure prediction by ZEFSAII (Michael W. Deem and Ramdas Pophale) SiO2 
 PCOD8002663
Probable space group: P -1
;
_chemical_formula_sum "Si O2"
_cell_formula_units_Z 16
_cell_length_a 18.657043
_cell_length_b 12.532605
_cell_length_c 22.371115
_cell_angle_alpha 31.293459
_cell_angle_beta 17.926831
_cell_angle_gamma 26.397036
_cell_volume 715.718546
_symmetry_space_group_name_H-M "P -1"
_symmetry_group_IT_number 2
_symmetry_cell_setting 'triclinic'
loop_
_space_group_symop_operation_xyz
x,y,z
-x,-y,-z
loop_
_atom_site_type_symbol
_atom_site_label
_atom_site_fract_x
_atom_site_fract_y
_atom_site_fract_z
Si Si1 0.370865 0.785368 0.621277
Si Si2 0.137132 0.757078 0.246776
Si Si3 0.628788 0.834941 0.837079
Si Si4 0.750956 0.617741 0.097660
Si Si5 0.310426 0.277444 0.031630
Si Si6 0.323120 0.718879 0.820115
Si Si7 0.318128 0.023940 0.782144
Si Si8 0.786280 0.705459 0.646205
O O1 0.401419 0.529651 0.708708
O O2 0.402498 0.815233 0.652807
O O3 0.609963 0.791019 0.393381
O O4 0.076238 0.990373 0.734082
O O5 0.184764 0.551947 0.260297
O O6 0.023067 0.717201 0.418287
O O7 0.415491 0.746040 0.044331
O O8 0.816990 0.714158 0.805452
O O9 0.820084 0.746598 0.669497
O O10 0.472277 0.120151 0.828878
O O11 0.870426 0.614634 0.937048
O O12 0.000000 0.500000 0.000000
O O13 0.462338 0.429631 0.846486
O O14 0.500000 0.000000 0.000000
O O15 0.414653 0.798763 0.768174
O O16 0.997866 0.832402 0.022522
O O17 0.487254 0.912721 0.761845
#
# Coordination Sequence:
#
# PCOD8002663 Si02
#       8
#     2   2   2   2   2   2   2   2
#     4  10  20  37  58  84 114 154 195 243 295 344
#     4  10  20  36  57  85 120 154 193 245 294 347
#     4  11  20  38  61  83 117 159 194 241 297 347
#     4  10  20  38  63  87 114 158 200 243 293 349
#     4   9  21  37  59  88 117 153 200 238 292 352
#     4  10  20  37  59  82 119 152 190 240 295 351
#     4  10  21  35  56  89 115 149 196 243 288 349
#     4  10  22  35  56  89 118 152 202 240 288 359
#
# _framework density 22.355156000000001
#
# number of rings (size 3 to 8) (size 9 to 14) (size 15 to 20)
#    0.000    2.000    1.250    2.250    1.750    2.000 
#    0.000   10.000    0.000    7.500    0.000    0.000 
#    0.000    0.000    0.000    0.000    0.000    0.000 
#
# Total GULP energy -198275.839206 kJ/mol
# GULP energy per Si atom -12392.239950 kJ/mol
# Density = 2.230427 g / cm^3
# Si number density = 22.355156 Si / 1000 Ang^3
#
#
#
# Elastic Constant Matrix: (Units=GPa)
#
#
# Indices 1 2 3 4 5 6 
#
# 1 145.7565 38.3239 23.8703 -10.4416 37.9728 11.0432
# 2 38.3239 91.9384 24.8032 -29.2168 13.2122 17.0364
# 3 23.8703 24.8032 60.5307 -13.1560 12.7916 5.7355
# 4 -10.4416 -29.2168 -13.1560 29.8431 -0.9294 -2.7819
# 5 37.9728 13.2122 12.7916 -0.9294 33.0409 0.0407
# 6 11.0432 17.0364 5.7355 -2.7819 0.0407 33.8807
#
#
#
# Elastic Compliance Matrix: (Units=1/GPa)
#
#
# Indices 1 2 3 4 5 6 
#
# 1 0.010621 -0.001907 -0.000605 0.001020 -0.011178 -0.002303
# 2 -0.001907 0.019552 -0.001980 0.016767 -0.004379 -0.007493
# 3 -0.000605 -0.001980 0.020473 0.006519 -0.006253 -0.001730
# 4 0.001020 0.016767 0.006519 0.052358 -0.008921 -0.005557
# 5 -0.011178 -0.004379 -0.006253 -0.008921 0.047026 0.006115
# 6 -0.002303 -0.007493 -0.001730 -0.005557 0.006115 0.033863
#
#
# Mechanical properties :
#
#
# Convention : Reuss Voigt Hill
#
# Bulk Modulus (GPa) = 24.00271 52.46893 38.23582
# Shear Modulus (GPa) = 24.18225 33.43482 28.80853
#
# Velocity S-wave (km/s) = 3.29253 3.87152 3.59371
# Velocity P-wave (km/s) = 5.02142 6.59594 5.86179
#
# Compressibility (1/GPa) = 0.04166196
#
# Stress axis : x y z
#
# Youngs Moduli (GPa) = 94.15428 51.14604 48.84538
#
# Poissons Ratio (x) = 0.09752 0.02955
# Poissons Ratio (y) = 0.17953 0.09672
# Poissons Ratio (z) = 0.05696 0.10127
#
# Static dielectric constant tensor:
#      x y z
#    x 4.445290 0.080560 0.217960 
#    y 0.080560 4.331250 -0.379840 
#    z 0.217960 -0.379840 3.821720 
# 
# 
# High freq. dielectric constant tensor:
#      x y z
#    x 1.895680 0.002120 0.018090 
#    y 0.002120 1.886940 -0.029590 
#    z 0.018090 -0.029590 1.855030 
# 
# From -- ./inp_files/189371.got.cif
#   From: 2010.06.25/outbox.cif.g09.slc.cpg/sg2_95_cif.got.tgz:189371.got - 2010.06.27 13:26:56.
