data_PCOD8002751
_publ_section_title
;
Structure prediction by ZEFSAII (Michael W. Deem and Ramdas Pophale) SiO2 
 PCOD8002751
Probable space group: P -1
;
_chemical_formula_sum "Si O2"
_cell_formula_units_Z 16
_cell_length_a 11.916222
_cell_length_b 6.782354
_cell_length_c 18.310351
_cell_angle_alpha 44.860863
_cell_angle_beta 132.098316
_cell_angle_gamma 113.727536
_cell_volume 767.010701
_symmetry_space_group_name_H-M "P -1"
_symmetry_group_IT_number 2
_symmetry_cell_setting 'triclinic'
loop_
_space_group_symop_operation_xyz
x,y,z
-x,-y,-z
loop_
_atom_site_type_symbol
_atom_site_label
_atom_site_fract_x
_atom_site_fract_y
_atom_site_fract_z
Si Si1 0.215691 0.257246 0.099829
Si Si2 0.513132 0.849049 0.348597
Si Si3 0.762211 0.179043 0.309784
Si Si4 0.181765 0.375997 0.890739
Si Si5 0.951048 0.230010 0.513502
Si Si6 0.585161 0.718793 0.575696
Si Si7 0.089975 0.223895 0.276043
Si Si8 0.078759 0.836363 0.931996
O O1 0.047329 0.158112 0.059737
O O2 0.348224 0.026419 0.250387
O O3 0.258159 0.301743 0.022052
O O4 0.202284 0.551872 0.061765
O O5 0.602014 0.761681 0.484991
O O6 0.494756 0.561687 0.371586
O O7 0.608936 0.041630 0.291645
O O8 0.722315 0.422099 0.167210
O O9 0.822778 0.317281 0.372938
O O10 0.894294 0.937740 0.406225
O O11 0.011736 0.536735 0.784746
O O12 0.173848 0.093773 0.915099
O O13 0.000000 0.500000 0.500000
O O14 0.874052 0.057392 0.586567
O O15 0.751558 0.659820 0.700968
O O16 0.500000 0.000000 0.500000
O O17 0.009591 0.146227 0.187638
#
# Coordination Sequence:
#
# PCOD8002751 Si02
#       8
#     2   2   2   2   2   2   2   2
#     4  10  22  38  59  88 117 158 200 239 295 346
#     4  11  24  41  58  85 127 154 194 249 295 353
#     4  10  22  38  58  87 118 158 196 240 297 350
#     4  10  21  38  61  86 117 154 201 243 291 342
#     4  10  20  36  59  84 118 154 198 240 288 350
#     4  11  24  39  59  88 119 159 195 239 303 361
#     4  10  20  36  58  89 113 148 199 242 293 351
#     4  10  20  38  63  86 117 152 199 251 289 344
#
# _framework density 20.860205000000001
#
# number of rings (size 3 to 8) (size 9 to 14) (size 15 to 20)
#    0.000    1.750    1.250    2.625    1.750    4.500 
#    0.000    0.625    0.000    0.000    0.000    0.000 
#    0.000    0.000    0.000    0.000    0.000    0.000 
#
# Total GULP energy -198406.042936 kJ/mol
# GULP energy per Si atom -12400.377684 kJ/mol
# Density = 2.081273 g / cm^3
# Si number density = 20.860205 Si / 1000 Ang^3
#
#
#
# Elastic Constant Matrix: (Units=GPa)
#
#
# Indices 1 2 3 4 5 6 
#
# 1 80.5177 44.5687 15.8503 -9.3093 -8.7093 13.1975
# 2 44.5687 136.2467 23.2587 -19.0954 2.0161 7.6358
# 3 15.8503 23.2587 65.6663 -8.6178 -3.4897 -2.4417
# 4 -9.3093 -19.0954 -8.6178 27.9150 -2.8371 -5.2529
# 5 -8.7093 2.0161 -3.4897 -2.8371 34.6609 1.6257
# 6 13.1975 7.6358 -2.4417 -5.2529 1.6257 25.2660
#
#
#
# Elastic Compliance Matrix: (Units=1/GPa)
#
#
# Indices 1 2 3 4 5 6 
#
# 1 0.017513 -0.004822 -0.002462 0.000756 0.004874 -0.008085
# 2 -0.004822 0.009856 -0.001809 0.004487 -0.001619 0.000402
# 3 -0.002462 -0.001809 0.017248 0.004212 0.001367 0.004287
# 4 0.000756 0.004487 0.004212 0.042151 0.003466 0.007197
# 5 0.004874 -0.001619 0.001367 0.003466 0.030740 -0.003182
# 6 -0.008085 0.000402 0.004287 0.007197 -0.003182 0.045796
#
#
# Mechanical properties :
#
#
# Convention : Reuss Voigt Hill
#
# Bulk Modulus (GPa) = 37.83318 49.97622 43.90470
# Shear Modulus (GPa) = 26.27422 30.81858 28.54640
#
# Velocity S-wave (km/s) = 3.55285 3.84785 3.70329
# Velocity P-wave (km/s) = 5.91660 6.61445 6.27523
#
# Compressibility (1/GPa) = 0.02643182
#
# Stress axis : x y z
#
# Youngs Moduli (GPa) = 57.10056 101.46126 57.97638
#
# Poissons Ratio (x) = 0.48920 0.14273
# Poissons Ratio (y) = 0.27532 0.10490
# Poissons Ratio (z) = 0.14057 0.18358
#
# Static dielectric constant tensor:
#      x y z
#    x 3.870360 0.004820 -0.295190 
#    y 0.004820 3.763590 -0.124020 
#    z -0.295190 -0.124020 3.861600 
# 
# 
# High freq. dielectric constant tensor:
#      x y z
#    x 1.801990 -0.003690 -0.014340 
#    y -0.003690 1.819530 -0.006500 
#    z -0.014340 -0.006500 1.815930 
# 
# From -- ./inp_files/69122.got.cif
#   From: 2010.06.25/outbox.cif.g09.slc.cpg/sg2_35_cif.got.tgz:69122.got - 2010.06.27 13:26:56.
