data_PCOD8002127
_publ_section_title
;
Structure prediction by ZEFSAII (Michael W. Deem and Ramdas Pophale) SiO2 
 PCOD8002127
Probable space group: P -1
;
_chemical_formula_sum "Si O2"
_cell_formula_units_Z 16
_cell_length_a 15.868972
_cell_length_b 6.951949
_cell_length_c 19.600197
_cell_angle_alpha 131.527352
_cell_angle_beta 144.643170
_cell_angle_gamma 67.618131
_cell_volume 870.571817
_symmetry_space_group_name_H-M "P -1"
_symmetry_group_IT_number 2
_symmetry_cell_setting 'triclinic'
loop_
_space_group_symop_operation_xyz
x,y,z
-x,-y,-z
loop_
_atom_site_type_symbol
_atom_site_label
_atom_site_fract_x
_atom_site_fract_y
_atom_site_fract_z
Si Si1 0.459813 0.226681 0.193634
Si Si2 0.972973 0.744523 0.373448
Si Si3 0.707776 0.486806 0.946621
Si Si4 0.380799 0.136016 0.273547
Si Si5 0.726452 0.481666 0.619200
Si Si6 0.373450 0.601902 0.972976
Si Si7 0.806369 0.573239 0.540191
Si Si8 0.946625 0.167591 0.707778
O O1 0.391831 0.400103 0.141542
O O2 0.381619 0.209547 0.211901
O O3 0.646025 0.373207 0.353978
O O4 0.420661 0.925088 0.065116
O O5 0.791314 0.555706 0.208684
O O6 0.065114 0.560686 0.420657
O O7 0.036170 0.860195 0.368083
O O8 0.000000 0.000000 0.500000
O O9 0.698313 0.190536 0.843221
O O10 0.631909 0.455924 0.963818
O O11 0.887143 0.692534 0.112853
O O12 0.555684 0.241858 0.444315
O O13 0.275031 0.275038 0.275030
O O14 0.788098 0.616033 0.618383
O O15 0.843220 0.350987 0.698307
O O16 0.500000 0.500000 0.000000
O O17 0.858458 0.866729 0.608167
#
# Coordination Sequence:
#
# PCOD8002127 Si02
#       8
#     2   2   2   2   2   2   2   2
#     4  10  20  35  56  79 105 139 176 215 259 307
#     4  10  21  37  56  78 105 137 174 216 261 309
#     4  10  21  36  54  78 108 139 172 214 262 311
#     4   9  19  36  56  78 105 138 177 218 258 304
#     4   9  19  36  56  78 105 138 177 218 258 304
#     4  10  21  37  56  78 105 137 174 216 261 309
#     4  10  20  35  56  79 105 139 176 215 259 307
#     4  10  21  36  54  78 108 139 172 214 262 311
#
# _framework density 18.378723999999998
#
# number of rings (size 3 to 8) (size 9 to 14) (size 15 to 20)
#    0.000    2.250    0.000    2.250    0.000    6.500 
#    0.000    5.000    0.000    0.000    0.000    0.000 
#    0.000    0.000    0.000    0.000    0.000    0.000 
#
# Total GULP energy -198478.427600 kJ/mol
# GULP energy per Si atom -12404.901725 kJ/mol
# Density = 1.833689 g / cm^3
# Si number density = 18.378724 Si / 1000 Ang^3
#
#
#
# Elastic Constant Matrix: (Units=GPa)
#
#
# Indices 1 2 3 4 5 6 
#
# 1 99.2384 64.5995 57.9251 10.3758 0.9270 -30.4232
# 2 64.5995 144.6159 73.9589 1.4443 2.9403 -10.7058
# 3 57.9251 73.9589 119.8814 11.7770 -2.4715 -10.1292
# 4 10.3758 1.4443 11.7770 39.3016 -2.9949 3.9201
# 5 0.9270 2.9403 -2.4715 -2.9949 29.2612 6.9712
# 6 -30.4232 -10.7058 -10.1292 3.9201 6.9712 31.2350
#
#
#
# Elastic Compliance Matrix: (Units=1/GPa)
#
#
# Indices 1 2 3 4 5 6 
#
# 1 0.025903 -0.006626 -0.005817 -0.007747 -0.007067 0.023622
# 2 -0.006626 0.012031 -0.004900 0.003201 -0.000059 -0.004308
# 3 -0.005817 -0.004900 0.014170 -0.002047 0.002385 -0.003025
# 4 -0.007747 0.003201 -0.002047 0.029623 0.005664 -0.012094
# 5 -0.007067 -0.000059 0.002385 0.005664 0.038883 -0.015519
# 6 0.023622 -0.004308 -0.003025 -0.012094 -0.015519 0.057547
#
#
# Mechanical properties :
#
#
# Convention : Reuss Voigt Hill
#
# Bulk Modulus (GPa) = 57.41425 84.07808 70.74617
# Shear Modulus (GPa) = 22.86762 31.10970 26.98866
#
# Velocity S-wave (km/s) = 3.53121 4.11871 3.83622
# Velocity P-wave (km/s) = 6.92339 8.27437 7.62884
#
# Compressibility (1/GPa) = 0.01741728
#
# Stress axis : x y z
#
# Youngs Moduli (GPa) = 38.60576 83.11682 70.57143
#
# Poissons Ratio (x) = 0.55075 0.41050
# Poissons Ratio (y) = 0.25581 0.34583
# Poissons Ratio (z) = 0.22456 0.40731
#
# Static dielectric constant tensor:
#      x y z
#    x 3.427970 -0.116680 0.018430 
#    y -0.116680 3.481430 0.033340 
#    z 0.018430 0.033340 3.530830 
# 
# 
# High freq. dielectric constant tensor:
#      x y z
#    x 1.711190 -0.006420 0.004310 
#    y -0.006420 1.719600 0.001230 
#    z 0.004310 0.001230 1.724890 
# 
# From -- ./inp_files/36312.got.cif
#   From: 2010.06.25/outbox.cif.g09.slc.cpg/sg2_19_cif.got.tgz:36312.got - 2010.06.27 13:26:56.
