data_PCOD8002706
_publ_section_title
;
Structure prediction by ZEFSAII (Michael W. Deem and Ramdas Pophale) SiO2 
 PCOD8002706
Probable space group: P -1
;
_chemical_formula_sum "Si O2"
_cell_formula_units_Z 16
_cell_length_a 6.531026
_cell_length_b 16.642393
_cell_length_c 11.095842
_cell_angle_alpha 75.474187
_cell_angle_beta 39.987762
_cell_angle_gamma 78.571942
_cell_volume 750.214302
_symmetry_space_group_name_H-M "P -1"
_symmetry_group_IT_number 2
_symmetry_cell_setting 'triclinic'
loop_
_space_group_symop_operation_xyz
x,y,z
-x,-y,-z
loop_
_atom_site_type_symbol
_atom_site_label
_atom_site_fract_x
_atom_site_fract_y
_atom_site_fract_z
Si Si1 0.228722 0.023096 0.206609
Si Si2 0.136381 0.440416 0.562566
Si Si3 0.220479 0.291134 0.080485
Si Si4 0.231055 0.846280 0.742111
Si Si5 0.179635 0.580555 0.658049
Si Si6 0.974809 0.854676 0.367782
Si Si7 0.661581 0.157550 0.037651
Si Si8 0.735479 0.316209 0.660362
O O1 0.396673 0.084889 0.202165
O O2 0.935692 0.069240 0.256476
O O3 0.092206 0.937285 0.355884
O O4 0.500000 0.000000 0.000000
O O5 0.076915 0.487111 0.700327
O O6 0.516926 0.423679 0.387413
O O7 0.000000 0.500000 0.500000
O O8 0.951387 0.354483 0.657745
O O9 0.482963 0.244623 0.061185
O O10 0.912822 0.234016 0.227178
O O11 0.117593 0.377184 0.156952
O O12 0.374540 0.311322 0.873581
O O13 0.598336 0.848475 0.541985
O O14 0.156244 0.836680 0.921183
O O15 0.272064 0.631737 0.477619
O O16 0.128938 0.775590 0.395272
O O17 0.089384 0.861246 0.174714
#
# Coordination Sequence:
#
# PCOD8002706 Si02
#       8
#     2   2   2   2   2   2   2   2
#     4   9  20  38  54  80 116 145 189 237 272 328
#     4   9  20  39  60  84 114 145 181 225 274 332
#     4  10  22  36  56  87 114 143 189 230 268 331
#     4  11  21  36  57  80 111 153 191 226 278 329
#     4  10  20  39  62  82 112 148 179 225 280 327
#     4  10  20  36  58  83 111 145 188 233 275 330
#     4   9  21  39  56  80 115 148 183 234 281 320
#     4  10  21  38  58  84 114 144 183 229 278 330
#
# _framework density 21.327237
#
# number of rings (size 3 to 8) (size 9 to 14) (size 15 to 20)
#    0.000    2.250    0.000    2.625    0.000    7.000 
#    0.000   14.375    0.000    0.000    0.000    0.000 
#    0.000    0.000    0.000    0.000    0.000    0.000 
#
# Total GULP energy -198335.843731 kJ/mol
# GULP energy per Si atom -12395.990233 kJ/mol
# Density = 2.127870 g / cm^3
# Si number density = 21.327237 Si / 1000 Ang^3
#
#
#
# Elastic Constant Matrix: (Units=GPa)
#
#
# Indices 1 2 3 4 5 6 
#
# 1 68.5072 17.8498 11.5423 -1.2567 -4.8508 -6.8986
# 2 17.8498 73.4684 12.3517 13.8909 -2.2379 -14.0056
# 3 11.5423 12.3517 87.6628 13.0217 -16.7979 -11.2432
# 4 -1.2567 13.8909 13.0217 36.8218 -2.2022 -4.4642
# 5 -4.8508 -2.2379 -16.7979 -2.2022 23.9598 -1.2240
# 6 -6.8986 -14.0056 -11.2432 -4.4642 -1.2240 18.3591
#
#
#
# Elastic Compliance Matrix: (Units=1/GPa)
#
#
# Indices 1 2 3 4 5 6 
#
# 1 0.016314 -0.003552 -0.001104 0.002885 0.002647 0.003622
# 2 -0.003552 0.017597 0.000489 -0.005502 0.001331 0.011140
# 3 -0.001104 0.000489 0.015260 -0.003884 0.010627 0.009068
# 4 0.002885 -0.005502 -0.003884 0.030973 0.000299 0.002059
# 5 0.002647 0.001331 0.010627 0.000299 0.050486 0.011957
# 6 0.003622 0.011140 0.009068 0.002059 0.011957 0.071179
#
#
# Mechanical properties :
#
#
# Convention : Reuss Voigt Hill
#
# Bulk Modulus (GPa) = 24.48809 34.79177 29.63993
# Shear Modulus (GPa) = 22.34596 28.35445 25.35021
#
# Velocity S-wave (km/s) = 3.24043 3.65018 3.45139
# Velocity P-wave (km/s) = 5.05050 5.84070 5.45991
#
# Compressibility (1/GPa) = 0.04083618
#
# Stress axis : x y z
#
# Youngs Moduli (GPa) = 61.29835 56.82930 65.53043
#
# Poissons Ratio (x) = 0.20187 0.07236
# Poissons Ratio (y) = 0.21775 -0.03207
# Poissons Ratio (z) = 0.06769 -0.02782
#
# Static dielectric constant tensor:
#      x y z
#    x 3.847740 0.148850 -0.280960 
#    y 0.148850 4.901420 0.079790 
#    z -0.280960 0.079790 3.778200 
# 
# 
# High freq. dielectric constant tensor:
#      x y z
#    x 1.821720 0.003330 -0.014760 
#    y 0.003330 1.856090 0.006540 
#    z -0.014760 0.006540 1.825120 
# 
# From -- ./inp_files/56391.got.cif
#   From: 2010.06.25/outbox.cif.g09.slc.cpg/sg2_29_cif.got.tgz:56391.got - 2010.06.27 13:26:56.
