data_PCOD8002660
_publ_section_title
;
Structure prediction by ZEFSAII (Michael W. Deem and Ramdas Pophale) SiO2 
 PCOD8002660
Probable space group: P -1
;
_chemical_formula_sum "Si O2"
_cell_formula_units_Z 12
_cell_length_a 13.400645
_cell_length_b 11.686234
_cell_length_c 8.793168
_cell_angle_alpha 54.148008
_cell_angle_beta 99.457833
_cell_angle_gamma 54.669296
_cell_volume 591.042452
_symmetry_space_group_name_H-M "P -1"
_symmetry_group_IT_number 2
_symmetry_cell_setting 'triclinic'
loop_
_space_group_symop_operation_xyz
x,y,z
-x,-y,-z
loop_
_atom_site_type_symbol
_atom_site_label
_atom_site_fract_x
_atom_site_fract_y
_atom_site_fract_z
Si Si1 0.096540 0.802254 0.544807
Si Si2 0.086605 0.082599 0.163010
Si Si3 0.936480 0.797350 0.270180
Si Si4 0.687395 0.917990 0.716147
Si Si5 0.728261 0.575389 0.868786
Si Si6 0.294453 0.191861 0.849200
O O1 0.941229 0.895427 0.339350
O O2 0.247629 0.520178 0.880996
O O3 0.000000 0.000000 0.500000
O O4 0.183875 0.819126 0.441600
O O5 0.181705 0.100934 0.260670
O O6 0.110385 0.061769 0.004363
O O7 0.869653 0.343381 0.960618
O O8 0.144435 0.488154 0.538193
O O9 0.774993 0.869992 0.204388
O O10 0.748541 0.722134 0.767639
O O11 0.478030 0.219915 0.399819
O O12 0.708638 0.830459 0.956349
O O13 0.500000 0.000000 0.000000
#
# Coordination Sequence:
#
# PCOD8002660 Si02
#       6
#     2   2   2   2   2   2
#     4  10  21  39  58  85 119 155 189 229 288 345
#     4  10  21  36  60  81 115 153 189 232 287 335
#     4  10  20  38  59  85 115 149 193 236 281 342
#     4  10  20  36  57  85 113 151 193 236 279 338
#     4  10  20  37  56  83 119 147 193 234 281 337
#     4  10  20  36  60  88 114 146 192 242 288 329
#
# _framework density 20.303111000000001
#
# number of rings (size 3 to 8) (size 9 to 14) (size 15 to 20)
#    0.000    2.000    1.667    2.000    0.000    0.667 
#   12.000    3.333    0.000   12.000    0.000    0.000 
#    0.000    0.000    0.000    0.000    0.000    0.000 
#
# Total GULP energy -148757.094778 kJ/mol
# GULP energy per Si atom -12396.424565 kJ/mol
# Density = 2.025690 g / cm^3
# Si number density = 20.303111 Si / 1000 Ang^3
#
#
#
# Elastic Constant Matrix: (Units=GPa)
#
#
# Indices 1 2 3 4 5 6 
#
# 1 112.9230 28.6282 44.9848 -0.3536 -5.9906 4.9395
# 2 28.6282 57.7483 2.6441 9.8097 7.4207 16.1787
# 3 44.9848 2.6441 85.4417 7.9668 -0.2931 6.0055
# 4 -0.3536 9.8097 7.9668 29.5984 -1.8899 5.6626
# 5 -5.9906 7.4207 -0.2931 -1.8899 26.1942 -2.9595
# 6 4.9395 16.1787 6.0055 5.6626 -2.9595 25.6153
#
#
#
# Elastic Compliance Matrix: (Units=1/GPa)
#
#
# Indices 1 2 3 4 5 6 
#
# 1 0.015017 -0.010383 -0.008430 0.005340 0.007265 0.005298
# 2 -0.010383 0.030700 0.006646 -0.009437 -0.013763 -0.018450
# 3 -0.008430 0.006646 0.016888 -0.006052 -0.004707 -0.005738
# 4 0.005340 -0.009437 -0.006052 0.039325 0.006484 -0.001595
# 5 0.007265 -0.013763 -0.004707 0.006484 0.045533 0.012222
# 6 0.005298 -0.018450 -0.005738 -0.001595 0.012222 0.052781
#
#
# Mechanical properties :
#
#
# Convention : Reuss Voigt Hill
#
# Bulk Modulus (GPa) = 26.12985 45.40302 35.76644
# Shear Modulus (GPa) = 21.06720 28.27200 24.66960
#
# Velocity S-wave (km/s) = 3.22473 3.73566 3.48956
# Velocity P-wave (km/s) = 5.17329 6.40453 5.82156
#
# Compressibility (1/GPa) = 0.03827040
#
# Stress axis : x y z
#
# Youngs Moduli (GPa) = 66.59212 32.57294 59.21294
#
# Poissons Ratio (x) = 0.33822 0.49919
# Poissons Ratio (y) = 0.69146 -0.39355
# Poissons Ratio (z) = 0.56140 -0.21649
#
# Static dielectric constant tensor:
#      x y z
#    x 4.144470 0.225470 -0.290290 
#    y 0.225470 3.379740 0.235630 
#    z -0.290290 0.235630 4.116250 
# 
# 
# High freq. dielectric constant tensor:
#      x y z
#    x 1.796410 0.018180 -0.011730 
#    y 0.018180 1.771400 0.019370 
#    z -0.011730 0.019370 1.802540 
# 
# From -- ./inp_files/72463.got.cif
#   From: 2010.06.25/outbox.cif.g09.slc.cpg/sg2_37_cif.got.tgz:72463.got - 2010.06.27 13:26:56.
