data_PCOD8002730
_publ_section_title
;
Structure prediction by ZEFSAII (Michael W. Deem and Ramdas Pophale) SiO2 
 PCOD8002730
Probable space group: P -1
;
_chemical_formula_sum "Si O2"
_cell_formula_units_Z 14
_cell_length_a 8.523858
_cell_length_b 25.427491
_cell_length_c 17.735087
_cell_angle_alpha 157.093823
_cell_angle_beta 149.410664
_cell_angle_gamma 28.570228
_cell_volume 687.176960
_symmetry_space_group_name_H-M "P -1"
_symmetry_group_IT_number 2
_symmetry_cell_setting 'triclinic'
loop_
_space_group_symop_operation_xyz
x,y,z
-x,-y,-z
loop_
_atom_site_type_symbol
_atom_site_label
_atom_site_fract_x
_atom_site_fract_y
_atom_site_fract_z
Si Si1 0.829299 0.800670 0.569099
Si Si2 0.293754 0.284132 0.299133
Si Si3 0.712836 0.049427 0.043934
Si Si4 0.315630 0.744586 0.941222
Si Si5 0.590609 0.144906 0.393810
Si Si6 0.376310 0.058356 0.608396
Si Si7 0.422433 0.521426 0.407837
O O1 0.621529 0.766480 0.503982
O O2 0.115963 0.849316 0.788683
O O3 0.032566 0.647809 0.404112
O O4 0.585029 0.928356 0.581383
O O5 0.514523 0.129677 0.143194
O O6 0.447488 0.254655 0.408344
O O7 0.320407 0.424464 0.456309
O O8 0.887665 0.326222 0.184742
O O9 0.450800 0.012305 0.835020
O O10 0.013912 0.889012 0.972579
O O11 0.536617 0.630972 0.816829
O O12 0.565290 0.792985 0.156669
O O13 0.981761 0.102796 0.514023
O O14 0.500000 0.000000 0.500000
O O15 0.500000 0.500000 0.500000
#
# Coordination Sequence:
#
# PCOD8002730 Si02
#       7
#     2   2   2   2   2   2   2
#     4  10  22  37  56  85 115 147 190 238 280 332
#     4  10  20  36  59  87 112 144 191 241 283 332
#     4   9  18  35  59  87 111 142 191 242 282 328
#     4  10  20  36  58  86 114 149 190 231 282 336
#     4  11  19  35  60  85 113 150 189 235 283 333
#     4  11  22  39  59  84 116 152 190 234 281 335
#     4  11  22  38  59  86 117 148 186 237 285 336
#
# _framework density 20.37321
#
# number of rings (size 3 to 8) (size 9 to 14) (size 15 to 20)
#    0.000    1.714    0.000    8.143    0.000    3.429 
#    0.000    5.000    0.000    3.429    0.000    0.000 
#    0.000    0.000    0.000    0.000    0.000    0.000 
#
# Total GULP energy -173525.104840 kJ/mol
# GULP energy per Si atom -12394.650346 kJ/mol
# Density = 2.032684 g / cm^3
# Si number density = 20.373210 Si / 1000 Ang^3
#
#
#
# Elastic Constant Matrix: (Units=GPa)
#
#
# Indices 1 2 3 4 5 6 
#
# 1 144.3740 39.3256 60.4007 -9.3788 0.5467 -13.8165
# 2 39.3256 63.0240 56.7629 -13.1778 9.9603 -12.7885
# 3 60.4007 56.7629 135.0241 -7.0808 -12.9143 -21.7843
# 4 -9.3788 -13.1778 -7.0808 34.0087 -10.4332 2.4720
# 5 0.5467 9.9603 -12.9143 -10.4332 25.2107 -1.2927
# 6 -13.8165 -12.7885 -21.7843 2.4720 -1.2927 39.8901
#
#
#
# Elastic Compliance Matrix: (Units=1/GPa)
#
#
# Indices 1 2 3 4 5 6 
#
# 1 0.008931 -0.002902 -0.002634 0.000721 -0.000063 0.000678
# 2 -0.002902 0.035556 -0.015207 0.003507 -0.020261 0.001215
# 3 -0.002634 -0.015207 0.017207 0.001488 0.015702 0.004026
# 4 0.000721 0.003507 0.001488 0.035566 0.014102 0.000440
# 5 -0.000063 -0.020261 0.015702 0.014102 0.061715 0.003183
# 6 0.000678 0.001215 0.004026 0.000440 0.003183 0.027968
#
#
# Mechanical properties :
#
#
# Convention : Reuss Voigt Hill
#
# Bulk Modulus (GPa) = 49.48728 72.82230 61.15479
# Shear Modulus (GPa) = 21.26175 32.21741 26.73958
#
# Velocity S-wave (km/s) = 3.23400 3.98095 3.62676
# Velocity P-wave (km/s) = 6.18774 7.54668 6.90074
#
# Compressibility (1/GPa) = 0.02020721
#
# Stress axis : x y z
#
# Youngs Moduli (GPa) = 111.97156 28.12453 58.11738
#
# Poissons Ratio (x) = 0.08162 0.15307
# Poissons Ratio (y) = 0.32495 0.88380
# Poissons Ratio (z) = 0.29492 0.42770
#
# Static dielectric constant tensor:
#      x y z
#    x 4.111660 -0.183660 0.215530 
#    y -0.183660 3.631210 0.092410 
#    z 0.215530 0.092410 4.144630 
# 
# 
# High freq. dielectric constant tensor:
#      x y z
#    x 1.816480 -0.017450 0.000150 
#    y -0.017450 1.774450 0.013170 
#    z 0.000150 0.013170 1.786400 
# 
# From -- ./inp_files/203729.got.cif
#   From: 2010.06.25/outbox.cif.g09.slc.cpg/sg2_102_cif.got.tgz:203729.got - 2010.06.27 13:26:56.
