data_PCOD8002701
_publ_section_title
;
Structure prediction by ZEFSAII (Michael W. Deem and Ramdas Pophale) SiO2 
 PCOD8002701
Probable space group: P -1
;
_chemical_formula_sum "Si O2"
_cell_formula_units_Z 14
_cell_length_a 14.137203
_cell_length_b 16.561110
_cell_length_c 22.671555
_cell_angle_alpha 19.291060
_cell_angle_beta 26.207314
_cell_angle_gamma 25.054749
_cell_volume 708.097012
_symmetry_space_group_name_H-M "P -1"
_symmetry_group_IT_number 2
_symmetry_cell_setting 'triclinic'
loop_
_space_group_symop_operation_xyz
x,y,z
-x,-y,-z
loop_
_atom_site_type_symbol
_atom_site_label
_atom_site_fract_x
_atom_site_fract_y
_atom_site_fract_z
Si Si1 0.098788 0.224248 0.668697
Si Si2 0.836686 0.279141 0.092537
Si Si3 0.963392 0.237534 0.184911
Si Si4 0.546510 0.578405 0.627873
Si Si5 0.259164 0.311130 0.768975
Si Si6 0.621903 0.272559 0.918742
Si Si7 0.345128 0.681795 0.377569
O O1 0.318773 0.221875 0.585057
O O2 0.000000 0.500000 0.500000
O O3 0.884103 0.219810 0.832140
O O4 0.191117 0.979166 0.740011
O O5 0.950049 0.209798 0.141314
O O6 0.579671 0.520843 0.070096
O O7 0.002381 0.364095 0.899766
O O8 0.729306 0.238960 0.344910
O O9 0.178208 0.992717 0.261584
O O10 0.000000 0.500000 0.000000
O O11 0.605288 0.380434 0.787144
O O12 0.623119 0.390715 0.658267
O O13 0.226555 0.508441 0.596516
O O14 0.403389 0.374807 0.696316
O O15 0.402609 0.008184 0.875161
#
# Coordination Sequence:
#
# PCOD8002701 Si02
#       7
#     2   2   2   2   2   2   2
#     4   9  18  33  55  84 109 139 179 220 270 317
#     4  10  20  36  58  81 111 142 178 225 268 317
#     4  11  22  35  57  86 110 139 179 223 271 318
#     4  10  21  35  57  84 108 139 182 224 266 316
#     4  10  22  37  55  79 107 147 182 215 272 325
#     4   9  19  36  58  81 107 141 180 222 267 318
#     4  11  22  37  55  78 113 144 177 224 267 319
#
# _framework density 19.771301999999999
#
# number of rings (size 3 to 8) (size 9 to 14) (size 15 to 20)
#    0.000    2.000    0.000    5.143    0.000    9.143 
#    0.000    6.429    0.000    5.143    0.000    0.000 
#    0.000    0.000    0.000    0.000    0.000    0.000 
#
# Total GULP energy -173594.312012 kJ/mol
# GULP energy per Si atom -12399.593715 kJ/mol
# Density = 1.972630 g / cm^3
# Si number density = 19.771302 Si / 1000 Ang^3
#
#
#
# Elastic Constant Matrix: (Units=GPa)
#
#
# Indices 1 2 3 4 5 6 
#
# 1 28.4572 38.2177 22.5694 -1.1987 -11.0206 7.0380
# 2 38.2177 144.4100 55.9688 2.0616 -5.1878 19.2212
# 3 22.5694 55.9688 103.2400 -3.4628 -9.8350 16.1722
# 4 -1.1987 2.0616 -3.4628 35.1052 -1.8128 -9.0645
# 5 -11.0206 -5.1878 -9.8350 -1.8128 31.3920 -2.3848
# 6 7.0380 19.2212 16.1722 -9.0645 -2.3848 19.3730
#
#
#
# Elastic Compliance Matrix: (Units=1/GPa)
#
#
# Indices 1 2 3 4 5 6 
#
# 1 0.067200 -0.015282 -0.004122 0.003344 0.019831 -0.001805
# 2 -0.015282 0.013023 -0.003217 -0.003671 -0.004965 -0.007013
# 3 -0.004122 -0.003217 0.013503 -0.000198 0.001750 -0.006460
# 4 0.003344 -0.003671 -0.000198 0.033885 0.003900 0.018927
# 5 0.019831 -0.004965 0.001750 0.003900 0.038989 0.002886
# 6 -0.001805 -0.007013 -0.006460 0.018927 0.002886 0.073835
#
#
# Mechanical properties :
#
#
# Convention : Reuss Voigt Hill
#
# Bulk Modulus (GPa) = 20.62503 56.62433 38.62468
# Shear Modulus (GPa) = 16.56509 27.79745 22.18127
#
# Velocity S-wave (km/s) = 2.89768 3.75367 3.35310
# Velocity P-wave (km/s) = 4.65294 6.89119 5.87956
#
# Compressibility (1/GPa) = 0.04848479
#
# Stress axis : x y z
#
# Youngs Moduli (GPa) = 14.88092 76.78528 74.05586
#
# Poissons Ratio (x) = 1.17342 0.30526
# Poissons Ratio (y) = 0.22741 0.23824
# Poissons Ratio (z) = 0.06134 0.24702
#
# Static dielectric constant tensor:
#      x y z
#    x 3.561400 -0.213480 -0.475100 
#    y -0.213480 3.893410 0.337080 
#    z -0.475100 0.337080 3.976980 
# 
# 
# High freq. dielectric constant tensor:
#      x y z
#    x 1.746830 0.001140 -0.022900 
#    y 0.001140 1.781270 0.005490 
#    z -0.022900 0.005490 1.777200 
# 
# From -- ./inp_files/260961.got.cif
#   From: 2010.06.25/outbox.cif.g09.slc.cpg/sg2_131_cif.got.tgz:260961.got - 2010.06.27 13:26:56.
