data_PCOD8002159
_publ_section_title
;
Structure prediction by ZEFSAII (Michael W. Deem and Ramdas Pophale) SiO2 
 PCOD8002159
Probable space group: P -1
;
_chemical_formula_sum "Si O2"
_cell_formula_units_Z 14
_cell_length_a 15.323602
_cell_length_b 9.865839
_cell_length_c 15.277466
_cell_angle_alpha 39.346813
_cell_angle_beta 146.742049
_cell_angle_gamma 138.063217
_cell_volume 771.029089
_symmetry_space_group_name_H-M "P -1"
_symmetry_group_IT_number 2
_symmetry_cell_setting 'triclinic'
loop_
_space_group_symop_operation_xyz
x,y,z
-x,-y,-z
loop_
_atom_site_type_symbol
_atom_site_label
_atom_site_fract_x
_atom_site_fract_y
_atom_site_fract_z
Si Si1 0.047998 0.774536 0.169306
Si Si2 0.503782 0.387340 0.152288
Si Si3 0.275365 0.440211 0.080485
Si Si4 0.851820 0.314825 0.510421
Si Si5 0.802551 0.423282 0.877798
Si Si6 0.697530 0.826932 0.605447
Si Si7 0.347908 0.876565 0.249648
O O1 0.085122 0.728519 0.321422
O O2 0.204578 0.755064 0.255704
O O3 0.889645 0.580346 0.103055
O O4 0.000000 0.000000 0.000000
O O5 0.428793 0.506527 0.107916
O O6 0.688806 0.400644 0.331209
O O7 0.386356 0.139209 0.164139
O O8 0.500000 0.500000 0.000000
O O9 0.272516 0.622897 0.062709
O O10 0.277190 0.212079 0.248985
O O11 0.000000 0.500000 0.500000
O O12 0.805303 0.074140 0.542864
O O13 0.751710 0.639021 0.688940
O O14 0.720441 0.198570 0.867626
O O15 0.000000 0.500000 0.000000
O O16 0.505174 0.791532 0.444316
#
# Coordination Sequence:
#
# PCOD8002159 Si02
#       7
#     2   2   2   2   2   2   2
#     4  12  19  33  59  88 117 149 195 243 286 339
#     4  11  23  38  58  85 119 154 194 242 293 343
#     4  10  20  35  56  85 117 143 196 236 283 338
#     4  11  23  36  58  87 118 154 193 241 295 344
#     4  10  20  35  57  88 113 151 191 242 287 343
#     4   9  20  36  55  84 116 145 195 238 287 342
#     4  11  20  35  60  84 113 154 193 240 287 343
#
# _framework density 18.157550000000001
#
# number of rings (size 3 to 8) (size 9 to 14) (size 15 to 20)
#    0.857    0.571    4.286    2.143    0.000    2.286 
#    0.000    0.714    0.000    0.857    0.000    0.000 
#    0.000    0.000    0.000    0.000    0.000    0.000 
#
# Total GULP energy -173458.471936 kJ/mol
# GULP energy per Si atom -12389.890853 kJ/mol
# Density = 1.811622 g / cm^3
# Si number density = 18.157550 Si / 1000 Ang^3
#
#
#
# Elastic Constant Matrix: (Units=GPa)
#
#
# Indices 1 2 3 4 5 6 
#
# 1 124.9510 42.1825 37.5241 8.7624 1.8665 4.1614
# 2 42.1825 53.5747 28.0243 21.7274 2.7646 7.1775
# 3 37.5241 28.0243 111.8998 18.5499 -2.6910 7.1850
# 4 8.7624 21.7274 18.5499 30.1171 3.4640 -2.3658
# 5 1.8665 2.7646 -2.6910 3.4640 32.2678 4.0407
# 6 4.1614 7.1775 7.1850 -2.3658 4.0407 28.1377
#
#
#
# Elastic Compliance Matrix: (Units=1/GPa)
#
#
# Indices 1 2 3 4 5 6 
#
# 1 0.011911 -0.010846 -0.002469 0.006164 -0.000913 0.002285
# 2 -0.010846 0.039616 -0.001348 -0.025552 0.001176 -0.010474
# 3 -0.002469 -0.001348 0.011300 -0.005755 0.002191 -0.002975
# 4 0.006164 -0.025552 -0.005755 0.055084 -0.006137 0.012589
# 5 -0.000913 0.001176 0.002191 -0.006137 0.032525 -0.005911
# 6 0.002285 -0.010474 -0.002975 0.012589 -0.005911 0.040540
#
#
# Mechanical properties :
#
#
# Convention : Reuss Voigt Hill
#
# Bulk Modulus (GPa) = 29.84885 56.20970 43.02927
# Shear Modulus (GPa) = 21.60134 30.28416 25.94275
#
# Velocity S-wave (km/s) = 3.45289 4.08837 3.78399
# Velocity P-wave (km/s) = 5.68956 7.30138 6.54528
#
# Compressibility (1/GPa) = 0.03350213
#
# Stress axis : x y z
#
# Youngs Moduli (GPa) = 83.95398 25.24257 88.49895
#
# Poissons Ratio (x) = 0.27378 0.21846
# Poissons Ratio (y) = 0.91057 0.11926
# Poissons Ratio (z) = 0.20724 0.03402
#
# Static dielectric constant tensor:
#      x y z
#    x 3.346380 -0.114400 0.137360 
#    y -0.114400 3.000310 0.391000 
#    z 0.137360 0.391000 3.336130 
# 
# 
# High freq. dielectric constant tensor:
#      x y z
#    x 1.699590 -0.003080 0.011040 
#    y -0.003080 1.677720 0.024150 
#    z 0.011040 0.024150 1.717350 
# 
# From -- ./inp_files/245181.got.cif
#   From: 2010.06.25/outbox.cif.g09.slc.cpg/sg2_123_cif.got.tgz:245181.got - 2010.06.27 13:26:56.
