data_PCOD8002726
_publ_section_title
;
Structure prediction by ZEFSAII (Michael W. Deem and Ramdas Pophale) SiO2 
 PCOD8002726
Probable space group: P -1
;
_chemical_formula_sum "Si O2"
_cell_formula_units_Z 16
_cell_length_a 8.597991
_cell_length_b 12.320313
_cell_length_c 15.411847
_cell_angle_alpha 124.641126
_cell_angle_beta 74.372194
_cell_angle_gamma 61.216628
_cell_volume 774.412943
_symmetry_space_group_name_H-M "P -1"
_symmetry_group_IT_number 2
_symmetry_cell_setting 'triclinic'
loop_
_space_group_symop_operation_xyz
x,y,z
-x,-y,-z
loop_
_atom_site_type_symbol
_atom_site_label
_atom_site_fract_x
_atom_site_fract_y
_atom_site_fract_z
Si Si1 0.707526 0.290205 0.257025
Si Si2 0.739190 0.006573 0.029765
Si Si3 0.105706 0.285972 0.647143
Si Si4 0.856794 0.994433 0.586463
Si Si5 0.347736 0.002975 0.637999
Si Si6 0.626752 0.781541 0.975898
Si Si7 0.319762 0.272241 0.862637
Si Si8 0.774355 0.211607 0.407973
O O1 0.627530 0.193905 0.195849
O O2 0.818969 0.227335 0.309916
O O3 0.452010 0.552161 0.403657
O O4 0.937795 0.193607 0.114415
O O5 0.623224 0.098052 0.991284
O O6 0.657213 0.918980 0.039815
O O7 0.103282 0.215656 0.709957
O O8 0.887213 0.542956 0.786566
O O9 0.056212 0.209067 0.546297
O O10 0.388236 0.175973 0.543027
O O11 0.524583 0.221635 0.744640
O O12 0.000000 0.000000 0.500000
O O13 0.956580 0.951331 0.649775
O O14 0.380103 0.078780 0.749143
O O15 0.303006 0.889705 0.631632
O O16 0.591104 0.749961 0.063769
O O17 0.000000 0.500000 0.000000
#
# Coordination Sequence:
#
# PCOD8002726 Si02
#       8
#     2   2   2   2   2   2   2   2
#     4  10  22  39  60  86 118 155 198 251 304 353
#     4  10  22  39  60  86 118 155 198 251 304 353
#     4  10  20  36  58  85 120 161 202 242 294 362
#     4  11  23  39  60  89 125 160 201 249 298 358
#     4  10  20  36  58  85 120 161 202 242 294 362
#     4  11  21  38  62  87 117 158 203 247 297 355
#     4  11  23  39  60  89 125 160 201 249 298 358
#     4  11  21  38  62  87 117 158 203 247 297 355
#
# _framework density 20.660810000000001
#
# number of rings (size 3 to 8) (size 9 to 14) (size 15 to 20)
#    0.000    1.500    2.500    3.000    0.000    1.000 
#    0.000    3.750    0.000   12.000    0.000    0.000 
#    0.000    0.000    0.000    0.000    0.000    0.000 
#
# Total GULP energy -198327.177866 kJ/mol
# GULP energy per Si atom -12395.448617 kJ/mol
# Density = 2.061378 g / cm^3
# Si number density = 20.660810 Si / 1000 Ang^3
#
#
#
# Elastic Constant Matrix: (Units=GPa)
#
#
# Indices 1 2 3 4 5 6 
#
# 1 88.6648 15.1234 35.1096 5.5199 3.0827 -11.7924
# 2 15.1234 59.2486 17.5039 1.4800 -5.1577 -13.7072
# 3 35.1096 17.5039 95.2711 12.3873 -4.2919 -7.1681
# 4 5.5199 1.4800 12.3873 30.3857 -1.4784 10.7270
# 5 3.0827 -5.1577 -4.2919 -1.4784 35.2440 -4.0274
# 6 -11.7924 -13.7072 -7.1681 10.7270 -4.0274 19.1787
#
#
#
# Elastic Compliance Matrix: (Units=1/GPa)
#
#
# Indices 1 2 3 4 5 6 
#
# 1 0.014488 -0.000293 -0.004054 -0.004333 -0.000910 0.009416
# 2 -0.000293 0.022874 -0.001255 -0.007759 0.005312 0.021154
# 3 -0.004054 -0.001255 0.013650 -0.006764 0.002231 0.005963
# 4 -0.004333 -0.007759 -0.006764 0.050746 -0.004018 -0.039965
# 5 -0.000910 0.005312 0.002231 -0.004018 0.030795 0.012785
# 6 0.009416 0.021154 0.005963 -0.039965 0.012785 0.100317
#
#
# Mechanical properties :
#
#
# Convention : Reuss Voigt Hill
#
# Bulk Modulus (GPa) = 25.12117 42.07314 33.59715
# Shear Modulus (GPa) = 19.42945 28.65818 24.04381
#
# Velocity S-wave (km/s) = 3.06992 3.72839 3.41506
# Velocity P-wave (km/s) = 4.97505 6.24039 5.64330
#
# Compressibility (1/GPa) = 0.03980706
#
# Stress axis : x y z
#
# Youngs Moduli (GPa) = 69.02494 43.71810 73.26221
#
# Poissons Ratio (x) = 0.01280 0.29703
# Poissons Ratio (y) = 0.02021 0.09194
# Poissons Ratio (z) = 0.27985 0.05486
#
# Static dielectric constant tensor:
#      x y z
#    x 3.796210 -0.139010 0.125420 
#    y -0.139010 3.582270 0.004870 
#    z 0.125420 0.004870 3.780610 
# 
# 
# High freq. dielectric constant tensor:
#      x y z
#    x 1.814390 -0.010780 0.012820 
#    y -0.010780 1.792400 -0.002770 
#    z 0.012820 -0.002770 1.811420 
# 
# From -- ./inp_files/177771.got.cif
#   From: 2010.06.25/outbox.cif.g09.slc.cpg/sg2_89_cif.got.tgz:177771.got - 2010.06.27 13:26:56.
