data_PCOD8002122
_publ_section_title
;
Structure prediction by ZEFSAII (Michael W. Deem and Ramdas Pophale) SiO2 
 PCOD8002122
Probable space group: P -1
;
_chemical_formula_sum "Si O2"
_cell_formula_units_Z 14
_cell_length_a 5.297880
_cell_length_b 9.341496
_cell_length_c 12.998468
_cell_angle_alpha 88.738422
_cell_angle_beta 88.948682
_cell_angle_gamma 78.534871
_cell_volume 630.242481
_symmetry_space_group_name_H-M "P -1"
_symmetry_group_IT_number 2
_symmetry_cell_setting 'triclinic'
loop_
_space_group_symop_operation_xyz
x,y,z
-x,-y,-z
loop_
_atom_site_type_symbol
_atom_site_label
_atom_site_fract_x
_atom_site_fract_y
_atom_site_fract_z
Si Si1 0.239110 0.991403 0.215205
Si Si2 0.919226 0.247943 0.016584
Si Si3 0.551268 0.304859 0.695000
Si Si4 0.736850 0.990401 0.088744
Si Si5 0.885558 0.677394 0.780765
Si Si6 0.390700 0.536249 0.114653
Si Si7 0.978974 0.552776 0.383732
O O1 0.329881 0.868759 0.303396
O O2 0.468337 0.965656 0.131998
O O3 0.967710 0.968519 0.171327
O O4 0.208381 0.155379 0.258547
O O5 0.923901 0.336941 0.121781
O O6 0.185917 0.131180 0.000081
O O7 0.698864 0.151352 0.035288
O O8 0.876375 0.352472 0.915296
O O9 0.469165 0.369795 0.809467
O O10 0.772662 0.380693 0.645418
O O11 0.291212 0.332515 0.628929
O O12 0.645828 0.608346 0.822668
O O13 0.030666 0.586534 0.686644
O O14 0.500000 0.500000 0.000000
O O15 0.000000 0.500000 0.500000
#
# Coordination Sequence:
#
# PCOD8002122 Si02
#       7
#     2   2   2   2   2   2   2
#     4  11  22  41  61  93 131 164 212 255 311 371
#     4  10  20  35  55  91 130 175 216 244 304 366
#     4  11  24  42  69  95 124 168 210 255 323 382
#     4  10  22  35  58  88 133 178 205 252 294 370
#     4  10  24  38  63  93 130 168 217 263 313 367
#     4  11  21  34  57  95 132 175 211 255 301 377
#     4  11  25  49  70  93 122 162 211 272 327 377
#
# _framework density 22.213674999999999
#
# number of rings (size 3 to 8) (size 9 to 14) (size 15 to 20)
#    0.000    1.429    1.429    3.429    4.000    8.571 
#    0.000    1.429    0.000    0.000    0.000    0.000 
#    0.000    0.000    0.000    0.000    0.000    0.000 
#
# Total GULP energy -173452.196895 kJ/mol
# GULP energy per Si atom -12389.442635 kJ/mol
# Density = 2.216312 g / cm^3
# Si number density = 22.213675 Si / 1000 Ang^3
#
#
#
# Elastic Constant Matrix: (Units=GPa)
#
#
# Indices 1 2 3 4 5 6 
#
# 1 100.8279 18.5725 26.8446 -12.3269 9.4920 -6.8576
# 2 18.5725 124.1628 44.8134 -15.4706 5.6924 -4.7393
# 3 26.8446 44.8134 94.5761 -10.5787 7.0211 -7.0561
# 4 -12.3269 -15.4706 -10.5787 25.8621 -3.5591 3.9554
# 5 9.4920 5.6924 7.0211 -3.5591 29.1807 -8.9425
# 6 -6.8576 -4.7393 -7.0561 3.9554 -8.9425 19.0834
#
#
#
# Elastic Compliance Matrix: (Units=1/GPa)
#
#
# Indices 1 2 3 4 5 6 
#
# 1 0.011366 -0.000192 -0.002449 0.003797 -0.002206 0.001311
# 2 -0.000192 0.010162 -0.004272 0.004210 -0.000441 -0.000204
# 3 -0.002449 -0.004272 0.013689 0.001395 -0.000731 0.002489
# 4 0.003797 0.004210 0.001395 0.044618 0.001299 -0.005713
# 5 -0.002206 -0.000441 -0.000731 0.001299 0.040828 0.017691
# 6 0.001311 -0.000204 0.002489 -0.005713 0.017691 0.063216
#
#
# Mechanical properties :
#
#
# Convention : Reuss Voigt Hill
#
# Bulk Modulus (GPa) = 46.74924 55.55864 51.15394
# Shear Modulus (GPa) = 24.40984 30.11433 27.26209
#
# Velocity S-wave (km/s) = 3.31851 3.68593 3.50704
# Velocity P-wave (km/s) = 5.98116 6.57116 6.28309
#
# Compressibility (1/GPa) = 0.02139072
#
# Stress axis : x y z
#
# Youngs Moduli (GPa) = 87.97950 98.41047 73.05234
#
# Poissons Ratio (x) = 0.01890 0.17890
# Poissons Ratio (y) = 0.01690 0.31207
# Poissons Ratio (z) = 0.21546 0.42040
#
# Static dielectric constant tensor:
#      x y z
#    x 3.914690 -0.112810 0.090130 
#    y -0.112810 4.696980 -0.164430 
#    z 0.090130 -0.164430 3.734450 
# 
# 
# High freq. dielectric constant tensor:
#      x y z
#    x 1.877160 -0.004810 0.006910 
#    y -0.004810 1.896260 -0.008170 
#    z 0.006910 -0.008170 1.829340 
# 
# From -- ./inp_files/27853.got.cif
#   From: 2010.06.25/outbox.cif.g09.slc.cpg/sg2_14_cif.got.tgz:27853.got - 2010.06.27 13:26:56.
