data_PCOD8002106
_publ_section_title
;
Structure prediction by ZEFSAII (Michael W. Deem and Ramdas Pophale) SiO2 
 PCOD8002106
Probable space group: P -1
;
_chemical_formula_sum "Si O2"
_cell_formula_units_Z 16
_cell_length_a 12.801844
_cell_length_b 11.727013
_cell_length_c 11.488133
_cell_angle_alpha 31.983451
_cell_angle_beta 80.953760
_cell_angle_gamma 84.333103
_cell_volume 900.179961
_symmetry_space_group_name_H-M "P -1"
_symmetry_group_IT_number 2
_symmetry_cell_setting 'triclinic'
loop_
_space_group_symop_operation_xyz
x,y,z
-x,-y,-z
loop_
_atom_site_type_symbol
_atom_site_label
_atom_site_fract_x
_atom_site_fract_y
_atom_site_fract_z
Si Si1 0.604518 0.623413 0.919474
Si Si2 0.392841 0.656036 0.486161
Si Si3 0.936961 0.704522 0.861589
Si Si4 0.763600 0.395538 0.235790
Si Si5 0.484620 0.926372 0.829643
Si Si6 0.866749 0.013260 0.416704
Si Si7 0.599429 0.440580 0.688938
Si Si8 0.323875 0.175928 0.503584
O O1 0.576717 0.792937 0.875581
O O2 0.661802 0.750219 0.695119
O O3 0.500000 0.500000 0.000000
O O4 0.675234 0.442234 0.115737
O O5 0.289487 0.654691 0.586392
O O6 0.476314 0.495667 0.661245
O O7 0.354091 0.583433 0.427473
O O8 0.454749 0.890025 0.262290
O O9 0.020376 0.888609 0.740972
O O10 0.885204 0.797651 0.673460
O O11 0.843454 0.612623 0.044695
O O12 0.000000 0.500000 0.000000
O O13 0.820008 0.186236 0.363438
O O14 0.416121 0.023525 0.654423
O O15 0.401408 0.784216 0.046904
O O16 0.791235 0.955335 0.368519
O O17 0.675154 0.621801 0.583770
#
# Coordination Sequence:
#
# PCOD8002106 Si02
#       8
#     2   2   2   2   2   2   2   2
#     4  12  19  31  48  78 115 140 168 212 264 318
#     4  10  21  35  52  73 105 147 192 217 243 311
#     4   9  20  36  55  80 108 135 169 221 277 319
#     4  11  20  34  54  79 108 144 173 219 266 306
#     4  11  20  34  49  76 107 149 180 216 256 304
#     4  10  20  35  55  83 107 133 177 217 272 332
#     4  10  21  36  49  73 109 148 185 218 253 296
#     4  11  21  32  52  78 108 141 176 215 269 323
#
# _framework density 17.774222999999999
#
# number of rings (size 3 to 8) (size 9 to 14) (size 15 to 20)
#    0.000    1.500    3.750    3.000    0.000    0.000 
#    0.000    0.000    0.000    0.750    0.000    8.750 
#    0.000    0.000    0.000    0.000    0.000    0.000 
#
# Total GULP energy -198354.055262 kJ/mol
# GULP energy per Si atom -12397.128454 kJ/mol
# Density = 1.773377 g / cm^3
# Si number density = 17.774223 Si / 1000 Ang^3
#
#
#
# Elastic Constant Matrix: (Units=GPa)
#
#
# Indices 1 2 3 4 5 6 
#
# 1 89.8876 37.0054 31.6412 -0.2819 -16.5309 7.5519
# 2 37.0054 84.4651 39.9014 4.8261 -10.3009 10.2338
# 3 31.6412 39.9014 91.3691 -4.6840 -2.7675 1.8766
# 4 -0.2819 4.8261 -4.6840 22.2606 -1.9210 0.0014
# 5 -16.5309 -10.3009 -2.7675 -1.9210 36.6770 -8.8055
# 6 7.5519 10.2338 1.8766 0.0014 -8.8055 19.8849
#
#
#
# Elastic Compliance Matrix: (Units=1/GPa)
#
#
# Indices 1 2 3 4 5 6 
#
# 1 0.015062 -0.004493 -0.003031 0.000971 0.005147 -0.000843
# 2 -0.004493 0.018038 -0.006434 -0.005262 0.000679 -0.006669
# 3 -0.003031 -0.006434 0.014941 0.004396 -0.001212 0.002516
# 4 0.000971 -0.005262 0.004396 0.047215 0.002491 0.003024
# 5 0.005147 0.000679 -0.001212 0.002491 0.032773 0.012323
# 6 -0.000843 -0.006669 0.002516 0.003024 0.012323 0.059261
#
#
# Mechanical properties :
#
#
# Convention : Reuss Voigt Hill
#
# Bulk Modulus (GPa) = 49.68668 53.64644 51.66656
# Shear Modulus (GPa) = 22.53126 26.24276 24.38701
#
# Velocity S-wave (km/s) = 3.56425 3.84663 3.70813
# Velocity P-wave (km/s) = 6.70474 7.06940 6.88948
#
# Compressibility (1/GPa) = 0.02012612
#
# Stress axis : x y z
#
# Youngs Moduli (GPa) = 66.39283 55.43730 66.93021
#
# Poissons Ratio (x) = 0.24906 0.20286
# Poissons Ratio (y) = 0.29828 0.43062
# Poissons Ratio (z) = 0.20123 0.35668
#
# Static dielectric constant tensor:
#      x y z
#    x 3.307450 0.126320 -0.172820 
#    y 0.126320 3.064410 -0.200930 
#    z -0.172820 -0.200930 3.673350 
# 
# 
# High freq. dielectric constant tensor:
#      x y z
#    x 1.679460 0.006850 -0.002730 
#    y 0.006850 1.654400 -0.015490 
#    z -0.002730 -0.015490 1.707640 
# 
# From -- ./inp_files/69881.got.cif
#   From: 2010.06.25/outbox.cif.g09.slc.cpg/sg2_35_cif.got.tgz:69881.got - 2010.06.27 13:26:56.
