data_PCOD8002468
_publ_section_title
;
Structure prediction by ZEFSAII (Michael W. Deem and Ramdas Pophale) SiO2 
 PCOD8002468
Probable space group: P -1
;
_chemical_formula_sum "Si O2"
_cell_formula_units_Z 16
_cell_length_a 19.311080
_cell_length_b 21.141092
_cell_length_c 9.706611
_cell_angle_alpha 144.540552
_cell_angle_beta 147.884044
_cell_angle_gamma 19.796755
_cell_volume 710.106466
_symmetry_space_group_name_H-M "P -1"
_symmetry_group_IT_number 2
_symmetry_cell_setting 'triclinic'
loop_
_space_group_symop_operation_xyz
x,y,z
-x,-y,-z
loop_
_atom_site_type_symbol
_atom_site_label
_atom_site_fract_x
_atom_site_fract_y
_atom_site_fract_z
Si Si1 0.647886 0.530809 0.255702
Si Si2 0.706875 0.706153 0.003490
Si Si3 0.203054 0.336085 0.224972
Si Si4 0.548128 0.012228 0.450669
Si Si5 0.563894 0.285884 0.295759
Si Si6 0.128981 0.045501 0.980761
Si Si7 0.709728 0.424951 0.873285
Si Si8 0.825355 0.183705 0.944043
O O1 0.800281 0.532271 0.524235
O O2 0.791029 0.331378 0.203371
O O3 0.588347 0.546624 0.024477
O O4 0.418920 0.706452 0.267962
O O5 0.940920 0.483625 0.034190
O O6 0.689427 0.823390 0.278508
O O7 0.681650 0.765331 0.908710
O O8 0.509645 0.753313 0.785028
O O9 0.328857 0.188735 0.301118
O O10 0.500000 0.000000 0.500000
O O11 0.690957 0.026291 0.736123
O O12 0.769623 0.098771 0.221938
O O13 0.626461 0.358245 0.593268
O O14 0.355676 0.446565 0.127363
O O15 0.982287 0.243460 0.016683
O O16 0.935210 0.107879 0.842981
O O17 0.000000 0.000000 0.000000
#
# Coordination Sequence:
#
# PCOD8002468 Si02
#       8
#     2   2   2   2   2   2   2   2
#     4  10  22  40  67  94 129 171 218 275 325 390
#     4  11  26  44  70  97 133 182 222 276 344 392
#     4  11  26  47  68  98 137 174 229 281 331 406
#     4  12  25  45  71  98 133 175 226 283 337 394
#     4  11  23  41  65  95 134 174 214 272 333 397
#     4  11  23  42  64  98 129 168 223 273 331 396
#     4  10  23  41  64  95 136 167 220 274 326 397
#     4  10  20  35  62  93 126 163 207 260 327 384
#
# _framework density 22.531831
#
# number of rings (size 3 to 8) (size 9 to 14) (size 15 to 20)
#    0.000    1.250    1.250    4.500    7.000    0.500 
#    0.000    0.000    0.000    0.000    0.000    0.000 
#    0.000    0.000    0.000    0.000    0.000    0.000 
#
# Total GULP energy -198311.699511 kJ/mol
# GULP energy per Si atom -12394.481219 kJ/mol
# Density = 2.248055 g / cm^3
# Si number density = 22.531831 Si / 1000 Ang^3
#
#
#
# Elastic Constant Matrix: (Units=GPa)
#
#
# Indices 1 2 3 4 5 6 
#
# 1 101.1047 47.7953 32.7499 3.2330 -19.6776 -3.0362
# 2 47.7953 112.7932 5.8490 -4.9240 -18.5318 2.5556
# 3 32.7499 5.8490 77.3763 13.0179 -15.3006 -16.8370
# 4 3.2330 -4.9240 13.0179 32.2079 2.4118 -11.1420
# 5 -19.6776 -18.5318 -15.3006 2.4118 37.0888 -3.7015
# 6 -3.0362 2.5556 -16.8370 -11.1420 -3.7015 46.5894
#
#
#
# Elastic Compliance Matrix: (Units=1/GPa)
#
#
# Indices 1 2 3 4 5 6 
#
# 1 0.014781 -0.005529 -0.005289 -0.000601 0.002880 -0.000560
# 2 -0.005529 0.011768 0.002035 0.001375 0.003732 0.000355
# 3 -0.005289 0.002035 0.018398 -0.005199 0.006685 0.005480
# 4 -0.000601 0.001375 -0.005199 0.035862 -0.003479 0.006307
# 5 0.002880 0.003732 0.006685 -0.003479 0.033763 0.004249
# 6 -0.000560 0.000355 0.005480 0.006307 0.004249 0.025235
#
#
# Mechanical properties :
#
#
# Convention : Reuss Voigt Hill
#
# Bulk Modulus (GPa) = 36.52428 51.56251 44.04340
# Shear Modulus (GPa) = 30.02963 36.83591 33.43277
#
# Velocity S-wave (km/s) = 3.65467 4.04770 3.85619
# Velocity P-wave (km/s) = 5.83558 6.69172 6.27826
#
# Compressibility (1/GPa) = 0.02737905
#
# Stress axis : x y z
#
# Youngs Moduli (GPa) = 67.65478 84.97312 54.35395
#
# Poissons Ratio (x) = 0.46984 0.28750
# Poissons Ratio (y) = 0.37408 -0.11058
# Poissons Ratio (z) = 0.35785 -0.17288
#
# Static dielectric constant tensor:
#      x y z
#    x 2.451030 -0.765230 0.804360 
#    y -0.765230 3.894620 0.372380 
#    z 0.804360 0.372380 3.496480 
# 
# 
# High freq. dielectric constant tensor:
#      x y z
#    x 1.887790 -0.001290 -0.009180 
#    y -0.001290 1.898020 0.002700 
#    z -0.009180 0.002700 1.881510 
# 
# From -- ./inp_files/338223.got.cif
#   From: 2010.06.25/outbox.cif.g09.slc.cpg/sg2_170_cif.got.tgz:338223.got - 2010.06.27 13:26:56.
