data_PCOD8002070
_publ_section_title
;
Structure prediction by ZEFSAII (Michael W. Deem and Ramdas Pophale) SiO2 
 PCOD8002070
Probable space group: P -1
;
_chemical_formula_sum "Si O2"
_cell_formula_units_Z 16
_cell_length_a 14.338850
_cell_length_b 23.715947
_cell_length_c 21.055488
_cell_angle_alpha 168.727082
_cell_angle_beta 34.655967
_cell_angle_gamma 145.759725
_cell_volume 782.969361
_symmetry_space_group_name_H-M "P -1"
_symmetry_group_IT_number 2
_symmetry_cell_setting 'triclinic'
loop_
_space_group_symop_operation_xyz
x,y,z
-x,-y,-z
loop_
_atom_site_type_symbol
_atom_site_label
_atom_site_fract_x
_atom_site_fract_y
_atom_site_fract_z
Si Si1 0.283465 0.520505 0.476844
Si Si2 0.345039 0.366309 0.896326
Si Si3 0.364762 0.388600 0.660329
Si Si4 0.911871 0.952049 0.842318
Si Si5 0.009440 0.243243 0.662992
Si Si6 0.904521 0.763394 0.838365
Si Si7 0.678332 0.950063 0.562731
Si Si8 0.875590 0.191627 0.544904
O O1 0.481446 0.631565 0.495390
O O2 0.215248 0.285707 0.309488
O O3 0.268591 0.368555 0.245975
O O4 0.185076 0.787660 0.833802
O O5 0.413716 0.198644 0.613097
O O6 0.216272 0.142943 0.764107
O O7 0.500000 0.500000 0.000000
O O8 0.254933 0.621877 0.203034
O O9 0.201831 0.200618 0.509028
O O10 0.390579 0.239764 0.548300
O O11 0.354278 0.723581 0.049716
O O12 0.968435 0.801815 0.582249
O O13 0.085671 0.079922 0.925001
O O14 0.878299 0.960766 0.450241
O O15 0.953697 0.327242 0.717058
O O16 0.000000 0.500000 0.000000
O O17 0.000000 0.500000 0.500000
O O18 0.000000 0.000000 0.000000
#
# Coordination Sequence:
#
# PCOD8002070 Si02
#       8
#     2   2   2   2   2   2   2   2
#     4  10  20  35  54  82 113 145 193 240 273 327
#     4  11  23  39  58  88 120 147 186 238 288 348
#     4  11  21  36  60  86 112 149 192 246 293 324
#     4  10  20  37  54  78 115 153 189 229 275 343
#     4   9  20  39  61  84 112 149 195 241 288 348
#     4   8  16  30  50  70  99 141 181 221 268 316
#     4  10  21  37  57  85 115 146 188 239 292 352
#     4  11  23  39  61  85 116 160 192 226 291 352
#
# _framework density 20.435027999999999
#
# number of rings (size 3 to 8) (size 9 to 14) (size 15 to 20)
#    0.000    2.000    0.000    4.500    0.000    5.000 
#    0.000    3.750    0.000    0.000    0.000    0.000 
#    0.000    0.000    0.000    0.000    0.000    0.000 
#
# Total GULP energy -198248.620770 kJ/mol
# GULP energy per Si atom -12390.538798 kJ/mol
# Density = 2.038852 g / cm^3
# Si number density = 20.435028 Si / 1000 Ang^3
#
#
#
# Elastic Constant Matrix: (Units=GPa)
#
#
# Indices 1 2 3 4 5 6 
#
# 1 113.5252 51.4102 35.9267 -0.9613 7.3101 2.3412
# 2 51.4102 100.2491 20.8055 -2.1798 -2.8735 -2.9061
# 3 35.9267 20.8055 77.0315 6.8779 -7.5735 -10.5927
# 4 -0.9613 -2.1798 6.8779 32.8658 -4.1577 -7.5851
# 5 7.3101 -2.8735 -7.5735 -4.1577 42.5710 1.6992
# 6 2.3412 -2.9061 -10.5927 -7.5851 1.6992 34.2913
#
#
#
# Elastic Compliance Matrix: (Units=1/GPa)
#
#
# Indices 1 2 3 4 5 6 
#
# 1 0.013543 -0.006001 -0.005452 0.000008 -0.003583 -0.002938
# 2 -0.006001 0.013291 -0.000510 0.001424 0.001912 0.001599
# 3 -0.005452 -0.000510 0.016871 -0.002153 0.003498 0.004891
# 4 0.000008 0.001424 -0.002153 0.032828 0.002655 0.006585
# 5 -0.003583 0.001912 0.003498 0.002655 0.025083 0.000832
# 6 -0.002938 0.001599 0.004891 0.006585 0.000832 0.032424
#
#
# Mechanical properties :
#
#
# Convention : Reuss Voigt Hill
#
# Bulk Modulus (GPa) = 50.56286 56.34337 53.45311
# Shear Modulus (GPa) = 30.38407 34.12318 32.25363
#
# Velocity S-wave (km/s) = 3.86017 4.09080 3.97716
# Velocity P-wave (km/s) = 6.68317 7.06715 6.87784
#
# Compressibility (1/GPa) = 0.01977736
#
# Stress axis : x y z
#
# Youngs Moduli (GPa) = 73.83756 75.24021 59.27296
#
# Poissons Ratio (x) = 0.45155 0.32318
# Poissons Ratio (y) = 0.44313 0.03023
# Poissons Ratio (z) = 0.40260 0.03837
#
# Static dielectric constant tensor:
#      x y z
#    x 4.233610 0.292230 0.084320 
#    y 0.292230 3.667450 0.108210 
#    z 0.084320 0.108210 3.695370 
# 
# 
# High freq. dielectric constant tensor:
#      x y z
#    x 1.802110 -0.003750 -0.006870 
#    y -0.003750 1.789350 0.019680 
#    z -0.006870 0.019680 1.796650 
# 
# From -- ./inp_files/612445.got.cif
#   From: 2010.06.25/outbox.cif.g09.slc.cpg/sg2_307_cif.got.tgz:612445.got - 2010.06.27 13:26:56.
