data_PCOD8002668
_publ_section_title
;
Structure prediction by ZEFSAII (Michael W. Deem and Ramdas Pophale) SiO2 
 PCOD8002668
Probable space group: P -1
;
_chemical_formula_sum "Si O2"
_cell_formula_units_Z 16
_cell_length_a 16.018105
_cell_length_b 11.419990
_cell_length_c 14.742167
_cell_angle_alpha 133.540617
_cell_angle_beta 150.499425
_cell_angle_gamma 66.446432
_cell_volume 797.422860
_symmetry_space_group_name_H-M "P -1"
_symmetry_group_IT_number 2
_symmetry_cell_setting 'triclinic'
loop_
_space_group_symop_operation_xyz
x,y,z
-x,-y,-z
loop_
_atom_site_type_symbol
_atom_site_label
_atom_site_fract_x
_atom_site_fract_y
_atom_site_fract_z
Si Si1 0.358099 0.429098 0.715106
Si Si2 0.876817 0.611371 0.693318
Si Si3 0.318813 0.783859 0.189800
Si Si4 0.470740 0.580899 0.606484
Si Si5 0.558587 0.258468 0.906521
Si Si6 0.495225 0.963099 0.832456
Si Si7 0.286831 0.408229 0.995103
Si Si8 0.175309 0.794512 0.589737
O O1 0.181497 0.318682 0.414351
O O2 0.370658 0.264570 0.691452
O O3 0.574564 0.584396 0.952449
O O4 0.309710 0.550390 0.803084
O O5 0.739842 0.594156 0.639657
O O6 0.831216 0.400868 0.518204
O O7 0.114932 0.767561 0.021144
O O8 0.303018 0.734768 0.041399
O O9 0.337264 0.624607 0.175754
O O10 0.500000 0.000000 0.500000
O O11 0.500000 0.500000 0.500000
O O12 0.451948 0.756640 0.653665
O O13 0.658441 0.656061 0.894563
O O14 0.473189 0.059891 0.773861
O O15 0.323752 0.936231 0.725796
O O16 0.724000 0.096638 0.162046
O O17 0.050040 0.250785 0.661506
#
# Coordination Sequence:
#
# PCOD8002668 Si02
#       8
#     2   2   2   2   2   2   2   2
#     4   9  18  37  59  84 114 147 184 239 297 326
#     4   9  18  40  62  81 115 151 189 233 296 336
#     4  10  22  39  60  82 113 160 191 231 281 343
#     4  10  22  39  60  84 115 157 191 235 281 339
#     4  10  20  36  57  86 115 146 189 241 272 346
#     4  10  20  36  58  85 118 146 194 237 279 349
#     4   9  20  39  58  82 118 149 189 236 295 337
#     4   9  18  36  60  85 112 152 183 238 303 328
#
# _framework density 20.064637000000001
#
# number of rings (size 3 to 8) (size 9 to 14) (size 15 to 20)
#    0.000    2.500    1.250    0.000    3.500    1.000 
#    6.750    7.500    0.000    0.000    0.000    0.000 
#    0.000    0.000    0.000    0.000    0.000    0.000 
#
# Total GULP energy -198370.092931 kJ/mol
# GULP energy per Si atom -12398.130808 kJ/mol
# Density = 2.001897 g / cm^3
# Si number density = 20.064637 Si / 1000 Ang^3
#
#
#
# Elastic Constant Matrix: (Units=GPa)
#
#
# Indices 1 2 3 4 5 6 
#
# 1 107.6983 39.6378 39.2565 -9.6974 -9.9713 -0.7437
# 2 39.6378 102.7254 25.5732 -6.0702 0.9850 25.5430
# 3 39.2565 25.5732 102.6711 -9.1214 13.8343 -6.4357
# 4 -9.6974 -6.0702 -9.1214 25.2076 -5.3895 1.2916
# 5 -9.9713 0.9850 13.8343 -5.3895 23.0226 -1.7692
# 6 -0.7437 25.5430 -6.4357 1.2916 -1.7692 35.0848
#
#
#
# Elastic Compliance Matrix: (Units=1/GPa)
#
#
# Indices 1 2 3 4 5 6 
#
# 1 0.014427 -0.004953 -0.005126 0.004659 0.010889 0.003349
# 2 -0.004953 0.015210 -0.002252 0.001098 -0.002088 -0.011737
# 3 -0.005126 -0.002252 0.013864 0.000151 -0.010146 0.003557
# 4 0.004659 0.001098 0.000151 0.044469 0.012160 -0.001697
# 5 0.010889 -0.002088 -0.010146 0.012160 0.057364 0.002335
# 6 0.003349 -0.011737 0.003557 -0.001697 0.002335 0.037951
#
#
# Mechanical properties :
#
#
# Convention : Reuss Voigt Hill
#
# Bulk Modulus (GPa) = 53.07759 58.00332 55.54046
# Shear Modulus (GPa) = 23.33997 30.57147 26.95572
#
# Velocity S-wave (km/s) = 3.41433 3.90763 3.66928
# Velocity P-wave (km/s) = 6.48493 7.02356 6.75961
#
# Compressibility (1/GPa) = 0.01884034
#
# Stress axis : x y z
#
# Youngs Moduli (GPa) = 69.31339 65.74837 72.12868
#
# Poissons Ratio (x) = 0.32562 0.36974
# Poissons Ratio (y) = 0.34328 0.16241
# Poissons Ratio (z) = 0.35530 0.14804
#
# Static dielectric constant tensor:
#      x y z
#    x 3.685300 0.039490 0.149650 
#    y 0.039490 3.774680 -0.175710 
#    z 0.149650 -0.175710 3.404220 
# 
# 
# High freq. dielectric constant tensor:
#      x y z
#    x 1.776770 0.004860 0.002940 
#    y 0.004860 1.792280 -0.009190 
#    z 0.002940 -0.009190 1.753300 
# 
# From -- ./inp_files/416615.got.cif
#   From: 2010.06.25/outbox.cif.g09.slc.cpg/sg2_209_cif.got.tgz:416615.got - 2010.06.27 13:26:56.
