data_PCOD8002033
_publ_section_title
;
Structure prediction by ZEFSAII (Michael W. Deem and Ramdas Pophale) SiO2 
 PCOD8002033
Probable space group: P -1
;
_chemical_formula_sum "Si O2"
_cell_formula_units_Z 14
_cell_length_a 13.471432
_cell_length_b 19.902786
_cell_length_c 5.134767
_cell_angle_alpha 73.794439
_cell_angle_beta 74.896720
_cell_angle_gamma 33.637391
_cell_volume 731.286574
_symmetry_space_group_name_H-M "P -1"
_symmetry_group_IT_number 2
_symmetry_cell_setting 'triclinic'
loop_
_space_group_symop_operation_xyz
x,y,z
-x,-y,-z
loop_
_atom_site_type_symbol
_atom_site_label
_atom_site_fract_x
_atom_site_fract_y
_atom_site_fract_z
Si Si1 0.133879 0.766302 0.021527
Si Si2 0.291372 0.609220 0.583146
Si Si3 0.195912 0.420039 0.410869
Si Si4 0.545343 0.151883 0.435508
Si Si5 0.738971 0.022700 0.949907
Si Si6 0.315238 0.804717 0.996786
Si Si7 0.301236 0.445144 0.815437
O O1 0.180097 0.691769 0.314154
O O2 0.244863 0.684300 0.778054
O O3 0.173753 0.824401 0.001203
O O4 0.922619 0.876875 0.988758
O O5 0.500000 0.500000 0.500000
O O6 0.237521 0.560682 0.748251
O O7 0.330152 0.277923 0.471796
O O8 0.249180 0.443675 0.574423
O O9 0.000000 0.500000 0.500000
O O10 0.200772 0.457336 0.092815
O O11 0.606723 0.073976 0.222224
O O12 0.616034 0.193150 0.312726
O O13 0.633193 0.064020 0.714528
O O14 0.777501 0.085141 0.872493
O O15 0.484222 0.676257 0.167507
#
# Coordination Sequence:
#
# PCOD8002033 Si02
#       7
#     2   2   2   2   2   2   2
#     4  12  24  35  55  82 113 164 211 217 261 350
#     4  12  26  38  56  80 119 170 200 222 268 331
#     4  11  21  38  64  92 111 141 187 244 313 353
#     4   9  19  33  53  81 115 141 171 239 315 316
#     4  10  20  35  52  82 114 154 189 239 284 324
#     4   9  21  32  57  77 118 148 190 233 289 315
#     4  11  22  39  58  84 125 148 186 238 289 342
#
# _framework density 19.144341000000001
#
# number of rings (size 3 to 8) (size 9 to 14) (size 15 to 20)
#    0.857    0.571    2.857    3.000    6.000    0.571 
#    0.000    0.000    0.000    0.000    0.000   20.000 
#    0.000    0.000    0.000    0.000    0.000    0.000 
#
# Total GULP energy -173555.155734 kJ/mol
# GULP energy per Si atom -12396.796838 kJ/mol
# Density = 1.910077 g / cm^3
# Si number density = 19.144341 Si / 1000 Ang^3
#
#
#
# Elastic Constant Matrix: (Units=GPa)
#
#
# Indices 1 2 3 4 5 6 
#
# 1 24.5279 14.4037 6.8559 0.1328 0.6498 -12.0581
# 2 14.4037 97.1860 39.1870 -9.6076 -1.8294 -15.0410
# 3 6.8559 39.1870 107.3718 -8.1937 16.2642 -3.2650
# 4 0.1328 -9.6076 -8.1937 32.8471 0.9076 8.0823
# 5 0.6498 -1.8294 16.2642 0.9076 22.9019 2.5588
# 6 -12.0581 -15.0410 -3.2650 8.0823 2.5588 25.6258
#
#
#
# Elastic Compliance Matrix: (Units=1/GPa)
#
#
# Indices 1 2 3 4 5 6 
#
# 1 0.057362 -0.004745 -0.001167 -0.008476 -0.003872 0.027118
# 2 -0.004745 0.014021 -0.005226 0.001617 0.004412 0.004380
# 3 -0.001167 -0.005226 0.012847 0.002381 -0.009402 -0.001792
# 4 -0.008476 0.001617 0.002381 0.034933 -0.001182 -0.013636
# 5 -0.003872 0.004412 -0.009402 -0.001182 0.051431 -0.005193
# 6 0.027118 0.004380 -0.001792 -0.013636 -0.005193 0.058946
#
#
# Mechanical properties :
#
#
# Convention : Reuss Voigt Hill
#
# Bulk Modulus (GPa) = 16.14085 38.88654 27.51370
# Shear Modulus (GPa) = 18.35092 27.51757 22.93424
#
# Velocity S-wave (km/s) = 3.09941 3.79538 3.46492
# Velocity P-wave (km/s) = 4.61063 6.28991 5.51457
#
# Compressibility (1/GPa) = 0.06195462
#
# Stress axis : x y z
#
# Youngs Moduli (GPa) = 17.43300 71.32258 77.84173
#
# Poissons Ratio (x) = 0.33843 0.09081
# Poissons Ratio (y) = 0.08272 0.40679
# Poissons Ratio (z) = 0.02034 0.37273
#
# Static dielectric constant tensor:
#      x y z
#    x 3.047750 -0.039190 0.107950 
#    y -0.039190 3.581200 0.001250 
#    z 0.107950 0.001250 3.575930 
# 
# 
# High freq. dielectric constant tensor:
#      x y z
#    x 1.693100 -0.008250 0.015140 
#    y -0.008250 1.751500 0.000280 
#    z 0.015140 0.000280 1.758740 
# 
# From -- ./inp_files/80460.got.cif
#   From: 2010.06.25/outbox.cif.g09.slc.cpg/sg2_41_cif.got.tgz:80460.got - 2010.06.27 13:26:56.
