data_PCOD8002461
_publ_section_title
;
Structure prediction by ZEFSAII (Michael W. Deem and Ramdas Pophale) SiO2 
 PCOD8002461
Probable space group: P -1
;
_chemical_formula_sum "Si O2"
_cell_formula_units_Z 14
_cell_length_a 8.740968
_cell_length_b 9.382277
_cell_length_c 12.337880
_cell_angle_alpha 120.568135
_cell_angle_beta 49.829134
_cell_angle_gamma 101.201517
_cell_volume 651.803488
_symmetry_space_group_name_H-M "P -1"
_symmetry_group_IT_number 2
_symmetry_cell_setting 'triclinic'
loop_
_space_group_symop_operation_xyz
x,y,z
-x,-y,-z
loop_
_atom_site_type_symbol
_atom_site_label
_atom_site_fract_x
_atom_site_fract_y
_atom_site_fract_z
Si Si1 0.115911 0.909477 0.624628
Si Si2 0.191362 0.889532 0.812292
Si Si3 0.326363 0.428632 0.853365
Si Si4 0.542717 0.089104 0.685727
Si Si5 0.994045 0.714860 0.200288
Si Si6 0.834481 0.798722 0.541795
Si Si7 0.506875 0.400156 0.346919
O O1 0.123257 0.815296 0.701154
O O2 0.343353 0.926301 0.488972
O O3 0.017731 0.799571 0.541319
O O4 0.978732 0.098335 0.773672
O O5 0.286143 0.743639 0.796397
O O6 0.353000 0.997920 0.740117
O O7 0.000000 0.000000 0.000000
O O8 0.457302 0.289916 0.822251
O O9 0.171500 0.340662 0.823336
O O10 0.481520 0.485800 0.718959
O O11 0.210581 0.585430 0.038180
O O12 0.712760 0.994432 0.657082
O O13 0.922727 0.713592 0.356493
O O14 0.687589 0.684310 0.613808
O O15 0.500000 0.500000 0.500000
#
# Coordination Sequence:
#
# PCOD8002461 Si02
#       7
#     2   2   2   2   2   2   2
#     4  11  21  42  64  89 122 165 208 248 300 366
#     4  11  23  38  63  93 120 159 209 251 297 361
#     4  11  21  36  63  94 121 153 207 257 299 346
#     4  10  21  39  64  93 115 164 214 243 288 374
#     4  10  20  35  62  91 120 155 202 254 305 348
#     4  10  23  41  64  87 124 165 204 249 305 365
#     4  11  22  39  61  91 123 161 203 253 302 363
#
# _framework density 21.478866
#
# number of rings (size 3 to 8) (size 9 to 14) (size 15 to 20)
#    0.000    1.429    2.857    3.857    4.000    0.000 
#    0.000   13.571    0.000    0.000    0.000    0.000 
#    0.000    0.000    0.000    0.000    0.000    0.000 
#
# Total GULP energy -173558.508089 kJ/mol
# GULP energy per Si atom -12397.036292 kJ/mol
# Density = 2.142998 g / cm^3
# Si number density = 21.478866 Si / 1000 Ang^3
#
#
#
# Elastic Constant Matrix: (Units=GPa)
#
#
# Indices 1 2 3 4 5 6 
#
# 1 69.1342 11.4862 29.3410 -9.9751 0.5732 6.2742
# 2 11.4862 76.0541 8.4886 6.8378 -9.2995 -2.0959
# 3 29.3410 8.4886 92.3473 8.1403 -19.2493 6.7379
# 4 -9.9751 6.8378 8.1403 32.1352 -3.4599 0.0190
# 5 0.5732 -9.2995 -19.2493 -3.4599 22.1203 2.1475
# 6 6.2742 -2.0959 6.7379 0.0190 2.1475 21.2206
#
#
#
# Elastic Compliance Matrix: (Units=1/GPa)
#
#
# Indices 1 2 3 4 5 6 
#
# 1 0.020096 -0.003891 -0.008137 0.008305 -0.007649 -0.002976
# 2 -0.003891 0.014808 0.001569 -0.004011 0.006927 0.001417
# 3 -0.008137 0.001569 0.017323 -0.005575 0.015510 -0.004504
# 4 0.008305 -0.004011 -0.005575 0.035850 -0.001048 -0.001008
# 5 -0.007649 0.006927 0.015510 -0.001048 0.062457 -0.008299
# 6 -0.002976 0.001417 -0.004504 -0.001008 -0.008299 0.050415
#
#
# Mechanical properties :
#
#
# Convention : Reuss Voigt Hill
#
# Bulk Modulus (GPa) = 31.93935 37.35190 34.64563
# Shear Modulus (GPa) = 21.52370 27.64321 24.58345
#
# Velocity S-wave (km/s) = 3.16901 3.59136 3.38678
# Velocity P-wave (km/s) = 5.31908 5.88430 5.60881
#
# Compressibility (1/GPa) = 0.03130934
#
# Stress axis : x y z
#
# Youngs Moduli (GPa) = 49.76055 67.53257 57.72715
#
# Poissons Ratio (x) = 0.26276 0.46972
# Poissons Ratio (y) = 0.19361 -0.09058
# Poissons Ratio (z) = 0.40490 -0.10596
#
# Static dielectric constant tensor:
#      x y z
#    x 3.750240 -0.184210 -0.262380 
#    y -0.184210 4.155810 0.097510 
#    z -0.262380 0.097510 3.953910 
# 
# 
# High freq. dielectric constant tensor:
#      x y z
#    x 1.822060 -0.006640 -0.016310 
#    y -0.006640 1.844670 0.002880 
#    z -0.016310 0.002880 1.843190 
# 
# From -- ./inp_files/157523.got.cif
#   From: 2010.06.25/outbox.cif.g09.slc.cpg/sg2_79_cif.got.tgz:157523.got - 2010.06.27 13:26:56.
