data_PCOD8002846
_publ_section_title
;
Structure prediction by ZEFSAII (Michael W. Deem and Ramdas Pophale) SiO2 
 PCOD8002846
Probable space group: P -1
;
_chemical_formula_sum "Si O2"
_cell_formula_units_Z 16
_cell_length_a 19.355862
_cell_length_b 8.628089
_cell_length_c 10.869653
_cell_angle_alpha 53.279477
_cell_angle_beta 37.254763
_cell_angle_gamma 43.163216
_cell_volume 751.072527
_symmetry_space_group_name_H-M "P -1"
_symmetry_group_IT_number 2
_symmetry_cell_setting 'triclinic'
loop_
_space_group_symop_operation_xyz
x,y,z
-x,-y,-z
loop_
_atom_site_type_symbol
_atom_site_label
_atom_site_fract_x
_atom_site_fract_y
_atom_site_fract_z
Si Si1 0.352926 0.420306 0.204412
Si Si2 0.667347 0.817941 0.207655
Si Si3 0.650059 0.163051 0.875084
Si Si4 0.925426 0.441140 0.531374
Si Si5 0.888851 0.836403 0.261879
Si Si6 0.627053 0.951023 0.476469
Si Si7 0.885040 0.026447 0.439351
Si Si8 0.073733 0.622012 0.890737
O O1 0.324470 0.663400 0.169243
O O2 0.232525 0.461787 0.263703
O O3 0.361428 0.279769 0.381226
O O4 0.494741 0.280469 0.998409
O O5 0.662954 0.929312 0.292214
O O6 0.785044 0.556508 0.162255
O O7 0.523480 0.839506 0.383076
O O8 0.696057 0.946311 0.999044
O O9 0.738738 0.087036 0.662023
O O10 0.926746 0.573576 0.345293
O O11 0.000000 0.500000 0.500000
O O12 0.004517 0.168857 0.533865
O O13 0.732315 0.997570 0.372938
O O14 0.912491 0.933411 0.305837
O O15 0.984842 0.817463 0.024204
O O16 0.900242 0.245592 0.318318
O O17 0.000000 0.500000 0.000000
#
# Coordination Sequence:
#
# PCOD8002846 Si02
#       8
#     2   2   2   2   2   2   2   2
#     4   9  19  36  60  89 123 152 201 251 292 355
#     4  10  20  36  59  90 118 151 202 246 285 356
#     4  10  21  36  59  92 119 155 199 248 305 347
#     4   9  20  38  61  88 120 160 191 242 304 353
#     4  10  21  42  61  85 121 156 195 246 304 353
#     4   9  18  37  62  85 117 156 194 244 299 342
#     4  11  24  40  59  88 124 157 198 247 301 363
#     4  12  24  38  59  88 115 158 203 244 295 353
#
# _framework density 21.302868
#
# number of rings (size 3 to 8) (size 9 to 14) (size 15 to 20)
#    0.000    2.000    1.250    1.875    3.500    1.500 
#    0.000   13.125    0.000    0.000    0.000    0.000 
#    0.000    0.000    0.000    0.000    0.000    0.000 
#
# Total GULP energy -198302.898788 kJ/mol
# GULP energy per Si atom -12393.931174 kJ/mol
# Density = 2.125438 g / cm^3
# Si number density = 21.302868 Si / 1000 Ang^3
#
#
#
# Elastic Constant Matrix: (Units=GPa)
#
#
# Indices 1 2 3 4 5 6 
#
# 1 70.5896 25.5519 38.5019 10.8820 -20.0864 -15.9251
# 2 25.5519 101.7158 50.6464 2.1824 -16.2417 -20.4505
# 3 38.5019 50.6464 138.5715 10.0479 -8.3553 -10.4827
# 4 10.8820 2.1824 10.0479 33.6381 -4.9196 -3.2803
# 5 -20.0864 -16.2417 -8.3553 -4.9196 36.6583 12.8324
# 6 -15.9251 -20.4505 -10.4827 -3.2803 12.8324 28.7802
#
#
#
# Elastic Compliance Matrix: (Units=1/GPa)
#
#
# Indices 1 2 3 4 5 6 
#
# 1 0.020811 -0.000595 -0.004407 -0.003706 0.007660 0.005650
# 2 -0.000595 0.013947 -0.004364 0.001659 0.002628 0.007009
# 3 -0.004407 -0.004364 0.009948 -0.001659 -0.001856 -0.001277
# 4 -0.003706 0.001659 -0.001659 0.031748 0.002176 0.001172
# 5 0.007660 0.002628 -0.001856 0.002176 0.036167 -0.010448
# 6 0.005650 0.007009 -0.001277 0.001172 -0.010448 0.047180
#
#
# Mechanical properties :
#
#
# Convention : Reuss Voigt Hill
#
# Bulk Modulus (GPa) = 38.49994 60.03082 49.26538
# Shear Modulus (GPa) = 26.71103 32.89377 29.80240
#
# Velocity S-wave (km/s) = 3.54484 3.93377 3.74436
# Velocity P-wave (km/s) = 5.90478 6.99096 6.47070
#
# Compressibility (1/GPa) = 0.02597407
#
# Stress axis : x y z
#
# Youngs Moduli (GPa) = 48.05150 71.70117 100.52765
#
# Poissons Ratio (x) = 0.04267 0.44300
# Poissons Ratio (y) = 0.02860 0.43867
# Poissons Ratio (z) = 0.21175 0.31288
#
# Static dielectric constant tensor:
#      x y z
#    x 3.581540 -0.484490 -0.174650 
#    y -0.484490 4.099390 -0.039530 
#    z -0.174650 -0.039530 4.124930 
# 
# 
# High freq. dielectric constant tensor:
#      x y z
#    x 1.810400 -0.026930 -0.012990 
#    y -0.026930 1.829490 -0.001170 
#    z -0.012990 -0.001170 1.850240 
# 
# From -- ./inp_files/222746.got.cif
#   From: 2010.06.25/outbox.cif.g09.slc.cpg/sg2_112_cif.got.tgz:222746.got - 2010.06.27 13:26:56.
