data_PCOD8002196
_publ_section_title
;
Structure prediction by ZEFSAII (Michael W. Deem and Ramdas Pophale) SiO2 
 PCOD8002196
Probable space group: P -1
;
_chemical_formula_sum "Si O2"
_cell_formula_units_Z 14
_cell_length_a 26.718524
_cell_length_b 8.816753
_cell_length_c 11.813157
_cell_angle_alpha 143.983480
_cell_angle_beta 150.933448
_cell_angle_gamma 32.729576
_cell_volume 701.724637
_symmetry_space_group_name_H-M "P -1"
_symmetry_group_IT_number 2
_symmetry_cell_setting 'triclinic'
loop_
_space_group_symop_operation_xyz
x,y,z
-x,-y,-z
loop_
_atom_site_type_symbol
_atom_site_label
_atom_site_fract_x
_atom_site_fract_y
_atom_site_fract_z
Si Si1 0.134860 0.833630 0.669502
Si Si2 0.739370 0.789512 0.092482
Si Si3 0.745440 0.777962 0.842262
Si Si4 0.649940 0.141164 0.665503
Si Si5 0.140634 0.804554 0.417354
Si Si6 0.468378 0.173470 0.156833
Si Si7 0.864578 0.207444 0.109741
O O1 0.179251 0.659503 0.532962
O O2 0.172677 0.646623 0.748007
O O3 0.000000 0.000000 0.500000
O O4 0.162788 0.101774 0.894684
O O5 0.835601 0.460031 0.113990
O O6 0.801135 0.986730 0.359661
O O7 0.695426 0.795983 0.880553
O O8 0.624786 0.896190 0.005891
O O9 0.809912 0.443278 0.728361
O O10 0.647034 0.977027 0.676755
O O11 0.586481 0.050926 0.389417
O O12 0.581097 0.486097 0.761503
O O13 0.782750 0.050818 0.832304
O O14 0.000562 0.977493 0.231118
O O15 0.500000 0.000000 0.000000
#
# Coordination Sequence:
#
# PCOD8002196 Si02
#       7
#     2   2   2   2   2   2   2
#     4   8  17  33  52  77 110 146 188 227 257 312
#     4  10  22  37  54  83 117 146 186 235 275 326
#     4  10  21  36  54  85 119 147 182 225 280 335
#     4   9  21  39  59  84 112 141 187 239 272 321
#     4  10  20  35  57  84 118 156 182 215 281 341
#     4  10  22  42  64  81 103 144 192 235 284 331
#     4   9  18  36  58  82 116 151 186 231 271 319
#
# _framework density 19.950845000000001
#
# number of rings (size 3 to 8) (size 9 to 14) (size 15 to 20)
#    0.000    2.571    0.000    0.429    0.000   14.286 
#    0.000    8.571    0.000    0.000    0.000    0.000 
#    0.000    0.000    0.000    0.000    0.000    0.000 
#
# Total GULP energy -173464.453172 kJ/mol
# GULP energy per Si atom -12390.318084 kJ/mol
# Density = 1.990544 g / cm^3
# Si number density = 19.950845 Si / 1000 Ang^3
#
#
#
# Elastic Constant Matrix: (Units=GPa)
#
#
# Indices 1 2 3 4 5 6 
#
# 1 135.8176 60.6000 57.8069 -5.9180 -16.5038 6.4175
# 2 60.6000 74.3441 49.9532 -13.8711 -6.5096 8.2971
# 3 57.8069 49.9532 114.1980 -20.0338 -17.0846 -9.0629
# 4 -5.9180 -13.8711 -20.0338 32.3213 -4.3206 -3.0783
# 5 -16.5038 -6.5096 -17.0846 -4.3206 27.7954 -2.6689
# 6 6.4175 8.2971 -9.0629 -3.0783 -2.6689 35.1539
#
#
#
# Elastic Compliance Matrix: (Units=1/GPa)
#
#
# Indices 1 2 3 4 5 6 
#
# 1 0.012703 -0.008647 -0.002696 -0.002700 0.003349 -0.000955
# 2 -0.008647 0.026887 -0.007748 0.004033 -0.003615 -0.006686
# 3 -0.002696 -0.007748 0.017085 0.008786 0.009238 0.008196
# 4 -0.002700 0.004033 0.008786 0.039748 0.011512 0.006161
# 5 0.003349 -0.003615 0.009238 0.011512 0.045266 0.007068
# 6 -0.000955 -0.006686 0.008196 0.006161 0.007068 0.033388
#
#
# Mechanical properties :
#
#
# Convention : Reuss Voigt Hill
#
# Bulk Modulus (GPa) = 54.07474 73.45330 63.76402
# Shear Modulus (GPa) = 22.78702 29.45411 26.12057
#
# Velocity S-wave (km/s) = 3.38325 3.84648 3.62228
# Velocity P-wave (km/s) = 6.51342 7.52491 7.03736
#
# Compressibility (1/GPa) = 0.01849292
#
# Stress axis : x y z
#
# Youngs Moduli (GPa) = 78.72231 37.19205 58.53128
#
# Poissons Ratio (x) = 0.32158 0.15782
# Poissons Ratio (y) = 0.68068 0.45351
# Poissons Ratio (z) = 0.21227 0.28817
#
# Static dielectric constant tensor:
#      x y z
#    x 4.717820 0.594640 -1.199350 
#    y 0.594640 3.485250 -0.710400 
#    z -1.199350 -0.710400 5.226310 
# 
# 
# High freq. dielectric constant tensor:
#      x y z
#    x 1.782300 0.016930 -0.002530 
#    y 0.016930 1.758060 -0.018220 
#    z -0.002530 -0.018220 1.789390 
# 
# From -- ./inp_files/43119.got.cif
#   From: 2010.06.25/outbox.cif.g09.slc.cpg/sg2_22_cif.got.tgz:43119.got - 2010.06.27 13:26:56.
