data_PCOD8002387
_publ_section_title
;
Structure prediction by ZEFSAII (Michael W. Deem and Ramdas Pophale) SiO2 
 PCOD8002387
Probable space group: P -1
;
_chemical_formula_sum "Si O2"
_cell_formula_units_Z 16
_cell_length_a 14.015593
_cell_length_b 11.048053
_cell_length_c 13.524663
_cell_angle_alpha 30.376245
_cell_angle_beta 126.425964
_cell_angle_gamma 137.072249
_cell_volume 716.875607
_symmetry_space_group_name_H-M "P -1"
_symmetry_group_IT_number 2
_symmetry_cell_setting 'triclinic'
loop_
_space_group_symop_operation_xyz
x,y,z
-x,-y,-z
loop_
_atom_site_type_symbol
_atom_site_label
_atom_site_fract_x
_atom_site_fract_y
_atom_site_fract_z
Si Si1 0.760148 0.626241 0.954017
Si Si2 0.097164 0.467974 0.210033
Si Si3 0.410635 0.898001 0.355675
Si Si4 0.607348 0.875107 0.621005
Si Si5 0.915950 0.026067 0.093899
Si Si6 0.788026 0.219942 0.130026
Si Si7 0.224158 0.287539 0.577076
Si Si8 0.347666 0.333861 0.936904
O O1 0.718949 0.783496 0.735435
O O2 0.727664 0.323114 0.107201
O O3 0.656541 0.565899 0.024960
O O4 0.922802 0.845932 0.927796
O O5 0.141823 0.295556 0.425979
O O6 0.937666 0.267037 0.217474
O O7 0.198209 0.592344 0.088714
O O8 0.113213 0.724063 0.104036
O O9 0.572363 0.991485 0.418372
O O10 0.338739 0.596633 0.469859
O O11 0.336357 0.893812 0.417559
O O12 0.401599 0.116662 0.123453
O O13 0.454755 0.600241 0.750004
O O14 0.890636 0.893321 0.281149
O O15 0.808477 0.796929 0.110783
O O16 0.698275 0.880933 0.288109
#
# Coordination Sequence:
#
# PCOD8002387 Si02
#       8
#     2   2   2   2   2   2   2   2
#     4  10  21  38  58  86 125 149 186 246 294 340
#     4   9  18  36  58  82 120 155 195 232 283 354
#     4  10  20  36  62  84 108 154 203 233 277 344
#     4  10  22  41  61  81 118 159 197 234 285 355
#     4  10  20  35  60  93 116 146 192 246 293 336
#     4   9  20  35  55  86 117 158 187 235 295 339
#     4  11  19  35  62  88 114 154 196 238 283 350
#     4  11  20  40  63  83 113 159 196 235 291 350
#
# _framework density 22.319075000000002
#
# number of rings (size 3 to 8) (size 9 to 14) (size 15 to 20)
#    0.000    2.000    2.500    3.000    0.000    0.000 
#    0.000   18.125    0.000    3.750    0.000    0.000 
#    0.000    0.000    0.000    0.000    0.000    0.000 
#
# Total GULP energy -198255.188198 kJ/mol
# GULP energy per Si atom -12390.949262 kJ/mol
# Density = 2.226828 g / cm^3
# Si number density = 22.319075 Si / 1000 Ang^3
#
#
#
# Elastic Constant Matrix: (Units=GPa)
#
#
# Indices 1 2 3 4 5 6 
#
# 1 55.9454 21.6242 30.4507 -4.5016 24.9639 -8.5646
# 2 21.6242 89.7721 32.8566 -2.0501 18.0457 -12.4628
# 3 30.4507 32.8566 117.7359 11.8207 22.0509 -13.8830
# 4 -4.5016 -2.0501 11.8207 45.6364 -4.9267 10.0427
# 5 24.9639 18.0457 22.0509 -4.9267 29.8383 -1.6854
# 6 -8.5646 -12.4628 -13.8830 10.0427 -1.6854 26.5077
#
#
#
# Elastic Compliance Matrix: (Units=1/GPa)
#
#
# Indices 1 2 3 4 5 6 
#
# 1 0.030978 -0.000923 -0.002581 -0.000326 -0.023117 0.006877
# 2 -0.000923 0.013974 -0.001802 -0.000819 -0.006186 0.005245
# 3 -0.002581 -0.001802 0.012156 -0.005571 -0.006293 0.006396
# 4 -0.000326 -0.000819 -0.005571 0.027106 0.008619 -0.013129
# 5 -0.023117 -0.006186 -0.006293 0.008619 0.061936 -0.013001
# 6 0.006877 0.005245 0.006396 -0.013129 -0.013001 0.049910
#
#
# Mechanical properties :
#
#
# Convention : Reuss Voigt Hill
#
# Bulk Modulus (GPa) = 21.50698 48.14625 34.82662
# Shear Modulus (GPa) = 22.50519 32.29794 27.40157
#
# Velocity S-wave (km/s) = 3.17888 3.80820 3.50768
# Velocity P-wave (km/s) = 4.80945 6.39962 5.66065
#
# Compressibility (1/GPa) = 0.04649652
#
# Stress axis : x y z
#
# Youngs Moduli (GPa) = 32.28083 71.56083 82.26303
#
# Poissons Ratio (x) = 0.06606 0.21233
# Poissons Ratio (y) = 0.02980 0.14821
# Poissons Ratio (z) = 0.08332 0.12893
#
# Static dielectric constant tensor:
#      x y z
#    x 3.562200 -0.193270 0.278220 
#    y -0.193270 4.153860 0.057260 
#    z 0.278220 0.057260 4.262330 
# 
# 
# High freq. dielectric constant tensor:
#      x y z
#    x 1.834210 -0.017070 0.022210 
#    y -0.017070 1.883150 0.003270 
#    z 0.022210 0.003270 1.895600 
# 
# From -- ./inp_files/531530.got.cif
#   From: 2010.06.25/outbox.cif.g09.slc.cpg/sg2_266_cif.got.tgz:531530.got - 2010.06.27 13:26:56.
