data_PCOD8002741
_publ_section_title
;
Structure prediction by ZEFSAII (Michael W. Deem and Ramdas Pophale) SiO2 
 PCOD8002741
Probable space group: P -1
;
_chemical_formula_sum "Si O2"
_cell_formula_units_Z 16
_cell_length_a 7.013433
_cell_length_b 16.659752
_cell_length_c 8.268293
_cell_angle_alpha 112.519464
_cell_angle_beta 54.066477
_cell_angle_gamma 96.576995
_cell_volume 714.701972
_symmetry_space_group_name_H-M "P -1"
_symmetry_group_IT_number 2
_symmetry_cell_setting 'triclinic'
loop_
_space_group_symop_operation_xyz
x,y,z
-x,-y,-z
loop_
_atom_site_type_symbol
_atom_site_label
_atom_site_fract_x
_atom_site_fract_y
_atom_site_fract_z
Si Si1 0.945109 0.676507 0.005758
Si Si2 0.530026 0.594489 0.121134
Si Si3 0.466634 0.827506 0.773721
Si Si4 0.157217 0.852590 0.496305
Si Si5 0.331385 0.141374 0.616699
Si Si6 0.640855 0.269586 0.961047
Si Si7 0.187789 0.706671 0.601324
Si Si8 0.036756 0.973501 0.147180
O O1 0.799341 0.595606 0.054917
O O2 0.763941 0.764194 0.193001
O O3 0.180457 0.673247 0.994123
O O4 0.001737 0.669732 0.781320
O O5 0.502301 0.667177 0.048458
O O6 0.343676 0.621879 0.377608
O O7 0.500000 0.500000 0.000000
O O8 0.676764 0.856385 0.577949
O O9 0.340769 0.764869 0.673997
O O10 0.540712 0.767836 0.850689
O O11 0.287777 0.911689 0.989966
O O12 0.396209 0.881653 0.478088
O O13 0.204563 0.817870 0.262837
O O14 0.063297 0.772056 0.575837
O O15 0.957495 0.938730 0.679209
O O16 0.178592 0.072298 0.712590
O O17 0.000000 0.000000 0.000000
#
# Coordination Sequence:
#
# PCOD8002741 Si02
#       8
#     2   2   2   2   2   2   2   2
#     4  11  20  41  68  86 127 173 197 253 327 369
#     4  11  24  44  69  97 124 155 208 264 311 388
#     4  10  20  36  58  86 125 167 209 255 305 372
#     4  10  20  36  59  91 127 165 216 261 296 367
#     4  11  19  37  62  87 119 176 209 246 319 359
#     4  10  22  43  62  93 127 161 213 255 312 385
#     4   9  18  39  62  88 126 162 206 247 313 379
#     4  12  20  34  62  93 127 168 217 265 301 349
#
# _framework density 22.386952999999998
#
# number of rings (size 3 to 8) (size 9 to 14) (size 15 to 20)
#    0.000    1.500    8.750    0.375    0.000    1.500 
#    4.500    3.125    0.000    0.000    0.000    0.000 
#    0.000    0.000    0.000    0.000    0.000    0.000 
#
# Total GULP energy -198272.493612 kJ/mol
# GULP energy per Si atom -12392.030851 kJ/mol
# Density = 2.233600 g / cm^3
# Si number density = 22.386953 Si / 1000 Ang^3
#
#
#
# Elastic Constant Matrix: (Units=GPa)
#
#
# Indices 1 2 3 4 5 6 
#
# 1 25.6114 11.2099 17.3007 -11.7082 4.4292 8.6527
# 2 11.2099 69.4211 56.5823 -3.5799 1.8899 14.1428
# 3 17.3007 56.5823 158.7087 -20.2257 1.2222 9.1975
# 4 -11.7082 -3.5799 -20.2257 34.9243 -4.8448 9.7211
# 5 4.4292 1.8899 1.2222 -4.8448 28.8869 -2.3572
# 6 8.6527 14.1428 9.1975 9.7211 -2.3572 29.4250
#
#
#
# Elastic Compliance Matrix: (Units=1/GPa)
#
#
# Indices 1 2 3 4 5 6 
#
# 1 0.063214 -0.002380 -0.001043 0.026732 -0.007174 -0.026525
# 2 -0.002380 0.022328 -0.007363 -0.000883 -0.001550 -0.007563
# 3 -0.001043 -0.007363 0.009690 0.004839 0.000986 -0.000703
# 4 0.026732 -0.000883 0.004839 0.047350 0.001700 -0.024456
# 5 -0.007174 -0.001550 0.000986 0.001700 0.036463 0.004905
# 6 -0.026525 -0.007563 -0.000703 -0.024456 0.004905 0.054112
#
#
# Mechanical properties :
#
#
# Convention : Reuss Voigt Hill
#
# Bulk Modulus (GPa) = 13.57609 47.10301 30.33955
# Shear Modulus (GPa) = 17.90310 29.89045 23.89677
#
# Velocity S-wave (km/s) = 2.83098 3.65797 3.27072
# Velocity P-wave (km/s) = 4.09432 6.23915 5.27686
#
# Compressibility (1/GPa) = 0.07365891
#
# Stress axis : x y z
#
# Youngs Moduli (GPa) = 15.81930 44.78704 103.20415
#
# Poissons Ratio (x) = 0.10657 0.10769
# Poissons Ratio (y) = 0.03764 0.75991
# Poissons Ratio (z) = 0.01651 0.32978
#
# Static dielectric constant tensor:
#      x y z
#    x 3.877690 0.155650 0.114280 
#    y 0.155650 4.138720 -0.457180 
#    z 0.114280 -0.457180 4.723390 
# 
# 
# High freq. dielectric constant tensor:
#      x y z
#    x 1.861360 0.008840 0.009440 
#    y 0.008840 1.860680 -0.015920 
#    z 0.009440 -0.015920 1.903330 
# 
# From -- ./inp_files/208168.got.cif
#   From: 2010.06.25/outbox.cif.g09.slc.cpg/sg2_105_cif.got.tgz:208168.got - 2010.06.27 13:26:56.
