data_PCOD8002202
_publ_section_title
;
Structure prediction by ZEFSAII (Michael W. Deem and Ramdas Pophale) SiO2 
 PCOD8002202
Probable space group: P -1
;
_chemical_formula_sum "Si O2"
_cell_formula_units_Z 16
_cell_length_a 17.334479
_cell_length_b 12.295399
_cell_length_c 16.229375
_cell_angle_alpha 137.271999
_cell_angle_beta 24.694992
_cell_angle_gamma 145.710046
_cell_volume 812.270414
_symmetry_space_group_name_H-M "P -1"
_symmetry_group_IT_number 2
_symmetry_cell_setting 'triclinic'
loop_
_space_group_symop_operation_xyz
x,y,z
-x,-y,-z
loop_
_atom_site_type_symbol
_atom_site_label
_atom_site_fract_x
_atom_site_fract_y
_atom_site_fract_z
Si Si1 0.046808 0.041684 0.861277
Si Si2 0.242065 0.897980 0.713817
Si Si3 0.687153 0.587488 0.435464
Si Si4 0.345521 0.488910 0.838711
Si Si5 0.802119 0.108084 0.699681
Si Si6 0.577030 0.830074 0.908587
Si Si7 0.988677 0.996820 0.701538
Si Si8 0.943284 0.492927 0.238386
O O1 0.254420 0.263212 0.802635
O O2 0.023222 0.982983 0.756705
O O3 0.105521 0.903583 0.772282
O O4 0.817075 0.011481 0.101279
O O5 0.154325 0.678129 0.695719
O O6 0.500000 0.000000 0.500000
O O7 0.500000 0.500000 0.500000
O O8 0.569585 0.620790 0.643062
O O9 0.907661 0.780702 0.296786
O O10 0.764231 0.449059 0.316064
O O11 0.421241 0.596866 0.914295
O O12 0.156029 0.514637 0.999713
O O13 0.991776 0.314537 0.668904
O O14 0.744516 0.945730 0.733558
O O15 0.891954 0.079996 0.511560
O O16 0.578310 0.092457 0.882951
O O17 0.725007 0.872037 0.869347
#
# Coordination Sequence:
#
# PCOD8002202 Si02
#       8
#     2   2   2   2   2   2   2   2
#     4  10  23  41  61  89 115 148 200 255 292 339
#     4  10  22  43  65  80 109 156 208 247 294 342
#     4  12  22  33  54  90 128 154 185 234 300 351
#     4  10  20  38  58  86 120 160 193 231 284 353
#     4  10  20  36  57  85 123 161 192 227 284 359
#     4  10  20  35  57  85 125 164 191 222 282 359
#     4  12  22  35  57  91 126 152 187 244 293 345
#     4  10  22  39  60  85 114 161 200 235 286 351
#
# _framework density 19.697873000000001
#
# number of rings (size 3 to 8) (size 9 to 14) (size 15 to 20)
#    0.000    1.500    3.750    1.875    0.000    1.500 
#    2.250    0.625    0.000   15.750    0.000    0.000 
#    0.000    0.000    0.000    0.000    0.000    0.000 
#
# Total GULP energy -198293.794940 kJ/mol
# GULP energy per Si atom -12393.362184 kJ/mol
# Density = 1.965304 g / cm^3
# Si number density = 19.697873 Si / 1000 Ang^3
#
#
#
# Elastic Constant Matrix: (Units=GPa)
#
#
# Indices 1 2 3 4 5 6 
#
# 1 124.6021 44.5664 38.6011 2.4127 -19.5596 -9.5809
# 2 44.5664 68.5579 9.9168 2.5154 -23.3129 -6.3148
# 3 38.6011 9.9168 90.9966 -8.7624 -13.3430 -6.9664
# 4 2.4127 2.5154 -8.7624 23.5834 3.6310 -4.0631
# 5 -19.5596 -23.3129 -13.3430 3.6310 28.4142 -7.3182
# 6 -9.5809 -6.3148 -6.9664 -4.0631 -7.3182 22.1982
#
#
#
# Elastic Compliance Matrix: (Units=1/GPa)
#
#
# Indices 1 2 3 4 5 6 
#
# 1 0.012110 -0.006223 -0.004140 -0.002018 0.002191 0.002510
# 2 -0.006223 0.027636 0.004043 -0.002114 0.024171 0.014026
# 3 -0.004140 0.004043 0.014707 0.005470 0.008696 0.007847
# 4 -0.002018 -0.002114 0.005470 0.046840 -0.004666 0.007280
# 5 0.002191 0.024171 0.008696 -0.004666 0.069622 0.032649
# 6 0.002510 0.014026 0.007847 0.007280 0.032649 0.064681
#
#
# Mechanical properties :
#
#
# Convention : Reuss Voigt Hill
#
# Bulk Modulus (GPa) = 23.91626 52.25835 38.08731
# Shear Modulus (GPa) = 19.07134 27.57731 23.32432
#
# Velocity S-wave (km/s) = 3.11496 3.74574 3.44481
# Velocity P-wave (km/s) = 5.01051 6.73015 5.93296
#
# Compressibility (1/GPa) = 0.04181256
#
# Stress axis : x y z
#
# Youngs Moduli (GPa) = 82.57788 36.18514 67.99263
#
# Poissons Ratio (x) = 0.22518 0.28147
# Poissons Ratio (y) = 0.51389 -0.27487
# Poissons Ratio (z) = 0.34185 -0.14628
#
# Static dielectric constant tensor:
#      x y z
#    x 3.510120 0.077010 -0.160220 
#    y 0.077010 3.590190 -0.019630 
#    z -0.160220 -0.019630 3.709840 
# 
# 
# High freq. dielectric constant tensor:
#      x y z
#    x 1.746980 0.004470 -0.016810 
#    y 0.004470 1.758450 -0.000660 
#    z -0.016810 -0.000660 1.780790 
# 
# From -- ./inp_files/452389.got.cif
#   From: 2010.06.25/outbox.cif.g09.slc.cpg/sg2_227_cif.got.tgz:452389.got - 2010.06.27 13:26:56.
