data_PCOD8002430
_publ_section_title
;
Structure prediction by ZEFSAII (Michael W. Deem and Ramdas Pophale) SiO2 
 PCOD8002430
Probable space group: P -1
;
_chemical_formula_sum "Si O2"
_cell_formula_units_Z 16
_cell_length_a 11.152620
_cell_length_b 9.398069
_cell_length_c 14.952890
_cell_angle_alpha 64.984039
_cell_angle_beta 54.532501
_cell_angle_gamma 109.068959
_cell_volume 730.817019
_symmetry_space_group_name_H-M "P -1"
_symmetry_group_IT_number 2
_symmetry_cell_setting 'triclinic'
loop_
_space_group_symop_operation_xyz
x,y,z
-x,-y,-z
loop_
_atom_site_type_symbol
_atom_site_label
_atom_site_fract_x
_atom_site_fract_y
_atom_site_fract_z
Si Si1 0.350860 0.250136 0.330758
Si Si2 0.276166 0.944801 0.048340
Si Si3 0.878341 0.245007 0.155636
Si Si4 0.747144 0.230012 0.712563
Si Si5 0.806165 0.785760 0.972943
Si Si6 0.410459 0.951300 0.361360
Si Si7 0.133934 0.189032 0.266022
Si Si8 0.014880 0.432804 0.242281
O O1 0.289724 0.223639 0.259784
O O2 0.448238 0.155903 0.329193
O O3 0.560846 0.537002 0.190503
O O4 0.130716 0.094521 0.532198
O O5 0.219284 0.869839 0.197652
O O6 0.182045 0.723153 0.085625
O O7 0.142677 0.997321 0.068350
O O8 0.557449 0.198029 0.844284
O O9 0.001121 0.182914 0.091306
O O10 0.880257 0.269267 0.254647
O O11 0.622949 0.018627 0.284066
O O12 0.000000 0.500000 0.000000
O O13 0.611521 0.047749 0.735309
O O14 0.000000 0.500000 0.500000
O O15 0.776398 0.770070 0.882853
O O16 0.176194 0.677408 0.572376
O O17 0.152374 0.391013 0.227090
#
# Coordination Sequence:
#
# PCOD8002430 Si02
#       8
#     2   2   2   2   2   2   2   2
#     4  10  20  35  61  93 122 159 213 269 311 376
#     4  11  25  40  65 101 132 167 210 256 332 385
#     4  11  22  42  67  89 124 171 229 264 312 373
#     4  11  24  42  67  96 136 170 204 257 324 397
#     4  11  23  39  61  90 130 164 212 269 314 369
#     4  11  21  41  67  94 122 172 219 266 314 375
#     4   9  21  36  61  90 125 162 212 261 324 369
#     4  10  22  41  65  96 126 168 215 265 314 392
#
# _framework density 21.893304000000001
#
# number of rings (size 3 to 8) (size 9 to 14) (size 15 to 20)
#    0.000    1.500    2.500    2.250    5.250    2.000 
#    0.000    3.125    0.000    0.000    0.000    0.000 
#    0.000    0.000    0.000    0.000    0.000    0.000 
#
# Total GULP energy -198280.467526 kJ/mol
# GULP energy per Si atom -12392.529220 kJ/mol
# Density = 2.184347 g / cm^3
# Si number density = 21.893304 Si / 1000 Ang^3
#
#
#
# Elastic Constant Matrix: (Units=GPa)
#
#
# Indices 1 2 3 4 5 6 
#
# 1 99.3876 33.4617 23.2317 -9.1156 -13.8573 -23.4782
# 2 33.4617 76.4488 34.2665 -12.5775 -7.2769 -15.2010
# 3 23.2317 34.2665 120.9180 -5.0207 -6.5785 -15.8141
# 4 -9.1156 -12.5775 -5.0207 19.7948 1.1046 4.6808
# 5 -13.8573 -7.2769 -6.5785 1.1046 26.4386 2.7435
# 6 -23.4782 -15.2010 -15.8141 4.6808 2.7435 41.6862
#
#
#
# Elastic Compliance Matrix: (Units=1/GPa)
#
#
# Indices 1 2 3 4 5 6 
#
# 1 0.013714 -0.003835 -0.000439 0.002152 0.005356 0.005565
# 2 -0.003835 0.018388 -0.003771 0.008385 0.001547 0.002071
# 3 -0.000439 -0.003771 0.009719 -0.000678 0.000963 0.002077
# 4 0.002152 0.008385 -0.000678 0.057189 0.001136 -0.002484
# 5 0.005356 0.001547 0.000963 0.001136 0.041133 0.001111
# 6 0.005565 0.002071 0.002077 -0.002484 0.001111 0.028872
#
#
# Mechanical properties :
#
#
# Convention : Reuss Voigt Hill
#
# Bulk Modulus (GPa) = 38.86509 53.18604 46.02557
# Shear Modulus (GPa) = 25.81523 31.30356 28.55940
#
# Velocity S-wave (km/s) = 3.43758 3.78540 3.61568
# Velocity P-wave (km/s) = 5.79194 6.59179 6.20477
#
# Compressibility (1/GPa) = 0.02573003
#
# Stress axis : x y z
#
# Youngs Moduli (GPa) = 72.91651 54.38247 102.89120
#
# Poissons Ratio (x) = 0.20858 0.04522
# Poissons Ratio (y) = 0.27967 0.38799
# Poissons Ratio (z) = 0.03205 0.20507
#
# Static dielectric constant tensor:
#      x y z
#    x 4.661530 0.219730 -0.006990 
#    y 0.219730 3.751780 0.037060 
#    z -0.006990 0.037060 4.212330 
# 
# 
# High freq. dielectric constant tensor:
#      x y z
#    x 1.856080 -0.011040 0.003100 
#    y -0.011040 1.827160 0.006440 
#    z 0.003100 0.006440 1.877600 
# 
# From -- ./inp_files/398580.got.cif
#   From: 2010.06.25/outbox.cif.g09.slc.cpg/sg2_200_cif.got.tgz:398580.got - 2010.06.27 13:26:56.
