data_PCOD8002831
_publ_section_title
;
Structure prediction by ZEFSAII (Michael W. Deem and Ramdas Pophale) SiO2 
 PCOD8002831
Probable space group: P -1
;
_chemical_formula_sum "Si O2"
_cell_formula_units_Z 14
_cell_length_a 24.147456
_cell_length_b 7.185525
_cell_length_c 8.368427
_cell_angle_alpha 126.979967
_cell_angle_beta 145.625472
_cell_angle_gamma 43.288455
_cell_volume 562.121389
_symmetry_space_group_name_H-M "P -1"
_symmetry_group_IT_number 2
_symmetry_cell_setting 'triclinic'
loop_
_space_group_symop_operation_xyz
x,y,z
-x,-y,-z
loop_
_atom_site_type_symbol
_atom_site_label
_atom_site_fract_x
_atom_site_fract_y
_atom_site_fract_z
Si Si1 0.550670 0.279812 0.697434
Si Si2 0.234333 0.836632 0.016332
Si Si3 0.100849 0.075735 0.534538
Si Si4 0.653343 0.139133 0.419297
Si Si5 0.156533 0.525156 0.884399
Si Si6 0.736826 0.401021 0.526558
Si Si7 0.500721 0.093849 0.804631
O O1 0.665245 0.287980 0.943345
O O2 0.437794 0.568015 0.576509
O O3 0.564105 0.126617 0.817850
O O4 0.533418 0.128137 0.426272
O O5 0.260482 0.006828 0.301204
O O6 0.224770 0.592572 0.949101
O O7 0.119149 0.046000 0.755627
O O8 0.146033 0.269391 0.673515
O O9 0.967737 0.207977 0.248471
O O10 0.166358 0.769247 0.462280
O O11 0.725878 0.167022 0.467008
O O12 0.586849 0.997894 0.113576
O O13 0.223804 0.451194 0.175335
O O14 0.613471 0.621478 0.274067
#
# Coordination Sequence:
#
# PCOD8002831 Si02
#       7
#     2   2   2   2   2   2   2
#     4  10  20  36  59  87 126 163 199 243 291 353
#     4  11  22  39  63  92 122 157 202 249 296 357
#     4  11  22  43  67  86 118 160 199 254 309 353
#     4  10  21  35  54  88 126 159 198 241 291 356
#     4  10  24  42  64  91 117 154 205 253 307 358
#     4  10  20  37  63  90 119 158 203 248 298 356
#     4  10  20  36  61  91 123 164 202 238 293 359
#
# _framework density 24.905653000000001
#
# number of rings (size 3 to 8) (size 9 to 14) (size 15 to 20)
#    0.000    1.714    0.000    5.571    0.000    5.143 
#    0.000   10.000    0.000   15.429    0.000    0.000 
#    0.000    0.000    0.000    0.000    0.000    0.000 
#
# Total GULP energy -173561.233475 kJ/mol
# GULP energy per Si atom -12397.230963 kJ/mol
# Density = 2.484897 g / cm^3
# Si number density = 24.905653 Si / 1000 Ang^3
#
#
#
# Elastic Constant Matrix: (Units=GPa)
#
#
# Indices 1 2 3 4 5 6 
#
# 1 72.4968 15.4757 21.0880 3.9123 14.9951 7.9916
# 2 15.4757 32.0204 1.5356 11.7384 -8.1718 -14.5808
# 3 21.0880 1.5356 109.6924 -8.5280 -4.4724 1.1061
# 4 3.9123 11.7384 -8.5280 31.3674 8.6894 -1.2090
# 5 14.9951 -8.1718 -4.4724 8.6894 35.4990 -2.1459
# 6 7.9916 -14.5808 1.1061 -1.2090 -2.1459 33.6402
#
#
#
# Elastic Compliance Matrix: (Units=1/GPa)
#
#
# Indices 1 2 3 4 5 6 
#
# 1 0.032328 -0.041462 -0.005234 0.017258 -0.029701 -0.026753
# 2 -0.041462 0.111952 0.004361 -0.049741 0.059652 0.060248
# 3 -0.005234 0.004361 0.010268 0.000677 0.004531 0.003109
# 4 0.017258 -0.049741 0.000677 0.056996 -0.034166 -0.025812
# 5 -0.029701 0.059652 0.004531 -0.034166 0.065541 0.035715
# 6 -0.026753 0.060248 0.003109 -0.025812 0.035715 0.063444
#
#
# Mechanical properties :
#
#
# Convention : Reuss Voigt Hill
#
# Bulk Modulus (GPa) = 14.31063 32.26757 23.28910
# Shear Modulus (GPa) = 11.14849 31.84201 21.49525
#
# Velocity S-wave (km/s) = 2.11802 3.57950 2.94099
# Velocity P-wave (km/s) = 3.42633 5.48341 4.57206
#
# Compressibility (1/GPa) = 0.06987815
#
# Stress axis : x y z
#
# Youngs Moduli (GPa) = 30.93278 8.93237 97.39386
#
# Poissons Ratio (x) = 0.37036 0.50977
# Poissons Ratio (y) = 1.28254 -0.42476
# Poissons Ratio (z) = 0.16190 -0.03896
#
# Static dielectric constant tensor:
#      x y z
#    x 4.508080 0.053100 -0.083140 
#    y 0.053100 3.985400 -0.038180 
#    z -0.083140 -0.038180 4.770440 
# 
# 
# High freq. dielectric constant tensor:
#      x y z
#    x 1.992500 0.001500 -0.004200 
#    y 0.001500 1.953630 0.001200 
#    z -0.004200 0.001200 2.010090 
# 
# From -- ./inp_files/187998.got.cif
#   From: 2010.06.25/outbox.cif.g09.slc.cpg/sg2_94_cif.got.tgz:187998.got - 2010.06.27 13:26:56.
