data_PCOD8002105
_publ_section_title
;
Structure prediction by ZEFSAII (Michael W. Deem and Ramdas Pophale) SiO2 
 PCOD8002105
Probable space group: P -1
;
_chemical_formula_sum "Si O2"
_cell_formula_units_Z 16
_cell_length_a 9.477486
_cell_length_b 18.515147
_cell_length_c 19.285370
_cell_angle_alpha 32.259243
_cell_angle_beta 57.324389
_cell_angle_gamma 34.316260
_cell_volume 865.455626
_symmetry_space_group_name_H-M "P -1"
_symmetry_group_IT_number 2
_symmetry_cell_setting 'triclinic'
loop_
_space_group_symop_operation_xyz
x,y,z
-x,-y,-z
loop_
_atom_site_type_symbol
_atom_site_label
_atom_site_fract_x
_atom_site_fract_y
_atom_site_fract_z
Si Si1 0.760137 0.904062 0.768719
Si Si2 0.667622 0.516325 0.972648
Si Si3 0.219940 0.190858 0.012403
Si Si4 0.077062 0.534315 0.557625
Si Si5 0.669963 0.590644 0.554041
Si Si6 0.518047 0.194080 0.839525
Si Si7 0.891319 0.165614 0.832760
Si Si8 0.645205 0.040018 0.230943
O O1 0.653235 0.842213 0.805761
O O2 0.640829 0.122666 0.587856
O O3 0.625528 0.976485 0.824122
O O4 0.116701 0.671328 0.867950
O O5 0.431243 0.780503 0.847542
O O6 0.872850 0.444425 0.915731
O O7 0.500000 0.500000 0.000000
O O8 0.374050 0.229814 0.919182
O O9 0.249883 0.067303 0.040870
O O10 0.274285 0.450448 0.509429
O O11 0.258167 0.394828 0.692163
O O12 0.917589 0.501282 0.605636
O O13 0.841880 0.808900 0.412625
O O14 0.684840 0.423861 0.709099
O O15 0.690833 0.216067 0.791407
O O16 0.178535 0.032799 0.825578
O O17 0.000000 0.000000 0.000000
#
# Coordination Sequence:
#
# PCOD8002105 Si02
#       8
#     2   2   2   2   2   2   2   2
#     4   9  18  36  57  76 104 142 180 223 258 318
#     4  10  20  35  55  83 105 138 185 226 261 311
#     4   9  21  32  58  77 109 139 180 217 270 320
#     4   9  18  32  56  76 107 145 180 218 261 323
#     4   9  18  34  52  79 108 139 179 220 270 312
#     4  11  20  35  53  83 110 144 173 220 278 316
#     4  11  24  33  53  85 115 137 174 230 271 320
#     4  10  20  35  56  81 106 146 183 216 266 320
#
# _framework density 18.487372000000001
#
# number of rings (size 3 to 8) (size 9 to 14) (size 15 to 20)
#    0.750    1.500    1.250    2.625    3.500    3.000 
#    0.000    0.625    0.000    0.750    0.000    0.000 
#    0.000    0.000    0.000    0.000    0.000    0.000 
#
# Total GULP energy -198274.647430 kJ/mol
# GULP energy per Si atom -12392.165464 kJ/mol
# Density = 1.844529 g / cm^3
# Si number density = 18.487372 Si / 1000 Ang^3
#
#
#
# Elastic Constant Matrix: (Units=GPa)
#
#
# Indices 1 2 3 4 5 6 
#
# 1 90.1951 8.4266 43.2266 -8.9732 -11.6314 0.8358
# 2 8.4266 48.8948 21.9301 -8.9883 -5.3123 1.7307
# 3 43.2266 21.9301 113.9456 -2.6867 -10.8586 4.5303
# 4 -8.9732 -8.9883 -2.6867 24.9246 7.0546 0.1736
# 5 -11.6314 -5.3123 -10.8586 7.0546 35.3566 -2.8620
# 6 0.8358 1.7307 4.5303 0.1736 -2.8620 21.1092
#
#
#
# Elastic Compliance Matrix: (Units=1/GPa)
#
#
# Indices 1 2 3 4 5 6 
#
# 1 0.014259 0.000923 -0.005288 0.004203 0.002431 0.000790
# 2 0.000923 0.024026 -0.004669 0.008289 0.000747 -0.000971
# 3 -0.005288 -0.004669 0.011837 -0.002754 0.001605 -0.001708
# 4 0.004203 0.008289 -0.002754 0.046498 -0.007631 -0.001672
# 5 0.002431 0.000747 0.001605 -0.007631 0.031521 0.003834
# 6 0.000790 -0.000971 -0.001708 -0.001672 0.003834 0.048321
#
#
# Mechanical properties :
#
#
# Convention : Reuss Voigt Hill
#
# Bulk Modulus (GPa) = 31.19661 44.46692 37.83177
# Shear Modulus (GPa) = 24.36469 28.24156 26.30312
#
# Velocity S-wave (km/s) = 3.63424 3.91271 3.77604
# Velocity P-wave (km/s) = 5.87550 6.67212 6.28644
#
# Compressibility (1/GPa) = 0.03205476
#
# Stress axis : x y z
#
# Youngs Moduli (GPa) = 70.12961 41.62086 84.48355
#
# Poissons Ratio (x) = -0.03841 0.44672
# Poissons Ratio (y) = -0.06472 0.39445
# Poissons Ratio (z) = 0.37082 0.19433
#
# Static dielectric constant tensor:
#      x y z
#    x 3.357000 -0.023210 -0.113430 
#    y -0.023210 3.057360 -0.096830 
#    z -0.113430 -0.096830 3.542360 
# 
# 
# High freq. dielectric constant tensor:
#      x y z
#    x 1.720980 0.001590 -0.003900 
#    y 0.001590 1.675680 -0.011220 
#    z -0.003900 -0.011220 1.721020 
# 
# From -- ./inp_files/314301.got.cif
#   From: 2010.06.25/outbox.cif.g09.slc.cpg/sg2_158_cif.got.tgz:314301.got - 2010.06.27 13:26:56.
