data_PCOD8002423
_publ_section_title
;
Structure prediction by ZEFSAII (Michael W. Deem and Ramdas Pophale) SiO2 
 PCOD8002423
Probable space group: P -1
;
_chemical_formula_sum "Si O2"
_cell_formula_units_Z 14
_cell_length_a 8.488794
_cell_length_b 6.752048
_cell_length_c 14.467117
_cell_angle_alpha 68.244692
_cell_angle_beta 122.313377
_cell_angle_gamma 94.233080
_cell_volume 642.666027
_symmetry_space_group_name_H-M "P -1"
_symmetry_group_IT_number 2
_symmetry_cell_setting 'triclinic'
loop_
_space_group_symop_operation_xyz
x,y,z
-x,-y,-z
loop_
_atom_site_type_symbol
_atom_site_label
_atom_site_fract_x
_atom_site_fract_y
_atom_site_fract_z
Si Si1 0.964203 0.646575 0.556350
Si Si2 0.169589 0.547185 0.981744
Si Si3 0.791062 0.978983 0.073587
Si Si4 0.456124 0.115699 0.824700
Si Si5 0.050441 0.586774 0.219773
Si Si6 0.580616 0.548152 0.759315
Si Si7 0.291129 0.926135 0.636597
O O1 0.937120 0.486161 0.658048
O O2 0.000000 0.500000 0.500000
O O3 0.130380 0.777413 0.611363
O O4 0.777799 0.830924 0.463534
O O5 0.140097 0.460194 0.884856
O O6 0.169912 0.794861 0.917251
O O7 0.359722 0.450279 0.113554
O O8 0.000000 0.500000 0.000000
O O9 0.672653 0.856647 0.129422
O O10 0.004832 0.847072 0.155089
O O11 0.672500 0.009940 0.935059
O O12 0.457284 0.354634 0.739923
O O13 0.367653 0.955955 0.757673
O O14 0.241838 0.487984 0.246784
O O15 0.461118 0.783408 0.656419
#
# Coordination Sequence:
#
# PCOD8002423 Si02
#       7
#     2   2   2   2   2   2   2
#     4  11  25  43  63  85 112 155 208 252 290 344
#     4   9  20  36  57  92 126 154 190 231 291 358
#     4  10  20  35  61  90 122 159 194 239 293 351
#     4  10  21  38  60  90 121 156 199 241 293 353
#     4  11  22  38  61  89 122 158 197 239 294 354
#     4  10  22  37  60  92 123 154 190 241 298 358
#     4  11  22  41  63  81 116 156 195 252 299 337
#
# _framework density 21.784253
#
# number of rings (size 3 to 8) (size 9 to 14) (size 15 to 20)
#    0.000    1.714    0.000    4.286    0.000    9.143 
#    0.000    8.571    0.000    0.000    0.000    0.000 
#    0.000    0.000    0.000    0.000    0.000    0.000 
#
# Total GULP energy -173433.182613 kJ/mol
# GULP energy per Si atom -12388.084472 kJ/mol
# Density = 2.173467 g / cm^3
# Si number density = 21.784253 Si / 1000 Ang^3
#
#
#
# Elastic Constant Matrix: (Units=GPa)
#
#
# Indices 1 2 3 4 5 6 
#
# 1 65.9079 36.1150 41.2271 -7.9682 6.9314 -15.3703
# 2 36.1150 97.2178 58.9634 -8.7151 2.1312 -5.2327
# 3 41.2271 58.9634 102.5620 -15.4840 -3.3434 -19.5397
# 4 -7.9682 -8.7151 -15.4840 50.0681 -13.4292 14.7445
# 5 6.9314 2.1312 -3.3434 -13.4292 30.5477 -6.8981
# 6 -15.3703 -5.2327 -19.5397 14.7445 -6.8981 38.6459
#
#
#
# Elastic Compliance Matrix: (Units=1/GPa)
#
#
# Indices 1 2 3 4 5 6 
#
# 1 0.023065 -0.004683 -0.006038 -0.001980 -0.005240 0.005307
# 2 -0.004683 0.017266 -0.008924 0.000288 -0.002009 -0.004505
# 3 -0.006038 -0.008924 0.019215 0.003539 0.007008 0.006006
# 4 -0.001980 0.000288 0.003539 0.025652 0.010543 -0.006864
# 5 -0.005240 -0.002009 0.007008 0.010543 0.040457 0.004386
# 6 0.005307 -0.004505 0.006006 -0.006864 0.004386 0.033815
#
#
# Mechanical properties :
#
#
# Convention : Reuss Voigt Hill
#
# Bulk Modulus (GPa) = 49.36984 59.81096 54.59040
# Shear Modulus (GPa) = 24.32963 32.47783 28.40373
#
# Velocity S-wave (km/s) = 3.34555 3.86539 3.61482
# Velocity P-wave (km/s) = 6.13481 6.88747 6.52201
#
# Compressibility (1/GPa) = 0.02025528
#
# Stress axis : x y z
#
# Youngs Moduli (GPa) = 43.35581 57.91789 52.04384
#
# Poissons Ratio (x) = 0.27125 0.31422
# Poissons Ratio (y) = 0.20305 0.46444
# Poissons Ratio (z) = 0.26177 0.51686
#
# Static dielectric constant tensor:
#      x y z
#    x 6.212620 -0.003900 1.883180 
#    y -0.003900 4.121430 -0.003210 
#    z 1.883180 -0.003210 5.197030 
# 
# 
# High freq. dielectric constant tensor:
#      x y z
#    x 1.831830 -0.001220 0.018370 
#    y -0.001220 1.871950 -0.004600 
#    z 0.018370 -0.004600 1.857220 
# 
# From -- ./inp_files/46704.got.cif
#   From: 2010.06.25/outbox.cif.g09.slc.cpg/sg2_24_cif.got.tgz:46704.got - 2010.06.27 13:26:56.
