data_PCOD8002412
_publ_section_title
;
Structure prediction by ZEFSAII (Michael W. Deem and Ramdas Pophale) SiO2 
 PCOD8002412
Probable space group: P -1
;
_chemical_formula_sum "Si O2"
_cell_formula_units_Z 16
_cell_length_a 9.549499
_cell_length_b 12.751453
_cell_length_c 16.041188
_cell_angle_alpha 135.799598
_cell_angle_beta 42.588616
_cell_angle_gamma 145.110330
_cell_volume 723.172937
_symmetry_space_group_name_H-M "P -1"
_symmetry_group_IT_number 2
_symmetry_cell_setting 'triclinic'
loop_
_space_group_symop_operation_xyz
x,y,z
-x,-y,-z
loop_
_atom_site_type_symbol
_atom_site_label
_atom_site_fract_x
_atom_site_fract_y
_atom_site_fract_z
Si Si1 0.016816 0.413799 0.070654
Si Si2 0.244031 0.297853 0.315034
Si Si3 0.219705 0.418258 0.822147
Si Si4 0.678144 0.050071 0.369422
Si Si5 0.492498 0.797489 0.727436
Si Si6 0.805121 0.407972 0.418590
Si Si7 0.239906 0.676619 0.265794
Si Si8 0.959161 0.141472 0.641753
O O1 0.972982 0.545661 0.113216
O O2 0.743962 0.238559 0.133889
O O3 0.240622 0.551627 0.120639
O O4 0.123568 0.338766 0.913947
O O5 0.476965 0.388830 0.196005
O O6 0.329620 0.244370 0.327746
O O7 0.216314 0.461651 0.436956
O O8 0.962441 0.106414 0.299186
O O9 0.188656 0.266181 0.682860
O O10 0.728547 0.225265 0.397701
O O11 0.500000 0.000000 0.500000
O O12 0.532279 0.864471 0.267529
O O13 0.384072 0.659777 0.616635
O O14 0.678367 0.018186 0.743270
O O15 0.106924 0.541645 0.328834
O O16 0.052555 0.732811 0.351026
O O17 0.000000 0.000000 0.500000
#
# Coordination Sequence:
#
# PCOD8002412 Si02
#       8
#     2   2   2   2   2   2   2   2
#     4   8  18  38  59  82 115 162 203 245 302 344
#     4  11  22  36  57  89 122 157 198 246 303 359
#     4   9  19  35  58  85 120 158 197 254 298 348
#     4  12  25  39  57  91 125 160 199 240 306 369
#     4  10  20  35  61  88 119 155 204 251 296 351
#     4  11  21  40  60  86 124 161 195 245 306 363
#     4  10  21  39  61  84 121 165 198 241 298 366
#     4  11  20  33  59  97 124 151 200 253 302 354
#
# _framework density 22.124721000000001
#
# number of rings (size 3 to 8) (size 9 to 14) (size 15 to 20)
#    0.000    1.750    2.500    3.000    0.000    0.500 
#    0.000    0.625    0.000    3.000    0.000    0.000 
#    0.000    0.000    0.000    0.000    0.000    0.000 
#
# Total GULP energy -198302.996791 kJ/mol
# GULP energy per Si atom -12393.937299 kJ/mol
# Density = 2.207436 g / cm^3
# Si number density = 22.124721 Si / 1000 Ang^3
#
#
#
# Elastic Constant Matrix: (Units=GPa)
#
#
# Indices 1 2 3 4 5 6 
#
# 1 94.8484 50.6464 31.6376 -4.7414 16.8114 25.2516
# 2 50.6464 144.2114 35.0389 -18.7898 17.2387 13.8601
# 3 31.6376 35.0389 90.3629 -14.1321 26.9427 7.9511
# 4 -4.7414 -18.7898 -14.1321 28.8342 -3.7531 4.6301
# 5 16.8114 17.2387 26.9427 -3.7531 20.2039 1.2679
# 6 25.2516 13.8601 7.9511 4.6301 1.2679 47.5412
#
#
#
# Elastic Compliance Matrix: (Units=1/GPa)
#
#
# Indices 1 2 3 4 5 6 
#
# 1 0.016331 -0.003806 -0.001157 -0.000314 -0.008410 -0.007116
# 2 -0.003806 0.009556 -0.000489 0.005105 -0.003318 -0.001091
# 3 -0.001157 -0.000489 0.020087 0.006629 -0.024011 -0.002607
# 4 -0.000314 0.005105 0.006629 0.041599 -0.004809 -0.006354
# 5 -0.008410 -0.003318 -0.024011 -0.004809 0.089978 0.007518
# 6 -0.007116 -0.001091 -0.002607 -0.006354 0.007518 0.025987
#
#
# Mechanical properties :
#
#
# Convention : Reuss Voigt Hill
#
# Bulk Modulus (GPa) = 28.51556 62.67429 45.59492
# Shear Modulus (GPa) = 22.11085 33.45585 27.78335
#
# Velocity S-wave (km/s) = 3.16472 3.89285 3.54752
# Velocity P-wave (km/s) = 5.12547 6.97101 6.11823
#
# Compressibility (1/GPa) = 0.03506858
#
# Stress axis : x y z
#
# Youngs Moduli (GPa) = 61.23390 104.64179 49.78400
#
# Poissons Ratio (x) = 0.39824 0.05762
# Poissons Ratio (y) = 0.23304 0.02437
# Poissons Ratio (z) = 0.07088 0.05122
#
# Static dielectric constant tensor:
#      x y z
#    x 3.987630 0.208530 0.431360 
#    y 0.208530 4.418290 -0.145070 
#    z 0.431360 -0.145070 3.932050 
# 
# 
# High freq. dielectric constant tensor:
#      x y z
#    x 1.854050 0.009060 0.030780 
#    y 0.009060 1.887320 -0.014510 
#    z 0.030780 -0.014510 1.839070 
# 
# From -- ./inp_files/455006.got.cif
#   From: 2010.06.25/outbox.cif.g09.slc.cpg/sg2_228_cif.got.tgz:455006.got - 2010.06.27 13:26:56.
