data_PCOD8002268
_publ_section_title
;
Structure prediction by ZEFSAII (Michael W. Deem and Ramdas Pophale) SiO2 
 PCOD8002268
Probable space group: P -1
;
_chemical_formula_sum "Si O2"
_cell_formula_units_Z 14
_cell_length_a 21.370893
_cell_length_b 9.474928
_cell_length_c 8.412874
_cell_angle_alpha 31.354109
_cell_angle_beta 129.312257
_cell_angle_gamma 131.553899
_cell_volume 653.384320
_symmetry_space_group_name_H-M "P -1"
_symmetry_group_IT_number 2
_symmetry_cell_setting 'triclinic'
loop_
_space_group_symop_operation_xyz
x,y,z
-x,-y,-z
loop_
_atom_site_type_symbol
_atom_site_label
_atom_site_fract_x
_atom_site_fract_y
_atom_site_fract_z
Si Si1 0.466492 0.750866 0.890967
Si Si2 0.426759 0.654938 0.559714
Si Si3 0.803383 0.906991 0.507395
Si Si4 0.782864 0.182085 0.649680
Si Si5 0.060741 0.813387 0.298843
Si Si6 0.759464 0.361660 0.789364
Si Si7 0.293867 0.394386 0.056545
O O1 0.423256 0.721947 0.675997
O O2 0.505138 0.084202 0.672611
O O3 0.545237 0.625403 0.148984
O O4 0.391492 0.588955 0.045507
O O5 0.333868 0.603939 0.390806
O O6 0.821541 0.670393 0.647113
O O7 0.738028 0.733789 0.701073
O O8 0.890725 0.101667 0.537239
O O9 0.760404 0.112611 0.150415
O O10 0.872240 0.142130 0.779975
O O11 0.789258 0.289191 0.736116
O O12 0.712697 0.869531 0.821660
O O13 0.762752 0.411583 0.280215
O O14 0.000000 0.500000 0.500000
O O15 0.000000 0.000000 0.000000
#
# Coordination Sequence:
#
# PCOD8002268 Si02
#       7
#     2   2   2   2   2   2   2
#     4  10  20  35  58  89 119 167 225 261 296 344
#     4  10  21  34  57  89 125 165 208 272 305 345
#     4  11  25  41  65  92 131 164 199 261 325 372
#     4  11  23  39  69  94 121 167 214 251 302 382
#     4  11  23  46  70  94 122 160 206 251 306 384
#     4  12  23  42  60  97 132 164 206 260 321 368
#     4  11  21  41  62  92 122 172 225 256 292 377
#
# _framework density 21.426898999999999
#
# number of rings (size 3 to 8) (size 9 to 14) (size 15 to 20)
#    0.000    1.143    1.429    6.857    4.000    0.000 
#    0.000    8.571    0.000    0.000    0.000    0.000 
#    0.000    0.000    0.000    0.000    0.000    0.000 
#
# Total GULP energy -173635.572696 kJ/mol
# GULP energy per Si atom -12402.540907 kJ/mol
# Density = 2.137813 g / cm^3
# Si number density = 21.426899 Si / 1000 Ang^3
#
#
#
# Elastic Constant Matrix: (Units=GPa)
#
#
# Indices 1 2 3 4 5 6 
#
# 1 78.1871 49.8546 36.6557 12.4898 7.3213 4.9320
# 2 49.8546 112.8049 46.1211 -11.8076 1.3025 -5.9219
# 3 36.6557 46.1211 155.4637 3.7143 4.8906 1.3712
# 4 12.4898 -11.8076 3.7143 43.3570 3.1009 0.5441
# 5 7.3213 1.3025 4.8906 3.1009 26.6268 -9.4732
# 6 4.9320 -5.9219 1.3712 0.5441 -9.4732 27.1656
#
#
#
# Elastic Compliance Matrix: (Units=1/GPa)
#
#
# Indices 1 2 3 4 5 6 
#
# 1 0.023234 -0.010876 -0.001718 -0.008842 -0.007719 -0.009017
# 2 -0.010876 0.015755 -0.002478 0.007243 0.004280 0.006881
# 3 -0.001718 -0.002478 0.007633 -0.000745 -0.001067 -0.000971
# 4 -0.008842 0.007243 -0.000745 0.027619 -0.000061 0.002648
# 5 -0.007719 0.004280 -0.001067 -0.000061 0.046262 0.018522
# 6 -0.009017 0.006881 -0.000971 0.002648 0.018522 0.046403
#
#
# Mechanical properties :
#
#
# Convention : Reuss Voigt Hill
#
# Bulk Modulus (GPa) = 60.68827 67.96876 64.32851
# Shear Modulus (GPa) = 24.68622 33.68482 29.18552
#
# Velocity S-wave (km/s) = 3.39796 3.96925 3.69466
# Velocity P-wave (km/s) = 6.61663 7.26613 6.94897
#
# Compressibility (1/GPa) = 0.01647765
#
# Stress axis : x y z
#
# Youngs Moduli (GPa) = 43.03991 63.47345 131.01837
#
# Poissons Ratio (x) = 0.69033 0.22510
# Poissons Ratio (y) = 0.46809 0.32465
# Poissons Ratio (z) = 0.07395 0.15728
#
# Static dielectric constant tensor:
#      x y z
#    x 3.666940 0.034140 0.015720 
#    y 0.034140 4.209370 -0.204370 
#    z 0.015720 -0.204370 4.117360 
# 
# 
# High freq. dielectric constant tensor:
#      x y z
#    x 1.821800 0.002350 0.005140 
#    y 0.002350 1.839890 -0.015270 
#    z 0.005140 -0.015270 1.864550 
# 
# From -- ./inp_files/343237.got.cif
#   From: 2010.06.25/outbox.cif.g09.slc.cpg/sg2_172_cif.got.tgz:343237.got - 2010.06.27 13:26:56.
