data_PCOD8002705
_publ_section_title
;
Structure prediction by ZEFSAII (Michael W. Deem and Ramdas Pophale) SiO2 
 PCOD8002705
Probable space group: P -1
;
_chemical_formula_sum "Si O2"
_cell_formula_units_Z 16
_cell_length_a 19.424380
_cell_length_b 8.213491
_cell_length_c 5.397964
_cell_angle_alpha 120.194143
_cell_angle_beta 77.697204
_cell_angle_gamma 119.397367
_cell_volume 647.859575
_symmetry_space_group_name_H-M "P -1"
_symmetry_group_IT_number 2
_symmetry_cell_setting 'triclinic'
loop_
_space_group_symop_operation_xyz
x,y,z
-x,-y,-z
loop_
_atom_site_type_symbol
_atom_site_label
_atom_site_fract_x
_atom_site_fract_y
_atom_site_fract_z
Si Si1 0.833025 0.854845 0.085976
Si Si2 0.573561 0.922986 0.141986
Si Si3 0.733541 0.507753 0.237114
Si Si4 0.801910 0.217708 0.884271
Si Si5 0.102903 0.442423 0.289628
Si Si6 0.305044 0.213398 0.196997
Si Si7 0.061964 0.719066 0.847189
Si Si8 0.598737 0.179916 0.811197
O O1 0.808315 0.728695 0.268078
O O2 0.901682 0.094712 0.247986
O O3 0.866391 0.726689 0.785939
O O4 0.756625 0.862439 0.037518
O O5 0.479254 0.786643 0.142942
O O6 0.609692 0.062093 0.470047
O O7 0.611342 0.761024 0.951652
O O8 0.592456 0.063720 0.988728
O O9 0.684736 0.564677 0.526585
O O10 0.768188 0.348368 0.187673
O O11 0.675802 0.405590 0.963555
O O12 0.823366 0.347086 0.710841
O O13 0.731256 0.980543 0.721578
O O14 0.880215 0.201298 0.900732
O O15 0.064988 0.503991 0.597359
O O16 0.029017 0.335773 0.066485
#
# Coordination Sequence:
#
# PCOD8002705 Si02
#       8
#     2   2   2   2   2   2   2   2
#     4  10  23  36  55  88 126 156 212 272 327 384
#     4  10  23  44  70  98 134 176 219 271 329 389
#     4  11  23  38  63  93 126 170 217 269 327 392
#     4  10  21  38  57  88 124 162 210 272 325 388
#     4  10  20  36  58  82 116 163 211 263 324 388
#     4  11  23  38  63  93 126 170 217 269 327 392
#     4  10  20  36  58  82 116 163 211 263 324 388
#     4  10  23  44  70  98 134 176 219 271 329 389
#
# _framework density 24.696712000000002
#
# number of rings (size 3 to 8) (size 9 to 14) (size 15 to 20)
#    0.000    1.750    1.250    2.250    3.500    4.500 
#    0.000    0.625    0.000   12.000    0.000    0.000 
#    0.000    0.000    0.000    0.000    0.000    0.000 
#
# Total GULP energy -198241.806360 kJ/mol
# GULP energy per Si atom -12390.112898 kJ/mol
# Density = 2.464050 g / cm^3
# Si number density = 24.696712 Si / 1000 Ang^3
#
#
#
# Elastic Constant Matrix: (Units=GPa)
#
#
# Indices 1 2 3 4 5 6 
#
# 1 104.0133 17.3085 8.7966 -2.1443 -29.4627 1.2248
# 2 17.3085 58.2508 12.6222 9.6582 -2.1209 -1.2628
# 3 8.7966 12.6222 89.5634 -0.6270 -18.8885 -8.7142
# 4 -2.1443 9.6582 -0.6270 26.7315 -8.3249 -2.0909
# 5 -29.4627 -2.1209 -18.8885 -8.3249 39.5559 5.5046
# 6 1.2248 -1.2628 -8.7142 -2.0909 5.5046 28.4282
#
#
#
# Elastic Compliance Matrix: (Units=1/GPa)
#
#
# Indices 1 2 3 4 5 6 
#
# 1 0.014197 -0.005373 0.001933 0.006996 0.012996 -0.002260
# 2 -0.005373 0.021077 -0.003934 -0.010272 -0.006990 0.000560
# 3 0.001933 -0.003934 0.013577 0.004696 0.008333 0.002635
# 4 0.006996 -0.010272 0.004696 0.047057 0.016679 0.000913
# 5 0.012996 -0.006990 0.008333 0.016679 0.042824 -0.005381
# 6 -0.002260 0.000560 0.002635 0.000913 -0.005381 0.037216
#
#
# Mechanical properties :
#
#
# Convention : Reuss Voigt Hill
#
# Bulk Modulus (GPa) = 29.32436 36.58690 32.95563
# Shear Modulus (GPa) = 24.74465 33.14980 28.94722
#
# Velocity S-wave (km/s) = 3.16878 3.66768 3.42732
# Velocity P-wave (km/s) = 5.02870 5.72560 5.38843
#
# Compressibility (1/GPa) = 0.03410134
#
# Stress axis : x y z
#
# Youngs Moduli (GPa) = 70.43801 47.44538 73.65576
#
# Poissons Ratio (x) = 0.25492 -0.14236
# Poissons Ratio (y) = 0.37846 0.28978
# Poissons Ratio (z) = -0.13614 0.18666
#
# Static dielectric constant tensor:
#      x y z
#    x 4.892060 0.131200 -0.297160 
#    y 0.131200 4.444380 0.262500 
#    z -0.297160 0.262500 4.185070 
# 
# 
# High freq. dielectric constant tensor:
#      x y z
#    x 1.995590 0.003840 -0.019530 
#    y 0.003840 1.966970 0.009070 
#    z -0.019530 0.009070 1.958510 
# 
# From -- ./inp_files/117516.got.cif
#   From: 2010.06.25/outbox.cif.g09.slc.cpg/sg2_59_cif.got.tgz:117516.got - 2010.06.27 13:26:56.
