data_PCOD8002166
_publ_section_title
;
Structure prediction by ZEFSAII (Michael W. Deem and Ramdas Pophale) SiO2 
 PCOD8002166
Probable space group: P -1
;
_chemical_formula_sum "Si O2"
_cell_formula_units_Z 16
_cell_length_a 12.118143
_cell_length_b 12.354580
_cell_length_c 8.864234
_cell_angle_alpha 142.447572
_cell_angle_beta 87.720100
_cell_angle_gamma 94.157086
_cell_volume 806.383687
_symmetry_space_group_name_H-M "P -1"
_symmetry_group_IT_number 2
_symmetry_cell_setting 'triclinic'
loop_
_space_group_symop_operation_xyz
x,y,z
-x,-y,-z
loop_
_atom_site_type_symbol
_atom_site_label
_atom_site_fract_x
_atom_site_fract_y
_atom_site_fract_z
Si Si1 0.215797 0.983959 0.467664
Si Si2 0.680641 0.430017 0.293619
Si Si3 0.467787 0.311728 0.587540
Si Si4 0.120477 0.342055 0.938986
Si Si5 0.618293 0.049428 0.815024
Si Si6 0.122226 0.616016 0.983548
Si Si7 0.428762 0.161484 0.753391
Si Si8 0.330504 0.459872 0.250959
O O1 0.131416 0.134183 0.673064
O O2 0.322338 0.019886 0.608773
O O3 0.260346 0.992033 0.300192
O O4 0.158725 0.786509 0.275870
O O5 0.604486 0.531409 0.294928
O O6 0.799947 0.407102 0.189612
O O7 0.694824 0.533321 0.562944
O O8 0.623355 0.231094 0.110416
O O9 0.438262 0.279503 0.729673
O O10 0.598207 0.361619 0.611037
O O11 0.433931 0.127122 0.292093
O O12 0.125285 0.439351 0.886200
O O13 0.215014 0.432804 0.140423
O O14 0.001842 0.361073 0.045458
O O15 0.540521 0.066800 0.686138
O O16 0.407823 0.298504 0.040568
#
# Coordination Sequence:
#
# PCOD8002166 Si02
#       8
#     2   2   2   2   2   2   2   2
#     4   9  18  33  56  84 110 132 177 235 275 317
#     4  11  23  39  53  82 116 154 182 221 277 333
#     4  11  21  36  59  80 116 151 177 236 270 320
#     4  10  22  38  58  88 101 142 193 232 278 322
#     4  10  21  33  57  86 111 147 187 218 277 336
#     4  10  21  38  63  78 109 142 187 236 277 323
#     4  10  20  35  56  88 111 145 187 224 276 331
#     4  11  23  36  56  81 120 149 183 224 274 333
#
# _framework density 19.841670000000001
#
# number of rings (size 3 to 8) (size 9 to 14) (size 15 to 20)
#    0.000    1.750    1.250    4.875    5.250    1.000 
#    0.000    0.000    0.000    0.000    0.000   14.000 
#    0.000    0.000    0.000    0.000    0.000    0.000 
#
# Total GULP energy -198291.810026 kJ/mol
# GULP energy per Si atom -12393.238127 kJ/mol
# Density = 1.979651 g / cm^3
# Si number density = 19.841670 Si / 1000 Ang^3
#
#
#
# Elastic Constant Matrix: (Units=GPa)
#
#
# Indices 1 2 3 4 5 6 
#
# 1 124.1933 36.9895 39.4658 0.4737 -8.0111 2.5372
# 2 36.9895 38.5057 42.7541 4.3751 -12.2342 6.9461
# 3 39.4658 42.7541 106.1414 8.2799 -13.4456 3.3516
# 4 0.4737 4.3751 8.2799 32.8734 2.0590 4.3589
# 5 -8.0111 -12.2342 -13.4456 2.0590 23.6491 7.5307
# 6 2.5372 6.9461 3.3516 4.3589 7.5307 24.3595
#
#
#
# Elastic Compliance Matrix: (Units=1/GPa)
#
#
# Indices 1 2 3 4 5 6 
#
# 1 0.011706 -0.014057 0.000536 0.001332 -0.004333 0.003816
# 2 -0.014057 0.079010 -0.021258 -0.003351 0.033168 -0.027795
# 3 0.000536 -0.021258 0.017529 -0.002073 -0.002143 0.004627
# 4 0.001332 -0.003351 -0.002073 0.032074 -0.004189 -0.003343
# 5 -0.004333 0.033168 -0.002143 -0.004189 0.066172 -0.028419
# 6 0.003816 -0.027795 0.004627 -0.003343 -0.028419 0.057327
#
#
# Mechanical properties :
#
#
# Convention : Reuss Voigt Hill
#
# Bulk Modulus (GPa) = 25.84810 56.36212 41.10511
# Shear Modulus (GPa) = 14.43955 26.15181 20.29568
#
# Velocity S-wave (km/s) = 2.70059 3.63440 3.20172
# Velocity P-wave (km/s) = 4.77281 6.78818 5.86767
#
# Compressibility (1/GPa) = 0.03868757
#
# Stress axis : x y z
#
# Youngs Moduli (GPa) = 85.42908 12.65659 57.04828
#
# Poissons Ratio (x) = 0.17791 -0.03060
# Poissons Ratio (y) = 1.20085 1.21275
# Poissons Ratio (z) = -0.04582 0.26906
#
# Static dielectric constant tensor:
#      x y z
#    x 3.723990 0.103920 0.036380 
#    y 0.103920 3.268420 0.346920 
#    z 0.036380 0.346920 3.810340 
# 
# 
# High freq. dielectric constant tensor:
#      x y z
#    x 1.776530 0.007440 -0.003090 
#    y 0.007440 1.737630 0.028380 
#    z -0.003090 0.028380 1.788050 
# 
# From -- ./inp_files/261027.got.cif
#   From: 2010.06.25/outbox.cif.g09.slc.cpg/sg2_131_cif.got.tgz:261027.got - 2010.06.27 13:26:56.
