data_PCOD8002492
_publ_section_title
;
Structure prediction by ZEFSAII (Michael W. Deem and Ramdas Pophale) SiO2 
 PCOD8002492
Probable space group: P -1
;
_chemical_formula_sum "Si O2"
_cell_formula_units_Z 16
_cell_length_a 15.051675
_cell_length_b 9.198078
_cell_length_c 11.380452
_cell_angle_alpha 127.620870
_cell_angle_beta 42.804501
_cell_angle_gamma 122.818051
_cell_volume 834.928085
_symmetry_space_group_name_H-M "P -1"
_symmetry_group_IT_number 2
_symmetry_cell_setting 'triclinic'
loop_
_space_group_symop_operation_xyz
x,y,z
-x,-y,-z
loop_
_atom_site_type_symbol
_atom_site_label
_atom_site_fract_x
_atom_site_fract_y
_atom_site_fract_z
Si Si1 0.521509 0.535585 0.692085
Si Si2 0.335036 0.305260 0.590171
Si Si3 0.971023 0.761054 0.513460
Si Si4 0.391515 0.839571 0.076981
Si Si5 0.855221 0.409445 0.133409
Si Si6 0.139458 0.883996 0.200439
Si Si7 0.764118 0.117877 0.536591
Si Si8 0.221837 0.592212 0.529396
O O1 0.435570 0.350218 0.625068
O O2 0.581389 0.682779 0.605603
O O3 0.638256 0.477905 0.628156
O O4 0.427472 0.637270 0.915301
O O5 0.244195 0.462621 0.755651
O O6 0.244328 0.102337 0.588692
O O7 0.883335 0.557396 0.514663
O O8 0.007392 0.783912 0.349787
O O9 0.098274 0.793660 0.490517
O O10 0.875286 0.906085 0.712141
O O11 0.256148 0.876811 0.172895
O O12 0.365500 0.850763 0.247524
O O13 0.500000 0.000000 0.000000
O O14 0.839371 0.371068 0.267447
O O15 0.827278 0.210053 0.998838
O O16 0.000000 0.500000 0.000000
O O17 0.756168 0.215441 0.467435
#
# Coordination Sequence:
#
# PCOD8002492 Si02
#       8
#     2   2   2   2   2   2   2   2
#     4  10  21  38  60  87 118 159 200 251 283 349
#     4  10  21  39  59  88 121 153 205 245 295 343
#     4  10  21  39  60  88 124 149 200 248 300 352
#     4  11  20  36  62  88 116 150 206 241 288 355
#     4  11  20  37  63  87 114 150 206 246 284 353
#     4  10  20  35  63  92 106 155 201 250 291 335
#     4  11  24  39  60  87 125 164 187 245 306 352
#     4  11  24  39  59  89 126 159 191 243 308 348
#
# _framework density 19.163326999999999
#
# number of rings (size 3 to 8) (size 9 to 14) (size 15 to 20)
#    0.000    1.500    3.750    1.875    7.000    1.000 
#    0.000    3.750    0.000    0.000    0.000    0.000 
#    0.000    0.000    0.000    0.000    0.000    0.000 
#
# Total GULP energy -198400.490995 kJ/mol
# GULP energy per Si atom -12400.030687 kJ/mol
# Density = 1.911971 g / cm^3
# Si number density = 19.163327 Si / 1000 Ang^3
#
#
#
# Elastic Constant Matrix: (Units=GPa)
#
#
# Indices 1 2 3 4 5 6 
#
# 1 87.6627 47.7225 37.1833 -1.9762 3.0226 0.5818
# 2 47.7225 105.0576 42.6049 8.1582 13.7513 0.4708
# 3 37.1833 42.6049 120.8716 8.5770 -2.2992 -11.4690
# 4 -1.9762 8.1582 8.5770 26.5273 2.2685 -0.5859
# 5 3.0226 13.7513 -2.2992 2.2685 22.1154 -4.1837
# 6 0.5818 0.4708 -11.4690 -0.5859 -4.1837 29.5639
#
#
#
# Elastic Compliance Matrix: (Units=1/GPa)
#
#
# Indices 1 2 3 4 5 6 
#
# 1 0.016402 -0.006628 -0.003102 0.004160 0.000901 -0.001211
# 2 -0.006628 0.015498 -0.003640 -0.003351 -0.009317 -0.002913
# 3 -0.003102 -0.003640 0.011320 -0.003099 0.005162 0.005180
# 4 0.004160 -0.003351 -0.003099 0.040286 -0.003104 -0.000872
# 5 0.000901 -0.009317 0.005162 -0.003104 0.053568 0.009652
# 6 -0.001211 -0.002913 0.005180 -0.000872 0.009652 0.037253
#
#
# Mechanical properties :
#
#
# Convention : Reuss Voigt Hill
#
# Bulk Modulus (GPa) = 60.67916 63.17924 61.92920
# Shear Modulus (GPa) = 24.20585 28.04675 26.12630
#
# Velocity S-wave (km/s) = 3.55792 3.82981 3.69636
# Velocity P-wave (km/s) = 6.97218 7.25238 7.11366
#
# Compressibility (1/GPa) = 0.01648012
#
# Stress axis : x y z
#
# Youngs Moduli (GPa) = 60.96699 64.52344 88.33857
#
# Poissons Ratio (x) = 0.42767 0.27406
# Poissons Ratio (y) = 0.40410 0.32152
# Poissons Ratio (z) = 0.18914 0.23484
#
# Static dielectric constant tensor:
#      x y z
#    x 3.450400 0.182430 0.029090 
#    y 0.182430 3.250090 0.315220 
#    z 0.029090 0.315220 2.320140 
# 
# 
# High freq. dielectric constant tensor:
#      x y z
#    x 1.739390 0.019300 -0.007560 
#    y 0.019300 1.730740 0.008110 
#    z -0.007560 0.008110 1.754660 
# 
# From -- ./inp_files/174970.got.cif
#   From: 2010.06.25/outbox.cif.g09.slc.cpg/sg2_88_cif.got.tgz:174970.got - 2010.06.27 13:26:56.
