data_PCOD8002977
_publ_section_title
;
Structure prediction by ZEFSAII (Michael W. Deem and Ramdas Pophale) SiO2 
 PCOD8002977
Probable space group: P -1
;
_chemical_formula_sum "Si O2"
_cell_formula_units_Z 12
_cell_length_a 14.743325
_cell_length_b 8.429317
_cell_length_c 9.156990
_cell_angle_alpha 51.839141
_cell_angle_beta 59.700688
_cell_angle_gamma 35.359014
_cell_volume 517.808130
_symmetry_space_group_name_H-M "P -1"
_symmetry_group_IT_number 2
_symmetry_cell_setting 'triclinic'
loop_
_space_group_symop_operation_xyz
x,y,z
-x,-y,-z
loop_
_atom_site_type_symbol
_atom_site_label
_atom_site_fract_x
_atom_site_fract_y
_atom_site_fract_z
Si Si1 0.242255 0.351710 0.076647
Si Si2 0.794495 0.943970 0.522246
Si Si3 0.458765 0.828994 0.972854
Si Si4 0.747629 0.331356 0.556586
Si Si5 0.042402 0.898388 0.730144
Si Si6 0.553434 0.243259 0.299539
O O1 0.380623 0.276421 0.084561
O O2 0.157554 0.329043 0.277525
O O3 0.104604 0.696804 0.937865
O O4 0.315671 0.125650 0.010511
O O5 0.690957 0.220357 0.566624
O O6 0.940561 0.880247 0.393339
O O7 0.702956 0.016125 0.409767
O O8 0.405400 0.911458 0.800827
O O9 0.490205 0.560069 0.155329
O O10 0.851062 0.327340 0.367508
O O11 0.593803 0.662586 0.556234
O O12 0.861129 0.102096 0.730337
#
# Coordination Sequence:
#
# PCOD8002977 Si02
#       6
#     2   2   2   2   2   2
#     4  11  21  37  61  88 110 153 194 229 288 337
#     4  10  20  36  61  85 113 153 187 237 282 336
#     4  10  22  35  58  92 115 147 190 243 282 331
#     4   9  19  37  58  85 114 157 183 232 289 334
#     4   9  20  38  58  84 117 151 192 229 277 352
#     4  11  20  38  60  87 119 145 192 239 286 330
#
# _framework density 23.174607999999999
#
# number of rings (size 3 to 8) (size 9 to 14) (size 15 to 20)
#    1.000    1.000    3.333    0.500    4.667    1.333 
#    0.000    0.833    0.000    2.000    0.000    0.000 
#    0.000    0.000    0.000    0.000    0.000    0.000 
#
# Total GULP energy -148684.440249 kJ/mol
# GULP energy per Si atom -12390.370021 kJ/mol
# Density = 2.312186 g / cm^3
# Si number density = 23.174608 Si / 1000 Ang^3
#
#
#
# Elastic Constant Matrix: (Units=GPa)
#
#
# Indices 1 2 3 4 5 6 
#
# 1 105.1108 22.1927 53.8350 -2.0315 34.7042 1.5367
# 2 22.1927 23.1590 8.4971 5.1838 12.2792 0.1724
# 3 53.8350 8.4971 120.7504 -19.8121 29.7862 -1.6772
# 4 -2.0315 5.1838 -19.8121 22.9005 2.6081 5.7672
# 5 34.7042 12.2792 29.7862 2.6081 33.6202 0.8853
# 6 1.5367 0.1724 -1.6772 5.7672 0.8853 9.7784
#
#
#
# Elastic Compliance Matrix: (Units=1/GPa)
#
#
# Indices 1 2 3 4 5 6 
#
# 1 0.017336 -0.009942 -0.004006 0.002493 -0.010811 -0.003728
# 2 -0.009942 0.062385 0.000562 -0.015923 -0.012077 0.011043
# 3 -0.004006 0.000562 0.014935 0.014772 -0.010328 -0.004596
# 4 0.002493 -0.015923 0.014772 0.071609 -0.014386 -0.038509
# 5 -0.010811 -0.012077 -0.010328 -0.014386 0.055485 0.003602
# 6 -0.003728 0.011043 -0.004596 -0.038509 0.003602 0.124255
#
#
# Mechanical properties :
#
#
# Convention : Reuss Voigt Hill
#
# Bulk Modulus (GPa) = 14.73039 46.45219 30.59129
# Shear Modulus (GPa) = 12.64524 24.22620 18.43572
#
# Velocity S-wave (km/s) = 2.33845 3.23674 2.82355
# Velocity P-wave (km/s) = 3.69611 5.83580 4.88456
#
# Compressibility (1/GPa) = 0.06788687
#
# Stress axis : x y z
#
# Youngs Moduli (GPa) = 57.68190 16.02943 66.95540
#
# Poissons Ratio (x) = 0.15936 0.26820
# Poissons Ratio (y) = 0.57345 -0.03764
# Poissons Ratio (z) = 0.23105 -0.00901
#
# Static dielectric constant tensor:
#      x y z
#    x 4.156040 0.040740 0.014010 
#    y 0.040740 3.554370 0.042380 
#    z 0.014010 0.042380 4.200860 
# 
# 
# High freq. dielectric constant tensor:
#      x y z
#    x 1.916830 -0.000050 0.007920 
#    y -0.000050 1.867850 0.002330 
#    z 0.007920 0.002330 1.923240 
# 
# From -- ./inp_files/218200.got.cif
#   From: 2010.06.25/outbox.cif.g09.slc.cpg/sg2_110_cif.got.tgz:218200.got - 2010.06.27 13:26:56.
