data_PCOD8002238
_publ_section_title
;
Structure prediction by ZEFSAII (Michael W. Deem and Ramdas Pophale) SiO2 
 PCOD8002238
Probable space group: P -1
;
_chemical_formula_sum "Si O2"
_cell_formula_units_Z 16
_cell_length_a 16.627415
_cell_length_b 19.834615
_cell_length_c 7.806344
_cell_angle_alpha 34.918230
_cell_angle_beta 136.715241
_cell_angle_gamma 147.131723
_cell_volume 793.368053
_symmetry_space_group_name_H-M "P -1"
_symmetry_group_IT_number 2
_symmetry_cell_setting 'triclinic'
loop_
_space_group_symop_operation_xyz
x,y,z
-x,-y,-z
loop_
_atom_site_type_symbol
_atom_site_label
_atom_site_fract_x
_atom_site_fract_y
_atom_site_fract_z
Si Si1 0.074911 0.194581 0.580844
Si Si2 0.150042 0.369633 0.886473
Si Si3 0.612626 0.242821 0.096558
Si Si4 0.704768 0.062695 0.786933
Si Si5 0.968392 0.081209 0.022235
Si Si6 0.357335 0.489286 0.257478
Si Si7 0.896572 0.256347 0.979448
Si Si8 0.145752 0.565424 0.207068
O O1 0.226077 0.362057 0.441825
O O2 0.059525 0.148417 0.847898
O O3 0.934680 0.189112 0.329521
O O4 0.075463 0.082898 0.685023
O O5 0.150879 0.437687 0.563297
O O6 0.081001 0.196516 0.104892
O O7 0.041066 0.371068 0.845581
O O8 0.309107 0.451698 0.058967
O O9 0.688503 0.183005 0.437616
O O10 0.445264 0.104315 0.076968
O O11 0.608215 0.353280 0.981085
O O12 0.704400 0.326788 0.892987
O O13 0.817379 0.064273 0.831877
O O14 0.764246 0.114946 0.962003
O O15 0.500000 0.500000 0.500000
O O16 0.845572 0.345104 0.801913
O O17 0.000000 0.500000 0.000000
#
# Coordination Sequence:
#
# PCOD8002238 Si02
#       8
#     2   2   2   2   2   2   2   2
#     4  10  21  36  59  87 113 148 193 231 281 341
#     4  10  21  36  59  86 112 147 194 232 279 340
#     4  11  23  38  58  83 114 149 191 231 284 344
#     4  10  22  39  58  82 113 151 188 234 286 334
#     4  10  20  38  59  83 114 147 188 238 280 333
#     4  11  23  40  59  82 117 154 188 234 284 337
#     4  10  20  35  58  84 112 147 189 235 281 333
#     4  12  21  36  61  88 118 148 185 237 285 332
#
# _framework density 20.167186000000001
#
# number of rings (size 3 to 8) (size 9 to 14) (size 15 to 20)
#    0.000    1.500    0.000    7.125    0.000    6.000 
#    0.000    6.250    0.000    0.000    0.000    0.000 
#    0.000    0.000    0.000    0.000    0.000    0.000 
#
# Total GULP energy -198385.677591 kJ/mol
# GULP energy per Si atom -12399.104849 kJ/mol
# Density = 2.012128 g / cm^3
# Si number density = 20.167186 Si / 1000 Ang^3
#
#
#
# Elastic Constant Matrix: (Units=GPa)
#
#
# Indices 1 2 3 4 5 6 
#
# 1 73.6393 30.4892 14.3895 -4.4728 5.8159 -3.8863
# 2 30.4892 109.2161 39.0691 8.4003 9.4097 1.5800
# 3 14.3895 39.0691 66.8936 -4.0611 4.0190 3.6845
# 4 -4.4728 8.4003 -4.0611 35.6949 -7.8830 4.2747
# 5 5.8159 9.4097 4.0190 -7.8830 39.6913 -4.3924
# 6 -3.8863 1.5800 3.6845 4.2747 -4.3924 24.7205
#
#
#
# Elastic Compliance Matrix: (Units=1/GPa)
#
#
# Indices 1 2 3 4 5 6 
#
# 1 0.015843 -0.004311 -0.000841 0.002520 -0.000451 0.002376
# 2 -0.004311 0.013557 -0.007125 -0.005169 -0.002899 -0.000104
# 3 -0.000841 -0.007125 0.019714 0.004276 0.000300 -0.003301
# 4 0.002520 -0.005169 0.004276 0.031940 0.006289 -0.004316
# 5 -0.000451 -0.002899 0.000300 0.006289 0.027596 0.003886
# 6 0.002376 -0.000104 -0.003301 -0.004316 0.003886 0.042761
#
#
# Mechanical properties :
#
#
# Convention : Reuss Voigt Hill
#
# Bulk Modulus (GPa) = 40.71434 46.40495 43.55964
# Shear Modulus (GPa) = 27.15135 31.07473 29.11304
#
# Velocity S-wave (km/s) = 3.67319 3.92963 3.80358
# Velocity P-wave (km/s) = 6.18240 6.60677 6.39810
#
# Compressibility (1/GPa) = 0.02456137
#
# Stress axis : x y z
#
# Youngs Moduli (GPa) = 63.11887 73.76136 50.72420
#
# Poissons Ratio (x) = 0.31802 0.04264
# Poissons Ratio (y) = 0.27214 0.36139
# Poissons Ratio (z) = 0.05306 0.52552
#
# Static dielectric constant tensor:
#      x y z
#    x 3.584280 -0.116160 0.134250 
#    y -0.116160 3.778430 -0.064650 
#    z 0.134250 -0.064650 3.797610 
# 
# 
# High freq. dielectric constant tensor:
#      x y z
#    x 1.781440 -0.015520 0.003930 
#    y -0.015520 1.791670 -0.009290 
#    z 0.003930 -0.009290 1.794480 
# 
# From -- ./inp_files/338042.got.cif
#   From: 2010.06.25/outbox.cif.g09.slc.cpg/sg2_170_cif.got.tgz:338042.got - 2010.06.27 13:26:56.
