data_PCOD8002392
_publ_section_title
;
Structure prediction by ZEFSAII (Michael W. Deem and Ramdas Pophale) SiO2 
 PCOD8002392
Probable space group: P -1
;
_chemical_formula_sum "Si O2"
_cell_formula_units_Z 12
_cell_length_a 10.523879
_cell_length_b 14.166386
_cell_length_c 10.859598
_cell_angle_alpha 124.584061
_cell_angle_beta 27.307526
_cell_angle_gamma 111.475676
_cell_volume 569.060644
_symmetry_space_group_name_H-M "P -1"
_symmetry_group_IT_number 2
_symmetry_cell_setting 'triclinic'
loop_
_space_group_symop_operation_xyz
x,y,z
-x,-y,-z
loop_
_atom_site_type_symbol
_atom_site_label
_atom_site_fract_x
_atom_site_fract_y
_atom_site_fract_z
Si Si1 0.623984 0.368843 0.860602
Si Si2 0.219306 0.380337 0.446435
Si Si3 0.283527 0.876610 0.526911
Si Si4 0.598266 0.028966 0.253362
Si Si5 0.791365 0.402234 0.239275
Si Si6 0.611943 0.731999 0.523141
O O1 0.629027 0.267349 0.680532
O O2 0.947191 0.342687 0.615890
O O3 0.500000 0.500000 0.000000
O O4 0.431405 0.355760 0.130024
O O5 0.113537 0.526136 0.680022
O O6 0.384259 0.292480 0.352477
O O7 0.433162 0.888051 0.535964
O O8 0.408488 0.941895 0.362436
O O9 0.932397 0.942568 0.877293
O O10 0.459518 0.124038 0.331994
O O11 0.500000 0.500000 0.500000
O O12 0.669693 0.297374 0.314336
O O13 0.068426 0.351103 0.869947
#
# Coordination Sequence:
#
# PCOD8002392 Si02
#       6
#     2   2   2   2   2   2
#     4  12  26  43  63  90 130 174 202 253 319 389
#     4  11  23  40  60  94 129 163 208 256 313 381
#     4  10  23  43  63  90 127 160 220 255 304 368
#     4  10  22  42  68  91 118 167 211 272 300 359
#     4  10  20  35  60  93 131 161 199 261 307 367
#     4  11  21  39  66  95 125 163 213 261 319 360
#
# _framework density 21.087382999999999
#
# number of rings (size 3 to 8) (size 9 to 14) (size 15 to 20)
#    0.000    1.333    0.000    7.500    4.667    0.000 
#    0.000    5.000    0.000    0.000    0.000    0.000 
#    0.000    0.000    0.000    0.000    0.000    0.000 
#
# Total GULP energy -148803.116760 kJ/mol
# GULP energy per Si atom -12400.259730 kJ/mol
# Density = 2.103939 g / cm^3
# Si number density = 21.087383 Si / 1000 Ang^3
#
#
#
# Elastic Constant Matrix: (Units=GPa)
#
#
# Indices 1 2 3 4 5 6 
#
# 1 73.4792 54.2281 42.0402 -0.6322 -15.6494 -0.5977
# 2 54.2281 165.5026 57.2251 -5.7824 -5.5182 -0.2629
# 3 42.0402 57.2251 125.6179 -25.6177 -12.8285 0.8937
# 4 -0.6322 -5.7824 -25.6177 52.6815 15.9683 -2.2654
# 5 -15.6494 -5.5182 -12.8285 15.9683 98.2679 -0.4149
# 6 -0.5977 -0.2629 0.8937 -2.2654 -0.4149 40.5102
#
#
#
# Elastic Compliance Matrix: (Units=1/GPa)
#
#
# Indices 1 2 3 4 5 6 
#
# 1 0.020916 -0.005112 -0.005122 -0.003694 0.002976 0.000212
# 2 -0.005112 0.008460 -0.002211 -0.000018 -0.000625 0.000021
# 3 -0.005122 -0.002211 0.011776 0.005511 -0.000298 -0.000045
# 4 -0.003694 -0.000018 0.005511 0.022740 -0.003561 0.001059
# 5 0.002976 -0.000625 -0.000298 -0.003561 0.011155 -0.000038
# 6 0.000212 0.000021 -0.000045 0.001059 -0.000038 0.024748
#
#
# Mechanical properties :
#
#
# Convention : Reuss Voigt Hill
#
# Bulk Modulus (GPa) = 61.49099 74.62074 68.05586
# Shear Modulus (GPa) = 38.43039 52.36568 45.39804
#
# Velocity S-wave (km/s) = 4.27363 4.98865 4.64492
# Velocity P-wave (km/s) = 7.31951 8.28525 7.81731
#
# Compressibility (1/GPa) = 0.01626255
#
# Stress axis : x y z
#
# Youngs Moduli (GPa) = 47.80972 118.20174 84.92115
#
# Poissons Ratio (x) = 0.60422 0.43498
# Poissons Ratio (y) = 0.24439 0.18774
# Poissons Ratio (z) = 0.24489 0.26132
#
# Static dielectric constant tensor:
#      x y z
#    x 3.751030 0.289040 -0.004940 
#    y 0.289040 4.367490 -0.288060 
#    z -0.004940 -0.288060 3.816470 
# 
# 
# High freq. dielectric constant tensor:
#      x y z
#    x 1.805680 0.003780 -0.004020 
#    y 0.003780 1.843460 -0.018590 
#    z -0.004020 -0.018590 1.834940 
# 
# From -- ./inp_files/83445.got.cif
#   From: 2010.06.25/outbox.cif.g09.slc.cpg/sg2_42_cif.got.tgz:83445.got - 2010.06.27 13:26:56.
