data_PCOD8002517
_publ_section_title
;
Structure prediction by ZEFSAII (Michael W. Deem and Ramdas Pophale) SiO2 
 PCOD8002517
Probable space group: P -1
;
_chemical_formula_sum "Si O2"
_cell_formula_units_Z 16
_cell_length_a 8.678037
_cell_length_b 10.268292
_cell_length_c 12.654604
_cell_angle_alpha 75.254778
_cell_angle_beta 130.290699
_cell_angle_gamma 127.328155
_cell_volume 666.120308
_symmetry_space_group_name_H-M "P -1"
_symmetry_group_IT_number 2
_symmetry_cell_setting 'triclinic'
loop_
_space_group_symop_operation_xyz
x,y,z
-x,-y,-z
loop_
_atom_site_type_symbol
_atom_site_label
_atom_site_fract_x
_atom_site_fract_y
_atom_site_fract_z
Si Si1 0.899271 0.216191 0.842269
Si Si2 0.587148 0.307521 0.380694
Si Si3 0.072583 0.138015 0.747578
Si Si4 0.045179 0.186079 0.132280
Si Si5 0.678326 0.739572 0.376373
Si Si6 0.985583 0.350420 0.417787
Si Si7 0.409700 0.076957 0.548167
Si Si8 0.883698 0.520931 0.776391
O O1 0.108666 0.249470 0.842475
O O2 0.635825 0.073872 0.694434
O O3 0.930853 0.384206 0.860006
O O4 0.915970 0.131388 0.971358
O O5 0.341514 0.277123 0.227660
O O6 0.804860 0.507132 0.437662
O O7 0.538337 0.234593 0.492013
O O8 0.704948 0.240495 0.367602
O O9 0.305244 0.247608 0.747098
O O10 0.064267 0.977840 0.810499
O O11 0.817343 0.085663 0.581947
O O12 0.986267 0.309640 0.131646
O O13 0.918842 0.763299 0.532163
O O14 0.700550 0.896106 0.402805
O O15 0.415175 0.566602 0.332293
O O16 0.991375 0.428199 0.293502
#
# Coordination Sequence:
#
# PCOD8002517 Si02
#       8
#     2   2   2   2   2   2   2   2
#     4  11  23  42  66  94 130 169 214 266 320 378
#     4  10  20  35  64  94 124 160 214 261 312 367
#     4  11  24  41  66  95 128 171 216 263 319 380
#     4  11  24  45  65  94 130 174 210 263 323 385
#     4  11  21  37  66  99 130 163 212 271 318 376
#     4  11  19  35  65  96 126 162 211 267 313 367
#     4  10  21  41  63  94 126 167 213 264 316 377
#     4  11  23  41  67  95 130 169 213 264 319 379
#
# _framework density 24.019687999999999
#
# number of rings (size 3 to 8) (size 9 to 14) (size 15 to 20)
#    0.000    1.250    3.750    4.125    1.750    1.000 
#    0.000   10.000    0.000    0.000    0.000    0.000 
#    0.000    0.000    0.000    0.000    0.000    0.000 
#
# Total GULP energy -198269.513481 kJ/mol
# GULP energy per Si atom -12391.844593 kJ/mol
# Density = 2.396502 g / cm^3
# Si number density = 24.019688 Si / 1000 Ang^3
#
#
#
# Elastic Constant Matrix: (Units=GPa)
#
#
# Indices 1 2 3 4 5 6 
#
# 1 134.2327 24.7425 21.7524 -8.4614 -22.7743 5.8166
# 2 24.7425 55.7716 12.0067 -9.7404 0.0491 13.1288
# 3 21.7524 12.0067 106.8986 -23.0284 -9.3795 9.7117
# 4 -8.4614 -9.7404 -23.0284 27.5778 -2.1431 -8.4028
# 5 -22.7743 0.0491 -9.3795 -2.1431 27.0553 -5.0853
# 6 5.8166 13.1288 9.7117 -8.4028 -5.0853 35.6254
#
#
#
# Elastic Compliance Matrix: (Units=1/GPa)
#
#
# Indices 1 2 3 4 5 6 
#
# 1 0.009861 -0.004322 -0.000409 0.002416 0.008717 0.001908
# 2 -0.004322 0.022294 -0.000676 0.003388 -0.005005 -0.007241
# 3 -0.000409 -0.000676 0.012097 0.010122 0.004666 0.000071
# 4 0.002416 0.003388 0.010122 0.050284 0.011223 0.009060
# 5 0.008717 -0.005005 0.004666 0.011223 0.048452 0.008713
# 6 0.001908 -0.007241 0.000071 0.009060 0.008713 0.033788
#
#
# Mechanical properties :
#
#
# Convention : Reuss Voigt Hill
#
# Bulk Modulus (GPa) = 29.90562 45.98957 37.94760
# Shear Modulus (GPa) = 25.15909 33.94513 29.55211
#
# Velocity S-wave (km/s) = 3.23992 3.76336 3.51141
# Velocity P-wave (km/s) = 5.14525 6.17025 5.68092
#
# Compressibility (1/GPa) = 0.03343853
#
# Stress axis : x y z
#
# Youngs Moduli (GPa) = 101.40758 44.85555 82.66400
#
# Poissons Ratio (x) = 0.19385 0.03383
# Poissons Ratio (y) = 0.43824 0.05588
# Poissons Ratio (z) = 0.04150 0.03032
#
# Static dielectric constant tensor:
#      x y z
#    x 4.696230 -0.047990 -0.073410 
#    y -0.047990 4.165790 -0.094290 
#    z -0.073410 -0.094290 3.981760 
# 
# 
# High freq. dielectric constant tensor:
#      x y z
#    x 1.973170 -0.010080 -0.015730 
#    y -0.010080 1.947150 -0.016680 
#    z -0.015730 -0.016680 1.918440 
# 
# From -- ./inp_files/390085.got.cif
#   From: 2010.06.25/outbox.cif.g09.slc.cpg/sg2_196_cif.got.tgz:390085.got - 2010.06.27 13:26:56.
