data_PCOD8002868
_publ_section_title
;
Structure prediction by ZEFSAII (Michael W. Deem and Ramdas Pophale) SiO2 
 PCOD8002868
Probable space group: P -1
;
_chemical_formula_sum "Si O2"
_cell_formula_units_Z 16
_cell_length_a 13.432466
_cell_length_b 18.892580
_cell_length_c 9.135029
_cell_angle_alpha 137.316739
_cell_angle_beta 47.167897
_cell_angle_gamma 153.599424
_cell_volume 697.053594
_symmetry_space_group_name_H-M "P -1"
_symmetry_group_IT_number 2
_symmetry_cell_setting 'triclinic'
loop_
_space_group_symop_operation_xyz
x,y,z
-x,-y,-z
loop_
_atom_site_type_symbol
_atom_site_label
_atom_site_fract_x
_atom_site_fract_y
_atom_site_fract_z
Si Si1 0.398251 0.673692 0.278331
Si Si2 0.590474 0.492498 0.762483
Si Si3 0.498486 0.866216 0.889581
Si Si4 0.922200 0.619003 0.291920
Si Si5 0.431728 0.320605 0.373683
Si Si6 0.222662 0.205825 0.109367
Si Si7 0.348503 0.980511 0.324109
Si Si8 0.987306 0.477315 0.203776
O O1 0.343117 0.578213 0.340059
O O2 0.151831 0.552562 0.286087
O O3 0.525796 0.858830 0.460568
O O4 0.553809 0.706956 0.056243
O O5 0.395517 0.348665 0.615438
O O6 0.794335 0.687039 0.782023
O O7 0.500000 0.500000 0.000000
O O8 0.561562 0.801013 0.813434
O O9 0.264779 0.715244 0.802375
O O10 0.682119 0.004286 0.792049
O O11 0.475738 0.946066 0.152008
O O12 0.673778 0.515744 0.382781
O O13 0.098169 0.819008 0.393158
O O14 0.976262 0.594430 0.355226
O O15 0.918744 0.527627 0.035420
O O16 0.251391 0.237954 0.304724
O O17 0.000000 0.000000 0.000000
#
# Coordination Sequence:
#
# PCOD8002868 Si02
#       8
#     2   2   2   2   2   2   2   2
#     4  11  22  42  63  92 137 168 200 274 324 366
#     4  10  24  46  65  91 124 169 224 268 320 383
#     4   9  20  39  61  97 132 166 210 241 317 411
#     4   9  19  35  62  94 123 170 214 240 316 401
#     4  11  20  45  71  87 128 178 203 270 334 373
#     4  11  26  46  66  97 120 161 233 282 314 373
#     4  10  20  36  59  97 140 157 208 255 304 391
#     4   9  18  37  60  90 130 172 206 246 312 398
#
# _framework density 22.953759000000002
#
# number of rings (size 3 to 8) (size 9 to 14) (size 15 to 20)
#    0.000    2.000    2.500    1.125    1.750    1.000 
#    6.750    2.500    0.000    0.000    0.000    0.000 
#    0.000    0.000    0.000    0.000    0.000    0.000 
#
# Total GULP energy -198243.188106 kJ/mol
# GULP energy per Si atom -12390.199257 kJ/mol
# Density = 2.290152 g / cm^3
# Si number density = 22.953759 Si / 1000 Ang^3
#
#
#
# Elastic Constant Matrix: (Units=GPa)
#
#
# Indices 1 2 3 4 5 6 
#
# 1 100.2721 62.6741 42.4393 28.7553 29.5645 -8.9031
# 2 62.6741 102.9828 23.7005 21.0006 6.7772 -21.9449
# 3 42.4393 23.7005 107.8277 25.7099 11.4593 -11.0162
# 4 28.7553 21.0006 25.7099 35.8871 -8.4438 -3.9736
# 5 29.5645 6.7772 11.4593 -8.4438 34.5992 3.4758
# 6 -8.9031 -21.9449 -11.0162 -3.9736 3.4758 31.9282
#
#
#
# Elastic Compliance Matrix: (Units=1/GPa)
#
#
# Indices 1 2 3 4 5 6 
#
# 1 0.041178 -0.015365 -0.000631 -0.032876 -0.040089 0.000977
# 2 -0.015365 0.019467 0.000929 0.003337 0.008933 0.008859
# 3 -0.000631 0.000929 0.013014 -0.010512 -0.006961 0.004402
# 4 -0.032876 0.003337 -0.010512 0.070495 0.048831 -0.007043
# 5 -0.040089 0.008933 -0.006961 0.048831 0.076605 -0.009703
# 6 0.000977 0.008859 0.004402 -0.007043 -0.009703 0.039380
#
#
# Mechanical properties :
#
#
# Convention : Reuss Voigt Hill
#
# Bulk Modulus (GPa) = 22.97539 63.19004 43.08272
# Shear Modulus (GPa) = 16.40517 32.63414 24.51965
#
# Velocity S-wave (km/s) = 2.67630 3.77468 3.27191
# Velocity P-wave (km/s) = 4.42507 6.82544 5.75186
#
# Compressibility (1/GPa) = 0.04352483
#
# Stress axis : x y z
#
# Youngs Moduli (GPa) = 24.28477 51.36939 76.84000
#
# Poissons Ratio (x) = 0.78928 0.04848
# Poissons Ratio (y) = 0.37313 -0.07135
# Poissons Ratio (z) = 0.01532 -0.04770
#
# Static dielectric constant tensor:
#      x y z
#    x 4.356600 -0.404470 -0.240680 
#    y -0.404470 4.144580 -0.080910 
#    z -0.240680 -0.080910 4.416920 
# 
# 
# High freq. dielectric constant tensor:
#      x y z
#    x 1.891690 -0.033040 -0.015280 
#    y -0.033040 1.892720 -0.003020 
#    z -0.015280 -0.003020 1.924230 
# 
# From -- ./inp_files/279819.got.cif
#   From: 2010.06.25/outbox.cif.g09.slc.cpg/sg2_140_cif.got.tgz:279819.got - 2010.06.27 13:26:56.
