data_PCOD8002493
_publ_section_title
;
Structure prediction by ZEFSAII (Michael W. Deem and Ramdas Pophale) SiO2 
 PCOD8002493
Probable space group: P -1
;
_chemical_formula_sum "Si O2"
_cell_formula_units_Z 16
_cell_length_a 11.090188
_cell_length_b 8.159930
_cell_length_c 9.365631
_cell_angle_alpha 86.996616
_cell_angle_beta 110.880167
_cell_angle_gamma 73.990953
_cell_volume 750.382296
_symmetry_space_group_name_H-M "P -1"
_symmetry_group_IT_number 2
_symmetry_cell_setting 'triclinic'
loop_
_space_group_symop_operation_xyz
x,y,z
-x,-y,-z
loop_
_atom_site_type_symbol
_atom_site_label
_atom_site_fract_x
_atom_site_fract_y
_atom_site_fract_z
Si Si1 0.870387 0.244026 0.545041
Si Si2 0.156520 0.281078 0.152808
Si Si3 0.446373 0.167337 0.167611
Si Si4 0.234678 0.783703 0.932838
Si Si5 0.912482 0.322299 0.878132
Si Si6 0.506052 0.807785 0.122016
Si Si7 0.381265 0.581503 0.746760
Si Si8 0.967415 0.861210 0.647005
O O1 0.906533 0.306387 0.708152
O O2 0.728218 0.375566 0.427872
O O3 0.986526 0.240594 0.477527
O O4 0.861815 0.050140 0.563967
O O5 0.315180 0.185979 0.207672
O O6 0.126059 0.480763 0.103256
O O7 0.108873 0.247830 0.291899
O O8 0.065305 0.216709 0.001777
O O9 0.526159 0.295533 0.251034
O O10 0.532271 0.960042 0.222904
O O11 0.403718 0.214911 0.982320
O O12 0.312449 0.616794 0.873710
O O13 0.098520 0.888173 0.783867
O O14 0.196815 0.740649 0.078003
O O15 0.346056 0.881237 0.001054
O O16 0.536581 0.623119 0.222776
#
# Coordination Sequence:
#
# PCOD8002493 Si02
#       8
#     2   2   2   2   2   2   2   2
#     4  10  22  40  60  85 117 164 196 231 306 372
#     4  10  21  38  59  91 122 144 199 264 291 341
#     4  10  21  37  60  94 118 153 204 253 290 349
#     4   9  18  35  66  87 114 152 203 254 290 345
#     4  10  21  36  63  91 115 155 196 247 309 351
#     4  10  20  35  63  93 114 161 203 242 302 343
#     4  10  20  41  61  85 127 160 193 247 292 359
#     4   9  21  39  60  86 118 155 197 247 299 355
#
# _framework density 21.322465000000001
#
# number of rings (size 3 to 8) (size 9 to 14) (size 15 to 20)
#    0.000    2.250    0.000    3.000    3.500    2.500 
#    4.500    3.125    0.000    0.000    0.000    0.000 
#    0.000    0.000    0.000    0.000    0.000    0.000 
#
# Total GULP energy -198265.850588 kJ/mol
# GULP energy per Si atom -12391.615662 kJ/mol
# Density = 2.127393 g / cm^3
# Si number density = 21.322465 Si / 1000 Ang^3
#
#
#
# Elastic Constant Matrix: (Units=GPa)
#
#
# Indices 1 2 3 4 5 6 
#
# 1 98.0101 26.9775 40.1154 1.7522 -10.8748 -1.6797
# 2 26.9775 95.0874 24.1965 -10.1599 6.9171 7.8730
# 3 40.1154 24.1965 106.9707 10.5302 -11.0913 -1.6734
# 4 1.7522 -10.1599 10.5302 30.2084 -2.9914 -1.2635
# 5 -10.8748 6.9171 -11.0913 -2.9914 15.0147 -4.4468
# 6 -1.6797 7.8730 -1.6734 -1.2635 -4.4468 23.4180
#
#
#
# Elastic Compliance Matrix: (Units=1/GPa)
#
#
# Indices 1 2 3 4 5 6 
#
# 1 0.013957 -0.004359 -0.003026 0.000071 0.011193 0.004380
# 2 -0.004359 0.014958 -0.003837 0.004868 -0.014303 -0.008069
# 3 -0.003026 -0.003837 0.012801 -0.004524 0.009162 0.003483
# 4 0.000071 0.004868 -0.004524 0.036512 0.001850 0.000367
# 5 0.011193 -0.014303 0.009162 0.001850 0.095702 0.024538
# 6 0.004380 -0.008069 0.003483 0.000367 0.024538 0.050657
#
#
# Mechanical properties :
#
#
# Convention : Reuss Voigt Hill
#
# Bulk Modulus (GPa) = 51.88897 53.62744 52.75821
# Shear Modulus (GPa) = 19.72728 27.64681 23.68705
#
# Velocity S-wave (km/s) = 3.04499 3.60475 3.33663
# Velocity P-wave (km/s) = 6.06224 6.52157 6.29610
#
# Compressibility (1/GPa) = 0.01927192
#
# Stress axis : x y z
#
# Youngs Moduli (GPa) = 71.64804 66.85172 78.11893
#
# Poissons Ratio (x) = 0.29141 0.23639
# Poissons Ratio (y) = 0.31232 0.29976
# Poissons Ratio (z) = 0.21681 0.25653
#
# Static dielectric constant tensor:
#      x y z
#    x 3.903190 -0.043330 -0.049840 
#    y -0.043330 3.714940 -0.085860 
#    z -0.049840 -0.085860 3.659980 
# 
# 
# High freq. dielectric constant tensor:
#      x y z
#    x 1.834560 -0.001620 -0.012270 
#    y -0.001620 1.828840 -0.007000 
#    z -0.012270 -0.007000 1.815830 
# 
# From -- ./inp_files/243568.got.cif
#   From: 2010.06.25/outbox.cif.g09.slc.cpg/sg2_122_cif.got.tgz:243568.got - 2010.06.27 13:26:56.
