data_PCOD8002544
_publ_section_title
;
Structure prediction by ZEFSAII (Michael W. Deem and Ramdas Pophale) SiO2 
 PCOD8002544
Probable space group: P -1
;
_chemical_formula_sum "Si O2"
_cell_formula_units_Z 16
_cell_length_a 15.268896
_cell_length_b 8.908964
_cell_length_c 11.783345
_cell_angle_alpha 96.316193
_cell_angle_beta 28.055597
_cell_angle_gamma 85.942334
_cell_volume 699.341440
_symmetry_space_group_name_H-M "P -1"
_symmetry_group_IT_number 2
_symmetry_cell_setting 'triclinic'
loop_
_space_group_symop_operation_xyz
x,y,z
-x,-y,-z
loop_
_atom_site_type_symbol
_atom_site_label
_atom_site_fract_x
_atom_site_fract_y
_atom_site_fract_z
Si Si1 0.374168 0.274337 0.026664
Si Si2 0.780628 0.683749 0.555502
Si Si3 0.964348 0.420525 0.151165
Si Si4 0.383937 0.190638 0.646991
Si Si5 0.228412 0.976663 0.357389
Si Si6 0.533684 0.401859 0.653753
Si Si7 0.160177 0.058558 0.184241
Si Si8 0.457831 0.743847 0.748906
O O1 0.549777 0.118111 0.861756
O O2 0.467797 0.383025 0.856805
O O3 0.243949 0.370618 0.290837
O O4 0.236280 0.208713 0.096571
O O5 0.951406 0.541886 0.281720
O O6 0.566589 0.725166 0.743997
O O7 0.843983 0.840644 0.497006
O O8 0.765598 0.377715 0.375482
O O9 0.000000 0.500000 0.000000
O O10 0.149158 0.252718 0.953127
O O11 0.503015 0.266969 0.599593
O O12 0.380746 0.259749 0.530511
O O13 0.500000 0.000000 0.500000
O O14 0.075491 0.890285 0.567823
O O15 0.219206 0.980421 0.233548
O O16 0.397519 0.584988 0.787287
O O17 0.272996 0.910898 0.958132
#
# Coordination Sequence:
#
# PCOD8002544 Si02
#       8
#     2   2   2   2   2   2   2   2
#     4  11  21  42  64 101 143 170 221 276 330 407
#     4  10  20  40  71  98 134 181 216 279 333 397
#     4  11  25  46  70 101 132 177 233 274 336 406
#     4  12  27  47  71  98 134 173 231 289 328 400
#     4  10  20  35  68  96 135 179 222 269 332 396
#     4  11  27  42  70 100 134 182 217 278 348 394
#     4  10  20  37  64 100 129 179 226 268 330 397
#     4  11  21  42  67  95 132 175 223 274 336 394
#
# _framework density 22.878668000000001
#
# number of rings (size 3 to 8) (size 9 to 14) (size 15 to 20)
#    0.000    1.250    5.000    1.875    1.750    4.500 
#    0.000    0.625    0.000    0.000    0.000    0.000 
#    0.000    0.000    0.000    0.000    0.000    0.000 
#
# Total GULP energy -198334.615486 kJ/mol
# GULP energy per Si atom -12395.913468 kJ/mol
# Density = 2.282660 g / cm^3
# Si number density = 22.878668 Si / 1000 Ang^3
#
#
#
# Elastic Constant Matrix: (Units=GPa)
#
#
# Indices 1 2 3 4 5 6 
#
# 1 60.6670 41.9469 37.2228 -0.8771 10.8239 19.0244
# 2 41.9469 99.6763 57.5180 -8.0977 20.8070 9.4626
# 3 37.2228 57.5180 136.2039 -1.0783 13.2098 9.0289
# 4 -0.8771 -8.0977 -1.0783 49.2781 7.4947 1.3957
# 5 10.8239 20.8070 13.2098 7.4947 33.1455 -1.8674
# 6 19.0244 9.4626 9.0289 1.3957 -1.8674 32.8417
#
#
#
# Elastic Compliance Matrix: (Units=1/GPa)
#
#
# Indices 1 2 3 4 5 6 
#
# 1 0.029244 -0.008353 -0.003172 0.000055 -0.003836 -0.013882
# 2 -0.008353 0.018089 -0.004602 0.003879 -0.007654 0.000292
# 3 -0.003172 -0.004602 0.010115 -0.000611 0.000055 0.000412
# 4 0.000055 0.003879 -0.000611 0.022100 -0.007338 -0.002338
# 5 -0.003836 -0.007654 0.000055 -0.007338 0.038253 0.006899
# 6 -0.013882 0.000292 0.000412 -0.002338 0.006899 0.038785
#
#
# Mechanical properties :
#
#
# Convention : Reuss Voigt Hill
#
# Bulk Modulus (GPa) = 39.69415 63.32472 51.50944
# Shear Modulus (GPa) = 25.35023 33.71036 29.53029
#
# Velocity S-wave (km/s) = 3.33232 3.84271 3.59658
# Velocity P-wave (km/s) = 5.67391 6.88673 6.30953
#
# Compressibility (1/GPa) = 0.02519263
#
# Stress axis : x y z
#
# Youngs Moduli (GPa) = 34.19562 55.28370 98.86597
#
# Poissons Ratio (x) = 0.46180 0.31356
# Poissons Ratio (y) = 0.28564 0.45500
# Poissons Ratio (z) = 0.10846 0.25443
#
# Static dielectric constant tensor:
#      x y z
#    x 4.050510 0.196110 0.202900 
#    y 0.196110 4.097670 -0.067670 
#    z 0.202900 -0.067670 4.359090 
# 
# 
# High freq. dielectric constant tensor:
#      x y z
#    x 1.893580 0.009820 0.012800 
#    y 0.009820 1.894920 -0.004380 
#    z 0.012800 -0.004380 1.913820 
# 
# From -- ./inp_files/447596.got.cif
#   From: 2010.06.25/outbox.cif.g09.slc.cpg/sg2_224_cif.got.tgz:447596.got - 2010.06.27 13:26:56.
