data_PCOD8002288
_publ_section_title
;
Structure prediction by ZEFSAII (Michael W. Deem and Ramdas Pophale) SiO2 
 PCOD8002288
Probable space group: P -1
;
_chemical_formula_sum "Si O2"
_cell_formula_units_Z 16
_cell_length_a 9.074674
_cell_length_b 19.900586
_cell_length_c 6.632069
_cell_angle_alpha 118.205475
_cell_angle_beta 91.809931
_cell_angle_gamma 52.290185
_cell_volume 775.962529
_symmetry_space_group_name_H-M "P -1"
_symmetry_group_IT_number 2
_symmetry_cell_setting 'triclinic'
loop_
_space_group_symop_operation_xyz
x,y,z
-x,-y,-z
loop_
_atom_site_type_symbol
_atom_site_label
_atom_site_fract_x
_atom_site_fract_y
_atom_site_fract_z
Si Si1 0.639535 0.224685 0.989867
Si Si2 0.992988 0.395858 0.197753
Si Si3 0.651558 0.741624 0.283245
Si Si4 0.008635 0.000300 0.738668
Si Si5 0.683880 0.905178 0.499836
Si Si6 0.955019 0.234578 0.988739
Si Si7 0.280157 0.370582 0.474370
Si Si8 0.878358 0.918034 0.874871
O O1 0.466833 0.314822 0.255947
O O2 0.547514 0.209045 0.779679
O O3 0.796792 0.114646 0.956319
O O4 0.754333 0.258943 0.956587
O O5 0.803718 0.516193 0.318060
O O6 0.104245 0.380441 0.386588
O O7 0.909510 0.339934 0.137860
O O8 0.146368 0.350525 0.956192
O O9 0.646353 0.832321 0.462318
O O10 0.641005 0.696760 0.419314
O O11 0.026029 0.911198 0.714376
O O12 0.000000 0.000000 0.500000
O O13 0.180089 0.997709 0.835009
O O14 0.699478 0.948650 0.770203
O O15 0.879198 0.844411 0.282664
O O16 0.500000 0.000000 0.500000
O O17 0.020680 0.188070 0.154006
#
# Coordination Sequence:
#
# PCOD8002288 Si02
#       8
#     2   2   2   2   2   2   2   2
#     4  10  22  36  56  86 115 148 188 239 292 342
#     4   9  20  39  59  83 114 150 192 242 287 337
#     4  10  21  37  59  84 116 154 191 234 289 343
#     4  10  21  37  56  83 119 153 190 234 283 347
#     4  11  23  38  58  86 119 154 195 244 284 340
#     4  10  22  39  57  84 119 149 194 242 290 347
#     4  10  20  37  61  84 111 149 195 238 288 351
#     4  10  20  35  59  83 109 156 192 227 291 339
#
# _framework density 20.619551999999999
#
# number of rings (size 3 to 8) (size 9 to 14) (size 15 to 20)
#    0.000    2.000    0.000    3.375    0.000    7.000 
#    0.000    0.625    0.000    0.000    0.000    0.000 
#    0.000    0.000    0.000    0.000    0.000    0.000 
#
# Total GULP energy -198297.537243 kJ/mol
# GULP energy per Si atom -12393.596078 kJ/mol
# Density = 2.057262 g / cm^3
# Si number density = 20.619552 Si / 1000 Ang^3
#
#
#
# Elastic Constant Matrix: (Units=GPa)
#
#
# Indices 1 2 3 4 5 6 
#
# 1 137.1681 49.0967 50.9141 -4.0364 18.3580 10.7786
# 2 49.0967 89.5374 41.7288 -6.9313 5.8933 11.1238
# 3 50.9141 41.7288 101.4501 -17.8501 25.9504 3.3392
# 4 -4.0364 -6.9313 -17.8501 37.4425 -2.5241 0.3516
# 5 18.3580 5.8933 25.9504 -2.5241 33.5565 -4.3883
# 6 10.7786 11.1238 3.3392 0.3516 -4.3883 34.5917
#
#
#
# Elastic Compliance Matrix: (Units=1/GPa)
#
#
# Indices 1 2 3 4 5 6 
#
# 1 0.010316 -0.003933 -0.002923 -0.001196 -0.003050 -0.002042
# 2 -0.003933 0.015951 -0.005207 0.000277 0.003002 -0.003023
# 3 -0.002923 -0.005207 0.017243 0.006244 -0.010412 -0.000464
# 4 -0.001196 0.000277 0.006244 0.029472 -0.002122 -0.000888
# 5 -0.003050 0.003002 -0.010412 -0.002122 0.039624 0.006038
# 6 -0.002042 -0.003023 -0.000464 -0.000888 0.006038 0.031337
#
#
# Mechanical properties :
#
#
# Convention : Reuss Voigt Hill
#
# Bulk Modulus (GPa) = 51.58575 67.95939 59.77257
# Shear Modulus (GPa) = 28.64836 33.54589 31.09713
#
# Velocity S-wave (km/s) = 3.73148 4.03786 3.88769
# Velocity P-wave (km/s) = 6.60587 7.40063 7.01451
#
# Compressibility (1/GPa) = 0.01938520
#
# Stress axis : x y z
#
# Youngs Moduli (GPa) = 96.93357 62.69111 57.99495
#
# Poissons Ratio (x) = 0.24655 0.16951
# Poissons Ratio (y) = 0.38122 0.30199
# Poissons Ratio (z) = 0.28331 0.32644
#
# Static dielectric constant tensor:
#      x y z
#    x 3.856120 0.057030 0.211060 
#    y 0.057030 3.734420 -0.020730 
#    z 0.211060 -0.020730 3.949890 
# 
# 
# High freq. dielectric constant tensor:
#      x y z
#    x 1.810630 0.010000 0.012190 
#    y 0.010000 1.797950 -0.013430 
#    z 0.012190 -0.013430 1.809730 
# 
# From -- ./inp_files/53754.got.cif
#   From: 2010.06.25/outbox.cif.g09.slc.cpg/sg2_27_cif.got.tgz:53754.got - 2010.06.27 13:26:56.
