data_PCOD8002974
_publ_section_title
;
Structure prediction by ZEFSAII (Michael W. Deem and Ramdas Pophale) SiO2 
 PCOD8002974
Probable space group: P -1
;
_chemical_formula_sum "Si O2"
_cell_formula_units_Z 14
_cell_length_a 9.159087
_cell_length_b 12.227946
_cell_length_c 13.459469
_cell_angle_alpha 146.808895
_cell_angle_beta 60.278959
_cell_angle_gamma 108.093915
_cell_volume 699.189510
_symmetry_space_group_name_H-M "P -1"
_symmetry_group_IT_number 2
_symmetry_cell_setting 'triclinic'
loop_
_space_group_symop_operation_xyz
x,y,z
-x,-y,-z
loop_
_atom_site_type_symbol
_atom_site_label
_atom_site_fract_x
_atom_site_fract_y
_atom_site_fract_z
Si Si1 0.649923 0.825407 0.629118
Si Si2 0.997063 0.563137 0.338601
Si Si3 0.356979 0.663227 0.286088
Si Si4 0.482828 0.786154 0.140200
Si Si5 0.218043 0.305953 0.315120
Si Si6 0.828420 0.861403 0.007827
Si Si7 0.680035 0.270465 0.431874
O O1 0.829953 0.674155 0.416316
O O2 0.649224 0.827089 0.751157
O O3 0.490823 0.735758 0.577199
O O4 0.648496 0.053604 0.762971
O O5 0.968308 0.625293 0.513645
O O6 0.169670 0.624163 0.289445
O O7 0.014745 0.315749 0.139812
O O8 0.413096 0.805294 0.291078
O O9 0.350726 0.779871 0.481025
O O10 0.496556 0.446679 0.081840
O O11 0.664021 0.851988 0.124396
O O12 0.212152 0.169145 0.116974
O O13 0.285896 0.505601 0.415034
O O14 0.844672 0.097073 0.199936
#
# Coordination Sequence:
#
# PCOD8002974 Si02
#       7
#     2   2   2   2   2   2   2
#     4   9  22  35  56  87 116 147 182 238 289 317
#     4   9  20  38  55  82 121 149 178 239 279 333
#     4  10  20  38  63  80 111 150 201 224 275 341
#     4   9  19  38  60  83 106 158 186 233 279 336
#     4  10  20  39  56  83 123 147 181 235 277 346
#     4  10  20  36  61  84 113 152 191 224 283 332
#     4  11  21  36  60  88 107 153 193 229 274 341
#
# _framework density 20.023184000000001
#
# number of rings (size 3 to 8) (size 9 to 14) (size 15 to 20)
#    0.857    1.429    2.857    0.857    0.000    5.714 
#    2.571    1.429    0.000    8.571    0.000    0.000 
#    0.000    0.000    0.000    0.000    0.000    0.000 
#
# Total GULP energy -173451.806603 kJ/mol
# GULP energy per Si atom -12389.414757 kJ/mol
# Density = 1.997761 g / cm^3
# Si number density = 20.023184 Si / 1000 Ang^3
#
#
#
# Elastic Constant Matrix: (Units=GPa)
#
#
# Indices 1 2 3 4 5 6 
#
# 1 42.5210 10.5030 15.2972 10.1541 -16.3361 -13.8125
# 2 10.5030 110.6365 44.9198 3.3328 -5.8784 -7.4622
# 3 15.2972 44.9198 113.5921 3.6549 -2.4743 -20.3363
# 4 10.1541 3.3328 3.6549 29.2371 -5.5067 -13.3901
# 5 -16.3361 -5.8784 -2.4743 -5.5067 26.8389 7.2059
# 6 -13.8125 -7.4622 -20.3363 -13.3901 7.2059 26.9265
#
#
#
# Elastic Compliance Matrix: (Units=1/GPa)
#
#
# Indices 1 2 3 4 5 6 
#
# 1 0.035418 -0.000730 -0.002283 -0.004303 0.017797 0.009340
# 2 -0.000730 0.010924 -0.004441 -0.000828 0.001797 -0.001594
# 3 -0.002283 -0.004441 0.012394 0.003543 -0.003053 0.009538
# 4 -0.004303 -0.000828 0.003543 0.045985 0.000816 0.022888
# 5 0.017797 0.001797 -0.003053 0.000816 0.049881 -0.005622
# 6 0.009340 -0.001594 0.009538 0.022888 -0.005622 0.061577
#
#
# Mechanical properties :
#
#
# Convention : Reuss Voigt Hill
#
# Bulk Modulus (GPa) = 22.81642 45.35439 34.08541
# Shear Modulus (GPa) = 20.35026 29.66915 25.00971
#
# Velocity S-wave (km/s) = 3.19146 3.85351 3.53801
# Velocity P-wave (km/s) = 5.00003 6.51917 5.80947
#
# Compressibility (1/GPa) = 0.04382808
#
# Stress axis : x y z
#
# Youngs Moduli (GPa) = 28.23394 91.54165 80.68346
#
# Poissons Ratio (x) = 0.06686 0.18418
# Poissons Ratio (y) = 0.02062 0.35832
# Poissons Ratio (z) = 0.06445 0.40655
#
# Static dielectric constant tensor:
#      x y z
#    x 3.350090 -0.038820 -0.280700 
#    y -0.038820 3.783350 0.110410 
#    z -0.280700 0.110410 3.853030 
# 
# 
# High freq. dielectric constant tensor:
#      x y z
#    x 1.755020 0.002530 -0.019880 
#    y 0.002530 1.783880 0.006270 
#    z -0.019880 0.006270 1.783260 
# 
# From -- ./inp_files/388521.got.cif
#   From: 2010.06.25/outbox.cif.g09.slc.cpg/sg2_195_cif.got.tgz:388521.got - 2010.06.27 13:26:56.
