data_PCOD8002928
_publ_section_title
;
Structure prediction by ZEFSAII (Michael W. Deem and Ramdas Pophale) SiO2 
 PCOD8002928
Probable space group: P -1
;
_chemical_formula_sum "Si O2"
_cell_formula_units_Z 16
_cell_length_a 8.080724
_cell_length_b 10.760220
_cell_length_c 13.144729
_cell_angle_alpha 93.442164
_cell_angle_beta 43.777914
_cell_angle_gamma 108.692492
_cell_volume 722.990166
_symmetry_space_group_name_H-M "P -1"
_symmetry_group_IT_number 2
_symmetry_cell_setting 'triclinic'
loop_
_space_group_symop_operation_xyz
x,y,z
-x,-y,-z
loop_
_atom_site_type_symbol
_atom_site_label
_atom_site_fract_x
_atom_site_fract_y
_atom_site_fract_z
Si Si1 0.204489 0.642089 0.953496
Si Si2 0.154954 0.516675 0.547675
Si Si3 0.707895 0.728823 0.599182
Si Si4 0.380015 0.134234 0.894120
Si Si5 0.008730 0.859241 0.098305
Si Si6 0.772792 0.214343 0.559990
Si Si7 0.641942 0.404103 0.900930
Si Si8 0.581573 0.768943 0.444125
O O1 0.094990 0.756733 0.991358
O O2 0.245457 0.641657 0.054465
O O3 0.467614 0.674124 0.777827
O O4 0.000000 0.500000 0.000000
O O5 0.778426 0.609701 0.516053
O O6 0.880453 0.479816 0.723961
O O7 0.158157 0.619677 0.457301
O O8 0.395557 0.608527 0.519046
O O9 0.648592 0.811977 0.535399
O O10 0.963352 0.815109 0.560049
O O11 0.647351 0.149091 0.720582
O O12 0.420863 0.268922 0.945010
O O13 0.191105 0.111895 0.882393
O O14 0.262417 0.000732 0.011955
O O15 0.859054 0.799204 0.267257
O O16 0.586032 0.157198 0.539282
O O17 0.500000 0.500000 0.000000
#
# Coordination Sequence:
#
# PCOD8002928 Si02
#       8
#     2   2   2   2   2   2   2   2
#     4  12  26  39  62 101 137 166 214 280 323 383
#     4  10  20  36  60  89 129 163 213 264 317 394
#     4  12  20  38  61  91 128 169 208 264 331 376
#     4  10  22  43  70  90 129 176 217 269 321 402
#     4  10  22  45  67  93 128 175 223 260 332 386
#     4   9  21  35  63  91 116 169 223 255 315 394
#     4  12  24  38  65 101 130 164 214 273 330 378
#     4   9  21  36  64  88 120 170 216 264 312 396
#
# _framework density 22.130315
#
# number of rings (size 3 to 8) (size 9 to 14) (size 15 to 20)
#    0.750    0.750    1.250    4.500    1.750    0.500 
#    0.000    0.625    2.750    3.000    0.000    0.000 
#    0.000    0.000    0.000    0.000    0.000    0.000 
#
# Total GULP energy -198232.662170 kJ/mol
# GULP energy per Si atom -12389.541386 kJ/mol
# Density = 2.207995 g / cm^3
# Si number density = 22.130315 Si / 1000 Ang^3
#
#
#
# Elastic Constant Matrix: (Units=GPa)
#
#
# Indices 1 2 3 4 5 6 
#
# 1 99.9324 3.6944 45.9140 -5.6995 -1.2701 10.3263
# 2 3.6944 78.3903 48.4783 -23.9819 -10.6540 8.2361
# 3 45.9140 48.4783 146.3400 -14.4410 -28.1667 11.3035
# 4 -5.6995 -23.9819 -14.4410 25.1156 4.2991 -5.6693
# 5 -1.2701 -10.6540 -28.1667 4.2991 38.6480 5.2310
# 6 10.3263 8.2361 11.3035 -5.6693 5.2310 17.0129
#
#
#
# Elastic Compliance Matrix: (Units=1/GPa)
#
#
# Indices 1 2 3 4 5 6 
#
# 1 0.012732 0.003470 -0.004870 0.002648 -0.001829 -0.004727
# 2 0.003470 0.022348 -0.006562 0.017791 -0.000136 -0.002595
# 3 -0.004870 -0.006562 0.012198 -0.002944 0.007980 -0.005407
# 4 0.002648 0.017791 -0.002944 0.059684 -0.005599 0.013346
# 5 -0.001829 -0.000136 0.007980 -0.005599 0.034461 -0.016588
# 6 -0.004727 -0.002595 -0.005407 0.013346 -0.016588 0.076044
#
#
# Mechanical properties :
#
#
# Convention : Reuss Voigt Hill
#
# Bulk Modulus (GPa) = 31.89279 57.87067 44.88173
# Shear Modulus (GPa) = 20.50497 31.26039 25.88268
#
# Velocity S-wave (km/s) = 3.04724 3.76248 3.42359
# Velocity P-wave (km/s) = 5.17915 6.71429 5.99605
#
# Compressibility (1/GPa) = 0.03135505
#
# Stress axis : x y z
#
# Youngs Moduli (GPa) = 78.54126 44.74603 81.97913
#
# Poissons Ratio (x) = -0.15526 0.39921
# Poissons Ratio (y) = -0.27253 0.53795
# Poissons Ratio (z) = 0.38247 0.29362
#
# Static dielectric constant tensor:
#      x y z
#    x 4.419480 0.286630 -0.152550 
#    y 0.286630 3.798880 -0.490140 
#    z -0.152550 -0.490140 4.228580 
# 
# 
# High freq. dielectric constant tensor:
#      x y z
#    x 1.884960 0.012940 -0.006520 
#    y 0.012940 1.835710 -0.021220 
#    z -0.006520 -0.021220 1.878220 
# 
# From -- ./inp_files/392670.got.cif
#   From: 2010.06.25/outbox.cif.g09.slc.cpg/sg2_197_cif.got.tgz:392670.got - 2010.06.27 13:26:56.
