data_PCOD8002944
_publ_section_title
;
Structure prediction by ZEFSAII (Michael W. Deem and Ramdas Pophale) SiO2 
 PCOD8002944
Probable space group: P -1
;
_chemical_formula_sum "Si O2"
_cell_formula_units_Z 16
_cell_length_a 20.210384
_cell_length_b 9.319293
_cell_length_c 17.353168
_cell_angle_alpha 39.334864
_cell_angle_beta 159.614347
_cell_angle_gamma 140.841058
_cell_volume 702.604913
_symmetry_space_group_name_H-M "P -1"
_symmetry_group_IT_number 2
_symmetry_cell_setting 'triclinic'
loop_
_space_group_symop_operation_xyz
x,y,z
-x,-y,-z
loop_
_atom_site_type_symbol
_atom_site_label
_atom_site_fract_x
_atom_site_fract_y
_atom_site_fract_z
Si Si1 0.258921 0.488663 0.895870
Si Si2 0.159259 0.113458 0.231852
Si Si3 0.610326 0.446645 0.217224
Si Si4 0.912701 0.983553 0.162572
Si Si5 0.510187 0.942336 0.289622
Si Si6 0.720929 0.991601 0.349394
Si Si7 0.966192 0.637163 0.145732
Si Si8 0.851889 0.764175 0.456594
O O1 0.128816 0.294764 0.778085
O O2 0.258487 0.739187 0.757512
O O3 0.196187 0.455344 0.929001
O O4 0.475394 0.442025 0.147523
O O5 0.380111 0.198897 0.473117
O O6 0.141117 0.315995 0.068771
O O7 0.996196 0.106290 0.122822
O O8 0.123358 0.867562 0.249163
O O9 0.656647 0.197530 0.357722
O O10 0.796481 0.649497 0.358523
O O11 0.500000 0.500000 0.000000
O O12 0.073499 0.049642 0.377023
O O13 0.715695 0.070765 0.933544
O O14 0.542796 0.891612 0.255963
O O15 0.681884 0.838806 0.291377
O O16 0.069083 0.425886 0.328703
O O17 0.000000 0.000000 0.500000
#
# Coordination Sequence:
#
# PCOD8002944 Si02
#       8
#     2   2   2   2   2   2   2   2
#     4  10  20  36  60  92 126 169 217 259 325 385
#     4   9  19  40  69  88 126 169 229 271 302 377
#     4  11  23  40  63  95 128 171 220 268 309 395
#     4   9  21  36  65  96 118 174 223 264 314 378
#     4  10  20  40  65  93 126 169 222 264 316 381
#     4  11  22  37  60  93 134 168 200 268 326 390
#     4  10  20  41  60  93 130 170 213 271 320 374
#     4  12  26  39  61  99 137 170 206 265 340 391
#
# _framework density 22.772399
#
# number of rings (size 3 to 8) (size 9 to 14) (size 15 to 20)
#    0.000    1.750    3.750    0.375    3.500    0.500 
#    4.500    5.000    0.000    1.500    0.000    0.000 
#    0.000    0.000    0.000    0.000    0.000    0.000 
#
# Total GULP energy -198264.441123 kJ/mol
# GULP energy per Si atom -12391.527570 kJ/mol
# Density = 2.272057 g / cm^3
# Si number density = 22.772399 Si / 1000 Ang^3
#
#
#
# Elastic Constant Matrix: (Units=GPa)
#
#
# Indices 1 2 3 4 5 6 
#
# 1 96.5043 5.7175 17.8863 -18.4568 4.1582 -1.2832
# 2 5.7175 37.4576 5.9003 -10.6298 -4.2638 -4.1648
# 3 17.8863 5.9003 65.7721 -20.9347 -1.8089 14.4165
# 4 -18.4568 -10.6298 -20.9347 26.5512 0.9726 -1.5489
# 5 4.1582 -4.2638 -1.8089 0.9726 44.3630 -6.0486
# 6 -1.2832 -4.1648 14.4165 -1.5489 -6.0486 31.1585
#
#
#
# Elastic Compliance Matrix: (Units=1/GPa)
#
#
# Indices 1 2 3 4 5 6 
#
# 1 0.012110 0.000577 -0.001158 0.007852 -0.001124 0.001284
# 2 0.000577 0.031346 0.000147 0.013260 0.003419 0.005468
# 3 -0.001158 0.000147 0.023043 0.016865 -0.000668 -0.009981
# 4 0.007852 0.013260 0.016865 0.061585 -0.000498 -0.002742
# 5 -0.001124 0.003419 -0.000668 -0.000498 0.023681 0.005292
# 6 0.001284 0.005468 -0.009981 -0.002742 0.005292 0.038387
#
#
# Mechanical properties :
#
#
# Convention : Reuss Voigt Hill
#
# Bulk Modulus (GPa) = 15.23670 28.74913 21.99292
# Shear Modulus (GPa) = 23.48561 31.76320 27.62440
#
# Velocity S-wave (km/s) = 3.21490 3.73877 3.48669
# Velocity P-wave (km/s) = 4.52616 5.59373 5.08802
#
# Compressibility (1/GPa) = 0.06563102
#
# Stress axis : x y z
#
# Youngs Moduli (GPa) = 82.57696 31.90215 43.39721
#
# Poissons Ratio (x) = -0.01841 0.05026
# Poissons Ratio (y) = -0.04765 -0.00639
# Poissons Ratio (z) = 0.09563 -0.00469
#
# Static dielectric constant tensor:
#      x y z
#    x 4.568790 -0.197940 0.162770 
#    y -0.197940 4.059820 -0.058100 
#    z 0.162770 -0.058100 4.262260 
# 
# 
# High freq. dielectric constant tensor:
#      x y z
#    x 1.908270 -0.012600 0.002730 
#    y -0.012600 1.876710 -0.005030 
#    z 0.002730 -0.005030 1.893300 
# 
# From -- ./inp_files/577572.got.cif
#   From: 2010.06.25/outbox.cif.g09.slc.cpg/sg2_289_cif.got.tgz:577572.got - 2010.06.27 13:26:56.
