data_PCOD8002064
_publ_section_title
;
Structure prediction by ZEFSAII (Michael W. Deem and Ramdas Pophale) SiO2 
 PCOD8002064
Probable space group: P -1
;
_chemical_formula_sum "Si O2"
_cell_formula_units_Z 16
_cell_length_a 13.711140
_cell_length_b 8.347852
_cell_length_c 16.132655
_cell_angle_alpha 87.911825
_cell_angle_beta 145.148651
_cell_angle_gamma 115.199833
_cell_volume 760.003976
_symmetry_space_group_name_H-M "P -1"
_symmetry_group_IT_number 2
_symmetry_cell_setting 'triclinic'
loop_
_space_group_symop_operation_xyz
x,y,z
-x,-y,-z
loop_
_atom_site_type_symbol
_atom_site_label
_atom_site_fract_x
_atom_site_fract_y
_atom_site_fract_z
Si Si1 0.814806 0.748851 0.266491
Si Si2 0.187119 0.732545 0.232267
Si Si3 0.109131 0.214677 0.501068
Si Si4 0.389516 0.188677 0.409135
Si Si5 0.588286 0.005364 0.183481
Si Si6 0.557368 0.564124 0.405840
Si Si7 0.410400 0.696855 0.921270
Si Si8 0.315517 0.695375 0.148591
O O1 0.728202 0.687906 0.304565
O O2 0.822722 0.570326 0.242536
O O3 0.639584 0.732339 0.084766
O O4 0.067682 0.003784 0.442109
O O5 0.355433 0.729886 0.405032
O O6 0.268781 0.780382 0.192443
O O7 0.195056 0.923457 0.263730
O O8 0.926018 0.490998 0.067036
O O9 0.244258 0.388572 0.516427
O O10 0.856931 0.129712 0.347479
O O11 0.399618 0.317271 0.336409
O O12 0.321773 0.250312 0.441076
O O13 0.573702 0.186343 0.153431
O O14 0.510110 0.911529 0.223477
O O15 0.399865 0.799339 0.993625
O O16 0.397895 0.573796 0.237136
#
# Coordination Sequence:
#
# PCOD8002064 Si02
#       8
#     2   2   2   2   2   2   2   2
#     4   9  18  34  52  73 105 143 180 217 260 313
#     4   9  20  38  58  81 107 138 177 225 275 321
#     4  10  20  35  54  78 111 146 180 218 262 315
#     4   9  20  38  58  81 107 137 179 225 272 321
#     4  10  21  36  53  79 113 146 179 217 264 320
#     4  10  20  36  57  80 108 143 180 221 267 318
#     4   9  19  34  51  74 106 142 180 219 261 311
#     4  10  20  36  57  80 109 141 177 222 271 320
#
# _framework density 21.052520999999999
#
# number of rings (size 3 to 8) (size 9 to 14) (size 15 to 20)
#    0.000    2.500    0.000    2.250    0.000    6.000 
#    0.000    5.000    0.000    0.000    0.000    0.000 
#    0.000    0.000    0.000    0.000    0.000    0.000 
#
# Total GULP energy -198258.999227 kJ/mol
# GULP energy per Si atom -12391.187452 kJ/mol
# Density = 2.100460 g / cm^3
# Si number density = 21.052521 Si / 1000 Ang^3
#
#
#
# Elastic Constant Matrix: (Units=GPa)
#
#
# Indices 1 2 3 4 5 6 
#
# 1 61.1264 26.3321 11.6539 -4.7248 15.6342 13.5363
# 2 26.3321 123.5523 21.8599 -15.7528 -2.5154 1.9698
# 3 11.6539 21.8599 63.9780 -6.6305 -2.2005 -3.6717
# 4 -4.7248 -15.7528 -6.6305 20.8787 -1.7707 -12.6069
# 5 15.6342 -2.5154 -2.2005 -1.7707 22.1395 9.0296
# 6 13.5363 1.9698 -3.6717 -12.6069 9.0296 33.1417
#
#
#
# Elastic Compliance Matrix: (Units=1/GPa)
#
#
# Indices 1 2 3 4 5 6 
#
# 1 0.025003 -0.005559 -0.004347 -0.006384 -0.015766 -0.008496
# 2 -0.005559 0.010691 -0.001345 0.009015 0.004188 0.003774
# 3 -0.004347 -0.001345 0.018111 0.007600 0.002892 0.005965
# 4 -0.006384 0.009015 0.007600 0.074608 -0.000572 0.031450
# 5 -0.015766 0.004188 0.002892 -0.000572 0.061260 -0.010397
# 6 -0.008496 0.003774 0.005965 0.031450 -0.010397 0.048876
#
#
# Mechanical properties :
#
#
# Convention : Reuss Voigt Hill
#
# Bulk Modulus (GPa) = 31.94518 40.92764 36.43641
# Shear Modulus (GPa) = 18.41713 27.81935 23.11824
#
# Velocity S-wave (km/s) = 2.96094 3.63909 3.31739
# Velocity P-wave (km/s) = 5.18619 6.09428 5.65848
#
# Compressibility (1/GPa) = 0.03130363
#
# Stress axis : x y z
#
# Youngs Moduli (GPa) = 39.99446 93.53563 55.21448
#
# Poissons Ratio (x) = 0.51999 0.23999
# Poissons Ratio (y) = 0.22234 0.07428
# Poissons Ratio (z) = 0.17384 0.12583
#
# Static dielectric constant tensor:
#      x y z
#    x 3.672170 -0.026390 -0.316870 
#    y -0.026390 3.950840 0.018830 
#    z -0.316870 0.018830 3.786200 
# 
# 
# High freq. dielectric constant tensor:
#      x y z
#    x 1.799320 0.000780 -0.020160 
#    y 0.000780 1.831410 -0.004990 
#    z -0.020160 -0.004990 1.812520 
# 
# From -- ./inp_files/572656.got.cif
#   From: 2010.06.25/outbox.cif.g09.slc.cpg/sg2_287_cif.got.tgz:572656.got - 2010.06.27 13:26:56.
