data_PCOD8002224
_publ_section_title
;
Structure prediction by ZEFSAII (Michael W. Deem and Ramdas Pophale) SiO2 
 PCOD8002224
Probable space group: P -1
;
_chemical_formula_sum "Si O2"
_cell_formula_units_Z 14
_cell_length_a 12.961763
_cell_length_b 7.378836
_cell_length_c 8.114958
_cell_angle_alpha 104.524876
_cell_angle_beta 114.183361
_cell_angle_gamma 105.098164
_cell_volume 624.734387
_symmetry_space_group_name_H-M "P -1"
_symmetry_group_IT_number 2
_symmetry_cell_setting 'triclinic'
loop_
_space_group_symop_operation_xyz
x,y,z
-x,-y,-z
loop_
_atom_site_type_symbol
_atom_site_label
_atom_site_fract_x
_atom_site_fract_y
_atom_site_fract_z
Si Si1 0.987896 0.685076 0.907387
Si Si2 0.849785 0.480421 0.446352
Si Si3 0.794054 0.169841 0.703722
Si Si4 0.646758 0.784517 0.741927
Si Si5 0.942793 0.169411 0.492212
Si Si6 0.876208 0.898119 0.099872
Si Si7 0.630887 0.371041 0.476596
O O1 0.104557 0.656230 0.068093
O O2 0.898773 0.707639 0.997870
O O3 0.909838 0.511789 0.683177
O O4 0.042054 0.897016 0.895099
O O5 0.865199 0.273202 0.355770
O O6 0.706652 0.442907 0.369300
O O7 0.914460 0.659256 0.396739
O O8 0.881322 0.116258 0.619001
O O9 0.691501 0.242426 0.588130
O O10 0.717617 0.954231 0.691487
O O11 0.636349 0.565345 0.624502
O O12 0.511495 0.776793 0.691225
O O13 0.729212 0.842387 0.975745
O O14 0.921917 0.951532 0.335045
#
# Coordination Sequence:
#
# PCOD8002224 Si02
#       7
#     2   2   2   2   2   2   2
#     4   9  17  31  56  76 109 141 184 223 267 317
#     4   9  17  35  52  81 112 144 177 222 271 337
#     4  10  21  35  56  86 107 141 183 229 271 325
#     4  10  20  37  59  78 106 148 190 223 259 320
#     4   9  19  31  54  80 118 136 172 228 288 316
#     4   9  17  33  52  80 107 145 180 222 268 328
#     4  10  20  35  58  80 107 145 189 224 260 319
#
# _framework density 22.409526
#
# number of rings (size 3 to 8) (size 9 to 14) (size 15 to 20)
#    0.000    2.571    1.429    0.429    2.000    2.857 
#    0.000    2.857    0.000    6.857    0.000    0.000 
#    0.000    0.000    0.000    0.000    0.000    0.000 
#
# Total GULP energy -173452.447702 kJ/mol
# GULP energy per Si atom -12389.460550 kJ/mol
# Density = 2.235852 g / cm^3
# Si number density = 22.409526 Si / 1000 Ang^3
#
#
#
# Elastic Constant Matrix: (Units=GPa)
#
#
# Indices 1 2 3 4 5 6 
#
# 1 120.3540 50.1066 43.2632 -11.7324 2.5115 27.8704
# 2 50.1066 54.9980 30.8926 0.2328 5.3596 8.7957
# 3 43.2632 30.8926 71.1211 2.6520 16.1304 12.8901
# 4 -11.7324 0.2328 2.6520 25.1121 -8.5829 0.2359
# 5 2.5115 5.3596 16.1304 -8.5829 32.8782 5.8165
# 6 27.8704 8.7957 12.8901 0.2359 5.8165 42.8848
#
#
#
# Elastic Compliance Matrix: (Units=1/GPa)
#
#
# Indices 1 2 3 4 5 6 
#
# 1 0.019698 -0.013462 -0.007057 0.013328 0.009268 -0.009250
# 2 -0.013462 0.033528 -0.005906 -0.007467 -0.004243 0.004264
# 3 -0.007057 -0.005906 0.024216 -0.010290 -0.013128 0.000357
# 4 0.013328 -0.007467 -0.010290 0.054345 0.020698 -0.007143
# 5 0.009268 -0.004243 -0.013128 0.020698 0.043521 -0.007224
# 6 -0.009250 0.004264 0.000357 -0.007143 -0.007224 0.029367
#
#
# Mechanical properties :
#
#
# Convention : Reuss Voigt Hill
#
# Bulk Modulus (GPa) = 40.66740 54.99976 47.83358
# Shear Modulus (GPa) = 18.81646 28.32240 23.56943
#
# Velocity S-wave (km/s) = 2.90084 3.55893 3.24660
# Velocity P-wave (km/s) = 5.42278 6.44083 5.95361
#
# Compressibility (1/GPa) = 0.02458972
#
# Stress axis : x y z
#
# Youngs Moduli (GPa) = 50.76597 29.82548 41.29553
#
# Poissons Ratio (x) = 0.40152 0.29144
# Poissons Ratio (y) = 0.68343 0.24391
# Poissons Ratio (z) = 0.35828 0.17616
#
# Static dielectric constant tensor:
#      x y z
#    x 4.450580 0.034880 0.048520 
#    y 0.034880 4.184540 0.050380 
#    z 0.048520 0.050380 4.302290 
# 
# 
# High freq. dielectric constant tensor:
#      x y z
#    x 1.886170 -0.013810 -0.001300 
#    y -0.013810 1.907940 -0.000690 
#    z -0.001300 -0.000690 1.855880 
# 
# From -- ./inp_files/198056.got.cif
#   From: 2010.06.25/outbox.cif.g09.slc.cpg/sg2_100_cif.got.tgz:198056.got - 2010.06.27 13:26:56.
