data_PCOD8002208
_publ_section_title
;
Structure prediction by ZEFSAII (Michael W. Deem and Ramdas Pophale) SiO2 
 PCOD8002208
Probable space group: P -1
;
_chemical_formula_sum "Si O2"
_cell_formula_units_Z 12
_cell_length_a 17.646303
_cell_length_b 17.199517
_cell_length_c 10.211473
_cell_angle_alpha 43.011416
_cell_angle_beta 136.903343
_cell_angle_gamma 163.612393
_cell_volume 589.806804
_symmetry_space_group_name_H-M "P -1"
_symmetry_group_IT_number 2
_symmetry_cell_setting 'triclinic'
loop_
_space_group_symop_operation_xyz
x,y,z
-x,-y,-z
loop_
_atom_site_type_symbol
_atom_site_label
_atom_site_fract_x
_atom_site_fract_y
_atom_site_fract_z
Si Si1 0.820956 0.575619 0.212826
Si Si2 0.648380 0.028216 0.704352
Si Si3 0.871846 0.869861 0.856822
Si Si4 0.215528 0.799255 0.039155
Si Si5 0.711083 0.568334 0.364880
Si Si6 0.673689 0.324640 0.801962
O O1 0.811095 0.594665 0.330618
O O2 0.070120 0.722668 0.325418
O O3 0.538802 0.256512 0.205052
O O4 0.863786 0.727880 0.987688
O O5 0.500000 0.000000 0.500000
O O6 0.709762 0.096598 0.849687
O O7 0.571008 0.636221 0.768717
O O8 0.065606 0.125616 0.690336
O O9 0.000000 0.000000 0.000000
O O10 0.898197 0.524374 0.952982
O O11 0.381172 0.031525 0.859017
O O12 0.279490 0.725668 0.189759
O O13 0.680678 0.455539 0.586917
#
# Coordination Sequence:
#
# PCOD8002208 Si02
#       6
#     2   2   2   2   2   2
#     4  11  22  37  58  86 120 148 180 237 290 334
#     4  12  24  38  59  85 118 152 185 225 285 353
#     4  10  20  35  57  87 117 146 187 238 285 327
#     4  10  22  38  56  83 113 149 188 229 284 329
#     4  11  20  36  62  88 112 146 195 235 282 332
#     4  10  21  38  60  81 111 148 191 238 271 329
#
# _framework density 20.345645000000001
#
# number of rings (size 3 to 8) (size 9 to 14) (size 15 to 20)
#    0.000    1.333    0.000    8.500    0.000    4.000 
#    0.000    0.000    0.000   20.000    0.000    0.000 
#    0.000    0.000    0.000    0.000    0.000    0.000 
#
# Total GULP energy -148836.948111 kJ/mol
# GULP energy per Si atom -12403.079009 kJ/mol
# Density = 2.029934 g / cm^3
# Si number density = 20.345645 Si / 1000 Ang^3
#
#
#
# Elastic Constant Matrix: (Units=GPa)
#
#
# Indices 1 2 3 4 5 6 
#
# 1 46.3761 7.4430 21.1237 13.7720 2.3748 2.9698
# 2 7.4430 79.6313 2.7319 -6.0182 -3.3671 2.0702
# 3 21.1237 2.7319 81.9855 -14.7322 12.1842 -2.6673
# 4 13.7720 -6.0182 -14.7322 34.3287 -4.5732 10.7164
# 5 2.3748 -3.3671 12.1842 -4.5732 19.6318 6.3235
# 6 2.9698 2.0702 -2.6673 10.7164 6.3235 42.3694
#
#
#
# Elastic Compliance Matrix: (Units=1/GPa)
#
#
# Indices 1 2 3 4 5 6 
#
# 1 0.033728 -0.004530 -0.011662 -0.020666 -0.003351 0.002850
# 2 -0.004530 0.013652 0.001056 0.006025 0.004433 -0.002468
# 3 -0.011662 0.001056 0.018331 0.011798 -0.007032 -0.000015
# 4 -0.020666 0.006025 0.011798 0.048880 0.011522 -0.012186
# 5 -0.003351 0.004433 -0.007032 0.011522 0.063269 -0.012781
# 6 0.002850 -0.002468 -0.000015 -0.012186 -0.012781 0.028511
#
#
# Mechanical properties :
#
#
# Convention : Reuss Voigt Hill
#
# Bulk Modulus (GPa) = 28.21736 30.06558 29.14147
# Shear Modulus (GPa) = 20.12425 31.04560 25.58492
#
# Velocity S-wave (km/s) = 3.14844 3.91053 3.54999
# Velocity P-wave (km/s) = 5.20730 5.93288 5.58189
#
# Compressibility (1/GPa) = 0.03543917
#
# Stress axis : x y z
#
# Youngs Moduli (GPa) = 29.64907 73.24925 54.55096
#
# Poissons Ratio (x) = 0.33182 0.63617
# Poissons Ratio (y) = 0.13431 -0.05760
# Poissons Ratio (z) = 0.34576 -0.07734
#
# Static dielectric constant tensor:
#      x y z
#    x 3.603580 -0.178310 0.390090 
#    y -0.178310 4.362620 -0.375850 
#    z 0.390090 -0.375850 4.010090 
# 
# 
# High freq. dielectric constant tensor:
#      x y z
#    x 1.771100 0.003200 0.019400 
#    y 0.003200 1.824110 -0.008860 
#    z 0.019400 -0.008860 1.791580 
# 
# From -- ./inp_files/63642.got.cif
#   From: 2010.06.25/outbox.cif.g09.slc.cpg/sg2_32_cif.got.tgz:63642.got - 2010.06.27 13:26:56.
