data_PCOD8002107
_publ_section_title
;
Structure prediction by ZEFSAII (Michael W. Deem and Ramdas Pophale) SiO2 
 PCOD8002107
Probable space group: P -1
;
_chemical_formula_sum "Si O2"
_cell_formula_units_Z 14
_cell_length_a 29.190705
_cell_length_b 16.556008
_cell_length_c 6.624530
_cell_angle_alpha 53.696647
_cell_angle_beta 55.029481
_cell_angle_gamma 16.701323
_cell_volume 741.215201
_symmetry_space_group_name_H-M "P -1"
_symmetry_group_IT_number 2
_symmetry_cell_setting 'triclinic'
loop_
_space_group_symop_operation_xyz
x,y,z
-x,-y,-z
loop_
_atom_site_type_symbol
_atom_site_label
_atom_site_fract_x
_atom_site_fract_y
_atom_site_fract_z
Si Si1 0.907311 0.523020 0.384646
Si Si2 0.892493 0.151898 0.735315
Si Si3 0.655682 0.039431 0.508162
Si Si4 0.010241 0.122750 0.721658
Si Si5 0.197856 0.163420 0.161236
Si Si6 0.681574 0.174892 0.985748
Si Si7 0.712682 0.342408 0.596405
O O1 0.962613 0.316845 0.529050
O O2 0.050191 0.353441 0.358205
O O3 0.754833 0.782864 0.533908
O O4 0.863946 0.637409 0.103187
O O5 0.733255 0.376533 0.695597
O O6 0.870179 0.288529 0.729516
O O7 0.000000 0.000000 0.500000
O O8 0.968798 0.938221 0.004190
O O9 0.469827 0.341920 0.478336
O O10 0.679078 0.998269 0.748796
O O11 0.736937 0.006501 0.271125
O O12 0.174334 0.818555 0.639316
O O13 0.294631 0.920237 0.146053
O O14 0.768192 0.136650 0.824472
O O15 0.500000 0.500000 0.000000
#
# Coordination Sequence:
#
# PCOD8002107 Si02
#       7
#     2   2   2   2   2   2   2
#     4  10  21  36  55  82 112 151 192 223 271 332
#     4   9  21  38  60  85 107 134 191 243 278 332
#     4  10  22  34  53  83 119 153 183 222 276 332
#     4  10  20  38  62  82 105 147 187 232 287 320
#     4  10  20  36  53  79 121 152 189 222 264 338
#     4   9  19  32  50  83 116 146 186 219 269 329
#     4  10  20  35  55  83 113 145 185 233 278 324
#
# _framework density 18.887903999999999
#
# number of rings (size 3 to 8) (size 9 to 14) (size 15 to 20)
#    0.000    2.286    1.429    0.429    2.000    8.000 
#    0.000    0.714    0.000    8.571    0.000    0.000 
#    0.000    0.000    0.000    0.000    0.000    0.000 
#
# Total GULP energy -173462.465396 kJ/mol
# GULP energy per Si atom -12390.176100 kJ/mol
# Density = 1.884491 g / cm^3
# Si number density = 18.887904 Si / 1000 Ang^3
#
#
#
# Elastic Constant Matrix: (Units=GPa)
#
#
# Indices 1 2 3 4 5 6 
#
# 1 127.0649 53.4566 65.1005 -17.5675 13.6313 -14.4630
# 2 53.4566 99.1015 36.9303 -5.2400 5.5939 5.7861
# 3 65.1005 36.9303 93.5749 -3.9008 9.0549 -3.4926
# 4 -17.5675 -5.2400 -3.9008 21.3017 -2.7083 5.0022
# 5 13.6313 5.5939 9.0549 -2.7083 29.8347 -6.2923
# 6 -14.4630 5.7861 -3.4926 5.0022 -6.2923 24.0301
#
#
#
# Elastic Compliance Matrix: (Units=1/GPa)
#
#
# Indices 1 2 3 4 5 6 
#
# 1 0.017226 -0.005926 -0.008815 0.009005 -0.001529 0.008238
# 2 -0.005926 0.014444 -0.001758 -0.000012 -0.001066 -0.007577
# 3 -0.008815 -0.001758 0.017430 -0.004281 -0.001724 -0.001909
# 4 0.009005 -0.000012 -0.004281 0.055211 0.000834 -0.006474
# 5 -0.001529 -0.001066 -0.001724 0.000834 0.036820 0.008553
# 6 0.008238 -0.007577 -0.001909 -0.006474 0.008553 0.051707
#
#
# Mechanical properties :
#
#
# Convention : Reuss Voigt Hill
#
# Bulk Modulus (GPa) = 62.09955 70.07957 66.08956
# Shear Modulus (GPa) = 21.62616 25.98355 23.80486
#
# Velocity S-wave (km/s) = 3.38742 3.71303 3.55395
# Velocity P-wave (km/s) = 6.94613 7.45423 7.20466
#
# Compressibility (1/GPa) = 0.01610318
#
# Stress axis : x y z
#
# Youngs Moduli (GPa) = 58.05260 69.23242 57.37234
#
# Poissons Ratio (x) = 0.41024 0.50571
# Poissons Ratio (y) = 0.34399 0.10087
# Poissons Ratio (z) = 0.51171 0.12172
#
# Static dielectric constant tensor:
#      x y z
#    x 3.693800 -0.007130 -0.191830 
#    y -0.007130 3.311020 -0.007060 
#    z -0.191830 -0.007060 3.762380 
# 
# 
# High freq. dielectric constant tensor:
#      x y z
#    x 1.729430 0.003900 0.002710 
#    y 0.003900 1.715590 0.004370 
#    z 0.002710 0.004370 1.739620 
# 
# From -- ./inp_files/67904.got.cif
#   From: 2010.06.25/outbox.cif.g09.slc.cpg/sg2_34_cif.got.tgz:67904.got - 2010.06.27 13:26:56.
