data_PCOD8002833
_publ_section_title
;
Structure prediction by ZEFSAII (Michael W. Deem and Ramdas Pophale) SiO2 
 PCOD8002833
Probable space group: P -1
;
_chemical_formula_sum "Si O2"
_cell_formula_units_Z 12
_cell_length_a 15.150587
_cell_length_b 15.495851
_cell_length_c 11.829245
_cell_angle_alpha 29.475806
_cell_angle_beta 27.076671
_cell_angle_gamma 27.924699
_cell_volume 544.288935
_symmetry_space_group_name_H-M "P -1"
_symmetry_group_IT_number 2
_symmetry_cell_setting 'triclinic'
loop_
_space_group_symop_operation_xyz
x,y,z
-x,-y,-z
loop_
_atom_site_type_symbol
_atom_site_label
_atom_site_fract_x
_atom_site_fract_y
_atom_site_fract_z
Si Si1 0.843024 0.958643 0.644782
Si Si2 0.388862 0.131632 0.631762
Si Si3 0.056506 0.531911 0.273728
Si Si4 0.886839 0.329705 0.525972
Si Si5 0.510877 0.280383 0.111893
Si Si6 0.605921 0.748952 0.268236
O O1 0.966231 0.866461 0.491428
O O2 0.618583 0.170802 0.640694
O O3 0.782858 0.798511 0.950478
O O4 0.000000 0.000000 0.500000
O O5 0.117696 0.239003 0.821783
O O6 0.464292 0.264171 0.316195
O O7 0.475720 0.132559 0.655970
O O8 0.492911 0.906549 0.730227
O O9 0.037023 0.386269 0.369029
O O10 0.685835 0.522225 0.951174
O O11 0.000000 0.500000 0.500000
O O12 0.726342 0.510134 0.419818
O O13 0.740045 0.279544 0.837155
#
# Coordination Sequence:
#
# PCOD8002833 Si02
#       6
#     2   2   2   2   2   2
#     4  11  24  42  62  85 114 155 200 242 290 340
#     4   9  19  38  59  84 119 156 191 237 287 344
#     4   9  20  37  57  85 119 152 188 233 284 345
#     4  11  23  38  62  90 117 153 193 238 292 346
#     4  10  20  36  59  88 121 152 190 235 289 348
#     4  10  23  41  60  84 118 152 196 245 285 340
#
# _framework density 22.047114000000001
#
# number of rings (size 3 to 8) (size 9 to 14) (size 15 to 20)
#    0.000    2.000    0.000    2.500    0.000   12.000 
#    0.000   13.333    0.000    0.000    0.000    0.000 
#    0.000    0.000    0.000    0.000    0.000    0.000 
#
# Total GULP energy -148753.627964 kJ/mol
# GULP energy per Si atom -12396.135664 kJ/mol
# Density = 2.199693 g / cm^3
# Si number density = 22.047114 Si / 1000 Ang^3
#
#
#
# Elastic Constant Matrix: (Units=GPa)
#
#
# Indices 1 2 3 4 5 6 
#
# 1 94.5140 18.3575 5.3543 13.5012 -4.8200 -3.0931
# 2 18.3575 69.1846 8.5292 12.0221 0.0793 -3.6525
# 3 5.3543 8.5292 58.6219 17.6082 4.3423 -14.2830
# 4 13.5012 12.0221 17.6082 30.1257 -4.6452 5.1768
# 5 -4.8200 0.0793 4.3423 -4.6452 21.5742 2.9850
# 6 -3.0931 -3.6525 -14.2830 5.1768 2.9850 37.6373
#
#
#
# Elastic Compliance Matrix: (Units=1/GPa)
#
#
# Indices 1 2 3 4 5 6 
#
# 1 0.011817 -0.002275 0.001204 -0.005253 0.001019 0.001849
# 2 -0.002275 0.016300 0.000763 -0.006815 -0.002580 0.002826
# 3 0.001204 0.000763 0.027688 -0.021369 -0.011923 0.014565
# 4 -0.005253 -0.006815 -0.021369 0.056684 0.017906 -0.018419
# 5 0.001019 -0.002580 -0.011923 0.017906 0.054431 -0.011471
# 6 0.001849 0.002826 0.014565 -0.018419 -0.011471 0.035966
#
#
# Mechanical properties :
#
#
# Convention : Reuss Voigt Hill
#
# Bulk Modulus (GPa) = 18.11925 31.86693 24.99309
# Shear Modulus (GPa) = 22.53294 30.53940 26.53617
#
# Velocity S-wave (km/s) = 3.20040 3.72585 3.47307
# Velocity P-wave (km/s) = 4.67899 5.74410 5.23869
#
# Compressibility (1/GPa) = 0.05518992
#
# Stress axis : x y z
#
# Youngs Moduli (GPa) = 84.62475 61.34976 36.11681
#
# Poissons Ratio (x) = 0.13956 -0.04350
# Poissons Ratio (y) = 0.19250 -0.02755
# Poissons Ratio (z) = -0.10193 -0.04680
#
# Static dielectric constant tensor:
#      x y z
#    x 4.048800 -0.254750 0.155090 
#    y -0.254750 4.260730 0.241420 
#    z 0.155090 0.241420 3.791060 
# 
# 
# High freq. dielectric constant tensor:
#      x y z
#    x 1.871170 -0.006180 0.010260 
#    y -0.006180 1.878540 0.013560 
#    z 0.010260 0.013560 1.844470 
# 
# From -- ./inp_files/454269.got.cif
#   From: 2010.06.25/outbox.cif.g09.slc.cpg/sg2_228_cif.got.tgz:454269.got - 2010.06.27 13:26:56.
