data_PCOD8002748
_publ_section_title
;
Structure prediction by ZEFSAII (Michael W. Deem and Ramdas Pophale) SiO2 
 PCOD8002748
Probable space group: P -1
;
_chemical_formula_sum "Si O2"
_cell_formula_units_Z 16
_cell_length_a 10.245884
_cell_length_b 9.016698
_cell_length_c 14.659389
_cell_angle_alpha 132.079691
_cell_angle_beta 109.972792
_cell_angle_gamma 42.925982
_cell_volume 654.101676
_symmetry_space_group_name_H-M "P -1"
_symmetry_group_IT_number 2
_symmetry_cell_setting 'triclinic'
loop_
_space_group_symop_operation_xyz
x,y,z
-x,-y,-z
loop_
_atom_site_type_symbol
_atom_site_label
_atom_site_fract_x
_atom_site_fract_y
_atom_site_fract_z
Si Si1 0.803932 0.586054 0.952469
Si Si2 0.556005 0.809471 0.799672
Si Si3 0.144579 0.271788 0.777161
Si Si4 0.486309 0.132911 0.409476
Si Si5 0.696826 0.279708 0.353959
Si Si6 0.079560 0.973628 0.229491
Si Si7 0.890232 0.672729 0.716196
Si Si8 0.218139 0.137804 0.461194
O O1 0.694007 0.687422 0.870351
O O2 0.024904 0.459744 0.920993
O O3 0.829485 0.338335 0.897516
O O4 0.660564 0.854909 0.099026
O O5 0.492318 0.646295 0.701750
O O6 0.681621 0.769483 0.725306
O O7 0.027065 0.501563 0.765406
O O8 0.382278 0.073492 0.733425
O O9 0.149034 0.022472 0.674665
O O10 0.386454 0.451818 0.494515
O O11 0.320700 0.139549 0.398107
O O12 0.630925 0.021998 0.484439
O O13 0.835629 0.220354 0.280036
O O14 0.139542 0.058301 0.194975
O O15 0.168633 0.966891 0.343719
O O16 0.010544 0.463488 0.571184
#
# Coordination Sequence:
#
# PCOD8002748 Si02
#       8
#     2   2   2   2   2   2   2   2
#     4   9  21  43  61  83 113 153 192 243 286 338
#     4  10  22  40  65  82 114 150 197 239 289 333
#     4   9  21  36  57  84 121 148 188 236 287 332
#     4  10  20  36  58  88 119 152 193 229 284 347
#     4  11  22  36  59  91 114 153 192 237 281 350
#     4  11  22  37  62  85 121 152 191 233 293 339
#     4  10  21  39  58  85 118 158 186 234 287 342
#     4  10  21  36  58  86 124 152 181 241 289 337
#
# _framework density 24.461030000000001
#
# number of rings (size 3 to 8) (size 9 to 14) (size 15 to 20)
#    0.000    2.000    1.250    1.500    1.750    4.500 
#    0.000    7.500    2.750    3.000    0.000    0.000 
#    0.000    0.000    0.000    0.000    0.000    0.000 
#
# Total GULP energy -198333.841270 kJ/mol
# GULP energy per Si atom -12395.865079 kJ/mol
# Density = 2.440536 g / cm^3
# Si number density = 24.461030 Si / 1000 Ang^3
#
#
#
# Elastic Constant Matrix: (Units=GPa)
#
#
# Indices 1 2 3 4 5 6 
#
# 1 199.8971 71.0806 70.6377 -5.1952 -16.1076 -1.8163
# 2 71.0806 113.8671 58.8949 6.0732 -15.3152 5.4979
# 3 70.6377 58.8949 141.5515 -2.3234 -19.4069 12.2134
# 4 -5.1952 6.0732 -2.3234 38.6285 9.3233 -4.9160
# 5 -16.1076 -15.3152 -19.4069 9.3233 44.1011 2.0479
# 6 -1.8163 5.4979 12.2134 -4.9160 2.0479 42.4448
#
#
#
# Elastic Compliance Matrix: (Units=1/GPa)
#
#
# Indices 1 2 3 4 5 6 
#
# 1 0.007052 -0.003418 -0.002204 0.001547 0.000020 0.001557
# 2 -0.003418 0.013293 -0.003390 -0.003589 0.002702 -0.001439
# 3 -0.002204 -0.003390 0.010171 -0.000138 0.002649 -0.002726
# 4 0.001547 -0.003589 -0.000138 0.028895 -0.007048 0.004257
# 5 0.000020 0.002702 0.002649 -0.007048 0.026426 -0.003203
# 6 0.001557 -0.001439 -0.002726 0.004257 -0.003203 0.025245
#
#
# Mechanical properties :
#
#
# Convention : Reuss Voigt Hill
#
# Bulk Modulus (GPa) = 80.03519 95.17136 87.60328
# Shear Modulus (GPa) = 37.51843 42.01504 39.76674
#
# Velocity S-wave (km/s) = 3.92063 4.14893 4.03639
# Velocity P-wave (km/s) = 7.29970 7.87041 7.59042
#
# Compressibility (1/GPa) = 0.01249450
#
# Stress axis : x y z
#
# Youngs Moduli (GPa) = 141.79418 75.22690 98.32189
#
# Poissons Ratio (x) = 0.25710 0.21666
# Poissons Ratio (y) = 0.48460 0.33328
# Poissons Ratio (z) = 0.31245 0.25499
#
# Static dielectric constant tensor:
#      x y z
#    x 5.031750 -0.237010 -0.487420 
#    y -0.237010 4.689370 -0.012280 
#    z -0.487420 -0.012280 4.413460 
# 
# 
# High freq. dielectric constant tensor:
#      x y z
#    x 2.004890 -0.022080 -0.024540 
#    y -0.022080 2.012950 -0.015990 
#    z -0.024540 -0.015990 1.965820 
# 
# From -- ./inp_files/226088.got.cif
#   From: 2010.06.25/outbox.cif.g09.slc.cpg/sg2_114_cif.got.tgz:226088.got - 2010.06.27 13:26:56.
