data_PCOD8002824
_publ_section_title
;
Structure prediction by ZEFSAII (Michael W. Deem and Ramdas Pophale) SiO2 
 PCOD8002824
Probable space group: P -1
;
_chemical_formula_sum "Si O2"
_cell_formula_units_Z 14
_cell_length_a 7.404115
_cell_length_b 9.231626
_cell_length_c 16.198304
_cell_angle_alpha 75.169525
_cell_angle_beta 33.758392
_cell_angle_gamma 60.987112
_cell_volume 512.745482
_symmetry_space_group_name_H-M "P -1"
_symmetry_group_IT_number 2
_symmetry_cell_setting 'triclinic'
loop_
_space_group_symop_operation_xyz
x,y,z
-x,-y,-z
loop_
_atom_site_type_symbol
_atom_site_label
_atom_site_fract_x
_atom_site_fract_y
_atom_site_fract_z
Si Si1 0.108278 0.758135 0.596729
Si Si2 0.953937 0.354716 0.992197
Si Si3 0.766694 0.003070 0.829996
Si Si4 0.793777 0.558990 0.479611
Si Si5 0.416380 0.796528 0.729812
Si Si6 0.245834 0.671524 0.186294
Si Si7 0.411733 0.130694 0.711321
O O1 0.395270 0.623518 0.575713
O O2 0.965431 0.649508 0.609154
O O3 0.290011 0.843738 0.457875
O O4 0.766218 0.912295 0.756777
O O5 0.327422 0.229303 0.816424
O O6 0.863914 0.229836 0.100658
O O7 0.578695 0.479211 0.061930
O O8 0.000000 0.500000 0.000000
O O9 0.605279 0.208456 0.846111
O O10 0.193874 0.906516 0.716884
O O11 0.500000 0.000000 0.000000
O O12 0.719139 0.605408 0.601061
O O13 0.984258 0.661436 0.357102
O O14 0.566234 0.922186 0.693757
O O15 0.003585 0.773591 0.184368
#
# Coordination Sequence:
#
# PCOD8002824 Si02
#       7
#     2   2   2   2   2   2   2
#     4   9  18  34  60  88 115 150 194 244 287 335
#     4  12  24  38  58  87 123 156 190 241 297 343
#     4  10  20  36  59  87 117 151 195 241 286 343
#     4   9  18  35  59  88 117 150 195 241 289 342
#     4  10  21  37  59  84 117 156 192 239 294 344
#     4  10  22  38  61  86 115 153 198 240 283 344
#     4  10  21  40  62  85 115 156 201 236 283 349
#
# _framework density 27.303996000000001
#
# number of rings (size 3 to 8) (size 9 to 14) (size 15 to 20)
#    0.000    2.000    0.000    3.429    0.000   10.857 
#    0.000    1.429    0.000    6.000    0.000    0.000 
#    0.000    0.000    0.000    0.000    0.000    0.000 
#
# Total GULP energy -173615.267516 kJ/mol
# GULP energy per Si atom -12401.090537 kJ/mol
# Density = 2.724185 g / cm^3
# Si number density = 27.303996 Si / 1000 Ang^3
#
#
#
# Elastic Constant Matrix: (Units=GPa)
#
#
# Indices 1 2 3 4 5 6 
#
# 1 115.9646 70.0189 37.0973 8.7961 26.4708 30.7660
# 2 70.0189 198.7351 68.8366 8.3441 26.7701 23.6976
# 3 37.0973 68.8366 170.6031 7.4146 40.6925 37.0079
# 4 8.7961 8.3441 7.4146 58.1033 10.2394 -11.9252
# 5 26.4708 26.7701 40.6925 10.2394 32.3904 9.8083
# 6 30.7660 23.6976 37.0079 -11.9252 9.8083 55.1284
#
#
#
# Elastic Compliance Matrix: (Units=1/GPa)
#
#
# Indices 1 2 3 4 5 6 
#
# 1 0.013899 -0.003598 0.001848 -0.001670 -0.008258 -0.006342
# 2 -0.003598 0.007012 -0.002041 -0.000043 -0.000407 0.000427
# 3 0.001848 -0.002041 0.009928 -0.000405 -0.010651 -0.005012
# 4 -0.001670 -0.000043 -0.000405 0.020035 -0.006455 0.006704
# 5 -0.008258 -0.000407 -0.010651 -0.006455 0.053047 0.001099
# 6 -0.006342 0.000427 -0.005012 0.006704 0.001099 0.026114
#
#
# Mechanical properties :
#
#
# Convention : Reuss Voigt Hill
#
# Bulk Modulus (GPa) = 42.99766 93.02317 68.01042
# Shear Modulus (GPa) = 34.39489 49.74776 42.07132
#
# Velocity S-wave (km/s) = 3.55308 4.27311 3.92962
# Velocity P-wave (km/s) = 5.71090 7.64784 6.74922
#
# Compressibility (1/GPa) = 0.02325708
#
# Stress axis : x y z
#
# Youngs Moduli (GPa) = 71.94682 142.61164 100.72180
#
# Poissons Ratio (x) = 0.51315 -0.18609
# Poissons Ratio (y) = 0.25888 0.20553
# Poissons Ratio (z) = -0.13292 0.29101
#
# Static dielectric constant tensor:
#      x y z
#    x 5.781900 -0.448780 -0.276400 
#    y -0.448780 5.670320 0.717080 
#    z -0.276400 0.717080 4.711170 
# 
# 
# High freq. dielectric constant tensor:
#      x y z
#    x 2.155990 -0.025260 -0.010610 
#    y -0.025260 2.137050 0.034190 
#    z -0.010610 0.034190 2.082920 
# 
# From -- ./inp_files/184465.got.cif
#   From: 2010.06.25/outbox.cif.g09.slc.cpg/sg2_93_cif.got.tgz:184465.got - 2010.06.27 13:26:56.
