data_PCOD8002082
_publ_section_title
;
Structure prediction by ZEFSAII (Michael W. Deem and Ramdas Pophale) SiO2 
 PCOD8002082
Probable space group: P -1
;
_chemical_formula_sum "Si O2"
_cell_formula_units_Z 16
_cell_length_a 14.304929
_cell_length_b 14.769715
_cell_length_c 13.141647
_cell_angle_alpha 138.518712
_cell_angle_beta 39.278592
_cell_angle_gamma 152.863051
_cell_volume 784.094833
_symmetry_space_group_name_H-M "P -1"
_symmetry_group_IT_number 2
_symmetry_cell_setting 'triclinic'
loop_
_space_group_symop_operation_xyz
x,y,z
-x,-y,-z
loop_
_atom_site_type_symbol
_atom_site_label
_atom_site_fract_x
_atom_site_fract_y
_atom_site_fract_z
Si Si1 0.152122 0.830446 0.135916
Si Si2 0.691030 0.598402 0.342143
Si Si3 0.379177 0.386852 0.806066
Si Si4 0.399680 0.129003 0.693374
Si Si5 0.608077 0.248584 0.041036
Si Si6 0.831277 0.287231 0.404629
Si Si7 0.416597 0.217504 0.978451
Si Si8 0.051532 0.762548 0.936976
O O1 0.951754 0.790881 0.315549
O O2 0.374585 0.069489 0.142662
O O3 0.210380 0.744411 0.088515
O O4 0.095785 0.735201 0.989750
O O5 0.500000 0.500000 0.500000
O O6 0.634536 0.651767 0.335731
O O7 0.699257 0.445555 0.181051
O O8 0.335370 0.218082 0.759620
O O9 0.594498 0.625036 0.855807
O O10 0.200530 0.375009 0.981804
O O11 0.593576 0.191371 0.520942
O O12 0.193630 0.882021 0.666558
O O13 0.490467 0.237057 0.817668
O O14 0.579609 0.247849 0.943223
O O15 0.892926 0.315418 0.257982
O O16 0.000000 0.500000 0.500000
O O17 0.175422 0.991387 0.008059
#
# Coordination Sequence:
#
# PCOD8002082 Si02
#       8
#     2   2   2   2   2   2   2   2
#     4   9  18  35  58  80 104 139 184 227 268 321
#     4  10  21  35  52  79 112 140 177 229 277 324
#     4  10  20  35  55  77 104 144 183 219 267 323
#     4  10  21  35  53  79 111 142 176 219 267 319
#     4   9  18  34  57  80 104 141 183 223 269 319
#     4  10  21  36  53  78 112 143 175 219 268 317
#     4   9  18  33  54  80 107 137 181 225 262 314
#     4   9  19  34  55  80 107 138 178 223 266 319
#
# _framework density 20.405695000000001
#
# number of rings (size 3 to 8) (size 9 to 14) (size 15 to 20)
#    0.000    2.500    0.000    1.500    0.000    4.500 
#    0.000    2.500    0.000    0.000    0.000    0.000 
#    0.000    0.000    0.000    0.000    0.000    0.000 
#
# Total GULP energy -198222.225515 kJ/mol
# GULP energy per Si atom -12388.889095 kJ/mol
# Density = 2.035925 g / cm^3
# Si number density = 20.405695 Si / 1000 Ang^3
#
#
#
# Elastic Constant Matrix: (Units=GPa)
#
#
# Indices 1 2 3 4 5 6 
#
# 1 108.5890 45.9171 37.8067 -4.2275 5.2460 -22.7820
# 2 45.9171 85.6649 33.9271 3.1934 1.4434 -4.5132
# 3 37.8067 33.9271 69.8344 -22.7884 11.4042 -6.5327
# 4 -4.2275 3.1934 -22.7884 45.5129 -1.2231 -3.4351
# 5 5.2460 1.4434 11.4042 -1.2231 17.7359 -0.6700
# 6 -22.7820 -4.5132 -6.5327 -3.4351 -0.6700 33.2800
#
#
#
# Elastic Compliance Matrix: (Units=1/GPa)
#
#
# Indices 1 2 3 4 5 6 
#
# 1 0.015070 -0.005962 -0.004179 0.000358 -0.000932 0.008706
# 2 -0.005962 0.018437 -0.009150 -0.006578 0.005544 -0.003944
# 3 -0.004179 -0.009150 0.028415 0.014272 -0.015206 0.002643
# 4 0.000358 -0.006578 0.014272 0.029823 -0.006498 0.005102
# 5 -0.000932 0.005544 -0.015206 -0.006498 0.065453 -0.002224
# 6 0.008706 -0.003944 0.002643 0.005102 -0.002224 0.036473
#
#
# Mechanical properties :
#
#
# Convention : Reuss Voigt Hill
#
# Bulk Modulus (GPa) = 42.84445 55.48781 49.16613
# Shear Modulus (GPa) = 20.83037 29.06823 24.94930
#
# Velocity S-wave (km/s) = 3.19848 3.77837 3.50045
# Velocity P-wave (km/s) = 5.88917 6.80339 6.36272
#
# Compressibility (1/GPa) = 0.02334025
#
# Stress axis : x y z
#
# Youngs Moduli (GPa) = 66.35507 54.23937 35.19232
#
# Poissons Ratio (x) = 0.32336 0.14708
# Poissons Ratio (y) = 0.39559 0.32202
# Poissons Ratio (z) = 0.27731 0.49630
#
# Static dielectric constant tensor:
#      x y z
#    x 3.616790 -0.098850 0.111840 
#    y -0.098850 4.176070 -0.045740 
#    z 0.111840 -0.045740 3.681250 
# 
# 
# High freq. dielectric constant tensor:
#      x y z
#    x 1.784130 -0.005170 0.009590 
#    y -0.005170 1.824690 -0.002910 
#    z 0.009590 -0.002910 1.769170 
# 
# From -- ./inp_files/455059.got.cif
#   From: 2010.06.25/outbox.cif.g09.slc.cpg/sg2_228_cif.got.tgz:455059.got - 2010.06.27 13:26:56.
