data_PCOD8002551
_publ_section_title
;
Structure prediction by ZEFSAII (Michael W. Deem and Ramdas Pophale) SiO2 
 PCOD8002551
Probable space group: P -1
;
_chemical_formula_sum "Si O2"
_cell_formula_units_Z 16
_cell_length_a 8.421175
_cell_length_b 18.596702
_cell_length_c 12.168942
_cell_angle_alpha 53.078579
_cell_angle_beta 80.601693
_cell_angle_gamma 123.144335
_cell_volume 865.519702
_symmetry_space_group_name_H-M "P -1"
_symmetry_group_IT_number 2
_symmetry_cell_setting 'triclinic'
loop_
_space_group_symop_operation_xyz
x,y,z
-x,-y,-z
loop_
_atom_site_type_symbol
_atom_site_label
_atom_site_fract_x
_atom_site_fract_y
_atom_site_fract_z
Si Si1 0.895967 0.542219 0.414793
Si Si2 0.151395 0.323844 0.556252
Si Si3 0.159301 0.984316 0.033731
Si Si4 0.550703 0.155291 0.031273
Si Si5 0.286850 0.697757 0.677936
Si Si6 0.404331 0.889785 0.307634
Si Si7 0.814116 0.351870 0.021151
Si Si8 0.367985 0.565559 0.680603
O O1 0.731134 0.537694 0.514705
O O2 0.692806 0.424882 0.444804
O O3 0.000000 0.500000 0.500000
O O4 0.166381 0.721015 0.182956
O O5 0.404776 0.409517 0.368738
O O6 0.900788 0.248363 0.582948
O O7 0.057203 0.196567 0.759057
O O8 0.303175 0.072675 0.053667
O O9 0.386749 0.061088 0.846947
O O10 0.000000 0.000000 0.000000
O O11 0.583036 0.239584 0.053089
O O12 0.498514 0.032545 0.197371
O O13 0.382508 0.828369 0.481347
O O14 0.482701 0.703364 0.611444
O O15 0.960489 0.518412 0.856548
O O16 0.331006 0.738331 0.764422
O O17 0.069235 0.397775 0.921766
#
# Coordination Sequence:
#
# PCOD8002551 Si02
#       8
#     2   2   2   2   2   2   2   2
#     4  11  20  32  53  78 117 147 177 221 278 333
#     4  11  20  34  51  82 117 144 179 224 271 340
#     4  11  22  34  55  80 115 146 182 220 275 337
#     4  10  20  36  53  81 115 142 180 229 268 331
#     4   9  18  36  61  80 101 152 186 225 273 323
#     4  11  20  35  55  78 111 147 181 223 282 322
#     4   8  19  37  59  79 107 143 190 226 273 317
#     4   9  19  33  54  82 109 141 185 225 270 321
#
# _framework density 18.486003
#
# number of rings (size 3 to 8) (size 9 to 14) (size 15 to 20)
#    0.750    1.250    2.500    2.625    1.750    0.500 
#    0.000    0.625    0.000    6.750    0.000    0.000 
#    0.000    0.000    0.000    0.000    0.000    0.000 
#
# Total GULP energy -198244.078931 kJ/mol
# GULP energy per Si atom -12390.254933 kJ/mol
# Density = 1.844393 g / cm^3
# Si number density = 18.486003 Si / 1000 Ang^3
#
#
#
# Elastic Constant Matrix: (Units=GPa)
#
#
# Indices 1 2 3 4 5 6 
#
# 1 103.4617 38.5431 29.3963 12.7910 -8.7446 -5.3723
# 2 38.5431 104.3323 34.2287 14.8179 -0.1713 -7.9677
# 3 29.3963 34.2287 73.1860 15.3573 3.5609 -3.5220
# 4 12.7910 14.8179 15.3573 24.1633 -2.2527 -2.7377
# 5 -8.7446 -0.1713 3.5609 -2.2527 29.0958 -0.8808
# 6 -5.3723 -7.9677 -3.5220 -2.7377 -0.8808 16.8814
#
#
#
# Elastic Compliance Matrix: (Units=1/GPa)
#
#
# Indices 1 2 3 4 5 6 
#
# 1 0.012416 -0.003103 -0.003216 -0.002061 0.003998 0.001690
# 2 -0.003103 0.012736 -0.003796 -0.003392 -0.000545 0.003653
# 3 -0.003216 -0.003796 0.018625 -0.008225 -0.003920 -0.000468
# 4 -0.002061 -0.003392 -0.008225 0.050705 0.004429 0.004481
# 5 0.003998 -0.000545 -0.003920 0.004429 0.036476 0.002819
# 6 0.001690 0.003653 -0.000468 0.004481 0.002819 0.062275
#
#
# Mechanical properties :
#
#
# Convention : Reuss Voigt Hill
#
# Bulk Modulus (GPa) = 42.47003 53.92405 48.19704
# Shear Modulus (GPa) = 22.59239 25.94888 24.27064
#
# Velocity S-wave (km/s) = 3.49970 3.75067 3.62735
# Velocity P-wave (km/s) = 6.27332 6.92750 6.60851
#
# Compressibility (1/GPa) = 0.02354602
#
# Stress axis : x y z
#
# Youngs Moduli (GPa) = 80.54238 78.51485 53.69005
#
# Poissons Ratio (x) = 0.24365 0.17269
# Poissons Ratio (y) = 0.24994 0.20382
# Poissons Ratio (z) = 0.25906 0.29806
#
# Static dielectric constant tensor:
#      x y z
#    x 3.192290 -0.116490 -0.069010 
#    y -0.116490 3.397440 0.011560 
#    z -0.069010 0.011560 3.366840 
# 
# 
# High freq. dielectric constant tensor:
#      x y z
#    x 1.693730 -0.011000 -0.000780 
#    y -0.011000 1.713380 0.000310 
#    z -0.000780 0.000310 1.704710 
# 
# From -- ./inp_files/404774.got.cif
#   From: 2010.06.25/outbox.cif.g09.slc.cpg/sg2_203_cif.got.tgz:404774.got - 2010.06.27 13:26:56.
