data_PCOD8002798
_publ_section_title
;
Structure prediction by ZEFSAII (Michael W. Deem and Ramdas Pophale) SiO2 
 PCOD8002798
Probable space group: P -1
;
_chemical_formula_sum "Si O2"
_cell_formula_units_Z 16
_cell_length_a 9.232561
_cell_length_b 13.953556
_cell_length_c 13.370012
_cell_angle_alpha 59.608879
_cell_angle_beta 79.431141
_cell_angle_gamma 128.685175
_cell_volume 777.479981
_symmetry_space_group_name_H-M "P -1"
_symmetry_group_IT_number 2
_symmetry_cell_setting 'triclinic'
loop_
_space_group_symop_operation_xyz
x,y,z
-x,-y,-z
loop_
_atom_site_type_symbol
_atom_site_label
_atom_site_fract_x
_atom_site_fract_y
_atom_site_fract_z
Si Si1 0.951046 0.300230 0.792230
Si Si2 0.958324 0.709603 0.842716
Si Si3 0.667272 0.466385 0.806815
Si Si4 0.604863 0.879427 0.546736
Si Si5 0.631930 0.506218 0.194323
Si Si6 0.526666 0.081117 0.266647
Si Si7 0.564006 0.904050 0.938921
Si Si8 0.822081 0.331805 0.442435
O O1 0.144139 0.364114 0.815131
O O2 0.106616 0.501287 0.607837
O O3 0.852995 0.146183 0.805576
O O4 0.691325 0.187515 0.940212
O O5 0.155313 0.733046 0.839293
O O6 0.752975 0.538777 0.872756
O O7 0.141647 0.931771 0.661359
O O8 0.776756 0.624953 0.007063
O O9 0.553838 0.505665 0.750051
O O10 0.917197 0.581726 0.647158
O O11 0.432514 0.220703 0.958845
O O12 0.579508 0.733402 0.656084
O O13 0.650747 0.982881 0.584986
O O14 0.310906 0.729008 0.617476
O O15 0.485641 0.137796 0.150991
O O16 0.402715 0.881255 0.352964
#
# Coordination Sequence:
#
# PCOD8002798 Si02
#       8
#     2   2   2   2   2   2   2   2
#     4   9  20  39  55  81 106 141 194 236 264 323
#     4  11  20  36  57  87 116 143 184 227 272 341
#     4  11  21  36  53  84 116 145 181 221 277 343
#     4  10  20  36  59  85 112 145 186 227 274 331
#     4  11  23  36  57  82 117 155 174 224 286 324
#     4  11  18  34  61  85 106 147 180 235 282 311
#     4  10  21  35  60  80 103 144 197 231 268 322
#     4   9  18  35  58  80 113 139 182 232 277 325
#
# _framework density 20.579308000000001
#
# number of rings (size 3 to 8) (size 9 to 14) (size 15 to 20)
#    0.000    1.750    3.750    1.875    0.000    2.500 
#    2.250    0.000    0.000    0.750    0.000    0.000 
#    0.000    0.000    0.000    0.000    0.000    0.000 
#
# Total GULP energy -198299.352602 kJ/mol
# GULP energy per Si atom -12393.709538 kJ/mol
# Density = 2.053247 g / cm^3
# Si number density = 20.579308 Si / 1000 Ang^3
#
#
#
# Elastic Constant Matrix: (Units=GPa)
#
#
# Indices 1 2 3 4 5 6 
#
# 1 100.2445 32.9032 31.5274 -13.9372 19.6094 -5.6265
# 2 32.9032 60.8930 17.0287 -26.0117 10.3753 3.3005
# 3 31.5274 17.0287 83.2035 -15.7267 18.0493 -9.7719
# 4 -13.9372 -26.0117 -15.7267 35.7542 -6.7295 5.4297
# 5 19.6094 10.3753 18.0493 -6.7295 23.4798 -3.2363
# 6 -5.6265 3.3005 -9.7719 5.4297 -3.2363 18.4546
#
#
#
# Elastic Compliance Matrix: (Units=1/GPa)
#
#
# Indices 1 2 3 4 5 6 
#
# 1 0.014360 -0.007200 -0.002464 -0.002660 -0.007143 0.003891
# 2 -0.007200 0.030777 -0.000673 0.020947 -0.003101 -0.014763
# 3 -0.002464 -0.000673 0.016169 0.003248 -0.008385 0.005505
# 4 -0.002660 0.020947 0.003248 0.046347 0.001518 -0.016207
# 5 -0.007143 -0.003101 -0.008385 0.001518 0.057294 0.003538
# 6 0.003891 -0.014763 0.005505 -0.016207 0.003538 0.066317
#
#
# Mechanical properties :
#
#
# Convention : Reuss Voigt Hill
#
# Bulk Modulus (GPa) = 24.61040 45.25105 34.93073
# Shear Modulus (GPa) = 18.83365 26.39650 22.61507
#
# Velocity S-wave (km/s) = 3.02847 3.58533 3.31860
# Velocity P-wave (km/s) = 4.92073 6.25905 5.62980
#
# Compressibility (1/GPa) = 0.04063322
#
# Stress axis : x y z
#
# Youngs Moduli (GPa) = 69.63928 32.49151 61.84514
#
# Poissons Ratio (x) = 0.23395 0.15237
# Poissons Ratio (y) = 0.50142 0.04160
# Poissons Ratio (z) = 0.17157 0.02185
#
# Static dielectric constant tensor:
#      x y z
#    x 3.547970 0.020540 0.240310 
#    y 0.020540 3.668690 -0.346250 
#    z 0.240310 -0.346250 3.785920 
# 
# 
# High freq. dielectric constant tensor:
#      x y z
#    x 1.784970 0.007940 0.020550 
#    y 0.007940 1.788500 -0.022200 
#    z 0.020550 -0.022200 1.805480 
# 
# From -- ./inp_files/171573.got.cif
#   From: 2010.06.25/outbox.cif.g09.slc.cpg/sg2_86_cif.got.tgz:171573.got - 2010.06.27 13:26:56.
