data_PCOD8002845
_publ_section_title
;
Structure prediction by ZEFSAII (Michael W. Deem and Ramdas Pophale) SiO2 
 PCOD8002845
Probable space group: P -1
;
_chemical_formula_sum "Si O2"
_cell_formula_units_Z 14
_cell_length_a 8.324221
_cell_length_b 5.470077
_cell_length_c 21.600647
_cell_angle_alpha 64.198689
_cell_angle_beta 41.625833
_cell_angle_gamma 57.249251
_cell_volume 548.646620
_symmetry_space_group_name_H-M "P -1"
_symmetry_group_IT_number 2
_symmetry_cell_setting 'triclinic'
loop_
_space_group_symop_operation_xyz
x,y,z
-x,-y,-z
loop_
_atom_site_type_symbol
_atom_site_label
_atom_site_fract_x
_atom_site_fract_y
_atom_site_fract_z
Si Si1 0.929968 0.910348 0.301679
Si Si2 0.611048 0.892667 0.729306
Si Si3 0.654477 0.825530 0.859166
Si Si4 0.085061 0.251037 0.809359
Si Si5 0.409323 0.294905 0.375404
Si Si6 0.084989 0.146425 0.018106
Si Si7 0.975527 0.858357 0.429305
O O1 0.898987 0.721805 0.272871
O O2 0.914150 0.763975 0.388366
O O3 0.690998 0.222362 0.332926
O O4 0.205458 0.944131 0.214311
O O5 0.586766 0.743962 0.818060
O O6 0.565251 0.706561 0.706230
O O7 0.370175 0.211646 0.760235
O O8 0.904283 0.890013 0.639646
O O9 0.848681 0.536587 0.870434
O O10 0.395591 0.991025 0.953832
O O11 0.032221 0.956115 0.876298
O O12 0.280198 0.059245 0.462999
O O13 0.210413 0.600206 0.423057
O O14 0.000000 0.500000 0.000000
O O15 0.000000 0.000000 0.000000
#
# Coordination Sequence:
#
# PCOD8002845 Si02
#       7
#     2   2   2   2   2   2   2
#     4  10  23  37  62  94 128 172 228 285 341 408
#     4  10  21  39  62  94 132 172 230 279 347 402
#     4  11  24  43  69  96 135 178 232 281 352 413
#     4  11  24  43  69  96 135 178 232 281 352 413
#     4  10  20  36  59  89 129 174 223 279 341 403
#     4  12  29  49  76 105 144 182 232 290 353 422
#     4  10  20  36  59  89 129 174 223 279 341 403
#
# _framework density 25.517334000000002
#
# number of rings (size 3 to 8) (size 9 to 14) (size 15 to 20)
#    0.000    1.429    1.429    3.000    4.000    5.143 
#    0.000    0.000    0.000   13.714    0.000    0.000 
#    0.000    0.000    0.000    0.000    0.000    0.000 
#
# Total GULP energy -173441.438493 kJ/mol
# GULP energy per Si atom -12388.674178 kJ/mol
# Density = 2.545926 g / cm^3
# Si number density = 25.517334 Si / 1000 Ang^3
#
#
#
# Elastic Constant Matrix: (Units=GPa)
#
#
# Indices 1 2 3 4 5 6 
#
# 1 88.6324 4.4950 14.8876 10.0356 -0.4663 -14.1921
# 2 4.4950 87.0027 -14.2095 17.3615 5.1391 -15.2638
# 3 14.8876 -14.2095 77.7586 15.1290 5.7030 -4.8535
# 4 10.0356 17.3615 15.1290 30.5540 -16.3526 -8.7600
# 5 -0.4663 5.1391 5.7030 -16.3526 30.7352 2.5435
# 6 -14.1921 -15.2638 -4.8535 -8.7600 2.5435 31.3272
#
#
#
# Elastic Compliance Matrix: (Units=1/GPa)
#
#
# Indices 1 2 3 4 5 6 
#
# 1 0.012665 0.001071 -0.000921 -0.004144 -0.002447 0.005157
# 2 0.001071 0.020631 0.010465 -0.025944 -0.019717 0.006505
# 3 -0.000921 0.010465 0.021717 -0.026492 -0.020076 0.002268
# 4 -0.004144 -0.025944 -0.026492 0.094505 0.059224 0.002996
# 5 -0.002447 -0.019717 -0.020076 0.059224 0.071284 -0.003053
# 6 0.005157 0.006505 0.002268 0.002996 -0.003053 0.038864
#
#
# Mechanical properties :
#
#
# Convention : Reuss Voigt Hill
#
# Bulk Modulus (GPa) = 13.11611 29.30444 21.21027
# Shear Modulus (GPa) = 18.95015 35.07131 27.01073
#
# Velocity S-wave (km/s) = 2.72810 3.71133 3.25703
# Velocity P-wave (km/s) = 3.88260 5.46574 4.74072
#
# Compressibility (1/GPa) = 0.07624213
#
# Stress axis : x y z
#
# Youngs Moduli (GPa) = 78.95756 48.47161 46.04615
#
# Poissons Ratio (x) = -0.05193 0.04243
# Poissons Ratio (y) = -0.08459 -0.48186
# Poissons Ratio (z) = 0.07276 -0.50724
#
# Static dielectric constant tensor:
#      x y z
#    x 4.737250 -0.556870 -0.112450 
#    y -0.556870 4.298860 0.070790 
#    z -0.112450 0.070790 4.993160 
# 
# 
# High freq. dielectric constant tensor:
#      x y z
#    x 2.017870 -0.032880 -0.007210 
#    y -0.032880 1.989630 0.009680 
#    z -0.007210 0.009680 2.028900 
# 
# From -- ./inp_files/38299.got.cif
#   From: 2010.06.25/outbox.cif.g09.slc.cpg/sg2_20_cif.got.tgz:38299.got - 2010.06.27 13:26:56.
