data_PCOD8002509
_publ_section_title
;
Structure prediction by ZEFSAII (Michael W. Deem and Ramdas Pophale) SiO2 
 PCOD8002509
Probable space group: P -1
;
_chemical_formula_sum "Si O2"
_cell_formula_units_Z 16
_cell_length_a 12.743523
_cell_length_b 10.550067
_cell_length_c 8.090937
_cell_angle_alpha 43.649240
_cell_angle_beta 102.674260
_cell_angle_gamma 116.147040
_cell_volume 665.259926
_symmetry_space_group_name_H-M "P -1"
_symmetry_group_IT_number 2
_symmetry_cell_setting 'triclinic'
loop_
_space_group_symop_operation_xyz
x,y,z
-x,-y,-z
loop_
_atom_site_type_symbol
_atom_site_label
_atom_site_fract_x
_atom_site_fract_y
_atom_site_fract_z
Si Si1 0.840906 0.981393 0.867714
Si Si2 0.403843 0.110284 0.197078
Si Si3 0.524971 0.231171 0.809405
Si Si4 0.982476 0.357641 0.976987
Si Si5 0.925696 0.926328 0.299716
Si Si6 0.784719 0.540289 0.229911
Si Si7 0.526273 0.239842 0.434381
Si Si8 0.793420 0.485620 0.666439
O O1 0.734952 0.048190 0.723742
O O2 0.867950 0.990339 0.062705
O O3 0.782943 0.754543 0.990995
O O4 0.960231 0.109524 0.687739
O O5 0.433085 0.236908 0.261735
O O6 0.484685 0.987270 0.336585
O O7 0.442472 0.254012 0.908415
O O8 0.500552 0.307437 0.546541
O O9 0.659185 0.360144 0.792898
O O10 0.500000 0.000000 0.000000
O O11 0.867165 0.354194 0.849231
O O12 0.103321 0.470105 0.811320
O O13 0.000000 0.500000 0.000000
O O14 0.959241 0.125150 0.240340
O O15 0.841919 0.711115 0.557245
O O16 0.657863 0.375354 0.283903
O O17 0.807354 0.525324 0.442064
#
# Coordination Sequence:
#
# PCOD8002509 Si02
#       8
#     2   2   2   2   2   2   2   2
#     4   9  19  37  64  90 118 167 205 270 321 364
#     4  10  20  35  64  88 124 169 209 262 326 371
#     4   9  20  38  61  93 128 166 216 264 313 390
#     4  11  24  37  64  94 124 171 206 264 339 372
#     4   9  21  40  61  96 127 156 226 264 306 405
#     4   9  20  39  60  88 122 155 221 260 308 399
#     4   9  20  36  58  91 124 161 219 262 308 394
#     4  10  21  40  66  89 125 172 209 265 326 372
#
# _framework density 24.050749
#
# number of rings (size 3 to 8) (size 9 to 14) (size 15 to 20)
#    0.000    2.500    0.000    1.125    8.750    1.000 
#    0.000    5.625   11.000    0.000    0.000    0.000 
#    0.000    0.000    0.000    0.000    0.000    0.000 
#
# Total GULP energy -198221.561672 kJ/mol
# GULP energy per Si atom -12388.847604 kJ/mol
# Density = 2.399601 g / cm^3
# Si number density = 24.050749 Si / 1000 Ang^3
#
#
#
# Elastic Constant Matrix: (Units=GPa)
#
#
# Indices 1 2 3 4 5 6 
#
# 1 72.5414 37.1146 20.1447 12.1131 -10.0484 22.7756
# 2 37.1146 94.6677 29.0918 -5.8452 -25.1741 12.9608
# 3 20.1447 29.0918 52.0529 -10.8685 -14.7816 4.1183
# 4 12.1131 -5.8452 -10.8685 48.1094 0.1395 -1.4970
# 5 -10.0484 -25.1741 -14.7816 0.1395 23.7330 -8.4797
# 6 22.7756 12.9608 4.1183 -1.4970 -8.4797 37.0089
#
#
#
# Elastic Compliance Matrix: (Units=1/GPa)
#
#
# Indices 1 2 3 4 5 6 
#
# 1 0.025128 -0.008116 -0.008403 -0.009621 -0.008127 -0.013938
# 2 -0.008116 0.018465 -0.002115 0.003842 0.015710 0.002519
# 3 -0.008403 -0.002115 0.029055 0.008578 0.014514 0.006351
# 4 -0.009621 0.003842 0.008578 0.025790 0.007471 0.006376
# 5 -0.008127 0.015710 0.014514 0.007471 0.069387 0.014085
# 6 -0.013938 0.002519 0.006351 0.006376 0.014085 0.037494
#
#
# Mechanical properties :
#
#
# Convention : Reuss Voigt Hill
#
# Bulk Modulus (GPa) = 28.26340 43.55158 35.90749
# Shear Modulus (GPa) = 19.65557 30.63100 25.14329
#
# Velocity S-wave (km/s) = 2.86187 3.57262 3.23681
# Velocity P-wave (km/s) = 4.76418 5.93007 5.37881
#
# Compressibility (1/GPa) = 0.03538145
#
# Stress axis : x y z
#
# Youngs Moduli (GPa) = 39.79621 54.15590 34.41717
#
# Poissons Ratio (x) = 0.43954 0.28919
# Poissons Ratio (y) = 0.32300 0.07278
# Poissons Ratio (z) = 0.33439 0.11453
#
# Static dielectric constant tensor:
#      x y z
#    x 4.137590 0.138800 -0.258810 
#    y 0.138800 4.836180 0.073560 
#    z -0.258810 0.073560 4.625590 
# 
# 
# High freq. dielectric constant tensor:
#      x y z
#    x 1.935930 0.012650 -0.002540 
#    y 0.012650 1.963750 -0.007750 
#    z -0.002540 -0.007750 1.939770 
# 
# From -- ./inp_files/261657.got.cif
#   From: 2010.06.25/outbox.cif.g09.slc.cpg/sg2_131_cif.got.tgz:261657.got - 2010.06.27 13:26:56.
