data_PCOD8002795
_publ_section_title
;
Structure prediction by ZEFSAII (Michael W. Deem and Ramdas Pophale) SiO2 
 PCOD8002795
Probable space group: P -1
;
_chemical_formula_sum "Si O2"
_cell_formula_units_Z 16
_cell_length_a 10.882670
_cell_length_b 14.782816
_cell_length_c 11.126703
_cell_angle_alpha 28.497844
_cell_angle_beta 131.253683
_cell_angle_gamma 123.345785
_cell_volume 639.864509
_symmetry_space_group_name_H-M "P -1"
_symmetry_group_IT_number 2
_symmetry_cell_setting 'triclinic'
loop_
_space_group_symop_operation_xyz
x,y,z
-x,-y,-z
loop_
_atom_site_type_symbol
_atom_site_label
_atom_site_fract_x
_atom_site_fract_y
_atom_site_fract_z
Si Si1 0.410925 0.193632 0.173674
Si Si2 0.211009 0.668935 0.386681
Si Si3 0.555108 0.125060 0.107371
Si Si4 0.180214 0.711709 0.057047
Si Si5 0.753936 0.737908 0.383986
Si Si6 0.095495 0.259128 0.763036
Si Si7 0.123884 0.340010 0.205830
Si Si8 0.441069 0.313911 0.306843
O O1 0.498195 0.256963 0.032629
O O2 0.425252 0.344755 0.115490
O O3 0.500000 0.000000 0.500000
O O4 0.222250 0.162444 0.055738
O O5 0.220107 0.785114 0.131796
O O6 0.120639 0.482714 0.513716
O O7 0.389134 0.610866 0.625327
O O8 0.089855 0.784887 0.268938
O O9 0.557296 0.907396 0.401349
O O10 0.732796 0.170787 0.125420
O O11 0.430214 0.173064 0.860987
O O12 0.245550 0.490603 0.345371
O O13 0.985211 0.755117 0.854284
O O14 0.869547 0.815565 0.263001
O O15 0.812152 0.803919 0.476724
O O16 0.281437 0.419162 0.147312
O O17 0.000000 0.500000 0.000000
#
# Coordination Sequence:
#
# PCOD8002795 Si02
#       8
#     2   2   2   2   2   2   2   2
#     4   9  20  39  59  85 120 153 190 238 289 346
#     4  10  21  36  60  88 115 152 197 243 288 344
#     4  10  21  38  60  86 118 158 194 234 292 348
#     4  10  20  36  59  84 120 156 192 241 289 340
#     4   9  19  37  59  85 116 152 197 240 284 345
#     4   9  19  38  60  84 115 153 195 239 292 342
#     4  10  22  37  57  85 116 150 191 242 292 341
#     4  11  23  39  59  86 119 154 198 243 289 348
#
# _framework density 25.005291
#
# number of rings (size 3 to 8) (size 9 to 14) (size 15 to 20)
#    0.000    2.250    0.000    1.875    0.000   10.000 
#    0.000    9.375    0.000    0.000    0.000    0.000 
#    0.000    0.000    0.000    0.000    0.000    0.000 
#
# Total GULP energy -198304.811149 kJ/mol
# GULP energy per Si atom -12394.050697 kJ/mol
# Density = 2.494838 g / cm^3
# Si number density = 25.005291 Si / 1000 Ang^3
#
#
#
# Elastic Constant Matrix: (Units=GPa)
#
#
# Indices 1 2 3 4 5 6 
#
# 1 159.9989 41.4774 12.2520 38.8314 7.4767 4.3925
# 2 41.4774 55.2040 14.6794 33.2598 -6.6964 3.0373
# 3 12.2520 14.6794 84.9776 38.2795 -6.3377 -2.4864
# 4 38.8314 33.2598 38.2795 47.3850 -1.4822 -3.0865
# 5 7.4767 -6.6964 -6.3377 -1.4822 39.9206 12.3437
# 6 4.3925 3.0373 -2.4864 -3.0865 12.3437 36.3852
#
#
#
# Elastic Compliance Matrix: (Units=1/GPa)
#
#
# Indices 1 2 3 4 5 6 
#
# 1 0.008644 -0.003295 0.002132 -0.006587 -0.001913 -0.000532
# 2 -0.003295 0.039317 0.008652 -0.032121 0.009993 -0.008408
# 3 0.002132 0.008652 0.021637 -0.025365 0.004532 -0.003190
# 4 -0.006587 -0.032121 -0.025365 0.069958 -0.008890 0.010694
# 5 -0.001913 0.009993 0.004532 -0.008890 0.031055 -0.011583
# 6 -0.000532 -0.008408 -0.003190 0.010694 -0.011583 0.032869
#
#
# Mechanical properties :
#
#
# Convention : Reuss Voigt Hill
#
# Bulk Modulus (GPa) = 11.82375 48.55530 30.18953
# Shear Modulus (GPa) = 23.07406 40.18960 31.63183
#
# Velocity S-wave (km/s) = 3.04100 4.01339 3.56055
# Velocity P-wave (km/s) = 4.13147 6.39817 5.38543
#
# Compressibility (1/GPa) = 0.08457551
#
# Stress axis : x y z
#
# Youngs Moduli (GPa) = 115.68942 25.43400 46.21801
#
# Poissons Ratio (x) = 0.08382 -0.09854
# Poissons Ratio (y) = 0.38124 -0.39988
# Poissons Ratio (z) = -0.24667 -0.22006
#
# Static dielectric constant tensor:
#      x y z
#    x 5.182340 -0.486070 -0.247570 
#    y -0.486070 4.405620 0.583520 
#    z -0.247570 0.583520 4.774910 
# 
# 
# High freq. dielectric constant tensor:
#      x y z
#    x 2.008020 -0.012370 -0.003970 
#    y -0.012370 1.964040 0.018980 
#    z -0.003970 0.018980 2.006520 
# 
# From -- ./inp_files/436456.got.cif
#   From: 2010.06.25/outbox.cif.g09.slc.cpg/sg2_219_cif.got.tgz:436456.got - 2010.06.27 13:26:56.
