data_PCOD8002621
_publ_section_title
;
Structure prediction by ZEFSAII (Michael W. Deem and Ramdas Pophale) SiO2 
 PCOD8002621
Probable space group: P -1
;
_chemical_formula_sum "Si O2"
_cell_formula_units_Z 14
_cell_length_a 16.636457
_cell_length_b 16.847763
_cell_length_c 11.857012
_cell_angle_alpha 115.709432
_cell_angle_beta 54.777451
_cell_angle_gamma 162.477413
_cell_volume 720.466856
_symmetry_space_group_name_H-M "P -1"
_symmetry_group_IT_number 2
_symmetry_cell_setting 'triclinic'
loop_
_space_group_symop_operation_xyz
x,y,z
-x,-y,-z
loop_
_atom_site_type_symbol
_atom_site_label
_atom_site_fract_x
_atom_site_fract_y
_atom_site_fract_z
Si Si1 0.593836 0.988106 0.864706
Si Si2 0.574484 0.314478 0.045461
Si Si3 0.306823 0.991992 0.846764
Si Si4 0.378271 0.929220 0.350444
Si Si5 0.609563 0.271117 0.540207
Si Si6 0.699919 0.480460 0.404126
Si Si7 0.126793 0.010201 0.395583
O O1 0.367831 0.720003 0.939915
O O2 0.527645 0.931962 0.749755
O O3 0.983094 0.301095 0.768747
O O4 0.500000 0.000000 0.000000
O O5 0.286480 0.130748 0.217112
O O6 0.475483 0.197522 0.929969
O O7 0.910368 0.658120 0.977569
O O8 0.418479 0.986775 0.764010
O O9 0.403451 0.114521 0.723237
O O10 0.989472 0.573818 0.449334
O O11 0.466611 0.061040 0.469402
O O12 0.571015 0.324010 0.526005
O O13 0.404234 0.226218 0.397243
O O14 0.812228 0.676245 0.463033
O O15 0.000000 0.000000 0.500000
#
# Coordination Sequence:
#
# PCOD8002621 Si02
#       7
#     2   2   2   2   2   2   2
#     4  10  20  36  56  85 126 154 187 242 287 345
#     4  11  23  37  56  90 114 152 199 236 310 340
#     4  12  23  36  56  81 124 160 197 243 269 340
#     4  11  22  35  55  81 116 171 207 227 271 332
#     4  11  22  39  55  81 120 163 204 230 271 338
#     4  10  22  39  61  91 113 155 200 231 296 358
#     4  11  23  43  68  88 114 143 192 259 306 357
#
# _framework density 19.431844999999999
#
# number of rings (size 3 to 8) (size 9 to 14) (size 15 to 20)
#    0.000    1.143    1.429    7.286    2.000    1.714 
#    0.000    0.000    0.000    5.143    0.000    0.000 
#    0.000    0.000    0.000    0.000    0.000    0.000 
#
# Total GULP energy -173665.068009 kJ/mol
# GULP energy per Si atom -12404.647715 kJ/mol
# Density = 1.938762 g / cm^3
# Si number density = 19.431845 Si / 1000 Ang^3
#
#
#
# Elastic Constant Matrix: (Units=GPa)
#
#
# Indices 1 2 3 4 5 6 
#
# 1 66.1711 -0.3427 46.7152 11.6498 3.9600 -1.4759
# 2 -0.3427 127.4132 31.3401 -5.7033 1.8097 -7.9165
# 3 46.7152 31.3401 106.2067 3.9636 9.4889 -12.3709
# 4 11.6498 -5.7033 3.9636 35.6443 -3.2496 6.0217
# 5 3.9600 1.8097 9.4889 -3.2496 38.8976 13.6203
# 6 -1.4759 -7.9165 -12.3709 6.0217 13.6203 29.9905
#
#
#
# Elastic Compliance Matrix: (Units=1/GPa)
#
#
# Indices 1 2 3 4 5 6 
#
# 1 0.024124 0.002479 -0.011367 -0.005884 0.000349 -0.001824
# 2 0.002479 0.008838 -0.003646 0.000885 0.000035 0.000758
# 3 -0.011367 -0.003646 0.016990 -0.000674 -0.005758 0.008237
# 4 -0.005884 0.000885 -0.000674 0.032521 0.006948 -0.010019
# 5 0.000349 0.000035 -0.005758 0.006948 0.034445 -0.019387
# 6 -0.001824 0.000758 0.008237 -0.010019 -0.019387 0.047668
#
#
# Mechanical properties :
#
#
# Convention : Reuss Voigt Hill
#
# Bulk Modulus (GPa) = 40.18483 50.57956 45.38219
# Shear Modulus (GPa) = 25.25898 35.71173 30.48536
#
# Velocity S-wave (km/s) = 3.60929 4.29160 3.96515
# Velocity P-wave (km/s) = 6.17204 7.11638 6.66097
#
# Compressibility (1/GPa) = 0.02488502
#
# Stress axis : x y z
#
# Youngs Moduli (GPa) = 41.45240 113.14507 58.85726
#
# Poissons Ratio (x) = -0.28050 0.66900
# Poissons Ratio (y) = -0.10276 0.21461
# Poissons Ratio (z) = 0.47117 0.41256
#
# Static dielectric constant tensor:
#      x y z
#    x 3.391110 0.075950 0.146270 
#    y 0.075950 3.677240 0.016520 
#    z 0.146270 0.016520 3.637500 
# 
# 
# High freq. dielectric constant tensor:
#      x y z
#    x 1.735640 0.002720 0.018670 
#    y 0.002720 1.775200 0.001510 
#    z 0.018670 0.001510 1.751160 
# 
# From -- ./inp_files/68543.got.cif
#   From: 2010.06.25/outbox.cif.g09.slc.cpg/sg2_35_cif.got.tgz:68543.got - 2010.06.27 13:26:56.
