data_PCOD8002475
_publ_section_title
;
Structure prediction by ZEFSAII (Michael W. Deem and Ramdas Pophale) SiO2 
 PCOD8002475
Probable space group: P -1
;
_chemical_formula_sum "Si O2"
_cell_formula_units_Z 12
_cell_length_a 11.106297
_cell_length_b 14.025711
_cell_length_c 11.952690
_cell_angle_alpha 21.791699
_cell_angle_beta 70.189100
_cell_angle_gamma 58.948709
_cell_volume 531.673690
_symmetry_space_group_name_H-M "P -1"
_symmetry_group_IT_number 2
_symmetry_cell_setting 'triclinic'
loop_
_space_group_symop_operation_xyz
x,y,z
-x,-y,-z
loop_
_atom_site_type_symbol
_atom_site_label
_atom_site_fract_x
_atom_site_fract_y
_atom_site_fract_z
Si Si1 0.091889 0.316961 0.282636
Si Si2 0.823304 0.248934 0.242145
Si Si3 0.647918 0.377211 0.380024
Si Si4 0.924722 0.170043 0.662806
Si Si5 0.866194 0.446226 0.613696
Si Si6 0.478292 0.045204 0.825848
O O1 0.972935 0.368911 0.361389
O O2 0.210627 0.943392 0.624940
O O3 0.186176 0.463206 0.131589
O O4 0.000000 0.500000 0.000000
O O5 0.696231 0.398515 0.216862
O O6 0.000000 0.000000 0.500000
O O7 0.804062 0.138848 0.662646
O O8 0.545641 0.240158 0.553191
O O9 0.558071 0.718155 0.093067
O O10 0.836378 0.348960 0.609123
O O11 0.079269 0.826482 0.015444
O O12 0.704451 0.758868 0.363540
O O13 0.000000 0.500000 0.500000
O O14 0.500000 0.000000 0.000000
#
# Coordination Sequence:
#
# PCOD8002475 Si02
#       6
#     2   2   2   2   2   2
#     4  10  20  35  63 101 124 162 218 279 315 373
#     4  10  20  35  63  99 128 160 220 272 324 377
#     4  12  24  41  69 101 131 169 219 281 331 384
#     4  11  24  40  69 100 131 172 226 275 326 395
#     4  11  27  44  66  95 138 180 222 265 335 404
#     4  12  26  42  66  95 138 174 220 273 334 389
#
# _framework density 22.570235
#
# number of rings (size 3 to 8) (size 9 to 14) (size 15 to 20)
#    0.000    1.000    5.000    2.500    9.333    0.000 
#    0.000    0.000    0.000    6.000    0.000    0.000 
#    0.000    0.000    0.000    0.000    0.000    0.000 
#
# Total GULP energy -148779.107597 kJ/mol
# GULP energy per Si atom -12398.258966 kJ/mol
# Density = 2.251886 g / cm^3
# Si number density = 22.570235 Si / 1000 Ang^3
#
#
#
# Elastic Constant Matrix: (Units=GPa)
#
#
# Indices 1 2 3 4 5 6 
#
# 1 83.4376 25.9717 47.6388 2.9316 -19.0929 -18.6963
# 2 25.9717 110.5976 54.6941 -15.8891 -5.1784 -17.2894
# 3 47.6388 54.6941 124.1463 -4.7064 -26.3050 -9.7402
# 4 2.9316 -15.8891 -4.7064 40.2214 0.3768 -13.7359
# 5 -19.0929 -5.1784 -26.3050 0.3768 46.8017 -4.4663
# 6 -18.6963 -17.2894 -9.7402 -13.7359 -4.4663 34.6085
#
#
#
# Elastic Compliance Matrix: (Units=1/GPa)
#
#
# Indices 1 2 3 4 5 6 
#
# 1 0.018243 0.000256 -0.005114 0.001484 0.005524 0.009846
# 2 0.000256 0.014172 -0.005493 0.007926 -0.000645 0.008735
# 3 -0.005114 -0.005493 0.013271 -0.000797 0.004629 -0.001491
# 4 0.001484 0.007926 -0.000797 0.034043 0.002514 0.018373
# 5 0.005524 -0.000645 0.004629 0.002514 0.026936 0.008439
# 6 0.009846 0.008735 -0.001491 0.018373 0.008439 0.046539
#
#
# Mechanical properties :
#
#
# Convention : Reuss Voigt Hill
#
# Bulk Modulus (GPa) = 40.02452 63.86562 51.94507
# Shear Modulus (GPa) = 27.43718 36.98478 32.21098
#
# Velocity S-wave (km/s) = 3.49038 4.05242 3.78185
# Velocity P-wave (km/s) = 5.83228 7.08900 6.49113
#
# Compressibility (1/GPa) = 0.02498468
#
# Stress axis : x y z
#
# Youngs Moduli (GPa) = 54.81444 70.56129 75.35201
#
# Poissons Ratio (x) = -0.01806 0.38536
# Poissons Ratio (y) = -0.01403 0.41389
# Poissons Ratio (z) = 0.28033 0.38757
#
# Static dielectric constant tensor:
#      x y z
#    x 4.056510 -0.043140 -0.227970 
#    y -0.043140 4.168290 -0.022710 
#    z -0.227970 -0.022710 4.243620 
# 
# 
# High freq. dielectric constant tensor:
#      x y z
#    x 1.865700 0.002140 -0.032280 
#    y 0.002140 1.901110 -0.000550 
#    z -0.032280 -0.000550 1.891360 
# 
# From -- ./inp_files/25246.got.cif
#   From: 2010.06.25/outbox.cif.g09.slc.cpg/sg2_13_cif.got.tgz:25246.got - 2010.06.27 13:26:56.
