data_PCOD8002311
_publ_section_title
;
Structure prediction by ZEFSAII (Michael W. Deem and Ramdas Pophale) SiO2 
 PCOD8002311
Probable space group: P -1
;
_chemical_formula_sum "Si O2"
_cell_formula_units_Z 16
_cell_length_a 13.734837
_cell_length_b 8.709812
_cell_length_c 12.071599
_cell_angle_alpha 126.164919
_cell_angle_beta 104.656486
_cell_angle_gamma 115.839890
_cell_volume 747.058888
_symmetry_space_group_name_H-M "P -1"
_symmetry_group_IT_number 2
_symmetry_cell_setting 'triclinic'
loop_
_space_group_symop_operation_xyz
x,y,z
-x,-y,-z
loop_
_atom_site_type_symbol
_atom_site_label
_atom_site_fract_x
_atom_site_fract_y
_atom_site_fract_z
Si Si1 0.704351 0.752821 0.805415
Si Si2 0.158259 0.194293 0.355492
Si Si3 0.324753 0.700666 0.312800
Si Si4 0.130268 0.658757 0.818422
Si Si5 0.095384 0.460374 0.963142
Si Si6 0.384837 0.964951 0.847840
Si Si7 0.438424 0.623583 0.747845
Si Si8 0.176369 0.635018 0.460482
O O1 0.743046 0.760091 0.693786
O O2 0.697774 0.556198 0.794435
O O3 0.542617 0.629374 0.709549
O O4 0.835667 0.072881 0.028550
O O5 0.262138 0.316864 0.548888
O O6 0.128822 0.373107 0.396960
O O7 0.998275 0.866374 0.186408
O O8 0.233882 0.681382 0.373501
O O9 0.500000 0.000000 0.500000
O O10 0.255282 0.671042 0.163544
O O11 0.131898 0.534782 0.876553
O O12 0.252729 0.745662 0.807705
O O13 0.965981 0.424137 0.612209
O O14 0.000000 0.500000 0.000000
O O15 0.465302 0.874929 0.813690
O O16 0.309523 0.927452 0.694988
O O17 0.506816 0.291720 0.070586
#
# Coordination Sequence:
#
# PCOD8002311 Si02
#       8
#     2   2   2   2   2   2   2   2
#     4  10  20  35  60  87 119 158 198 242 304 364
#     4  10  20  35  59  87 123 154 200 244 306 353
#     4  11  25  39  60  94 126 153 191 251 314 361
#     4  11  21  37  64  87 120 159 205 245 296 355
#     4  12  23  38  59  93 126 153 192 252 307 357
#     4   9  20  37  58  88 116 160 210 246 287 345
#     4   9  19  34  57  85 116 152 200 252 286 346
#     4  10  20  39  61  86 118 165 200 247 288 365
#
# _framework density 21.417321000000001
#
# number of rings (size 3 to 8) (size 9 to 14) (size 15 to 20)
#    0.000    1.750    2.500    1.500    1.750    9.000 
#    0.000    2.500    0.000   13.500    0.000    0.000 
#    0.000    0.000    0.000    0.000    0.000    0.000 
#
# Total GULP energy -198369.863375 kJ/mol
# GULP energy per Si atom -12398.116461 kJ/mol
# Density = 2.136857 g / cm^3
# Si number density = 21.417321 Si / 1000 Ang^3
#
#
#
# Elastic Constant Matrix: (Units=GPa)
#
#
# Indices 1 2 3 4 5 6 
#
# 1 74.7523 19.7440 16.0633 -15.4066 11.8597 -1.2369
# 2 19.7440 72.3819 28.9691 -12.1816 4.4997 -9.7790
# 3 16.0633 28.9691 144.1162 -22.5717 23.1965 -18.0817
# 4 -15.4066 -12.1816 -22.5717 36.3309 -4.1202 1.7780
# 5 11.8597 4.4997 23.1965 -4.1202 37.1881 -3.4287
# 6 -1.2369 -9.7790 -18.0817 1.7780 -3.4287 13.7874
#
#
#
# Elastic Compliance Matrix: (Units=1/GPa)
#
#
# Indices 1 2 3 4 5 6 
#
# 1 0.016061 -0.003639 0.000143 0.005311 -0.004435 -0.002740
# 2 -0.003639 0.017161 -0.001577 0.002901 0.001285 0.009723
# 3 0.000143 -0.001577 0.010013 0.004726 -0.004631 0.010266
# 4 0.005311 0.002901 0.004726 0.033377 -0.000907 0.004202
# 5 -0.004435 0.001285 -0.004631 -0.000907 0.031150 0.002304
# 6 -0.002740 0.009723 0.010266 0.004202 0.002304 0.092675
#
#
# Mechanical properties :
#
#
# Convention : Reuss Voigt Hill
#
# Bulk Modulus (GPa) = 30.22010 46.75592 38.48801
# Shear Modulus (GPa) = 22.56201 32.55955 27.56078
#
# Velocity S-wave (km/s) = 3.24921 3.90326 3.59115
# Velocity P-wave (km/s) = 5.31199 6.49555 5.93336
#
# Compressibility (1/GPa) = 0.03309055
#
# Stress axis : x y z
#
# Youngs Moduli (GPa) = 62.26360 58.27080 99.86764
#
# Poissons Ratio (x) = 0.21205 -0.01430
# Poissons Ratio (y) = 0.22658 0.15744
# Poissons Ratio (z) = -0.00891 0.09187
#
# Static dielectric constant tensor:
#      x y z
#    x 3.827770 -0.002770 -0.034980 
#    y -0.002770 3.569820 -0.141580 
#    z -0.034980 -0.141580 4.321980 
# 
# 
# High freq. dielectric constant tensor:
#      x y z
#    x 1.842090 -0.000350 0.007640 
#    y -0.000350 1.798590 -0.016140 
#    z 0.007640 -0.016140 1.861330 
# 
# From -- ./inp_files/313792.got.cif
#   From: 2010.06.25/outbox.cif.g09.slc.cpg/sg2_157_cif.got.tgz:313792.got - 2010.06.27 13:26:56.
