data_PCOD8002185
_publ_section_title
;
Structure prediction by ZEFSAII (Michael W. Deem and Ramdas Pophale) SiO2 
 PCOD8002185
Probable space group: P -1
;
_chemical_formula_sum "Si O2"
_cell_formula_units_Z 16
_cell_length_a 9.028473
_cell_length_b 9.661429
_cell_length_c 14.921721
_cell_angle_alpha 97.684090
_cell_angle_beta 131.840222
_cell_angle_gamma 110.148850
_cell_volume 777.757763
_symmetry_space_group_name_H-M "P -1"
_symmetry_group_IT_number 2
_symmetry_cell_setting 'triclinic'
loop_
_space_group_symop_operation_xyz
x,y,z
-x,-y,-z
loop_
_atom_site_type_symbol
_atom_site_label
_atom_site_fract_x
_atom_site_fract_y
_atom_site_fract_z
Si Si1 0.188396 0.287323 0.615257
Si Si2 0.022513 0.889214 0.730341
Si Si3 0.821969 0.141784 0.932254
Si Si4 0.650186 0.473248 0.129587
Si Si5 0.806026 0.865573 0.019807
Si Si6 0.452602 0.390779 0.559777
Si Si7 0.000407 0.395007 0.186854
Si Si8 0.700844 0.980285 0.323644
O O1 0.230652 0.381689 0.733595
O O2 0.334707 0.422065 0.602405
O O3 0.290867 0.172479 0.648982
O O4 0.895507 0.161602 0.468202
O O5 0.029622 0.737042 0.761731
O O6 0.757788 0.809076 0.569157
O O7 0.052746 0.021762 0.826385
O O8 0.243516 0.994461 0.758086
O O9 0.572579 0.076278 0.773990
O O10 0.046705 0.211382 0.959997
O O11 0.891634 0.294336 0.041030
O O12 0.784933 0.977419 0.948555
O O13 0.864450 0.479526 0.166565
O O14 0.500000 0.500000 0.000000
O O15 0.472739 0.288057 0.086700
O O16 0.500000 0.500000 0.500000
O O17 0.717094 0.440448 0.699250
#
# Coordination Sequence:
#
# PCOD8002185 Si02
#       8
#     2   2   2   2   2   2   2   2
#     4  10  22  38  58  83 113 147 187 229 276 337
#     4   9  18  36  58  80 110 148 184 231 279 326
#     4  10  20  36  58  82 110 149 189 234 276 324
#     4  12  24  37  55  83 118 150 184 232 277 327
#     4  10  21  35  55  83 112 144 192 233 273 329
#     4   9  19  37  58  82 112 145 182 229 280 327
#     4  10  20  35  57  82 112 149 191 227 275 333
#     4  10  20  38  59  80 109 147 186 226 281 334
#
# _framework density 20.571957000000001
#
# number of rings (size 3 to 8) (size 9 to 14) (size 15 to 20)
#    0.000    2.000    0.000    3.750    0.000    5.000 
#    0.000   12.500    0.000    6.000    0.000    0.000 
#    0.000    0.000    0.000    0.000    0.000    0.000 
#
# Total GULP energy -198345.508116 kJ/mol
# GULP energy per Si atom -12396.594257 kJ/mol
# Density = 2.052513 g / cm^3
# Si number density = 20.571957 Si / 1000 Ang^3
#
#
#
# Elastic Constant Matrix: (Units=GPa)
#
#
# Indices 1 2 3 4 5 6 
#
# 1 99.5315 22.0619 56.3142 0.5852 3.1147 -23.0339
# 2 22.0619 34.5236 24.4410 5.3326 -7.4328 -5.6562
# 3 56.3142 24.4410 136.8919 -2.1581 7.4087 -23.9995
# 4 0.5852 5.3326 -2.1581 20.7778 4.4378 -1.1520
# 5 3.1147 -7.4328 7.4087 4.4378 45.9696 -0.9392
# 6 -23.0339 -5.6562 -23.9995 -1.1520 -0.9392 21.6977
#
#
#
# Elastic Compliance Matrix: (Units=1/GPa)
#
#
# Indices 1 2 3 4 5 6 
#
# 1 0.016156 -0.006725 -0.003254 0.001931 -0.001602 0.011832
# 2 -0.006725 0.040824 -0.005783 -0.013026 0.009181 -0.003189
# 3 -0.003254 -0.005783 0.011198 0.003738 -0.002727 0.007505
# 4 0.001931 -0.013026 0.003738 0.053792 -0.007924 0.005302
# 5 -0.001602 0.009181 -0.002727 -0.007924 0.024517 -0.001683
# 6 0.011832 -0.003189 0.007505 0.005302 -0.001683 0.066326
#
#
# Mechanical properties :
#
#
# Convention : Reuss Voigt Hill
#
# Bulk Modulus (GPa) = 27.28301 52.95348 40.11824
# Shear Modulus (GPa) = 19.48890 28.89768 24.19329
#
# Velocity S-wave (km/s) = 3.08125 3.75202 3.43305
# Velocity P-wave (km/s) = 5.09410 6.67583 5.93786
#
# Compressibility (1/GPa) = 0.03665285
#
# Stress axis : x y z
#
# Youngs Moduli (GPa) = 61.89754 24.49529 89.29798
#
# Poissons Ratio (x) = 0.16474 0.29057
# Poissons Ratio (y) = 0.41629 0.51645
# Poissons Ratio (z) = 0.20141 0.14167
#
# Static dielectric constant tensor:
#      x y z
#    x 3.983290 0.287490 0.076390 
#    y 0.287490 3.574530 0.058490 
#    z 0.076390 0.058490 4.017830 
# 
# 
# High freq. dielectric constant tensor:
#      x y z
#    x 1.801640 0.021200 0.002600 
#    y 0.021200 1.785360 0.002030 
#    z 0.002600 0.002030 1.823300 
# 
# From -- ./inp_files/242887.got.cif
#   From: 2010.06.25/outbox.cif.g09.slc.cpg/sg2_122_cif.got.tgz:242887.got - 2010.06.27 13:26:56.
