data_PCOD8002140
_publ_section_title
;
Structure prediction by ZEFSAII (Michael W. Deem and Ramdas Pophale) SiO2 
 PCOD8002140
Probable space group: P -1
;
_chemical_formula_sum "Si O2"
_cell_formula_units_Z 16
_cell_length_a 20.315253
_cell_length_b 8.666515
_cell_length_c 9.097019
_cell_angle_alpha 116.069941
_cell_angle_beta 145.370393
_cell_angle_gamma 64.250680
_cell_volume 809.200303
_symmetry_space_group_name_H-M "P -1"
_symmetry_group_IT_number 2
_symmetry_cell_setting 'triclinic'
loop_
_space_group_symop_operation_xyz
x,y,z
-x,-y,-z
loop_
_atom_site_type_symbol
_atom_site_label
_atom_site_fract_x
_atom_site_fract_y
_atom_site_fract_z
Si Si1 0.875632 0.089169 0.463911
Si Si2 0.724353 0.233884 0.006243
Si Si3 0.694315 0.236203 0.401381
Si Si4 0.711035 0.609670 0.657209
Si Si5 0.133974 0.105294 0.915271
Si Si6 0.482668 0.805505 0.192688
Si Si7 0.378522 0.437601 0.212678
Si Si8 0.518959 0.117301 0.219687
O O1 0.796683 0.087338 0.465901
O O2 0.006092 0.117401 0.758627
O O3 0.876965 0.914187 0.292894
O O4 0.809894 0.249817 0.310881
O O5 0.598476 0.190680 0.810838
O O6 0.710580 0.412278 0.966133
O O7 0.782998 0.068537 0.946580
O O8 0.751676 0.411384 0.601254
O O9 0.643830 0.186748 0.448121
O O10 0.583667 0.261356 0.097728
O O11 0.599895 0.674700 0.379474
O O12 0.681438 0.626361 0.781131
O O13 0.815428 0.722453 0.870726
O O14 0.518116 0.998579 0.314028
O O15 0.500000 0.500000 0.500000
O O16 0.411201 0.273836 0.096110
O O17 0.500000 0.000000 0.000000
#
# Coordination Sequence:
#
# PCOD8002140 Si02
#       8
#     2   2   2   2   2   2   2   2
#     4   8  19  40  63  76 107 147 198 226 282 318
#     4   9  18  37  60  78 114 146 183 226 279 326
#     4  10  20  37  54  82 116 150 174 241 277 333
#     4  12  23  32  58  86 117 143 189 228 283 329
#     4   9  20  38  61  84  99 153 192 237 265 332
#     4  10  20  35  56  81 115 151 184 215 284 349
#     4  12  22  34  53  88 123 142 175 231 283 335
#     4  10  22  35  52  80 117 151 180 218 277 343
#
# _framework density 19.772607000000001
#
# number of rings (size 3 to 8) (size 9 to 14) (size 15 to 20)
#    0.750    1.250    2.500    1.125    3.500    4.500 
#    0.000    0.625    0.000    3.000    0.000    0.000 
#    0.000    0.000    0.000    0.000    0.000    0.000 
#
# Total GULP energy -198238.050845 kJ/mol
# GULP energy per Si atom -12389.878178 kJ/mol
# Density = 1.972760 g / cm^3
# Si number density = 19.772607 Si / 1000 Ang^3
#
#
#
# Elastic Constant Matrix: (Units=GPa)
#
#
# Indices 1 2 3 4 5 6 
#
# 1 74.0029 25.3606 18.0183 1.5708 12.0382 -4.5255
# 2 25.3606 93.5318 19.2820 14.6877 1.8027 2.4696
# 3 18.0183 19.2820 66.5424 12.8784 15.1226 -4.6386
# 4 1.5708 14.6877 12.8784 24.1320 0.1081 -3.7592
# 5 12.0382 1.8027 15.1226 0.1081 22.6934 -1.2117
# 6 -4.5255 2.4696 -4.6386 -3.7592 -1.2117 24.3478
#
#
#
# Elastic Compliance Matrix: (Units=1/GPa)
#
#
# Indices 1 2 3 4 5 6 
#
# 1 0.016885 -0.004641 -0.002038 0.003373 -0.007065 0.003390
# 2 -0.004641 0.013596 -0.002093 -0.007437 0.002617 -0.003658
# 3 -0.002038 -0.002093 0.021009 -0.009477 -0.012614 0.001745
# 4 0.003373 -0.007437 -0.009477 0.052005 0.005289 0.007868
# 5 -0.007065 0.002617 -0.012614 0.005289 0.055966 -0.000380
# 6 0.003390 -0.003658 0.001745 0.007868 -0.000380 0.043601
#
#
# Mechanical properties :
#
#
# Convention : Reuss Voigt Hill
#
# Bulk Modulus (GPa) = 29.45990 39.93322 34.69656
# Shear Modulus (GPa) = 21.55907 25.66240 23.61073
#
# Velocity S-wave (km/s) = 3.30563 3.60651 3.45934
# Velocity P-wave (km/s) = 5.43151 6.13047 5.79154
#
# Compressibility (1/GPa) = 0.03394445
#
# Stress axis : x y z
#
# Youngs Moduli (GPa) = 59.22533 73.55365 47.59868
#
# Poissons Ratio (x) = 0.34137 0.09701
# Poissons Ratio (y) = 0.27487 0.09964
# Poissons Ratio (z) = 0.12070 0.15397
#
# Static dielectric constant tensor:
#      x y z
#    x 3.819100 0.140040 0.118370 
#    y 0.140040 3.859440 -0.000250 
#    z 0.118370 -0.000250 3.337450 
# 
# 
# High freq. dielectric constant tensor:
#      x y z
#    x 1.764250 -0.007780 0.002540 
#    y -0.007780 1.758940 0.009630 
#    z 0.002540 0.009630 1.743500 
# 
# From -- ./inp_files/329347.got.cif
#   From: 2010.06.25/outbox.cif.g09.slc.cpg/sg2_165_cif.got.tgz:329347.got - 2010.06.27 13:26:56.
