data_PCOD8002791
_publ_section_title
;
Structure prediction by ZEFSAII (Michael W. Deem and Ramdas Pophale) SiO2 
 PCOD8002791
Probable space group: P -1
;
_chemical_formula_sum "Si O2"
_cell_formula_units_Z 16
_cell_length_a 6.146713
_cell_length_b 21.933692
_cell_length_c 9.887172
_cell_angle_alpha 137.628625
_cell_angle_beta 120.456346
_cell_angle_gamma 73.718320
_cell_volume 764.157600
_symmetry_space_group_name_H-M "P -1"
_symmetry_group_IT_number 2
_symmetry_cell_setting 'triclinic'
loop_
_space_group_symop_operation_xyz
x,y,z
-x,-y,-z
loop_
_atom_site_type_symbol
_atom_site_label
_atom_site_fract_x
_atom_site_fract_y
_atom_site_fract_z
Si Si1 0.547610 0.882715 0.989652
Si Si2 0.397984 0.200700 0.398578
Si Si3 0.579388 0.943530 0.614118
Si Si4 0.196268 0.634413 0.268622
Si Si5 0.880576 0.270284 0.320363
Si Si6 0.287032 0.468249 0.183346
Si Si7 0.782987 0.434437 0.399484
Si Si8 0.907226 0.051493 0.680340
O O1 0.486750 0.862802 0.779614
O O2 0.374222 0.805489 0.896979
O O3 0.847953 0.872591 0.083224
O O4 0.491422 0.982192 0.178734
O O5 0.363705 0.146385 0.439326
O O6 0.592239 0.295913 0.631347
O O7 0.124865 0.221293 0.298976
O O8 0.346663 0.908949 0.379871
O O9 0.832330 0.984767 0.676495
O O10 0.102428 0.677856 0.446289
O O11 0.317105 0.543422 0.194874
O O12 0.956276 0.609137 0.050987
O O13 0.869820 0.337356 0.299598
O O14 0.536773 0.419683 0.198016
O O15 0.264728 0.519735 0.399721
O O16 0.000000 0.500000 0.500000
O O17 0.000000 0.000000 0.500000
#
# Coordination Sequence:
#
# PCOD8002791 Si02
#       8
#     2   2   2   2   2   2   2   2
#     4  10  21  38  58  80 111 150 188 234 281 329
#     4  11  22  36  57  85 116 145 185 237 283 329
#     4  10  21  38  59  82 109 150 194 229 280 339
#     4   9  20  38  57  82 114 147 185 231 276 326
#     4  10  22  36  54  84 115 146 187 230 276 334
#     4   9  19  38  60  81 111 149 187 224 272 337
#     4  10  20  36  59  84 112 147 184 225 278 333
#     4   9  20  38  57  78 107 144 187 235 279 327
#
# _framework density 20.938089999999999
#
# number of rings (size 3 to 8) (size 9 to 14) (size 15 to 20)
#    0.000    2.250    0.000    1.875    0.000    9.000 
#    0.000   11.250    0.000    0.000    0.000    0.000 
#    0.000    0.000    0.000    0.000    0.000    0.000 
#
# Total GULP energy -198343.593755 kJ/mol
# GULP energy per Si atom -12396.474610 kJ/mol
# Density = 2.089043 g / cm^3
# Si number density = 20.938090 Si / 1000 Ang^3
#
#
#
# Elastic Constant Matrix: (Units=GPa)
#
#
# Indices 1 2 3 4 5 6 
#
# 1 103.6922 68.8051 34.9873 1.5883 35.3545 9.9705
# 2 68.8051 170.2465 48.4055 -1.5734 30.0282 9.7401
# 3 34.9873 48.4055 97.2022 0.3915 39.7866 2.2817
# 4 1.5883 -1.5734 0.3915 25.3064 0.6092 6.5392
# 5 35.3545 30.0282 39.7866 0.6092 45.1141 4.6638
# 6 9.9705 9.7401 2.2817 6.5392 4.6638 30.5892
#
#
#
# Elastic Compliance Matrix: (Units=1/GPa)
#
#
# Indices 1 2 3 4 5 6 
#
# 1 0.016235 -0.004900 0.000669 -0.000537 -0.009820 -0.002169
# 2 -0.004900 0.008609 -0.002774 0.001205 0.000674 -0.001298
# 3 0.000669 -0.002774 0.017084 -0.000566 -0.013906 0.001632
# 4 -0.000537 0.001205 -0.000566 0.042004 0.000504 -0.009223
# 5 -0.009820 0.000674 -0.013906 0.000504 0.041926 -0.002477
# 6 -0.002169 -0.001298 0.001632 -0.009223 -0.002477 0.036039
#
#
# Mechanical properties :
#
#
# Convention : Reuss Voigt Hill
#
# Bulk Modulus (GPa) = 35.81872 75.05961 55.43916
# Shear Modulus (GPa) = 26.99592 34.79813 30.89703
#
# Velocity S-wave (km/s) = 3.59461 4.08113 3.84557
# Velocity P-wave (km/s) = 5.86280 7.62454 6.80096
#
# Compressibility (1/GPa) = 0.02791836
#
# Stress axis : x y z
#
# Youngs Moduli (GPa) = 61.59674 116.15090 58.53364
#
# Poissons Ratio (x) = 0.56918 -0.03917
# Poissons Ratio (y) = 0.30185 0.16236
# Poissons Ratio (z) = -0.04122 0.32218
#
# Static dielectric constant tensor:
#      x y z
#    x 4.814120 0.929570 -0.430650 
#    y 0.929570 4.737720 -0.810130 
#    z -0.430650 -0.810130 4.613730 
# 
# 
# High freq. dielectric constant tensor:
#      x y z
#    x 1.820900 0.008720 0.012510 
#    y 0.008720 1.808180 -0.005110 
#    z 0.012510 -0.005110 1.822190 
# 
# From -- ./inp_files/47356.got.cif
#   From: 2010.06.25/outbox.cif.g09.slc.cpg/sg2_24_cif.got.tgz:47356.got - 2010.06.27 13:26:56.
