data_PCOD8002217
_publ_section_title
;
Structure prediction by ZEFSAII (Michael W. Deem and Ramdas Pophale) SiO2 
 PCOD8002217
Probable space group: P -1
;
_chemical_formula_sum "Si O2"
_cell_formula_units_Z 16
_cell_length_a 14.027135
_cell_length_b 14.774902
_cell_length_c 14.579712
_cell_angle_alpha 29.556598
_cell_angle_beta 147.067366
_cell_angle_gamma 128.833714
_cell_volume 748.140472
_symmetry_space_group_name_H-M "P -1"
_symmetry_group_IT_number 2
_symmetry_cell_setting 'triclinic'
loop_
_space_group_symop_operation_xyz
x,y,z
-x,-y,-z
loop_
_atom_site_type_symbol
_atom_site_label
_atom_site_fract_x
_atom_site_fract_y
_atom_site_fract_z
Si Si1 0.740728 0.920138 0.606439
Si Si2 0.059547 0.855493 0.792354
Si Si3 0.328676 0.364848 0.729435
Si Si4 0.937811 0.496981 0.221135
Si Si5 0.866426 0.795471 0.520569
Si Si6 0.518760 0.906656 0.274963
Si Si7 0.642470 0.397339 0.626805
Si Si8 0.404499 0.638875 0.884414
O O1 0.588061 0.866908 0.471769
O O2 0.857156 0.974731 0.570257
O O3 0.655914 0.133144 0.402069
O O4 0.845050 0.737058 0.920848
O O5 0.039665 0.768329 0.754000
O O6 0.177121 0.997843 0.751651
O O7 0.152257 0.671786 0.098807
O O8 0.391469 0.462880 0.609538
O O9 0.095576 0.452118 0.470524
O O10 0.432046 0.402906 0.869391
O O11 0.405751 0.137295 0.962923
O O12 0.776912 0.409393 0.187638
O O13 0.062005 0.391647 0.324835
O O14 0.681256 0.807468 0.416515
O O15 0.369364 0.805541 0.237683
O O16 0.500000 0.500000 0.500000
O O17 0.500000 0.500000 0.000000
#
# Coordination Sequence:
#
# PCOD8002217 Si02
#       8
#     2   2   2   2   2   2   2   2
#     4  10  22  42  64  93 124 168 217 265 327 395
#     4  10  20  35  57  89 134 171 217 250 301 381
#     4  11  25  44  66 100 131 172 224 262 320 394
#     4  12  23  41  72  94 129 171 216 267 332 383
#     4  10  21  36  58  91 133 185 212 250 308 380
#     4  10  23  38  58  90 141 179 215 259 306 377
#     4  12  23  34  59  95 137 178 214 256 306 374
#     4  11  27  50  71  93 126 165 216 287 345 388
#
# _framework density 21.386357
#
# number of rings (size 3 to 8) (size 9 to 14) (size 15 to 20)
#    0.000    1.250    2.500    3.000    5.250    3.500 
#    0.000    0.625    0.000    0.000    0.000    0.000 
#    0.000    0.000    0.000    0.000    0.000    0.000 
#
# Total GULP energy -198274.223239 kJ/mol
# GULP energy per Si atom -12392.138952 kJ/mol
# Density = 2.133768 g / cm^3
# Si number density = 21.386357 Si / 1000 Ang^3
#
#
#
# Elastic Constant Matrix: (Units=GPa)
#
#
# Indices 1 2 3 4 5 6 
#
# 1 50.9129 36.5353 33.1904 -3.3594 2.8517 -6.6541
# 2 36.5353 107.3005 63.4308 2.3101 -2.3904 1.1287
# 3 33.1904 63.4308 150.2383 -2.0818 -11.8189 -4.9636
# 4 -3.3594 2.3101 -2.0818 34.9789 1.4984 5.7335
# 5 2.8517 -2.3904 -11.8189 1.4984 24.7558 -6.5389
# 6 -6.6541 1.1287 -4.9636 5.7335 -6.5389 32.0728
#
#
#
# Elastic Compliance Matrix: (Units=1/GPa)
#
#
# Indices 1 2 3 4 5 6 
#
# 1 0.028408 -0.008075 -0.003043 0.002565 -0.004517 0.004328
# 2 -0.008075 0.014865 -0.004642 -0.001565 -0.000478 -0.002735
# 3 -0.003043 -0.004642 0.009759 0.000036 0.005108 0.002077
# 4 0.002565 -0.001565 0.000036 0.030005 -0.003705 -0.005527
# 5 -0.004517 -0.000478 0.005108 -0.003705 0.046158 0.009943
# 6 0.004328 -0.002735 0.002077 -0.005527 0.009943 0.035510
#
#
# Mechanical properties :
#
#
# Convention : Reuss Voigt Hill
#
# Bulk Modulus (GPa) = 46.48636 63.86276 55.17456
# Shear Modulus (GPa) = 24.58265 30.04784 27.31525
#
# Velocity S-wave (km/s) = 3.39404 3.75240 3.57771
# Velocity P-wave (km/s) = 6.09450 6.97856 6.55146
#
# Compressibility (1/GPa) = 0.02151169
#
# Stress axis : x y z
#
# Youngs Moduli (GPa) = 35.20151 67.27279 102.46821
#
# Poissons Ratio (x) = 0.54323 0.31185
# Poissons Ratio (y) = 0.28425 0.47562
# Poissons Ratio (z) = 0.10713 0.31226
#
# Static dielectric constant tensor:
#      x y z
#    x 3.453370 0.128810 -0.139370 
#    y 0.128810 4.051100 -0.027170 
#    z -0.139370 -0.027170 3.716880 
# 
# 
# High freq. dielectric constant tensor:
#      x y z
#    x 1.798550 0.017800 -0.008600 
#    y 0.017800 1.856160 0.001560 
#    z -0.008600 0.001560 1.852420 
# 
# From -- ./inp_files/221929.got.cif
#   From: 2010.06.25/outbox.cif.g09.slc.cpg/sg2_111_cif.got.tgz:221929.got - 2010.06.27 13:26:56.
