data_PCOD8002485
_publ_section_title
;
Structure prediction by ZEFSAII (Michael W. Deem and Ramdas Pophale) SiO2 
 PCOD8002485
Probable space group: P -1
;
_chemical_formula_sum "Si O2"
_cell_formula_units_Z 16
_cell_length_a 12.259510
_cell_length_b 9.348964
_cell_length_c 13.737000
_cell_angle_alpha 93.118217
_cell_angle_beta 32.442469
_cell_angle_gamma 82.464028
_cell_volume 795.963051
_symmetry_space_group_name_H-M "P -1"
_symmetry_group_IT_number 2
_symmetry_cell_setting 'triclinic'
loop_
_space_group_symop_operation_xyz
x,y,z
-x,-y,-z
loop_
_atom_site_type_symbol
_atom_site_label
_atom_site_fract_x
_atom_site_fract_y
_atom_site_fract_z
Si Si1 0.333255 0.471020 0.699742
Si Si2 0.006613 0.277857 0.138561
Si Si3 0.837583 0.242808 0.860324
Si Si4 0.658269 0.847994 0.270563
Si Si5 0.973266 0.520167 0.324392
Si Si6 0.813116 0.022741 0.317654
Si Si7 0.462672 0.450430 0.267329
Si Si8 0.282828 0.590008 0.219102
O O1 0.500000 0.500000 0.500000
O O2 0.101925 0.594126 0.855891
O O3 0.321022 0.303590 0.689625
O O4 0.397254 0.485914 0.763686
O O5 0.034443 0.355245 0.221990
O O6 0.852249 0.178718 0.268712
O O7 0.239040 0.181362 0.915949
O O8 0.962039 0.364242 0.792258
O O9 0.795430 0.246359 0.773554
O O10 0.981288 0.076315 0.778392
O O11 0.612847 0.301047 0.092192
O O12 0.789256 0.939742 0.232981
O O13 0.405448 0.944989 0.453777
O O14 0.107871 0.504667 0.323541
O O15 0.717609 0.593229 0.538133
O O16 0.331220 0.588488 0.297602
O O17 0.500000 0.500000 0.000000
#
# Coordination Sequence:
#
# PCOD8002485 Si02
#       8
#     2   2   2   2   2   2   2   2
#     4  12  22  38  60  94 120 154 197 251 291 354
#     4  12  23  39  59  92 122 158 200 243 299 355
#     4   9  21  36  59  89 115 151 197 245 292 348
#     4  11  24  38  59  81 128 163 199 240 304 343
#     4  10  20  35  63  88 117 149 199 248 297 344
#     4  11  23  40  56  86 125 164 196 242 291 368
#     4  11  19  36  63  90 120 149 197 251 299 338
#     4   8  19  37  60  92 113 149 198 255 294 345
#
# _framework density 20.101434000000001
#
# number of rings (size 3 to 8) (size 9 to 14) (size 15 to 20)
#    0.750    0.750    2.500    3.375    0.000    1.000 
#    0.000    0.000    0.000    6.000    0.000    0.000 
#    0.000    0.000    0.000    0.000    0.000    0.000 
#
# Total GULP energy -198265.835461 kJ/mol
# GULP energy per Si atom -12391.614716 kJ/mol
# Density = 2.005568 g / cm^3
# Si number density = 20.101434 Si / 1000 Ang^3
#
#
#
# Elastic Constant Matrix: (Units=GPa)
#
#
# Indices 1 2 3 4 5 6 
#
# 1 97.5548 19.6966 9.6447 11.5099 7.4405 -15.8088
# 2 19.6966 66.4565 2.4527 6.5887 0.5347 -0.2007
# 3 9.6447 2.4527 106.4916 7.6304 -1.2323 -3.4131
# 4 11.5099 6.5887 7.6304 25.8531 -2.9692 -9.7354
# 5 7.4405 0.5347 -1.2323 -2.9692 27.6066 0.9385
# 6 -15.8088 -0.2007 -3.4131 -9.7354 0.9385 29.4967
#
#
#
# Elastic Compliance Matrix: (Units=1/GPa)
#
#
# Indices 1 2 3 4 5 6 
#
# 1 0.012570 -0.003376 -0.000720 -0.002766 -0.003851 0.005840
# 2 -0.003376 0.016408 0.000108 -0.003786 0.000290 -0.002944
# 3 -0.000720 0.000108 0.009636 -0.002558 0.000351 -0.000126
# 4 -0.002766 -0.003786 -0.002558 0.047391 0.005337 0.013667
# 5 -0.003851 0.000290 0.000351 0.005337 0.037895 -0.001465
# 6 0.005840 -0.002944 -0.000126 0.013667 -0.001465 0.041555
#
#
# Mechanical properties :
#
#
# Convention : Reuss Voigt Hill
#
# Bulk Modulus (GPa) = 32.63816 37.12122 34.87969
# Shear Modulus (GPa) = 27.22652 32.50519 29.86585
#
# Velocity S-wave (km/s) = 3.68429 4.02563 3.85873
# Velocity P-wave (km/s) = 5.86265 6.33361 6.10267
#
# Compressibility (1/GPa) = 0.03063898
#
# Stress axis : x y z
#
# Youngs Moduli (GPa) = 79.55505 60.94519 103.77263
#
# Poissons Ratio (x) = 0.20575 0.07470
# Poissons Ratio (y) = 0.26858 -0.01122
# Poissons Ratio (z) = 0.05727 -0.00659
#
# Static dielectric constant tensor:
#      x y z
#    x -3.609740 1.900220 -1.113100 
#    y 1.900220 2.899390 0.235850 
#    z -1.113100 0.235850 3.620640 
# 
# 
# High freq. dielectric constant tensor:
#      x y z
#    x 1.773840 -0.005670 -0.013850 
#    y -0.005670 1.752990 -0.010240 
#    z -0.013850 -0.010240 1.800460 
# 
# From -- ./inp_files/526479.got.cif
#   From: 2010.06.25/outbox.cif.g09.slc.cpg/sg2_264_cif.got.tgz:526479.got - 2010.06.27 13:26:56.
