data_PCOD8002703
_publ_section_title
;
Structure prediction by ZEFSAII (Michael W. Deem and Ramdas Pophale) SiO2 
 PCOD8002703
Probable space group: P -1
;
_chemical_formula_sum "Si O2"
_cell_formula_units_Z 16
_cell_length_a 8.272050
_cell_length_b 17.495879
_cell_length_c 22.022701
_cell_angle_alpha 161.661044
_cell_angle_beta 128.165385
_cell_angle_gamma 55.124352
_cell_volume 787.057959
_symmetry_space_group_name_H-M "P -1"
_symmetry_group_IT_number 2
_symmetry_cell_setting 'triclinic'
loop_
_space_group_symop_operation_xyz
x,y,z
-x,-y,-z
loop_
_atom_site_type_symbol
_atom_site_label
_atom_site_fract_x
_atom_site_fract_y
_atom_site_fract_z
Si Si1 0.400114 0.228721 0.339393
Si Si2 0.580468 0.125986 0.732620
Si Si3 0.580488 0.527937 0.134573
Si Si4 0.966638 0.556319 0.796353
Si Si5 0.966650 0.950213 0.190258
Si Si6 0.826481 0.457226 0.560242
Si Si7 0.550200 0.729293 0.973414
Si Si8 0.449803 0.655540 0.411425
O O1 0.605904 0.352893 0.452920
O O2 0.203662 0.340693 0.346260
O O3 0.391724 0.279762 0.448100
O O4 0.391724 0.938615 0.106964
O O5 0.499973 0.222343 0.722339
O O6 0.824277 0.099424 0.763789
O O7 0.461992 0.868841 0.525555
O O8 0.524191 0.308428 0.910259
O O9 0.462000 0.466293 0.123003
O O10 0.824295 0.567352 0.231732
O O11 0.950709 0.584660 0.741309
O O12 0.783690 0.373163 0.640388
O O13 0.959310 0.823269 0.026476
O O14 0.950752 0.239499 0.396170
O O15 0.783696 0.841654 0.108886
O O16 0.487158 0.594420 0.794007
#
# Coordination Sequence:
#
# PCOD8002703 Si02
#       8
#     2   2   2   2   2   2   2   2
#     4   9  18  36  57  84 111 143 186 229 274 326
#     4  10  21  38  59  81 113 150 183 229 279 326
#     4  10  21  38  59  81 113 150 183 229 279 326
#     4   9  20  37  56  82 115 145 183 230 272 325
#     4   9  20  37  56  82 115 145 183 230 272 325
#     4   9  18  34  61  82 107 149 186 223 278 326
#     4  10  20  36  58  82 113 147 183 229 274 325
#     4  10  20  36  58  82 113 147 183 229 274 325
#
# _framework density 20.328869999999998
#
# number of rings (size 3 to 8) (size 9 to 14) (size 15 to 20)
#    0.000    2.500    1.250    0.000    1.750    2.500 
#    0.000    6.250    0.000    0.000    0.000    0.000 
#    0.000    0.000    0.000    0.000    0.000    0.000 
#
# Total GULP energy -198411.183547 kJ/mol
# GULP energy per Si atom -12400.698972 kJ/mol
# Density = 2.028260 g / cm^3
# Si number density = 20.328870 Si / 1000 Ang^3
#
#
#
# Elastic Constant Matrix: (Units=GPa)
#
#
# Indices 1 2 3 4 5 6 
#
# 1 68.7101 49.5542 44.1165 2.0977 -12.4593 0.0980
# 2 49.5542 160.9127 76.5672 13.3448 -17.0664 -2.3946
# 3 44.1165 76.5672 105.0057 1.7066 -17.7400 1.6251
# 4 2.0977 13.3448 1.7066 29.7348 1.5156 0.1658
# 5 -12.4593 -17.0664 -17.7400 1.5156 27.2307 2.2667
# 6 0.0980 -2.3946 1.6251 0.1658 2.2667 23.3645
#
#
#
# Elastic Compliance Matrix: (Units=1/GPa)
#
#
# Indices 1 2 3 4 5 6 
#
# 1 0.021500 -0.003438 -0.005866 0.000167 0.003886 -0.000413
# 2 -0.003438 0.010676 -0.006078 -0.004273 0.001277 0.001438
# 3 -0.005866 -0.006078 0.017238 0.001919 0.004820 -0.002278
# 4 0.000167 -0.004273 0.001919 0.035597 -0.003291 -0.000506
# 5 0.003886 0.001277 0.004820 -0.003291 0.042988 -0.004368
# 6 -0.000413 0.001438 -0.002278 -0.000506 -0.004368 0.043535
#
#
# Mechanical properties :
#
#
# Convention : Reuss Voigt Hill
#
# Bulk Modulus (GPa) = 53.61538 75.01159 64.31348
# Shear Modulus (GPa) = 23.97925 27.02537 25.50231
#
# Velocity S-wave (km/s) = 3.43821 3.65006 3.54572
# Velocity P-wave (km/s) = 6.49561 7.39886 6.96190
#
# Compressibility (1/GPa) = 0.01865137
#
# Stress axis : x y z
#
# Youngs Moduli (GPa) = 46.51244 93.66485 58.01210
#
# Poissons Ratio (x) = 0.32198 0.34029
# Poissons Ratio (y) = 0.15989 0.35258
# Poissons Ratio (z) = 0.27284 0.56927
#
# Static dielectric constant tensor:
#      x y z
#    x 3.578470 0.041650 -0.129470 
#    y 0.041650 3.764890 -0.007100 
#    z -0.129470 -0.007100 3.761580 
# 
# 
# High freq. dielectric constant tensor:
#      x y z
#    x 1.788730 0.004840 -0.006630 
#    y 0.004840 1.780990 -0.006940 
#    z -0.006630 -0.006940 1.797350 
# 
# From -- ./inp_files/206150.got.cif
#   From: 2010.06.25/outbox.cif.g09.slc.cpg/sg2_104_cif.got.tgz:206150.got - 2010.06.27 13:26:56.
