data_PCOD8002471
_publ_section_title
;
Structure prediction by ZEFSAII (Michael W. Deem and Ramdas Pophale) SiO2 
 PCOD8002471
Probable space group: P -1
;
_chemical_formula_sum "Si O2"
_cell_formula_units_Z 16
_cell_length_a 9.156256
_cell_length_b 13.006878
_cell_length_c 13.220866
_cell_angle_alpha 58.245588
_cell_angle_beta 38.742911
_cell_angle_gamma 85.152171
_cell_volume 662.288140
_symmetry_space_group_name_H-M "P -1"
_symmetry_group_IT_number 2
_symmetry_cell_setting 'triclinic'
loop_
_space_group_symop_operation_xyz
x,y,z
-x,-y,-z
loop_
_atom_site_type_symbol
_atom_site_label
_atom_site_fract_x
_atom_site_fract_y
_atom_site_fract_z
Si Si1 0.499125 0.109246 0.070768
Si Si2 0.156832 0.915475 0.729807
Si Si3 0.227363 0.408935 0.870208
Si Si4 0.319977 0.570349 0.249410
Si Si5 0.892709 0.148663 0.438597
Si Si6 0.384027 0.350420 0.223112
Si Si7 0.964910 0.429058 0.204147
Si Si8 0.025331 0.887094 0.277990
O O1 0.519678 0.258845 0.965766
O O2 0.827480 0.155460 0.861420
O O3 0.365266 0.023382 0.295402
O O4 0.272979 0.980052 0.181022
O O5 0.031906 0.870221 0.705555
O O6 0.500000 0.000000 0.500000
O O7 0.075681 0.019617 0.766651
O O8 0.987056 0.763705 0.969193
O O9 0.528597 0.442648 0.726893
O O10 0.259162 0.526892 0.708215
O O11 0.049776 0.406576 0.060996
O O12 0.337660 0.482406 0.189777
O O13 0.000000 0.500000 0.500000
O O14 0.195341 0.231235 0.296447
O O15 0.805362 0.264943 0.432081
O O16 0.271077 0.264463 0.436659
O O17 0.730620 0.429927 0.979771
#
# Coordination Sequence:
#
# PCOD8002471 Si02
#       8
#     2   2   2   2   2   2   2   2
#     4  10  21  39  63  92 129 162 210 267 317 371
#     4  11  22  40  64  92 126 170 216 259 325 386
#     4   9  19  35  59  87 122 162 213 262 297 378
#     4  11  20  38  65  94 122 171 221 257 308 382
#     4  10  23  40  61  96 133 163 206 277 323 377
#     4  10  20  35  62  96 125 168 209 267 319 374
#     4   9  18  37  58  89 125 163 207 253 326 371
#     4  10  20  38  63  90 125 169 209 261 309 377
#
# _framework density 24.158669
#
# number of rings (size 3 to 8) (size 9 to 14) (size 15 to 20)
#    0.000    2.000    2.500    1.125    0.000    3.000 
#    4.500    0.625    0.000    1.500    0.000    0.000 
#    0.000    0.000    0.000    0.000    0.000    0.000 
#
# Total GULP energy -198244.401853 kJ/mol
# GULP energy per Si atom -12390.275116 kJ/mol
# Density = 2.410368 g / cm^3
# Si number density = 24.158669 Si / 1000 Ang^3
#
#
#
# Elastic Constant Matrix: (Units=GPa)
#
#
# Indices 1 2 3 4 5 6 
#
# 1 87.0504 47.0547 41.8846 -6.2611 -3.4698 -40.8102
# 2 47.0547 85.7760 27.2621 -7.1801 -7.4630 -36.3263
# 3 41.8846 27.2621 96.2997 -20.4953 -0.0115 -28.7479
# 4 -6.2611 -7.1801 -20.4953 39.5698 -15.6495 1.7389
# 5 -3.4698 -7.4630 -0.0115 -15.6495 36.9849 -5.2878
# 6 -40.8102 -36.3263 -28.7479 1.7389 -5.2878 51.6616
#
#
#
# Elastic Compliance Matrix: (Units=1/GPa)
#
#
# Indices 1 2 3 4 5 6 
#
# 1 0.022176 -0.005612 -0.004498 0.000815 0.002913 0.011340
# 2 -0.005612 0.020175 0.001309 0.005996 0.007664 0.011065
# 3 -0.004498 0.001309 0.015849 0.009313 0.004696 0.006355
# 4 0.000815 0.005996 0.009313 0.038380 0.019059 0.010701
# 5 0.002913 0.007664 0.004696 0.019059 0.038874 0.013641
# 6 0.011340 0.011065 0.006355 0.010701 0.013641 0.040667
#
#
# Mechanical properties :
#
#
# Convention : Reuss Voigt Hill
#
# Bulk Modulus (GPa) = 24.62996 55.72542 40.17769
# Shear Modulus (GPa) = 24.12486 35.83824 29.98155
#
# Velocity S-wave (km/s) = 3.16349 3.85574 3.52664
# Velocity P-wave (km/s) = 4.85395 6.55277 5.76626
#
# Compressibility (1/GPa) = 0.04060097
#
# Stress axis : x y z
#
# Youngs Moduli (GPa) = 45.09379 49.56602 63.09350
#
# Poissons Ratio (x) = 0.27814 0.28376
# Poissons Ratio (y) = 0.25305 -0.08260
# Poissons Ratio (z) = 0.20281 -0.06489
#
# Static dielectric constant tensor:
#      x y z
#    x 4.488010 -0.522150 0.187980 
#    y -0.522150 4.633210 -0.465810 
#    z 0.187980 -0.465810 4.525050 
# 
# 
# High freq. dielectric constant tensor:
#      x y z
#    x 1.937250 -0.029570 -0.003680 
#    y -0.029570 1.952740 -0.030230 
#    z -0.003680 -0.030230 1.952570 
# 
# From -- ./inp_files/281858.got.cif
#   From: 2010.06.25/outbox.cif.g09.slc.cpg/sg2_141_cif.got.tgz:281858.got - 2010.06.27 13:26:56.
