data_PCOD8002832
_publ_section_title
;
Structure prediction by ZEFSAII (Michael W. Deem and Ramdas Pophale) SiO2 
 PCOD8002832
Probable space group: P -1
;
_chemical_formula_sum "Si O2"
_cell_formula_units_Z 14
_cell_length_a 11.327993
_cell_length_b 17.504022
_cell_length_c 9.546902
_cell_angle_alpha 40.055928
_cell_angle_beta 128.120837
_cell_angle_gamma 147.772625
_cell_volume 647.136801
_symmetry_space_group_name_H-M "P -1"
_symmetry_group_IT_number 2
_symmetry_cell_setting 'triclinic'
loop_
_space_group_symop_operation_xyz
x,y,z
-x,-y,-z
loop_
_atom_site_type_symbol
_atom_site_label
_atom_site_fract_x
_atom_site_fract_y
_atom_site_fract_z
Si Si1 0.294128 0.851760 0.880037
Si Si2 0.967679 0.278447 0.402213
Si Si3 0.141047 0.144672 0.604802
Si Si4 0.202775 0.484008 0.708649
Si Si5 0.624486 0.362019 0.679364
Si Si6 0.930495 0.797759 0.823300
Si Si7 0.251250 0.767052 0.416480
O O1 0.155318 0.738796 0.797903
O O2 0.158483 0.863329 0.860453
O O3 0.523182 0.047608 0.734837
O O4 0.341365 0.759478 0.129978
O O5 0.811616 0.205326 0.524260
O O6 0.008999 0.161857 0.578614
O O7 0.204688 0.481476 0.305090
O O8 0.375754 0.250228 0.701137
O O9 0.187498 0.222394 0.374143
O O10 0.988797 0.938958 0.772912
O O11 0.336174 0.561191 0.553377
O O12 0.274542 0.638775 0.638509
O O13 0.938495 0.328106 0.705314
O O14 0.245919 0.391318 0.962693
#
# Coordination Sequence:
#
# PCOD8002832 Si02
#       7
#     2   2   2   2   2   2   2
#     4  11  21  37  63  85 110 149 193 236 277 327
#     4  10  22  39  56  84 118 148 186 233 281 336
#     4  10  22  39  59  83 116 152 186 226 284 343
#     4  10  21  36  58  87 115 143 188 240 280 325
#     4  11  22  38  60  85 113 150 191 233 279 332
#     4  10  21  39  60  85 114 147 188 235 280 333
#     4  10  20  36  59  88 115 144 187 237 283 329
#
# _framework density 21.633756999999999
#
# number of rings (size 3 to 8) (size 9 to 14) (size 15 to 20)
#    0.000    1.714    0.000    5.571    0.000    3.429 
#    0.000    7.857    0.000    0.000    0.000    0.000 
#    0.000    0.000    0.000    0.000    0.000    0.000 
#
# Total GULP energy -173633.562295 kJ/mol
# GULP energy per Si atom -12402.397307 kJ/mol
# Density = 2.158452 g / cm^3
# Si number density = 21.633757 Si / 1000 Ang^3
#
#
#
# Elastic Constant Matrix: (Units=GPa)
#
#
# Indices 1 2 3 4 5 6 
#
# 1 85.9650 34.3013 25.3194 -16.0498 2.8291 -19.6600
# 2 34.3013 87.7363 22.3142 -14.3866 1.1017 -10.1312
# 3 25.3194 22.3142 100.9237 -28.2819 7.2820 -12.6029
# 4 -16.0498 -14.3866 -28.2819 24.7188 -5.9231 8.5450
# 5 2.8291 1.1017 7.2820 -5.9231 27.1052 -2.2739
# 6 -19.6600 -10.1312 -12.6029 8.5450 -2.2739 33.7869
#
#
#
# Elastic Compliance Matrix: (Units=1/GPa)
#
#
# Indices 1 2 3 4 5 6 
#
# 1 0.016046 -0.004544 -0.000974 0.004484 0.000297 0.006497
# 2 -0.004544 0.014132 -0.000745 0.004615 0.001127 0.000225
# 3 -0.000974 -0.000745 0.014782 0.015483 -0.000390 0.000782
# 4 0.004484 0.004615 0.015483 0.068444 0.009562 -0.006898
# 5 0.000297 0.001127 -0.000390 0.009562 0.039059 0.000575
# 6 0.006497 0.000225 0.000782 -0.006898 0.000575 0.035520
#
#
# Mechanical properties :
#
#
# Convention : Reuss Voigt Hill
#
# Bulk Modulus (GPa) = 30.83093 48.72162 39.77627
# Shear Modulus (GPa) = 23.66083 29.96821 26.81452
#
# Velocity S-wave (km/s) = 3.31070 3.72594 3.52444
# Velocity P-wave (km/s) = 5.37555 6.40938 5.91509
#
# Compressibility (1/GPa) = 0.03243496
#
# Stress axis : x y z
#
# Youngs Moduli (GPa) = 62.32128 70.76065 67.64889
#
# Poissons Ratio (x) = 0.32151 0.06591
# Poissons Ratio (y) = 0.28317 0.05037
# Poissons Ratio (z) = 0.06072 0.05269
#
# Static dielectric constant tensor:
#      x y z
#    x 3.797260 -0.100050 0.221980 
#    y -0.100050 3.940860 -0.003540 
#    z 0.221980 -0.003540 3.892780 
# 
# 
# High freq. dielectric constant tensor:
#      x y z
#    x 1.845480 -0.004820 0.010650 
#    y -0.004820 1.853470 -0.005450 
#    z 0.010650 -0.005450 1.845020 
# 
# From -- ./inp_files/262225.got.cif
#   From: 2010.06.25/outbox.cif.g09.slc.cpg/sg2_132_cif.got.tgz:262225.got - 2010.06.27 13:26:56.
