data_PCOD8002098
_publ_section_title
;
Structure prediction by ZEFSAII (Michael W. Deem and Ramdas Pophale) SiO2 
 PCOD8002098
Probable space group: P -1
;
_chemical_formula_sum "Si O2"
_cell_formula_units_Z 16
_cell_length_a 10.600499
_cell_length_b 17.314670
_cell_length_c 7.951553
_cell_angle_alpha 65.679638
_cell_angle_beta 41.755331
_cell_angle_gamma 81.730059
_cell_volume 852.970930
_symmetry_space_group_name_H-M "P -1"
_symmetry_group_IT_number 2
_symmetry_cell_setting 'triclinic'
loop_
_space_group_symop_operation_xyz
x,y,z
-x,-y,-z
loop_
_atom_site_type_symbol
_atom_site_label
_atom_site_fract_x
_atom_site_fract_y
_atom_site_fract_z
Si Si1 0.910769 0.014356 0.252042
Si Si2 0.956249 0.706850 0.062213
Si Si3 0.323941 0.850634 0.681729
Si Si4 0.255190 0.173853 0.253397
Si Si5 0.998289 0.301365 0.349220
Si Si6 0.352053 0.746363 0.053821
Si Si7 0.976150 0.397879 0.602775
Si Si8 0.277475 0.157424 0.872986
O O1 0.729545 0.057536 0.369909
O O2 0.085827 0.074538 0.134473
O O3 0.822363 0.922596 0.510744
O O4 0.000000 0.000000 0.000000
O O5 0.784648 0.756540 0.209144
O O6 0.169911 0.775686 0.797506
O O7 0.947112 0.661221 0.927014
O O8 0.923615 0.632862 0.305514
O O9 0.309293 0.825704 0.915933
O O10 0.546757 0.858888 0.397285
O O11 0.417914 0.236037 0.157057
O O12 0.351113 0.169378 0.980380
O O13 0.078561 0.217496 0.376659
O O14 0.079155 0.376079 0.346370
O O15 0.763356 0.261604 0.645881
O O16 0.257301 0.655274 0.125274
O O17 0.000000 0.500000 0.500000
#
# Coordination Sequence:
#
# PCOD8002098 Si02
#       8
#     2   2   2   2   2   2   2   2
#     4  11  23  34  53  81 112 150 194 236 273 321
#     4   9  19  37  59  82 113 151 183 228 280 335
#     4  10  20  35  55  81 112 150 194 231 273 323
#     4  11  21  36  56  78 112 150 190 230 278 330
#     4   9  20  36  58  81 113 148 184 226 282 333
#     4   9  20  34  57  80 108 146 183 229 278 333
#     4   9  20  38  61  87 112 142 183 230 285 341
#     4  10  22  36  55  80 112 151 190 232 277 324
#
# _framework density 18.757966
#
# number of rings (size 3 to 8) (size 9 to 14) (size 15 to 20)
#    0.750    1.500    0.000    2.625    3.500    4.000 
#    0.000    0.625    0.000    1.500    0.000    0.000 
#    0.000    0.000    0.000    0.000    0.000    0.000 
#
# Total GULP energy -198265.256079 kJ/mol
# GULP energy per Si atom -12391.578505 kJ/mol
# Density = 1.871527 g / cm^3
# Si number density = 18.757966 Si / 1000 Ang^3
#
#
#
# Elastic Constant Matrix: (Units=GPa)
#
#
# Indices 1 2 3 4 5 6 
#
# 1 103.5202 48.1615 40.4522 -5.4832 14.8138 -3.8822
# 2 48.1615 113.5929 50.4818 -6.4167 13.1094 -5.4840
# 3 40.4522 50.4818 72.3079 12.0021 2.4645 -10.0112
# 4 -5.4832 -6.4167 12.0021 28.3103 2.2268 3.5631
# 5 14.8138 13.1094 2.4645 2.2268 31.7049 3.5530
# 6 -3.8822 -5.4840 -10.0112 3.5631 3.5530 22.9875
#
#
#
# Elastic Compliance Matrix: (Units=1/GPa)
#
#
# Indices 1 2 3 4 5 6 
#
# 1 0.014776 -0.001611 -0.008272 0.006670 -0.005882 -0.001616
# 2 -0.001611 0.015637 -0.011604 0.008832 -0.005189 -0.002162
# 3 -0.008272 -0.011604 0.031139 -0.019369 0.006323 0.011421
# 4 0.006670 0.008832 -0.019369 0.048873 -0.007391 -0.011635
# 5 -0.005882 -0.005189 0.006323 -0.007391 0.036915 -0.004038
# 6 -0.001616 -0.002162 0.011421 -0.011635 -0.004038 0.050114
#
#
# Mechanical properties :
#
#
# Convention : Reuss Voigt Hill
#
# Bulk Modulus (GPa) = 53.82636 63.06801 58.44719
# Shear Modulus (GPa) = 20.27393 26.62225 23.44809
#
# Velocity S-wave (km/s) = 3.29114 3.77138 3.53942
# Velocity P-wave (km/s) = 6.57265 7.25668 6.92312
#
# Compressibility (1/GPa) = 0.01857826
#
# Stress axis : x y z
#
# Youngs Moduli (GPa) = 67.67544 63.95223 32.11361
#
# Poissons Ratio (x) = 0.10304 0.26565
# Poissons Ratio (y) = 0.10904 0.37264
# Poissons Ratio (z) = 0.55982 0.74209
#
# Static dielectric constant tensor:
#      x y z
#    x 3.686880 0.053390 0.121540 
#    y 0.053390 3.167710 0.138830 
#    z 0.121540 0.138830 3.230430 
# 
# 
# High freq. dielectric constant tensor:
#      x y z
#    x 1.741070 -0.001670 0.009730 
#    y -0.001670 1.706410 0.009610 
#    z 0.009730 0.009610 1.715020 
# 
# From -- ./inp_files/48137.got.cif
#   From: 2010.06.25/outbox.cif.g09.slc.cpg/sg2_25_cif.got.tgz:48137.got - 2010.06.27 13:26:56.
