data_PCOD8002745
_publ_section_title
;
Structure prediction by ZEFSAII (Michael W. Deem and Ramdas Pophale) SiO2 
 PCOD8002745
Probable space group: P -1
;
_chemical_formula_sum "Si O2"
_cell_formula_units_Z 16
_cell_length_a 8.678352
_cell_length_b 20.411488
_cell_length_c 17.208538
_cell_angle_alpha 19.876349
_cell_angle_beta 124.023689
_cell_angle_gamma 112.965186
_cell_volume 752.249968
_symmetry_space_group_name_H-M "P -1"
_symmetry_group_IT_number 2
_symmetry_cell_setting 'triclinic'
loop_
_space_group_symop_operation_xyz
x,y,z
-x,-y,-z
loop_
_atom_site_type_symbol
_atom_site_label
_atom_site_fract_x
_atom_site_fract_y
_atom_site_fract_z
Si Si1 0.187945 0.789558 0.595397
Si Si2 0.055827 0.141397 0.046023
Si Si3 0.390389 0.742192 0.236623
Si Si4 0.360547 0.152833 0.682239
Si Si5 0.141910 0.904016 0.722400
Si Si6 0.619776 0.721037 0.780208
Si Si7 0.019380 0.608378 0.099049
Si Si8 0.506252 0.982331 0.300126
O O1 0.393574 0.811327 0.658947
O O2 0.136219 0.897075 0.375329
O O3 0.251872 0.539732 0.892969
O O4 0.978340 0.916461 0.445292
O O5 0.250566 0.138917 0.055988
O O6 0.848969 0.199324 0.870795
O O7 0.976425 0.330243 0.878937
O O8 0.500000 0.500000 0.500000
O O9 0.505911 0.762302 0.323183
O O10 0.385874 0.917905 0.976183
O O11 0.113992 0.344981 0.408772
O O12 0.435452 0.140176 0.629152
O O13 0.378996 0.869344 0.819769
O O14 0.166303 0.671382 0.015910
O O15 0.000000 0.000000 0.500000
O O16 0.593578 0.802174 0.593997
O O17 0.776849 0.771226 0.820817
#
# Coordination Sequence:
#
# PCOD8002745 Si02
#       8
#     2   2   2   2   2   2   2   2
#     4   9  21  36  56  85 126 173 207 254 303 387
#     4  10  22  41  65  90 129 166 215 264 315 376
#     4  11  23  48  74  93 119 165 216 270 329 394
#     4  11  25  42  73  97 122 164 218 267 325 382
#     4  11  22  34  55  89 132 174 208 253 304 366
#     4  10  20  36  58  87 131 167 214 248 309 376
#     4  11  21  38  64  91 125 178 209 252 308 392
#     4  11  24  39  59  98 134 165 210 267 315 373
#
# _framework density 21.269525000000002
#
# number of rings (size 3 to 8) (size 9 to 14) (size 15 to 20)
#    0.000    1.500    2.500    3.000    3.500    3.000 
#    0.000    1.875    0.000    0.000    0.000    0.000 
#    0.000    0.000    0.000    0.000    0.000    0.000 
#
# Total GULP energy -198285.110244 kJ/mol
# GULP energy per Si atom -12392.819390 kJ/mol
# Density = 2.122111 g / cm^3
# Si number density = 21.269525 Si / 1000 Ang^3
#
#
#
# Elastic Constant Matrix: (Units=GPa)
#
#
# Indices 1 2 3 4 5 6 
#
# 1 101.2599 30.7968 16.2289 8.0360 12.7526 26.1877
# 2 30.7968 86.7184 19.2956 11.4485 5.5997 12.9712
# 3 16.2289 19.2956 90.7131 -12.5147 2.9695 12.0827
# 4 8.0360 11.4485 -12.5147 38.6381 14.9932 5.6523
# 5 12.7526 5.5997 2.9695 14.9932 22.6293 16.1707
# 6 26.1877 12.9712 12.0827 5.6523 16.1707 35.7090
#
#
#
# Elastic Compliance Matrix: (Units=1/GPa)
#
#
# Indices 1 2 3 4 5 6 
#
# 1 0.013116 -0.003200 -0.000692 -0.000699 -0.000369 -0.007945
# 2 -0.003200 0.014276 -0.003039 -0.005964 0.004790 -0.003036
# 3 -0.000692 -0.003039 0.013197 0.007054 -0.003587 -0.002346
# 4 -0.000699 -0.005964 0.007054 0.041493 -0.032618 0.008495
# 5 -0.000369 0.004790 -0.003587 -0.032618 0.091349 -0.036460
# 6 -0.007945 -0.003036 -0.002346 0.008495 -0.036460 0.050894
#
#
# Mechanical properties :
#
#
# Convention : Reuss Voigt Hill
#
# Bulk Modulus (GPa) = 37.41450 45.70378 41.55914
# Shear Modulus (GPa) = 20.23499 33.55328 26.89413
#
# Velocity S-wave (km/s) = 3.08776 3.97612 3.55976
# Velocity P-wave (km/s) = 5.50828 6.52794 6.03967
#
# Compressibility (1/GPa) = 0.02672760
#
# Stress axis : x y z
#
# Youngs Moduli (GPa) = 76.24151 70.04601 75.77363
#
# Poissons Ratio (x) = 0.22412 0.05244
# Poissons Ratio (y) = 0.24394 0.23031
# Poissons Ratio (z) = 0.05276 0.21290
#
# Static dielectric constant tensor:
#      x y z
#    x 2.211790 0.589400 0.167850 
#    y 0.589400 3.964980 0.174880 
#    z 0.167850 0.174880 3.853110 
# 
# 
# High freq. dielectric constant tensor:
#      x y z
#    x 1.827790 0.027000 0.008220 
#    y 0.027000 1.837950 0.004560 
#    z 0.008220 0.004560 1.836020 
# 
# From -- ./inp_files/562568.got.cif
#   From: 2010.06.25/outbox.cif.g09.slc.cpg/sg2_282_cif.got.tgz:562568.got - 2010.06.27 13:26:56.
