data_PCOD8002357
_publ_section_title
;
Structure prediction by ZEFSAII (Michael W. Deem and Ramdas Pophale) SiO2 
 PCOD8002357
Probable space group: P -1
;
_chemical_formula_sum "Si O2"
_cell_formula_units_Z 14
_cell_length_a 12.836474
_cell_length_b 9.313605
_cell_length_c 13.543284
_cell_angle_alpha 107.652783
_cell_angle_beta 146.699136
_cell_angle_gamma 94.670435
_cell_volume 650.842752
_symmetry_space_group_name_H-M "P -1"
_symmetry_group_IT_number 2
_symmetry_cell_setting 'triclinic'
loop_
_space_group_symop_operation_xyz
x,y,z
-x,-y,-z
loop_
_atom_site_type_symbol
_atom_site_label
_atom_site_fract_x
_atom_site_fract_y
_atom_site_fract_z
Si Si1 0.958268 0.771247 0.650947
Si Si2 0.111777 0.722848 0.142127
Si Si3 0.545636 0.513375 0.922034
Si Si4 0.095849 0.071159 0.981339
Si Si5 0.534506 0.966932 0.678253
Si Si6 0.364136 0.762106 0.027680
Si Si7 0.223734 0.083691 0.768305
O O1 0.928013 0.889159 0.732896
O O2 0.697679 0.595910 0.360742
O O3 0.149272 0.913820 0.746572
O O4 0.088252 0.688928 0.781861
O O5 0.258303 0.846342 0.186211
O O6 0.292059 0.803064 0.393851
O O7 0.909051 0.751887 0.010653
O O8 0.000000 0.500000 0.000000
O O9 0.673096 0.417122 0.984445
O O10 0.500000 0.500000 0.000000
O O11 0.728817 0.743873 0.089570
O O12 0.369917 0.138881 0.215278
O O13 0.000000 0.000000 0.000000
O O14 0.468391 0.048984 0.729687
O O15 0.520402 0.827307 0.064494
O O16 0.000000 0.000000 0.500000
#
# Coordination Sequence:
#
# PCOD8002357 Si02
#       7
#     2   2   2   2   2   2   2
#     4  11  21  40  62  85 116 157 195 239 296 344
#     4  10  20  35  60  87 111 151 195 237 292 343
#     4  10  21  38  57  85 118 152 194 241 289 341
#     4   9  20  39  61  82 117 153 188 241 290 341
#     4   9  20  39  55  82 118 151 190 240 289 341
#     4  10  21  39  59  82 119 158 193 237 291 347
#     4  11  22  39  58  86 119 154 194 241 289 343
#
# _framework density 21.510570999999999
#
# number of rings (size 3 to 8) (size 9 to 14) (size 15 to 20)
#    0.000    2.000    2.857    1.286    0.000    4.000 
#    2.571    7.143    0.000    0.000    0.000    0.000 
#    0.000    0.000    0.000    0.000    0.000    0.000 
#
# Total GULP energy -173489.434353 kJ/mol
# GULP energy per Si atom -12392.102454 kJ/mol
# Density = 2.146161 g / cm^3
# Si number density = 21.510571 Si / 1000 Ang^3
#
#
#
# Elastic Constant Matrix: (Units=GPa)
#
#
# Indices 1 2 3 4 5 6 
#
# 1 58.3268 22.3455 29.4819 1.7688 -17.7248 -23.7440
# 2 22.3455 141.3007 89.5788 2.0748 1.6015 -44.9389
# 3 29.4819 89.5788 155.3742 -3.9312 -26.8189 -18.5612
# 4 1.7688 2.0748 -3.9312 31.0998 0.2592 -1.0511
# 5 -17.7248 1.6015 -26.8189 0.2592 25.6378 1.4317
# 6 -23.7440 -44.9389 -18.5612 -1.0511 1.4317 36.1762
#
#
#
# Elastic Compliance Matrix: (Units=1/GPa)
#
#
# Indices 1 2 3 4 5 6 
#
# 1 0.032193 0.003814 -0.002348 -0.001727 0.018246 0.023891
# 2 0.003814 0.023360 -0.013801 -0.002555 -0.014626 0.024945
# 3 -0.002348 -0.013801 0.016579 0.002643 0.017157 -0.010781
# 4 -0.001727 -0.002555 0.002643 0.032675 0.001515 -0.002062
# 5 0.018246 -0.014626 0.017157 0.001515 0.070472 -0.000136
# 6 0.023891 0.024945 -0.010781 -0.002062 -0.000136 0.068724
#
#
# Mechanical properties :
#
#
# Convention : Reuss Voigt Hill
#
# Bulk Modulus (GPa) = 21.06935 70.86824 45.96879
# Shear Modulus (GPa) = 17.57515 32.82244 25.19880
#
# Velocity S-wave (km/s) = 2.86150 3.91048 3.42637
# Velocity P-wave (km/s) = 4.55343 7.30797 6.08852
#
# Compressibility (1/GPa) = 0.04746231
#
# Stress axis : x y z
#
# Youngs Moduli (GPa) = 31.06275 42.80858 60.31893
#
# Poissons Ratio (x) = -0.16327 0.14161
# Poissons Ratio (y) = -0.11847 0.83245
# Poissons Ratio (z) = 0.07293 0.59079
#
# Static dielectric constant tensor:
#      x y z
#    x 3.848310 -0.093890 -0.277440 
#    y -0.093890 4.226030 -0.297530 
#    z -0.277440 -0.297530 3.966780 
# 
# 
# High freq. dielectric constant tensor:
#      x y z
#    x 1.837550 -0.019240 -0.026140 
#    y -0.019240 1.852090 -0.017540 
#    z -0.026140 -0.017540 1.837530 
# 
# From -- ./inp_files/315630.got.cif
#   From: 2010.06.25/outbox.cif.g09.slc.cpg/sg2_158_cif.got.tgz:315630.got - 2010.06.27 13:26:56.
