data_PCOD8002303
_publ_section_title
;
Structure prediction by ZEFSAII (Michael W. Deem and Ramdas Pophale) SiO2 
 PCOD8002303
Probable space group: P -1
;
_chemical_formula_sum "Si O2"
_cell_formula_units_Z 16
_cell_length_a 8.845144
_cell_length_b 12.044070
_cell_length_c 20.526281
_cell_angle_alpha 159.826131
_cell_angle_beta 93.394431
_cell_angle_gamma 84.165073
_cell_volume 746.027389
_symmetry_space_group_name_H-M "P -1"
_symmetry_group_IT_number 2
_symmetry_cell_setting 'triclinic'
loop_
_space_group_symop_operation_xyz
x,y,z
-x,-y,-z
loop_
_atom_site_type_symbol
_atom_site_label
_atom_site_fract_x
_atom_site_fract_y
_atom_site_fract_z
Si Si1 0.677313 0.379514 0.430049
Si Si2 0.293061 0.910197 0.382619
Si Si3 0.697302 0.354324 0.985131
Si Si4 0.657506 0.654425 0.014635
Si Si5 0.178448 0.525232 0.645797
Si Si6 0.633586 0.792684 0.332474
Si Si7 0.169163 0.228289 0.252992
Si Si8 0.647445 0.151328 0.063795
O O1 0.500000 0.500000 0.500000
O O2 0.735629 0.551025 0.462488
O O3 0.762078 0.465453 0.545514
O O4 0.719634 0.995424 0.207626
O O5 0.467890 0.979255 0.410702
O O6 0.178560 0.177338 0.488919
O O7 0.270228 0.967087 0.491672
O O8 0.275743 0.544105 0.157520
O O9 0.722022 0.424679 0.949390
O O10 0.725807 0.672198 0.203331
O O11 0.525571 0.279797 0.954057
O O12 0.814108 0.050018 0.844079
O O13 0.257724 0.776724 0.830178
O O14 0.006898 0.682138 0.716852
O O15 0.603786 0.481223 0.203822
O O16 0.254459 0.114260 0.125708
O O17 0.500000 0.000000 0.000000
#
# Coordination Sequence:
#
# PCOD8002303 Si02
#       8
#     2   2   2   2   2   2   2   2
#     4  12  24  38  60  93 121 154 211 257 288 344
#     4   9  18  35  55  84 115 154 197 235 293 362
#     4   9  18  35  59  83 116 155 196 243 299 350
#     4  10  20  35  59  86 114 152 206 254 285 338
#     4  11  24  39  62  89 125 166 189 243 315 364
#     4   8  17  32  58  85 112 147 199 241 287 349
#     4  11  22  42  60  89 128 159 197 240 311 371
#     4  10  21  39  66  94 115 151 205 257 292 345
#
# _framework density 21.446935
#
# number of rings (size 3 to 8) (size 9 to 14) (size 15 to 20)
#    0.000    2.000    1.250    2.250    7.000    0.000 
#    2.250    2.500    0.000    0.750    0.000    0.000 
#    0.000    0.000    0.000    0.000    0.000    0.000 
#
# Total GULP energy -198346.764643 kJ/mol
# GULP energy per Si atom -12396.672790 kJ/mol
# Density = 2.139812 g / cm^3
# Si number density = 21.446935 Si / 1000 Ang^3
#
#
#
# Elastic Constant Matrix: (Units=GPa)
#
#
# Indices 1 2 3 4 5 6 
#
# 1 98.3553 40.5635 29.0516 -6.4079 -8.7231 -22.5557
# 2 40.5635 60.4962 24.7373 -16.7029 -7.3335 -21.6177
# 3 29.0516 24.7373 140.4177 -32.5162 -0.8963 -14.5645
# 4 -6.4079 -16.7029 -32.5162 43.2198 -6.9885 -7.8322
# 5 -8.7231 -7.3335 -0.8963 -6.9885 25.3535 0.3519
# 6 -22.5557 -21.6177 -14.5645 -7.8322 0.3519 34.0980
#
#
#
# Elastic Compliance Matrix: (Units=1/GPa)
#
#
# Indices 1 2 3 4 5 6 
#
# 1 0.014956 -0.007883 -0.001443 -0.000765 0.002547 0.004077
# 2 -0.007883 0.037139 0.002792 0.021948 0.013840 0.024422
# 3 -0.001443 0.002792 0.010138 0.010407 0.003434 0.007501
# 4 -0.000765 0.021948 0.010407 0.047620 0.019183 0.028595
# 5 0.002547 0.013840 0.003434 0.019183 0.049511 0.015821
# 6 0.004077 0.024422 0.007501 0.028595 0.015821 0.057116
#
#
# Mechanical properties :
#
#
# Convention : Reuss Voigt Hill
#
# Bulk Modulus (GPa) = 20.34024 54.21932 37.27978
# Shear Modulus (GPa) = 20.33047 34.19539 27.26293
#
# Velocity S-wave (km/s) = 3.08221 3.99735 3.56923
# Velocity P-wave (km/s) = 4.70864 6.82939 5.86566
#
# Compressibility (1/GPa) = 0.04916363
#
# Stress axis : x y z
#
# Youngs Moduli (GPa) = 66.86351 26.92620 98.63662
#
# Poissons Ratio (x) = 0.21227 0.14237
# Poissons Ratio (y) = 0.52711 -0.27542
# Poissons Ratio (z) = 0.09651 -0.07519
#
# Static dielectric constant tensor:
#      x y z
#    x 3.360030 -0.175490 -0.105460 
#    y -0.175490 4.166240 -0.505210 
#    z -0.105460 -0.505210 4.364030 
# 
# 
# High freq. dielectric constant tensor:
#      x y z
#    x 1.791220 -0.025140 -0.019280 
#    y -0.025140 1.846820 -0.026140 
#    z -0.019280 -0.026140 1.861630 
# 
# From -- ./inp_files/589784.got.cif
#   From: 2010.06.25/outbox.cif.g09.slc.cpg/sg2_295_cif.got.tgz:589784.got - 2010.06.27 13:26:56.
