data_PCOD8002102
_publ_section_title
;
Structure prediction by ZEFSAII (Michael W. Deem and Ramdas Pophale) SiO2 
 PCOD8002102
Probable space group: P -1
;
_chemical_formula_sum "Si O2"
_cell_formula_units_Z 14
_cell_length_a 9.408613
_cell_length_b 14.566032
_cell_length_c 8.758997
_cell_angle_alpha 118.785531
_cell_angle_beta 73.259327
_cell_angle_gamma 136.860737
_cell_volume 715.338298
_symmetry_space_group_name_H-M "P -1"
_symmetry_group_IT_number 2
_symmetry_cell_setting 'triclinic'
loop_
_space_group_symop_operation_xyz
x,y,z
-x,-y,-z
loop_
_atom_site_type_symbol
_atom_site_label
_atom_site_fract_x
_atom_site_fract_y
_atom_site_fract_z
Si Si1 0.152638 0.640158 0.869715
Si Si2 0.288420 0.907704 0.199552
Si Si3 0.423772 0.210027 0.696014
Si Si4 0.322332 0.777623 0.620588
Si Si5 0.727709 0.469404 0.024958
Si Si6 0.140035 0.246249 0.699484
Si Si7 0.187039 0.885584 0.537607
O O1 0.178707 0.646435 0.683502
O O2 0.226341 0.568020 0.861782
O O3 0.298631 0.805446 0.022115
O O4 0.912519 0.541787 0.904980
O O5 0.316201 0.896484 0.364622
O O6 0.063496 0.853659 0.204468
O O7 0.477026 0.078120 0.232545
O O8 0.608216 0.266571 0.569717
O O9 0.262776 0.199518 0.639687
O O10 0.296640 0.049827 0.678447
O O11 0.514289 0.323333 0.897841
O O12 0.188521 0.807970 0.617816
O O13 0.708471 0.581649 0.165507
O O14 0.052129 0.213732 0.526294
#
# Coordination Sequence:
#
# PCOD8002102 Si02
#       7
#     2   2   2   2   2   2   2
#     4  10  20  35  55  82 107 143 177 229 263 313
#     4   8  17  33  56  77 111 138 177 214 266 313
#     4  11  20  35  59  82 107 143 177 219 266 320
#     4  11  20  31  58  87 108 132 182 228 270 302
#     4  10  21  37  57  74 108 146 187 211 265 319
#     4   9  20  36  58  76 110 147 178 208 266 327
#     4   9  19  34  57  84 105 137 179 222 261 315
#
# _framework density 19.571159999999999
#
# number of rings (size 3 to 8) (size 9 to 14) (size 15 to 20)
#    0.857    1.429    0.000    4.714    2.000    0.571 
#    0.000    0.714    6.286    4.286    0.000    0.000 
#    0.000    0.000    0.000    0.000    0.000    0.000 
#
# Total GULP energy -173517.878907 kJ/mol
# GULP energy per Si atom -12394.134208 kJ/mol
# Density = 1.952661 g / cm^3
# Si number density = 19.571160 Si / 1000 Ang^3
#
#
#
# Elastic Constant Matrix: (Units=GPa)
#
#
# Indices 1 2 3 4 5 6 
#
# 1 104.2152 35.4160 21.0100 -3.5334 7.8118 -17.9951
# 2 35.4160 69.9126 34.8655 -10.4863 11.6033 -13.5838
# 3 21.0100 34.8655 64.5689 15.1984 11.8354 -4.3728
# 4 -3.5334 -10.4863 15.1984 35.5824 0.9880 9.1725
# 5 7.8118 11.6033 11.8354 0.9880 20.8043 5.3503
# 6 -17.9951 -13.5838 -4.3728 9.1725 5.3503 18.2052
#
#
#
# Elastic Compliance Matrix: (Units=1/GPa)
#
#
# Indices 1 2 3 4 5 6 
#
# 1 0.013709 -0.003843 0.000804 -0.003746 -0.007103 0.014852
# 2 -0.003843 0.029265 -0.014731 0.011857 -0.010011 0.011467
# 3 0.000804 -0.014731 0.030565 -0.019673 -0.011201 0.010348
# 4 -0.003746 0.011857 -0.019673 0.045996 0.010443 -0.025825
# 5 -0.007103 -0.010011 -0.011201 0.010443 0.073522 -0.044050
# 6 0.014852 0.011467 0.010348 -0.025825 -0.044050 0.106608
#
#
# Mechanical properties :
#
#
# Convention : Reuss Voigt Hill
#
# Bulk Modulus (GPa) = 26.31707 46.80885 36.56296
# Shear Modulus (GPa) = 14.37309 24.74540 19.55925
#
# Velocity S-wave (km/s) = 2.71292 3.55967 3.16474
# Velocity P-wave (km/s) = 4.82590 6.39251 5.66364
#
# Compressibility (1/GPa) = 0.03799815
#
# Stress axis : x y z
#
# Youngs Moduli (GPa) = 72.94287 34.17102 32.71716
#
# Poissons Ratio (x) = 0.13132 -0.02629
# Poissons Ratio (y) = 0.28031 0.48196
# Poissons Ratio (z) = -0.05862 0.50338
#
# Static dielectric constant tensor:
#      x y z
#    x 3.300910 -0.047940 0.091470 
#    y -0.047940 3.397940 0.264890 
#    z 0.091470 0.264890 3.399440 
# 
# 
# High freq. dielectric constant tensor:
#      x y z
#    x 1.746210 -0.007500 0.011510 
#    y -0.007500 1.743240 0.031610 
#    z 0.011510 0.031610 1.751300 
# 
# From -- ./inp_files/197931.got.cif
#   From: 2010.06.25/outbox.cif.g09.slc.cpg/sg2_99_cif.got.tgz:197931.got - 2010.06.27 13:26:56.
