data_PCOD8002524
_publ_section_title
;
Structure prediction by ZEFSAII (Michael W. Deem and Ramdas Pophale) SiO2 
 PCOD8002524
Probable space group: P -1
;
_chemical_formula_sum "Si O2"
_cell_formula_units_Z 14
_cell_length_a 11.849727
_cell_length_b 9.792726
_cell_length_c 9.089076
_cell_angle_alpha 73.638565
_cell_angle_beta 39.593272
_cell_angle_gamma 75.525177
_cell_volume 644.045195
_symmetry_space_group_name_H-M "P -1"
_symmetry_group_IT_number 2
_symmetry_cell_setting 'triclinic'
loop_
_space_group_symop_operation_xyz
x,y,z
-x,-y,-z
loop_
_atom_site_type_symbol
_atom_site_label
_atom_site_fract_x
_atom_site_fract_y
_atom_site_fract_z
Si Si1 0.226530 0.229903 0.496738
Si Si2 0.157835 0.191015 0.259696
Si Si3 0.504128 0.730327 0.236402
Si Si4 0.838028 0.234229 0.944684
Si Si5 0.649961 0.067828 0.423025
Si Si6 0.517500 0.442410 0.166694
Si Si7 0.212447 0.864592 0.298475
O O1 0.207605 0.275031 0.331563
O O2 0.383937 0.319064 0.376723
O O3 0.263171 0.059354 0.527177
O O4 0.041125 0.275126 0.749455
O O5 0.946454 0.215258 0.432290
O O6 0.200303 0.027433 0.304668
O O7 0.285034 0.242788 0.987187
O O8 0.425147 0.799254 0.443105
O O9 0.478030 0.562553 0.294760
O O10 0.404478 0.801043 0.172978
O O11 0.795435 0.131040 0.152623
O O12 0.716149 0.379174 0.015207
O O13 0.811719 0.146527 0.848214
O O14 0.500000 0.000000 0.500000
O O15 0.500000 0.500000 0.000000
#
# Coordination Sequence:
#
# PCOD8002524 Si02
#       7
#     2   2   2   2   2   2   2
#     4  11  23  43  69  96 129 170 219 270 323 379
#     4  10  20  35  64  99 125 162 215 275 322 367
#     4  12  24  40  66  94 135 165 215 265 324 382
#     4  11  24  43  67  94 135 172 215 266 324 387
#     4  12  25  45  70  96 129 174 218 271 327 379
#     4  12  24  42  66  99 133 174 213 263 326 387
#     4  10  20  37  64  97 125 162 221 271 318 372
#
# _framework density 21.737601999999999
#
# number of rings (size 3 to 8) (size 9 to 14) (size 15 to 20)
#    0.000    0.857    5.714    1.714    0.000    2.286 
#    2.571    0.714    0.000    0.000    0.000    0.000 
#    0.000    0.000    0.000    0.000    0.000    0.000 
#
# Total GULP energy -173572.009348 kJ/mol
# GULP energy per Si atom -12398.000668 kJ/mol
# Density = 2.168813 g / cm^3
# Si number density = 21.737602 Si / 1000 Ang^3
#
#
#
# Elastic Constant Matrix: (Units=GPa)
#
#
# Indices 1 2 3 4 5 6 
#
# 1 39.8768 25.8535 25.4276 8.3665 -0.6854 6.3738
# 2 25.8535 111.8388 39.8250 17.5489 -4.9567 14.0801
# 3 25.4276 39.8250 140.1260 6.9975 -8.8450 12.5993
# 4 8.3665 17.5489 6.9975 28.0340 -2.9818 1.8392
# 5 -0.6854 -4.9567 -8.8450 -2.9818 27.9522 0.9006
# 6 6.3738 14.0801 12.5993 1.8392 0.9006 32.4552
#
#
#
# Elastic Compliance Matrix: (Units=1/GPa)
#
#
# Indices 1 2 3 4 5 6 
#
# 1 0.032412 -0.004950 -0.004113 -0.005603 -0.001910 -0.002251
# 2 -0.004950 0.012043 -0.001910 -0.005271 0.000952 -0.003239
# 3 -0.004113 -0.001910 0.008715 0.000629 0.002445 -0.001850
# 4 -0.005603 -0.005271 0.000629 0.040805 0.003456 0.000734
# 5 -0.001910 0.000952 0.002445 0.003456 0.037111 -0.002213
# 6 -0.002251 -0.003239 -0.001850 0.000734 -0.002213 0.033397
#
#
# Mechanical properties :
#
#
# Convention : Reuss Voigt Hill
#
# Bulk Modulus (GPa) = 32.02719 52.67265 42.34992
# Shear Modulus (GPa) = 25.40185 31.07066 28.23626
#
# Velocity S-wave (km/s) = 3.42214 3.78478 3.60802
# Velocity P-wave (km/s) = 5.51183 6.58659 6.07303
#
# Compressibility (1/GPa) = 0.03122347
#
# Stress axis : x y z
#
# Youngs Moduli (GPa) = 30.85301 83.03701 114.74606
#
# Poissons Ratio (x) = 0.41103 0.47196
# Poissons Ratio (y) = 0.15272 0.21916
# Poissons Ratio (z) = 0.12690 0.15859
#
# Static dielectric constant tensor:
#      x y z
#    x 3.857780 0.015820 -0.273660 
#    y 0.015820 3.951630 0.104800 
#    z -0.273660 0.104800 4.105000 
# 
# 
# High freq. dielectric constant tensor:
#      x y z
#    x 1.839230 0.009230 -0.018730 
#    y 0.009230 1.848460 0.010210 
#    z -0.018730 0.010210 1.859510 
# 
# From -- ./inp_files/183736.got.cif
#   From: 2010.06.25/outbox.cif.g09.slc.cpg/sg2_92_cif.got.tgz:183736.got - 2010.06.27 13:26:56.
