data_PCOD8002112
_publ_section_title
;
Structure prediction by ZEFSAII (Michael W. Deem and Ramdas Pophale) SiO2 
 PCOD8002112
Probable space group: P -1
;
_chemical_formula_sum "Si O2"
_cell_formula_units_Z 12
_cell_length_a 9.436853
_cell_length_b 17.509726
_cell_length_c 8.760141
_cell_angle_alpha 126.914244
_cell_angle_beta 104.943576
_cell_angle_gamma 117.692794
_cell_volume 667.782956
_symmetry_space_group_name_H-M "P -1"
_symmetry_group_IT_number 2
_symmetry_cell_setting 'triclinic'
loop_
_space_group_symop_operation_xyz
x,y,z
-x,-y,-z
loop_
_atom_site_type_symbol
_atom_site_label
_atom_site_fract_x
_atom_site_fract_y
_atom_site_fract_z
Si Si1 0.508437 0.366860 0.454916
Si Si2 0.475613 0.134702 0.089657
Si Si3 0.844214 0.166850 0.163765
Si Si4 0.893450 0.725989 0.936103
Si Si5 0.298521 0.333827 0.658728
Si Si6 0.039282 0.919439 0.489345
O O1 0.561974 0.284289 0.342445
O O2 0.756657 0.554202 0.715784
O O3 0.294915 0.290614 0.190627
O O4 0.426893 0.335820 0.569781
O O5 0.720299 0.203971 0.202703
O O6 0.328057 0.009087 0.037032
O O7 0.310042 0.051711 0.792702
O O8 0.889410 0.174674 0.006262
O O9 0.103815 0.303554 0.488935
O O10 0.011507 0.819688 0.240595
O O11 0.164450 0.194237 0.571894
O O12 0.500000 0.500000 0.000000
O O13 0.000000 0.000000 0.500000
#
# Coordination Sequence:
#
# PCOD8002112 Si02
#       6
#     2   2   2   2   2   2
#     4  10  20  35  58  81 110 145 182 221 275 322
#     4  10  21  39  56  80 113 148 178 221 275 329
#     4   9  22  37  58  78 113 147 181 219 276 325
#     4  10  20  35  55  85 110 141 183 227 266 323
#     4  10  20  37  58  80 111 142 181 228 270 320
#     4  11  21  33  58  86 110 137 186 227 268 316
#
# _framework density 17.969911
#
# number of rings (size 3 to 8) (size 9 to 14) (size 15 to 20)
#    0.000    2.000    3.333    0.000    2.333    3.333 
#    0.000    0.833    0.000    0.000    0.000    0.000 
#    0.000    0.000    0.000    0.000    0.000    0.000 
#
# Total GULP energy -148847.841676 kJ/mol
# GULP energy per Si atom -12403.986806 kJ/mol
# Density = 1.792901 g / cm^3
# Si number density = 17.969911 Si / 1000 Ang^3
#
#
#
# Elastic Constant Matrix: (Units=GPa)
#
#
# Indices 1 2 3 4 5 6 
#
# 1 122.8432 57.2084 45.5065 7.0318 -15.7731 -5.0412
# 2 57.2084 115.0936 32.7774 -5.7620 -8.1119 8.3542
# 3 45.5065 32.7774 80.2988 -7.4160 -16.0429 -0.6046
# 4 7.0318 -5.7620 -7.4160 24.3854 1.9213 -6.3790
# 5 -15.7731 -8.1119 -16.0429 1.9213 27.2593 3.7833
# 6 -5.0412 8.3542 -0.6046 -6.3790 3.7833 29.6459
#
#
#
# Elastic Compliance Matrix: (Units=1/GPa)
#
#
# Indices 1 2 3 4 5 6 
#
# 1 0.013543 -0.005431 -0.005405 -0.006593 0.003241 0.001891
# 2 -0.005431 0.012289 -0.001730 0.002976 -0.000192 -0.003757
# 3 -0.005405 -0.001730 0.018105 0.006262 0.006508 0.000454
# 4 -0.006593 0.002976 0.006262 0.048187 -0.003894 0.009033
# 5 0.003241 -0.000192 0.006508 -0.003894 0.043390 -0.005637
# 6 0.001891 -0.003757 0.000454 0.009033 -0.005637 0.037784
#
#
# Mechanical properties :
#
#
# Convention : Reuss Voigt Hill
#
# Bulk Modulus (GPa) = 53.18020 65.46893 59.32457
# Shear Modulus (GPa) = 24.42588 28.44099 26.43344
#
# Velocity S-wave (km/s) = 3.69082 3.98263 3.83950
# Velocity P-wave (km/s) = 6.91528 7.59343 7.26227
#
# Compressibility (1/GPa) = 0.01880399
#
# Stress axis : x y z
#
# Youngs Moduli (GPa) = 73.83624 81.37223 55.23323
#
# Poissons Ratio (x) = 0.44197 0.29855
# Poissons Ratio (y) = 0.40104 0.09556
# Poissons Ratio (z) = 0.39911 0.14078
#
# Static dielectric constant tensor:
#      x y z
#    x 3.226020 0.102050 0.025480 
#    y 0.102050 3.564310 -0.060250 
#    z 0.025480 -0.060250 3.317400 
# 
# 
# High freq. dielectric constant tensor:
#      x y z
#    x 1.681920 0.006890 -0.005720 
#    y 0.006890 1.710450 -0.000590 
#    z -0.005720 -0.000590 1.694120 
# 
# From -- ./inp_files/144386.got.cif
#   From: 2010.06.25/outbox.cif.g09.slc.cpg/sg2_73_cif.got.tgz:144386.got - 2010.06.27 13:26:56.
