data_PCOD8002802
_publ_section_title
;
Structure prediction by ZEFSAII (Michael W. Deem and Ramdas Pophale) SiO2 
 PCOD8002802
Probable space group: P -1
;
_chemical_formula_sum "Si O2"
_cell_formula_units_Z 16
_cell_length_a 17.145381
_cell_length_b 12.194487
_cell_length_c 9.279324
_cell_angle_alpha 140.957971
_cell_angle_beta 109.110259
_cell_angle_gamma 98.864087
_cell_volume 840.030729
_symmetry_space_group_name_H-M "P -1"
_symmetry_group_IT_number 2
_symmetry_cell_setting 'triclinic'
loop_
_space_group_symop_operation_xyz
x,y,z
-x,-y,-z
loop_
_atom_site_type_symbol
_atom_site_label
_atom_site_fract_x
_atom_site_fract_y
_atom_site_fract_z
Si Si1 0.370616 0.860839 0.302858
Si Si2 0.751329 0.931049 0.864964
Si Si3 0.768013 0.327775 0.252901
Si Si4 0.370173 0.265998 0.704965
Si Si5 0.735689 0.584591 0.028183
Si Si6 0.034725 0.048999 0.305761
Si Si7 0.218682 0.326874 0.177208
Si Si8 0.997139 0.251933 0.247054
O O1 0.500000 0.000000 0.500000
O O2 0.354778 0.042564 0.515073
O O3 0.303791 0.710894 0.965813
O O4 0.322867 0.675303 0.214696
O O5 0.696976 0.788372 0.537395
O O6 0.719557 0.745396 0.778574
O O7 0.709455 0.067081 0.015716
O O8 0.886640 0.151395 0.161695
O O9 0.767364 0.477853 0.523050
O O10 0.897505 0.461727 0.416835
O O11 0.321802 0.321826 0.855486
O O12 0.500000 0.500000 0.000000
O O13 0.868923 0.776810 0.341339
O O14 0.720549 0.559213 0.821561
O O15 0.057416 0.191626 0.319921
O O16 0.913775 0.911571 0.167238
O O17 0.036793 0.856264 0.046532
#
# Coordination Sequence:
#
# PCOD8002802 Si02
#       8
#     2   2   2   2   2   2   2   2
#     4  11  23  39  65  86 108 150 201 252 288 330
#     4  10  20  36  59  85 117 148 199 239 288 342
#     4  10  20  36  59  85 117 148 199 239 288 342
#     4  11  23  39  65  86 108 150 201 252 288 330
#     4  12  21  40  60  86 126 151 190 242 286 349
#     4   9  17  32  58  88 120 154 191 226 288 350
#     4  10  23  36  58  88 124 164 178 227 300 354
#     4   9  15  30  58  89 109 152 191 247 284 323
#
# _framework density 19.046921999999999
#
# number of rings (size 3 to 8) (size 9 to 14) (size 15 to 20)
#    0.000    1.750    3.750    2.250    0.000    1.000 
#    0.000    1.250    0.000    4.500    0.000    0.000 
#    0.000    0.000    0.000    0.000    0.000    0.000 
#
# Total GULP energy -198282.081776 kJ/mol
# GULP energy per Si atom -12392.630111 kJ/mol
# Density = 1.900357 g / cm^3
# Si number density = 19.046922 Si / 1000 Ang^3
#
#
#
# Elastic Constant Matrix: (Units=GPa)
#
#
# Indices 1 2 3 4 5 6 
#
# 1 62.6608 54.2280 38.6301 2.4430 -4.0980 1.2341
# 2 54.2280 142.5916 48.6091 -0.1040 -16.4812 1.7722
# 3 38.6301 48.6091 89.5936 0.3967 -1.9343 6.4626
# 4 2.4430 -0.1040 0.3967 22.9074 -6.4376 -5.1440
# 5 -4.0980 -16.4812 -1.9343 -6.4376 30.3351 1.7070
# 6 1.2341 1.7722 6.4626 -5.1440 1.7070 22.7416
#
#
#
# Elastic Compliance Matrix: (Units=1/GPa)
#
#
# Indices 1 2 3 4 5 6 
#
# 1 0.027702 -0.008183 -0.007582 -0.003241 -0.001914 0.000700
# 2 -0.008183 0.011707 -0.002750 0.002663 0.005617 0.000494
# 3 -0.007582 -0.002750 0.016187 -0.000794 -0.001427 -0.004047
# 4 -0.003241 0.002663 -0.000794 0.049449 0.010858 0.010564
# 5 -0.001914 0.005617 -0.001427 0.010858 0.037990 -0.000324
# 6 0.000700 0.000494 -0.004047 0.010564 -0.000324 0.047460
#
#
# Mechanical properties :
#
#
# Convention : Reuss Voigt Hill
#
# Bulk Modulus (GPa) = 53.85829 64.19783 59.02806
# Shear Modulus (GPa) = 21.39360 25.42208 23.40784
#
# Velocity S-wave (km/s) = 3.35506 3.65733 3.50945
# Velocity P-wave (km/s) = 6.58381 7.18422 6.89056
#
# Compressibility (1/GPa) = 0.01856724
#
# Stress axis : x y z
#
# Youngs Moduli (GPa) = 36.09803 85.41562 61.77680
#
# Poissons Ratio (x) = 0.69894 0.46841
# Poissons Ratio (y) = 0.29538 0.16988
# Poissons Ratio (z) = 0.27371 0.23488
#
# Static dielectric constant tensor:
#      x y z
#    x 3.355610 -0.260220 0.064790 
#    y -0.260220 3.468600 0.149200 
#    z 0.064790 0.149200 3.612030 
# 
# 
# High freq. dielectric constant tensor:
#      x y z
#    x 1.726630 -0.021870 0.003010 
#    y -0.021870 1.727610 0.009730 
#    z 0.003010 0.009730 1.749180 
# 
# From -- ./inp_files/259055.got.cif
#   From: 2010.06.25/outbox.cif.g09.slc.cpg/sg2_130_cif.got.tgz:259055.got - 2010.06.27 13:26:56.
