data_PCOD8002534
_publ_section_title
;
Structure prediction by ZEFSAII (Michael W. Deem and Ramdas Pophale) SiO2 
 PCOD8002534
Probable space group: P -1
;
_chemical_formula_sum "Si O2"
_cell_formula_units_Z 14
_cell_length_a 9.610292
_cell_length_b 17.888900
_cell_length_c 9.156025
_cell_angle_alpha 125.443542
_cell_angle_beta 74.697777
_cell_angle_gamma 59.905198
_cell_volume 684.593729
_symmetry_space_group_name_H-M "P -1"
_symmetry_group_IT_number 2
_symmetry_cell_setting 'triclinic'
loop_
_space_group_symop_operation_xyz
x,y,z
-x,-y,-z
loop_
_atom_site_type_symbol
_atom_site_label
_atom_site_fract_x
_atom_site_fract_y
_atom_site_fract_z
Si Si1 0.553148 0.217338 0.364900
Si Si2 0.768948 0.370035 0.861205
Si Si3 0.876639 0.115256 0.527846
Si Si4 0.703297 0.595997 0.054132
Si Si5 0.086900 0.489392 0.620492
Si Si6 0.767695 0.383698 0.220049
Si Si7 0.980749 0.104292 0.995536
O O1 0.363838 0.331353 0.684298
O O2 0.363918 0.295959 0.369404
O O3 0.712280 0.228678 0.300207
O O4 0.764136 0.024179 0.115212
O O5 0.954410 0.182811 0.572335
O O6 0.500000 0.500000 0.000000
O O7 0.874581 0.410872 0.812683
O O8 0.726499 0.406344 0.085554
O O9 0.564254 0.277747 0.817908
O O10 0.000000 0.000000 0.500000
O O11 0.974288 0.013371 0.240983
O O12 0.868337 0.583043 0.906809
O O13 0.120563 0.580666 0.709557
O O14 0.000000 0.500000 0.500000
O O15 0.500000 0.500000 0.500000
O O16 0.974514 0.196052 0.998480
#
# Coordination Sequence:
#
# PCOD8002534 Si02
#       7
#     2   2   2   2   2   2   2
#     4  10  21  42  67  91 130 171 210 270 323 381
#     4  10  21  36  65  98 126 168 214 267 313 384
#     4  10  20  35  65  98 132 163 211 269 316 384
#     4  10  22  42  62  93 132 172 214 261 331 382
#     4  12  27  42  65  96 134 175 216 271 330 391
#     4  12  23  41  68  96 128 172 226 268 317 393
#     4  10  21  40  68  98 125 164 226 268 324 377
#
# _framework density 20.450085000000001
#
# number of rings (size 3 to 8) (size 9 to 14) (size 15 to 20)
#    0.000    1.429    4.286    0.429    6.000    0.000 
#    0.000    5.000    0.000    0.000    0.000    0.000 
#    0.000    0.000    0.000    0.000    0.000    0.000 
#
# Total GULP energy -173490.598006 kJ/mol
# GULP energy per Si atom -12392.185572 kJ/mol
# Density = 2.040354 g / cm^3
# Si number density = 20.450085 Si / 1000 Ang^3
#
#
#
# Elastic Constant Matrix: (Units=GPa)
#
#
# Indices 1 2 3 4 5 6 
#
# 1 116.0038 67.8454 52.7050 -1.7882 7.3547 7.4050
# 2 67.8454 164.6563 45.9861 14.5967 3.1647 -7.4540
# 3 52.7050 45.9861 80.9466 -1.0187 2.2038 6.9932
# 4 -1.7882 14.5967 -1.0187 33.1980 2.5713 -1.4266
# 5 7.3547 3.1647 2.2038 2.5713 32.9205 0.1071
# 6 7.4050 -7.4540 6.9932 -1.4266 0.1071 48.9389
#
#
#
# Elastic Compliance Matrix: (Units=1/GPa)
#
#
# Indices 1 2 3 4 5 6 
#
# 1 0.014565 -0.004388 -0.006729 0.002629 -0.002581 -0.001828
# 2 -0.004388 0.009065 -0.002560 -0.004249 0.000605 0.002285
# 3 -0.006729 -0.002560 0.018362 0.001209 0.000432 -0.001961
# 4 0.002629 -0.004249 0.001209 0.032374 -0.002787 -0.000268
# 5 -0.002581 0.000605 0.000432 -0.002787 0.031083 0.000272
# 6 -0.001828 0.002285 -0.001961 -0.000268 0.000272 0.021330
#
#
# Mechanical properties :
#
#
# Convention : Reuss Voigt Hill
#
# Bulk Modulus (GPa) = 68.31675 77.18666 72.75170
# Shear Modulus (GPa) = 31.44395 36.01615 33.73005
#
# Velocity S-wave (km/s) = 3.92547 4.20119 4.06567
# Velocity P-wave (km/s) = 7.35016 7.83321 7.59553
#
# Compressibility (1/GPa) = 0.01463770
#
# Stress axis : x y z
#
# Youngs Moduli (GPa) = 68.65711 110.31548 54.45899
#
# Poissons Ratio (x) = 0.48410 0.36646
# Poissons Ratio (y) = 0.30129 0.13941
# Poissons Ratio (z) = 0.46200 0.28240
#
# Static dielectric constant tensor:
#      x y z
#    x 3.746770 -0.018630 0.071820 
#    y -0.018630 4.188450 0.089790 
#    z 0.071820 0.089790 3.488870 
# 
# 
# High freq. dielectric constant tensor:
#      x y z
#    x 1.775330 -0.000140 0.005400 
#    y -0.000140 1.833850 0.005640 
#    z 0.005400 0.005640 1.778950 
# 
# From -- ./inp_files/218579.got.cif
#   From: 2010.06.25/outbox.cif.g09.slc.cpg/sg2_110_cif.got.tgz:218579.got - 2010.06.27 13:26:56.
