data_PCOD8002862
_publ_section_title
;
Structure prediction by ZEFSAII (Michael W. Deem and Ramdas Pophale) SiO2 
 PCOD8002862
Probable space group: P -1
;
_chemical_formula_sum "Si O2"
_cell_formula_units_Z 16
_cell_length_a 10.750955
_cell_length_b 8.792136
_cell_length_c 8.963571
_cell_angle_alpha 111.430166
_cell_angle_beta 107.548757
_cell_angle_gamma 89.667238
_cell_volume 746.772570
_symmetry_space_group_name_H-M "P -1"
_symmetry_group_IT_number 2
_symmetry_cell_setting 'triclinic'
loop_
_space_group_symop_operation_xyz
x,y,z
-x,-y,-z
loop_
_atom_site_type_symbol
_atom_site_label
_atom_site_fract_x
_atom_site_fract_y
_atom_site_fract_z
Si Si1 0.267454 0.368935 0.963186
Si Si2 0.372170 0.445606 0.534691
Si Si3 0.198017 0.968722 0.271691
Si Si4 0.449466 0.971645 0.188125
Si Si5 0.907606 0.368070 0.008391
Si Si6 0.855729 0.718871 0.801867
Si Si7 0.690827 0.837848 0.366733
Si Si8 0.471393 0.724546 0.862621
O O1 0.234868 0.259907 0.764339
O O2 0.226805 0.551516 0.976191
O O3 0.186429 0.284151 0.041438
O O4 0.423375 0.381841 0.058786
O O5 0.500000 0.500000 0.500000
O O6 0.242031 0.413238 0.374370
O O7 0.385299 0.283070 0.579854
O O8 0.360004 0.597404 0.698202
O O9 0.348660 0.952118 0.279214
O O10 0.117552 0.791140 0.163654
O O11 0.139634 0.095569 0.185786
O O12 0.198638 0.035800 0.465453
O O13 0.592419 0.945414 0.287891
O O14 0.451431 0.155416 0.189231
O O15 0.402658 0.836394 0.995237
O O16 0.000000 0.500000 0.000000
O O17 0.993397 0.326238 0.169586
#
# Coordination Sequence:
#
# PCOD8002862 Si02
#       8
#     2   2   2   2   2   2   2   2
#     4  10  20  41  60  89 125 151 205 248 299 352
#     4  11  21  37  62  88 126 156 196 246 309 354
#     4  11  21  40  62  85 121 161 204 244 303 362
#     4  10  21  35  60  92 124 158 198 240 306 366
#     4  10  24  39  64  86 115 162 210 247 300 358
#     4  10  21  42  61  85 117 165 201 247 300 362
#     4  10  24  36  61  95 123 155 201 250 298 361
#     4  10  20  36  59  93 126 156 192 249 304 357
#
# _framework density 21.425533000000001
#
# number of rings (size 3 to 8) (size 9 to 14) (size 15 to 20)
#    0.000    1.750    2.500    1.500    3.500    3.000 
#    0.000    5.000    2.750    0.000    0.000    0.000 
#    0.000    0.000    0.000    0.000    0.000    0.000 
#
# Total GULP energy -198342.093465 kJ/mol
# GULP energy per Si atom -12396.380842 kJ/mol
# Density = 2.137677 g / cm^3
# Si number density = 21.425533 Si / 1000 Ang^3
#
#
#
# Elastic Constant Matrix: (Units=GPa)
#
#
# Indices 1 2 3 4 5 6 
#
# 1 39.9172 39.5247 39.8999 4.3790 7.4460 -18.1778
# 2 39.5247 118.7383 71.9347 20.0392 17.7255 -16.7357
# 3 39.8999 71.9347 171.2208 23.8340 9.3598 -5.7686
# 4 4.3790 20.0392 23.8340 39.8594 6.6213 3.5619
# 5 7.4460 17.7255 9.3598 6.6213 24.7316 -3.2476
# 6 -18.1778 -16.7357 -5.7686 3.5619 -3.2476 30.5904
#
#
#
# Elastic Compliance Matrix: (Units=1/GPa)
#
#
# Indices 1 2 3 4 5 6 
#
# 1 0.054127 -0.009536 -0.007834 0.001935 -0.003752 0.024846
# 2 -0.009536 0.015390 -0.003321 -0.003955 -0.005582 0.001995
# 3 -0.007834 -0.003321 0.009236 -0.002854 0.001450 -0.004244
# 4 0.001935 -0.003955 -0.002854 0.029975 -0.005431 -0.005619
# 5 -0.003752 -0.005582 0.001450 -0.005431 0.046543 0.000564
# 6 0.024846 0.001995 -0.004244 -0.005619 0.000564 0.048460
#
#
# Mechanical properties :
#
#
# Convention : Reuss Voigt Hill
#
# Bulk Modulus (GPa) = 26.75824 70.28832 48.52328
# Shear Modulus (GPa) = 19.41228 30.93739 25.17483
#
# Velocity S-wave (km/s) = 3.01331 3.80406 3.43153
# Velocity P-wave (km/s) = 4.96213 7.22299 6.19654
#
# Compressibility (1/GPa) = 0.03737166
#
# Stress axis : x y z
#
# Youngs Moduli (GPa) = 18.47512 64.97874 108.26944
#
# Poissons Ratio (x) = 0.61961 0.84821
# Poissons Ratio (y) = 0.17617 0.35953
# Poissons Ratio (z) = 0.14474 0.21577
#
# Static dielectric constant tensor:
#      x y z
#    x 3.895590 -0.477190 0.058660 
#    y -0.477190 4.184740 -0.005350 
#    z 0.058660 -0.005350 4.211470 
# 
# 
# High freq. dielectric constant tensor:
#      x y z
#    x 1.805380 -0.013570 0.001810 
#    y -0.013570 1.850540 0.003010 
#    z 0.001810 0.003010 1.849470 
# 
# From -- ./inp_files/186084.got.cif
#   From: 2010.06.25/outbox.cif.g09.slc.cpg/sg2_94_cif.got.tgz:186084.got - 2010.06.27 13:26:56.
