data_PCOD8002214
_publ_section_title
;
Structure prediction by ZEFSAII (Michael W. Deem and Ramdas Pophale) SiO2 
 PCOD8002214
Probable space group: P -1
;
_chemical_formula_sum "Si O2"
_cell_formula_units_Z 16
_cell_length_a 25.648055
_cell_length_b 17.253431
_cell_length_c 6.201232
_cell_angle_alpha 90.266201
_cell_angle_beta 79.457610
_cell_angle_gamma 159.810512
_cell_volume 810.387093
_symmetry_space_group_name_H-M "P -1"
_symmetry_group_IT_number 2
_symmetry_cell_setting 'triclinic'
loop_
_space_group_symop_operation_xyz
x,y,z
-x,-y,-z
loop_
_atom_site_type_symbol
_atom_site_label
_atom_site_fract_x
_atom_site_fract_y
_atom_site_fract_z
Si Si1 0.762953 0.379923 0.877556
Si Si2 0.522095 0.091435 0.671944
Si Si3 0.361185 0.290734 0.785187
Si Si4 0.249201 0.499358 0.772578
Si Si5 0.998205 0.115400 0.608237
Si Si6 0.235482 0.356829 0.120497
Si Si7 0.855000 0.051551 0.432896
Si Si8 0.524611 0.647266 0.924472
O O1 0.680282 0.283511 0.708155
O O2 0.970193 0.651310 0.690636
O O3 0.743942 0.428373 0.043191
O O4 0.662133 0.164604 0.056074
O O5 0.579398 0.251621 0.513462
O O6 0.500000 0.000000 0.500000
O O7 0.500000 0.500000 0.500000
O O8 0.365692 0.369727 0.948801
O O9 0.178166 0.021397 0.792036
O O10 0.415914 0.291653 0.879226
O O11 0.072391 0.264433 0.761101
O O12 0.242248 0.403694 0.877381
O O13 0.169128 0.328032 0.341054
O O14 0.875574 0.002779 0.562031
O O15 0.895623 0.898019 0.769539
O O16 0.437782 0.611115 0.011973
O O17 0.693819 0.879229 0.641373
#
# Coordination Sequence:
#
# PCOD8002214 Si02
#       8
#     2   2   2   2   2   2   2   2
#     4  10  20  35  57  89 110 139 185 238 287 336
#     4   9  19  35  58  85 114 138 178 238 295 333
#     4   9  19  35  52  73 106 151 193 234 266 315
#     4  11  20  36  57  80 114 148 182 233 285 332
#     4  11  23  35  53  82 114 151 191 233 272 330
#     4  11  23  35  50  80 117 155 191 222 272 338
#     4  11  21  35  57  81 111 144 192 235 276 327
#     4  10  22  35  52  75 112 154 193 226 274 327
#
# _framework density 19.743651
#
# number of rings (size 3 to 8) (size 9 to 14) (size 15 to 20)
#    0.000    1.750    2.500    2.625    3.500    4.000 
#    0.000    0.000    0.000    0.750    0.000   13.125 
#    0.000    0.000    0.000    0.000    0.000    0.000 
#
# Total GULP energy -198212.084618 kJ/mol
# GULP energy per Si atom -12388.255289 kJ/mol
# Density = 1.969871 g / cm^3
# Si number density = 19.743651 Si / 1000 Ang^3
#
#
#
# Elastic Constant Matrix: (Units=GPa)
#
#
# Indices 1 2 3 4 5 6 
#
# 1 66.9321 18.0334 45.7201 -3.4507 6.5087 18.5515
# 2 18.0334 120.2848 47.1680 11.9317 10.5273 17.4495
# 3 45.7201 47.1680 117.5763 -12.7091 18.7543 8.9882
# 4 -3.4507 11.9317 -12.7091 43.5532 3.5054 6.8937
# 5 6.5087 10.5273 18.7543 3.5054 42.8143 -3.8901
# 6 18.5515 17.4495 8.9882 6.8937 -3.8901 22.9763
#
#
#
# Elastic Compliance Matrix: (Units=1/GPa)
#
#
# Indices 1 2 3 4 5 6 
#
# 1 0.026745 0.002676 -0.009151 0.002302 -0.002832 -0.021217
# 2 0.002676 0.011556 -0.005130 -0.003019 -0.001506 -0.008280
# 3 -0.009151 -0.005130 0.015046 0.004882 -0.004042 0.003250
# 4 0.002302 -0.003019 0.004882 0.027464 -0.004953 -0.010554
# 5 -0.002832 -0.001506 -0.004042 -0.004953 0.027345 0.011128
# 6 -0.021217 -0.008280 0.003250 -0.010554 0.011128 0.070722
#
#
# Mechanical properties :
#
#
# Convention : Reuss Voigt Hill
#
# Bulk Modulus (GPa) = 33.18114 58.51511 45.84813
# Shear Modulus (GPa) = 23.57013 34.79354 29.18184
#
# Velocity S-wave (km/s) = 3.45890 4.20249 3.84869
# Velocity P-wave (km/s) = 5.72665 7.29724 6.55912
#
# Compressibility (1/GPa) = 0.03013760
#
# Stress axis : x y z
#
# Youngs Moduli (GPa) = 37.38984 86.53191 66.46472
#
# Poissons Ratio (x) = -0.23158 0.60823
# Poissons Ratio (y) = -0.10006 0.34095
# Poissons Ratio (z) = 0.34216 0.44389
#
# Static dielectric constant tensor:
#      x y z
#    x 3.308590 0.046610 0.301280 
#    y 0.046610 4.276760 0.044770 
#    z 0.301280 0.044770 4.243120 
# 
# 
# High freq. dielectric constant tensor:
#      x y z
#    x 1.716170 0.012320 0.019610 
#    y 0.012320 1.773440 0.002320 
#    z 0.019610 0.002320 1.795310 
# 
# From -- ./inp_files/127506.got.cif
#   From: 2010.06.25/outbox.cif.g09.slc.cpg/sg2_64_cif.got.tgz:127506.got - 2010.06.27 13:26:56.
