data_PCOD8002077
_publ_section_title
;
Structure prediction by ZEFSAII (Michael W. Deem and Ramdas Pophale) SiO2 
 PCOD8002077
Probable space group: P -1
;
_chemical_formula_sum "Si O2"
_cell_formula_units_Z 16
_cell_length_a 8.135734
_cell_length_b 13.137872
_cell_length_c 11.174695
_cell_angle_alpha 73.197788
_cell_angle_beta 136.432681
_cell_angle_gamma 91.494198
_cell_volume 757.010266
_symmetry_space_group_name_H-M "P -1"
_symmetry_group_IT_number 2
_symmetry_cell_setting 'triclinic'
loop_
_space_group_symop_operation_xyz
x,y,z
-x,-y,-z
loop_
_atom_site_type_symbol
_atom_site_label
_atom_site_fract_x
_atom_site_fract_y
_atom_site_fract_z
Si Si1 0.121599 0.022151 0.306470
Si Si2 0.440734 0.134481 0.300847
Si Si3 0.879864 0.331600 0.391963
Si Si4 0.275832 0.018019 0.029864
Si Si5 0.624664 0.614340 0.791016
Si Si6 0.014631 0.581528 0.818041
Si Si7 0.235394 0.770315 0.857359
Si Si8 0.353887 0.174265 0.816473
O O1 0.305233 0.097749 0.354724
O O2 0.896776 0.099392 0.238501
O O3 0.264353 0.916148 0.498060
O O4 0.010251 0.991017 0.130287
O O5 0.367092 0.264764 0.207812
O O6 0.343228 0.087152 0.148302
O O7 0.659702 0.395229 0.345955
O O8 0.978361 0.413151 0.326008
O O9 0.753770 0.253445 0.271305
O O10 0.111394 0.259184 0.609011
O O11 0.280392 0.083187 0.887205
O O12 0.467876 0.894349 0.171759
O O13 0.741819 0.587842 0.727552
O O14 0.792024 0.531960 0.002674
O O15 0.101423 0.686306 0.880124
O O16 0.510479 0.749676 0.062424
#
# Coordination Sequence:
#
# PCOD8002077 Si02
#       8
#     2   2   2   2   2   2   2   2
#     4  10  20  35  54  87 120 154 189 238 293 345
#     4  11  20  33  58  84 117 154 195 238 289 350
#     4  10  20  37  64  85 114 156 196 240 287 346
#     4  10  21  33  52  85 120 152 193 236 286 353
#     4  11  20  38  64  88 114 156 199 241 293 347
#     4   9  22  39  63  85 117 155 195 246 296 338
#     4   9  19  38  59  83 119 155 187 237 293 341
#     4  10  20  36  56  85 119 155 193 235 294 349
#
# _framework density 21.135777000000001
#
# number of rings (size 3 to 8) (size 9 to 14) (size 15 to 20)
#    0.750    1.250    1.250    3.000    0.000    0.000 
#    0.000    8.125    2.750    1.500    0.000    0.000 
#    0.000    0.000    0.000    0.000    0.000    0.000 
#
# Total GULP energy -198219.206968 kJ/mol
# GULP energy per Si atom -12388.700435 kJ/mol
# Density = 2.108767 g / cm^3
# Si number density = 21.135777 Si / 1000 Ang^3
#
#
#
# Elastic Constant Matrix: (Units=GPa)
#
#
# Indices 1 2 3 4 5 6 
#
# 1 92.5395 3.2779 54.7698 -13.0311 17.9715 3.7271
# 2 3.2779 52.9839 45.9909 -12.9838 6.0430 -0.8529
# 3 54.7698 45.9909 156.4224 -20.8028 16.3105 -3.6851
# 4 -13.0311 -12.9838 -20.8028 32.8366 -3.4594 -0.0912
# 5 17.9715 6.0430 16.3105 -3.4594 23.1457 -3.2875
# 6 3.7271 -0.8529 -3.6851 -0.0912 -3.2875 17.5762
#
#
#
# Elastic Compliance Matrix: (Units=1/GPa)
#
#
# Indices 1 2 3 4 5 6 
#
# 1 0.017468 0.006813 -0.006557 0.004289 -0.011045 -0.006792
# 2 0.006813 0.029078 -0.009412 0.007648 -0.005533 -0.003002
# 3 -0.006557 -0.009412 0.011684 0.001083 -0.000043 0.003381
# 4 0.004289 0.007648 0.001083 0.035783 -0.000781 -0.000272
# 5 -0.011045 -0.005533 -0.000043 -0.000781 0.054889 0.012327
# 6 -0.006792 -0.003002 0.003381 -0.000272 0.012327 0.061203
#
#
# Mechanical properties :
#
#
# Convention : Reuss Voigt Hill
#
# Bulk Modulus (GPa) = 25.05110 56.66922 40.86016
# Shear Modulus (GPa) = 20.68462 27.90551 24.29507
#
# Velocity S-wave (km/s) = 3.13174 3.63753 3.39407
# Velocity P-wave (km/s) = 4.99552 6.67176 5.89354
#
# Compressibility (1/GPa) = 0.03991841
#
# Stress axis : x y z
#
# Youngs Moduli (GPa) = 57.24639 34.38974 85.58450
#
# Poissons Ratio (x) = -0.23428 0.56120
# Poissons Ratio (y) = -0.39000 0.80549
# Poissons Ratio (z) = 0.37538 0.32367
#
# Static dielectric constant tensor:
#      x y z
#    x 4.055470 0.138970 0.206570 
#    y 0.138970 3.612420 -0.097690 
#    z 0.206570 -0.097690 3.724330 
# 
# 
# High freq. dielectric constant tensor:
#      x y z
#    x 1.834730 0.012250 0.011430 
#    y 0.012250 1.805570 -0.014280 
#    z 0.011430 -0.014280 1.821890 
# 
# From -- ./inp_files/399000.got.cif
#   From: 2010.06.25/outbox.cif.g09.slc.cpg/sg2_200_cif.got.tgz:399000.got - 2010.06.27 13:26:56.
