data_PCOD8002043
_publ_section_title
;
Structure prediction by ZEFSAII (Michael W. Deem and Ramdas Pophale) SiO2 
 PCOD8002043
Probable space group: P -1
;
_chemical_formula_sum "Si O2"
_cell_formula_units_Z 16
_cell_length_a 12.530358
_cell_length_b 17.437373
_cell_length_c 6.355362
_cell_angle_alpha 72.901889
_cell_angle_beta 64.816646
_cell_angle_gamma 119.922629
_cell_volume 831.843252
_symmetry_space_group_name_H-M "P -1"
_symmetry_group_IT_number 2
_symmetry_cell_setting 'triclinic'
loop_
_space_group_symop_operation_xyz
x,y,z
-x,-y,-z
loop_
_atom_site_type_symbol
_atom_site_label
_atom_site_fract_x
_atom_site_fract_y
_atom_site_fract_z
Si Si1 0.634201 0.554896 0.659254
Si Si2 0.179324 0.555903 0.886635
Si Si3 0.639283 0.657071 0.191059
Si Si4 0.494096 0.246072 0.827842
Si Si5 0.486000 0.087703 0.722561
Si Si6 0.347933 0.744908 0.928153
Si Si7 0.864199 0.643853 0.756032
Si Si8 0.750126 0.165302 0.768083
O O1 0.664910 0.651594 0.422645
O O2 0.556750 0.456007 0.630104
O O3 0.806243 0.609628 0.585800
O O4 0.500000 0.500000 0.000000
O O5 0.328974 0.645348 0.523892
O O6 0.217560 0.624560 0.010440
O O7 0.170815 0.457130 0.018280
O O8 0.000000 0.500000 0.000000
O O9 0.654341 0.760149 0.068680
O O10 0.769456 0.670227 0.931364
O O11 0.417080 0.127088 0.890541
O O12 0.528576 0.251623 0.042157
O O13 0.535042 0.141994 0.407313
O O14 0.651347 0.130068 0.660607
O O15 0.337145 0.949283 0.935250
O O16 0.242354 0.749905 0.169970
O O17 0.059285 0.764761 0.505551
#
# Coordination Sequence:
#
# PCOD8002043 Si02
#       8
#     2   2   2   2   2   2   2   2
#     4   9  18  32  51  74 104 144 183 215 254 317
#     4  11  22  34  51  84 118 139 172 223 275 328
#     4  10  20  35  53  76 109 148 181 217 269 320
#     4  10  20  35  56  79 106 143 184 223 267 325
#     4   9  20  38  59  81 106 139 185 232 273 321
#     4  10  20  35  58  79 104 144 181 222 275 327
#     4  11  22  34  53  82 113 144 179 219 266 327
#     4  10  21  38  57  81 110 142 182 228 275 323
#
# _framework density 19.234393000000001
#
# number of rings (size 3 to 8) (size 9 to 14) (size 15 to 20)
#    0.000    2.000    0.000    5.625    0.000    8.000 
#    0.000    0.625    0.000    1.500    0.000    0.000 
#    0.000    0.000    0.000    0.000    0.000    0.000 
#
# Total GULP energy -198359.233636 kJ/mol
# GULP energy per Si atom -12397.452102 kJ/mol
# Density = 1.919061 g / cm^3
# Si number density = 19.234393 Si / 1000 Ang^3
#
#
#
# Elastic Constant Matrix: (Units=GPa)
#
#
# Indices 1 2 3 4 5 6 
#
# 1 127.2898 42.1877 48.4212 -0.1888 12.1926 -12.1123
# 2 42.1877 65.4662 26.2933 -1.7921 -7.5152 -1.5692
# 3 48.4212 26.2933 78.8642 1.5255 6.8574 10.0446
# 4 -0.1888 -1.7921 1.5255 27.8997 6.0555 2.9021
# 5 12.1926 -7.5152 6.8574 6.0555 32.6502 8.7490
# 6 -12.1123 -1.5692 10.0446 2.9021 8.7490 24.3104
#
#
#
# Elastic Compliance Matrix: (Units=1/GPa)
#
#
# Indices 1 2 3 4 5 6 
#
# 1 0.015782 -0.007702 -0.008082 0.000728 -0.009905 0.014183
# 2 -0.007702 0.022485 -0.003033 -0.000117 0.009972 -0.004707
# 3 -0.008082 -0.003033 0.020186 -0.000349 0.001660 -0.013119
# 4 0.000728 -0.000117 -0.000349 0.037488 -0.006765 -0.001541
# 5 -0.009905 0.009972 0.001660 -0.006765 0.042769 -0.019562
# 6 0.014183 -0.004707 -0.013119 -0.001541 -0.019562 0.060542
#
#
# Mechanical properties :
#
#
# Convention : Reuss Voigt Hill
#
# Bulk Modulus (GPa) = 48.02807 56.15829 52.09318
# Shear Modulus (GPa) = 20.50647 27.28661 23.89654
#
# Velocity S-wave (km/s) = 3.26872 3.77057 3.52857
# Velocity P-wave (km/s) = 6.26659 6.94380 6.61387
#
# Compressibility (1/GPa) = 0.02082116
#
# Stress axis : x y z
#
# Youngs Moduli (GPa) = 63.36213 44.47406 49.53810
#
# Poissons Ratio (x) = 0.34253 0.40035
# Poissons Ratio (y) = 0.48800 0.15025
# Poissons Ratio (z) = 0.51207 0.13489
#
# Static dielectric constant tensor:
#      x y z
#    x 3.820890 0.076550 0.343030 
#    y 0.076550 3.616890 0.089900 
#    z 0.343030 0.089900 3.377220 
# 
# 
# High freq. dielectric constant tensor:
#      x y z
#    x 1.752170 -0.007050 0.023700 
#    y -0.007050 1.739830 0.013690 
#    z 0.023700 0.013690 1.736570 
# 
# From -- ./inp_files/66202.got.cif
#   From: 2010.06.25/outbox.cif.g09.slc.cpg/sg2_34_cif.got.tgz:66202.got - 2010.06.27 13:26:56.
