data_PCOD8002182
_publ_section_title
;
Structure prediction by ZEFSAII (Michael W. Deem and Ramdas Pophale) SiO2 
 PCOD8002182
Probable space group: P -1
;
_chemical_formula_sum "Si O2"
_cell_formula_units_Z 12
_cell_length_a 8.168233
_cell_length_b 8.667830
_cell_length_c 14.495988
_cell_angle_alpha 42.553103
_cell_angle_beta 98.286245
_cell_angle_gamma 71.056936
_cell_volume 525.599649
_symmetry_space_group_name_H-M "P -1"
_symmetry_group_IT_number 2
_symmetry_cell_setting 'triclinic'
loop_
_space_group_symop_operation_xyz
x,y,z
-x,-y,-z
loop_
_atom_site_type_symbol
_atom_site_label
_atom_site_fract_x
_atom_site_fract_y
_atom_site_fract_z
Si Si1 0.169006 0.594593 0.013228
Si Si2 0.180235 0.412836 0.757712
Si Si3 0.621680 0.247276 0.923165
Si Si4 0.725505 0.428666 0.477826
Si Si5 0.911013 0.783295 0.737980
Si Si6 0.749046 0.215001 0.756238
O O1 0.132026 0.622932 0.887287
O O2 0.354603 0.614093 0.045725
O O3 0.229123 0.293505 0.191529
O O4 0.940799 0.862689 0.924643
O O5 0.379371 0.380105 0.830372
O O6 0.142975 0.514887 0.602283
O O7 0.972246 0.665944 0.689586
O O8 0.218321 0.109868 0.897747
O O9 0.708314 0.326049 0.809579
O O10 0.800194 0.374310 0.616145
O O11 0.471318 0.714688 0.326557
O O12 0.764350 0.138058 0.570289
#
# Coordination Sequence:
#
# PCOD8002182 Si02
#       6
#     2   2   2   2   2   2
#     4  10  20  35  59  82 105 143 188 220 259 324
#     4  10  20  35  57  82 109 143 177 225 274 311
#     4  10  20  35  59  82 105 143 188 220 259 324
#     4   9  19  34  56  80 113 139 176 222 276 319
#     4  10  20  35  57  82 109 143 177 225 274 311
#     4   9  17  34  56  79 103 144 181 216 258 325
#
# _framework density 22.831064999999999
#
# number of rings (size 3 to 8) (size 9 to 14) (size 15 to 20)
#    0.000    2.333    1.667    1.000    0.000    0.667 
#    0.000    6.667    7.333    0.000    0.000    0.000 
#    0.000    0.000    0.000    0.000    0.000    0.000 
#
# Total GULP energy -148686.759185 kJ/mol
# GULP energy per Si atom -12390.563265 kJ/mol
# Density = 2.277910 g / cm^3
# Si number density = 22.831065 Si / 1000 Ang^3
#
#
#
# Elastic Constant Matrix: (Units=GPa)
#
#
# Indices 1 2 3 4 5 6 
#
# 1 36.5455 14.7960 18.6187 6.4604 -16.2172 13.2883
# 2 14.7960 51.8538 12.6859 18.9220 -20.1506 0.5527
# 3 18.6187 12.6859 82.4773 10.7930 -17.3988 -1.9385
# 4 6.4604 18.9220 10.7930 39.1943 -11.7388 -3.1258
# 5 -16.2172 -20.1506 -17.3988 -11.7388 20.5256 -0.4139
# 6 13.2883 0.5527 -1.9385 -3.1258 -0.4139 37.7985
#
#
#
# Elastic Compliance Matrix: (Units=1/GPa)
#
#
# Indices 1 2 3 4 5 6 
#
# 1 0.053429 0.000730 -0.004450 0.002678 0.040321 -0.018359
# 2 0.000730 0.033277 0.002171 -0.007668 0.030682 -0.000930
# 3 -0.004450 0.002171 0.015318 -0.001034 0.011056 0.002354
# 4 0.002678 -0.007668 -0.001034 0.032998 0.012624 0.001985
# 5 0.040321 0.030682 0.011056 0.012624 0.127055 -0.011621
# 6 -0.018359 -0.000930 0.002354 0.001985 -0.011621 0.033082
#
#
# Mechanical properties :
#
#
# Convention : Reuss Voigt Hill
#
# Bulk Modulus (GPa) = 10.10852 29.23087 19.66969
# Shear Modulus (GPa) = 15.09515 27.82207 21.45861
#
# Velocity S-wave (km/s) = 2.57411 3.49464 3.06908
# Velocity P-wave (km/s) = 3.64305 5.39576 4.60359
#
# Compressibility (1/GPa) = 0.09892648
#
# Stress axis : x y z
#
# Youngs Moduli (GPa) = 18.71634 30.05111 65.28222
#
# Poissons Ratio (x) = -0.02195 0.29050
# Poissons Ratio (y) = -0.01367 -0.14171
# Poissons Ratio (z) = 0.08328 -0.06523
#
# Static dielectric constant tensor:
#      x y z
#    x 3.613390 -0.128480 -0.162880 
#    y -0.128480 4.106440 0.340450 
#    z -0.162880 0.340450 4.267260 
# 
# 
# High freq. dielectric constant tensor:
#      x y z
#    x 1.858920 -0.013880 -0.010880 
#    y -0.013880 1.891530 0.016600 
#    z -0.010880 0.016600 1.904930 
# 
# From -- ./inp_files/145476.got.cif
#   From: 2010.06.25/outbox.cif.g09.slc.cpg/sg2_73_cif.got.tgz:145476.got - 2010.06.27 13:26:56.
