data_PCOD8002204
_publ_section_title
;
Structure prediction by ZEFSAII (Michael W. Deem and Ramdas Pophale) SiO2 
 PCOD8002204
Probable space group: P -1
;
_chemical_formula_sum "Si O2"
_cell_formula_units_Z 16
_cell_length_a 8.157506
_cell_length_b 10.789227
_cell_length_c 19.754894
_cell_angle_alpha 49.982289
_cell_angle_beta 77.115309
_cell_angle_gamma 40.877674
_cell_volume 741.605472
_symmetry_space_group_name_H-M "P -1"
_symmetry_group_IT_number 2
_symmetry_cell_setting 'triclinic'
loop_
_space_group_symop_operation_xyz
x,y,z
-x,-y,-z
loop_
_atom_site_type_symbol
_atom_site_label
_atom_site_fract_x
_atom_site_fract_y
_atom_site_fract_z
Si Si1 0.152581 0.106842 0.766353
Si Si2 0.612988 0.493092 0.594472
Si Si3 0.183254 0.351174 0.775601
Si Si4 0.223489 0.298435 0.184865
Si Si5 0.689165 0.128263 0.630995
Si Si6 0.306806 0.612955 0.704593
Si Si7 0.267011 0.158942 0.024907
Si Si8 0.892977 0.067099 0.909560
O O1 0.072459 0.348221 0.719574
O O2 0.953488 0.246841 0.668696
O O3 0.095829 0.013161 0.860286
O O4 0.488302 0.821361 0.811422
O O5 0.557893 0.361098 0.613038
O O6 0.503287 0.719147 0.474080
O O7 0.422389 0.648635 0.626067
O O8 0.208268 0.524449 0.707415
O O9 0.952706 0.491682 0.807571
O O10 0.517631 0.011107 0.870292
O O11 0.327697 0.032478 0.276675
O O12 0.985641 0.501510 0.073206
O O13 0.024353 0.914746 0.659608
O O14 0.550576 0.388961 0.818753
O O15 0.083931 0.137344 0.042478
O O16 0.500000 0.000000 0.000000
O O17 0.000000 0.000000 0.000000
#
# Coordination Sequence:
#
# PCOD8002204 Si02
#       8
#     2   2   2   2   2   2   2   2
#     4  11  23  36  56  85 118 148 185 236 285 336
#     4  10  22  38  57  87 114 143 190 244 289 327
#     4   9  19  38  58  81 114 151 188 231 275 333
#     4  10  21  37  58  83 111 153 193 225 279 340
#     4  10  21  39  62  81 110 151 194 237 280 336
#     4   9  19  38  63  83 111 154 193 228 279 340
#     4   9  18  35  56  78 109 147 188 224 268 330
#     4  10  20  35  57  86 119 149 181 232 283 328
#
# _framework density 21.574814
#
# number of rings (size 3 to 8) (size 9 to 14) (size 15 to 20)
#    0.000    2.250    0.000    3.375    0.000    4.500 
#    0.000    5.000    0.000    0.000    0.000    0.000 
#    0.000    0.000    0.000    0.000    0.000    0.000 
#
# Total GULP energy -198326.903480 kJ/mol
# GULP energy per Si atom -12395.431468 kJ/mol
# Density = 2.152571 g / cm^3
# Si number density = 21.574814 Si / 1000 Ang^3
#
#
#
# Elastic Constant Matrix: (Units=GPa)
#
#
# Indices 1 2 3 4 5 6 
#
# 1 88.6588 22.6199 37.9819 5.5687 5.7002 -15.3199
# 2 22.6199 53.8102 26.1764 -8.3172 6.5123 -23.9019
# 3 37.9819 26.1764 140.3725 2.2042 6.2376 -5.9826
# 4 5.5687 -8.3172 2.2042 26.0891 4.8487 9.4287
# 5 5.7002 6.5123 6.2376 4.8487 31.0294 -2.8208
# 6 -15.3199 -23.9019 -5.9826 9.4287 -2.8208 35.7309
#
#
#
# Elastic Compliance Matrix: (Units=1/GPa)
#
#
# Indices 1 2 3 4 5 6 
#
# 1 0.014671 -0.003318 -0.003043 -0.005764 -0.000025 0.005080
# 2 -0.003318 0.030719 -0.004016 0.005655 -0.004404 0.016614
# 3 -0.003043 -0.004016 0.008618 -0.000366 -0.000500 -0.002491
# 4 -0.005764 0.005655 -0.000366 0.047278 -0.008524 -0.011899
# 5 -0.000025 -0.004404 -0.000500 -0.008524 0.034766 0.001954
# 6 0.005080 0.016614 -0.002491 -0.011899 0.001954 0.044156
#
#
# Mechanical properties :
#
#
# Convention : Reuss Voigt Hill
#
# Bulk Modulus (GPa) = 30.07128 50.71089 40.39109
# Shear Modulus (GPa) = 23.57975 31.64076 27.61026
#
# Velocity S-wave (km/s) = 3.30954 3.83372 3.58123
# Velocity P-wave (km/s) = 5.34532 6.56904 5.98852
#
# Compressibility (1/GPa) = 0.03325432
#
# Stress axis : x y z
#
# Youngs Moduli (GPa) = 68.16299 32.55314 116.03865
#
# Poissons Ratio (x) = 0.10802 0.35307
# Poissons Ratio (y) = 0.22619 0.46596
# Poissons Ratio (z) = 0.20740 0.13072
#
# Static dielectric constant tensor:
#      x y z
#    x 3.800930 -0.230520 0.110930 
#    y -0.230520 3.750610 0.018070 
#    z 0.110930 0.018070 4.124360 
# 
# 
# High freq. dielectric constant tensor:
#      x y z
#    x 1.835230 -0.017580 0.004010 
#    y -0.017580 1.842140 0.000000 
#    z 0.004010 0.000000 1.847630 
# 
# From -- ./inp_files/589012.got.cif
#   From: 2010.06.25/outbox.cif.g09.slc.cpg/sg2_295_cif.got.tgz:589012.got - 2010.06.27 13:26:56.
