data_PCOD8002128
_publ_section_title
;
Structure prediction by ZEFSAII (Michael W. Deem and Ramdas Pophale) SiO2 
 PCOD8002128
Probable space group: P -1
;
_chemical_formula_sum "Si O2"
_cell_formula_units_Z 16
_cell_length_a 10.236671
_cell_length_b 10.042900
_cell_length_c 12.356857
_cell_angle_alpha 90.367076
_cell_angle_beta 83.864652
_cell_angle_gamma 139.844329
_cell_volume 808.885212
_symmetry_space_group_name_H-M "P -1"
_symmetry_group_IT_number 2
_symmetry_cell_setting 'triclinic'
loop_
_space_group_symop_operation_xyz
x,y,z
-x,-y,-z
loop_
_atom_site_type_symbol
_atom_site_label
_atom_site_fract_x
_atom_site_fract_y
_atom_site_fract_z
Si Si1 0.306902 0.261748 0.718322
Si Si2 0.755288 0.507147 0.352909
Si Si3 0.995031 0.215080 0.222401
Si Si4 0.068499 0.257655 0.453111
Si Si5 0.422344 0.541257 0.095992
Si Si6 0.337643 0.755539 0.024182
Si Si7 0.325341 0.201843 0.481100
Si Si8 0.089588 0.568997 0.835044
O O1 0.190720 0.312513 0.712554
O O2 0.472174 0.402865 0.798151
O O3 0.413706 0.309942 0.593458
O O4 0.140982 0.022042 0.761457
O O5 0.857029 0.579785 0.463070
O O6 0.509626 0.303476 0.386530
O O7 0.845929 0.455545 0.279138
O O8 0.081392 0.328793 0.332342
O O9 0.181370 0.326266 0.126935
O O10 0.871377 0.243145 0.183942
O O11 0.205392 0.231726 0.440284
O O12 0.829849 0.041573 0.497531
O O13 0.461046 0.723633 0.057235
O O14 0.500000 0.500000 0.000000
O O15 0.150018 0.649324 0.120183
O O16 0.238344 0.637343 0.917883
O O17 0.500000 0.000000 0.000000
#
# Coordination Sequence:
#
# PCOD8002128 Si02
#       8
#     2   2   2   2   2   2   2   2
#     4  10  20  35  56  79 105 141 175 215 266 308
#     4  11  20  33  56  83 110 137 177 221 257 311
#     4  10  21  38  54  75 112 142 171 216 264 318
#     4   9  18  33  54  80 108 143 176 211 265 312
#     4  11  22  35  57  83 102 132 181 227 264 307
#     4  10  22  41  58  73 106 146 176 215 271 322
#     4   9  18  33  54  80 111 141 174 216 261 313
#     4  10  23  38  54  80 108 140 177 218 267 316
#
# _framework density 19.780308999999999
#
# number of rings (size 3 to 8) (size 9 to 14) (size 15 to 20)
#    0.000    2.000    0.000    5.250    0.000    3.000 
#    0.000    2.500    0.000    0.000    0.000    0.000 
#    0.000    0.000    0.000    0.000    0.000    0.000 
#
# Total GULP energy -198419.235485 kJ/mol
# GULP energy per Si atom -12401.202218 kJ/mol
# Density = 1.973529 g / cm^3
# Si number density = 19.780309 Si / 1000 Ang^3
#
#
#
# Elastic Constant Matrix: (Units=GPa)
#
#
# Indices 1 2 3 4 5 6 
#
# 1 72.8884 27.2305 41.3561 -0.8072 -13.4746 -0.8259
# 2 27.2305 76.2594 17.5234 -15.8671 -17.7633 -2.6631
# 3 41.3561 17.5234 84.6094 -2.0660 -13.7280 2.4451
# 4 -0.8072 -15.8671 -2.0660 32.3806 0.4122 9.4584
# 5 -13.4746 -17.7633 -13.7280 0.4122 42.1587 0.9331
# 6 -0.8259 -2.6631 2.4451 9.4584 0.9331 19.1592
#
#
#
# Elastic Compliance Matrix: (Units=1/GPa)
#
#
# Indices 1 2 3 4 5 6 
#
# 1 0.021384 -0.005914 -0.009199 -0.003882 0.001316 0.003126
# 2 -0.005914 0.018443 0.000355 0.009652 0.005964 -0.002792
# 3 -0.009199 0.000355 0.016844 0.002048 0.002755 -0.003642
# 4 -0.003882 0.009652 0.002048 0.041347 0.003524 -0.019671
# 5 0.001316 0.005964 0.002755 0.003524 0.027572 -0.002549
# 6 0.003126 -0.002792 -0.003642 -0.019671 -0.002549 0.062241
#
#
# Mechanical properties :
#
#
# Convention : Reuss Voigt Hill
#
# Bulk Modulus (GPa) = 36.82492 45.10857 40.96675
# Shear Modulus (GPa) = 22.08475 28.58285 25.33380
#
# Velocity S-wave (km/s) = 3.34503 3.80546 3.58265
# Velocity P-wave (km/s) = 5.79451 6.49330 6.15384
#
# Compressibility (1/GPa) = 0.02715552
#
# Stress axis : x y z
#
# Youngs Moduli (GPa) = 46.76349 54.22021 59.36770
#
# Poissons Ratio (x) = 0.32065 0.54613
# Poissons Ratio (y) = 0.27655 -0.02107
# Poissons Ratio (z) = 0.43018 -0.01924
#
# Static dielectric constant tensor:
#      x y z
#    x 3.484920 0.103850 0.218270 
#    y 0.103850 3.496790 -0.103860 
#    z 0.218270 -0.103860 3.720640 
# 
# 
# High freq. dielectric constant tensor:
#      x y z
#    x 1.759500 0.009750 0.014200 
#    y 0.009750 1.765600 -0.009540 
#    z 0.014200 -0.009540 1.778820 
# 
# From -- ./inp_files/382289.got.cif
#   From: 2010.06.25/outbox.cif.g09.slc.cpg/sg2_192_cif.got.tgz:382289.got - 2010.06.27 13:26:56.
