data_PCOD8002061
_publ_section_title
;
Structure prediction by ZEFSAII (Michael W. Deem and Ramdas Pophale) SiO2 
 PCOD8002061
Probable space group: P -1
;
_chemical_formula_sum "Si O2"
_cell_formula_units_Z 16
_cell_length_a 26.227164
_cell_length_b 27.095390
_cell_length_c 11.790176
_cell_angle_alpha 148.798264
_cell_angle_beta 32.292011
_cell_angle_gamma 169.401360
_cell_volume 797.419253
_symmetry_space_group_name_H-M "P -1"
_symmetry_group_IT_number 2
_symmetry_cell_setting 'triclinic'
loop_
_space_group_symop_operation_xyz
x,y,z
-x,-y,-z
loop_
_atom_site_type_symbol
_atom_site_label
_atom_site_fract_x
_atom_site_fract_y
_atom_site_fract_z
Si Si1 0.397690 0.378187 0.326832
Si Si2 0.790260 0.489477 0.757836
Si Si3 0.362062 0.972058 0.690632
Si Si4 0.801187 0.617954 0.404443
Si Si5 0.541710 0.389557 0.864318
Si Si6 0.960910 0.852257 0.803246
Si Si7 0.279165 0.030605 0.167860
Si Si8 0.979338 0.863511 0.234967
O O1 0.277105 0.367180 0.500107
O O2 0.693208 0.657749 0.401755
O O3 0.533620 0.457846 0.116166
O O4 0.146075 0.070629 0.227928
O O5 0.698227 0.439260 0.707614
O O6 0.059943 0.673952 0.613765
O O7 0.534100 0.199948 0.731351
O O8 0.876724 0.661985 0.006630
O O9 0.500000 0.000000 0.500000
O O10 0.340728 0.000046 0.909243
O O11 0.906014 0.748664 0.585556
O O12 0.038225 0.777444 0.211210
O O13 0.545224 0.306221 0.284916
O O14 0.700186 0.589640 0.857899
O O15 0.238980 0.072495 0.770207
O O16 0.000000 0.000000 0.000000
O O17 0.190561 0.046033 0.300553
#
# Coordination Sequence:
#
# PCOD8002061 Si02
#       8
#     2   2   2   2   2   2   2   2
#     4  11  21  33  54  79 109 161 201 231 276 320
#     4  10  20  36  62  92 116 145 188 235 293 347
#     4  11  22  41  67  93 116 142 179 232 300 374
#     4  12  25  35  53  79 116 157 203 235 278 323
#     4  11  21  37  58  80 117 154 200 255 274 312
#     4  12  24  37  56  80 111 163 216 247 272 305
#     4  11  23  39  53  81 118 147 183 240 284 353
#     4  10  20  35  54  77 116 155 191 225 277 341
#
# _framework density 20.064727999999999
#
# number of rings (size 3 to 8) (size 9 to 14) (size 15 to 20)
#    0.000    1.000    1.250    9.750    1.750    3.000 
#    0.000    0.000    0.000    0.000    0.000   17.500 
#    0.000    0.000    0.000    0.000    0.000    0.000 
#
# Total GULP energy -198401.290294 kJ/mol
# GULP energy per Si atom -12400.080643 kJ/mol
# Density = 2.001906 g / cm^3
# Si number density = 20.064728 Si / 1000 Ang^3
#
#
#
# Elastic Constant Matrix: (Units=GPa)
#
#
# Indices 1 2 3 4 5 6 
#
# 1 73.5374 25.3404 40.2285 -4.6468 3.6178 15.3586
# 2 25.3404 113.4500 29.8836 -20.1812 7.2799 3.5487
# 3 40.2285 29.8836 85.7680 -14.5026 -4.2739 10.2189
# 4 -4.6468 -20.1812 -14.5026 29.5157 8.2622 4.1314
# 5 3.6178 7.2799 -4.2739 8.2622 23.2066 -0.3957
# 6 15.3586 3.5487 10.2189 4.1314 -0.3957 45.4409
#
#
#
# Elastic Compliance Matrix: (Units=1/GPa)
#
#
# Indices 1 2 3 4 5 6 
#
# 1 0.020033 -0.001950 -0.008449 -0.000569 -0.003945 -0.004701
# 2 -0.001950 0.011804 -0.001969 0.008828 -0.006916 -0.000683
# 3 -0.008449 -0.001969 0.017515 0.005203 0.003285 -0.001374
# 4 -0.000569 0.008828 0.005203 0.048616 -0.019138 -0.006254
# 5 -0.003945 -0.006916 0.003285 -0.019138 0.053351 0.003339
# 6 -0.004701 -0.000683 -0.001374 -0.006254 0.003339 0.024556
#
#
# Mechanical properties :
#
#
# Convention : Reuss Voigt Hill
#
# Bulk Modulus (GPa) = 40.62329 51.51782 46.07055
# Shear Modulus (GPa) = 23.94445 31.45285 27.69865
#
# Velocity S-wave (km/s) = 3.45825 3.96355 3.71949
# Velocity P-wave (km/s) = 6.01964 6.83212 6.43871
#
# Compressibility (1/GPa) = 0.02461642
#
# Stress axis : x y z
#
# Youngs Moduli (GPa) = 49.91859 84.71559 57.09233
#
# Poissons Ratio (x) = 0.16518 0.48239
# Poissons Ratio (y) = 0.09733 0.11240
# Poissons Ratio (z) = 0.42178 0.16679
#
# Static dielectric constant tensor:
#      x y z
#    x 3.854400 0.385480 0.150490 
#    y 0.385480 4.119900 -0.230640 
#    z 0.150490 -0.230640 3.447180 
# 
# 
# High freq. dielectric constant tensor:
#      x y z
#    x 1.770430 0.009900 0.016470 
#    y 0.009900 1.821760 -0.010690 
#    z 0.016470 -0.010690 1.750520 
# 
# From -- ./inp_files/477226.got.cif
#   From: 2010.06.25/outbox.cif.g09.slc.cpg/sg2_239_cif.got.tgz:477226.got - 2010.06.27 13:26:56.
