data_PCOD8002094
_publ_section_title
;
Structure prediction by ZEFSAII (Michael W. Deem and Ramdas Pophale) SiO2 
 PCOD8002094
Probable space group: P -1
;
_chemical_formula_sum "Si O2"
_cell_formula_units_Z 16
_cell_length_a 8.427459
_cell_length_b 20.969935
_cell_length_c 21.306385
_cell_angle_alpha 161.112020
_cell_angle_beta 136.309899
_cell_angle_gamma 40.434859
_cell_volume 790.487500
_symmetry_space_group_name_H-M "P -1"
_symmetry_group_IT_number 2
_symmetry_cell_setting 'triclinic'
loop_
_space_group_symop_operation_xyz
x,y,z
-x,-y,-z
loop_
_atom_site_type_symbol
_atom_site_label
_atom_site_fract_x
_atom_site_fract_y
_atom_site_fract_z
Si Si1 0.035889 0.718528 0.363359
Si Si2 0.729367 0.720010 0.933410
Si Si3 0.252101 0.033889 0.592592
Si Si4 0.480911 0.382994 0.676246
Si Si5 0.554186 0.472037 0.416466
Si Si6 0.160611 0.875555 0.664327
Si Si7 0.525845 0.175477 0.910066
Si Si8 0.933879 0.757457 0.611997
O O1 0.046359 0.494300 0.185939
O O2 0.292170 0.681130 0.366494
O O3 0.007211 0.887825 0.568087
O O4 0.794621 0.811530 0.336923
O O5 0.567643 0.681209 0.794380
O O6 0.568020 0.803703 0.026692
O O7 0.836441 0.895953 0.104274
O O8 0.328014 0.138987 0.772608
O O9 0.456303 0.801523 0.424152
O O10 0.000000 0.000000 0.500000
O O11 0.235529 0.386187 0.573884
O O12 0.434485 0.612187 0.904774
O O13 0.500000 0.500000 0.500000
O O14 0.435606 0.706958 0.572542
O O15 0.846745 0.365331 0.391962
O O16 0.036323 0.786002 0.599920
O O17 0.783400 0.987781 0.809284
#
# Coordination Sequence:
#
# PCOD8002094 Si02
#       8
#     2   2   2   2   2   2   2   2
#     4   9  19  35  56  80 105 139 178 218 259 307
#     4  10  20  35  55  81 107 134 178 224 260 311
#     4   9  17  32  56  81 106 139 177 216 259 309
#     4   9  19  35  54  77 108 139 173 218 263 311
#     4   9  21  37  54  78 104 139 182 217 261 314
#     4  10  20  36  57  78 105 139 180 221 259 311
#     4  10  21  35  53  83 111 137 175 216 267 316
#     4  10  21  36  54  76 106 142 174 218 270 312
#
# _framework density 20.240676000000001
#
# number of rings (size 3 to 8) (size 9 to 14) (size 15 to 20)
#    0.000    2.500    0.000    2.250    0.000   12.000 
#    0.000   11.250    0.000    4.500    0.000    0.000 
#    0.000    0.000    0.000    0.000    0.000    0.000 
#
# Total GULP energy -198263.045717 kJ/mol
# GULP energy per Si atom -12391.440357 kJ/mol
# Density = 2.019461 g / cm^3
# Si number density = 20.240676 Si / 1000 Ang^3
#
#
#
# Elastic Constant Matrix: (Units=GPa)
#
#
# Indices 1 2 3 4 5 6 
#
# 1 26.5754 8.9705 17.5136 -3.5104 -4.2752 3.8880
# 2 8.9705 78.1130 41.1568 -4.4289 -10.4227 8.7893
# 3 17.5136 41.1568 151.3169 3.1836 0.9011 1.5502
# 4 -3.5104 -4.4289 3.1836 27.8775 8.9834 -6.0275
# 5 -4.2752 -10.4227 0.9011 8.9834 26.9177 -1.5856
# 6 3.8880 8.7893 1.5502 -6.0275 -1.5856 22.2766
#
#
#
# Elastic Compliance Matrix: (Units=1/GPa)
#
#
# Indices 1 2 3 4 5 6 
#
# 1 0.043163 -0.000921 -0.004780 0.002879 0.005364 -0.005677
# 2 -0.000921 0.016689 -0.004407 -0.000195 0.006191 -0.005730
# 3 -0.004780 -0.004407 0.008384 -0.001208 -0.002254 0.001502
# 4 0.002879 -0.000195 -0.001208 0.042845 -0.013270 0.010307
# 5 0.005364 0.006191 -0.002254 -0.013270 0.044690 -0.003632
# 6 -0.005677 -0.005730 0.001502 0.010307 -0.003632 0.050567
#
#
# Mechanical properties :
#
#
# Convention : Reuss Voigt Hill
#
# Bulk Modulus (GPa) = 20.82395 43.47636 32.15015
# Shear Modulus (GPa) = 20.61342 27.97199 24.29270
#
# Velocity S-wave (km/s) = 3.19472 3.72152 3.46814
# Velocity P-wave (km/s) = 4.89069 6.32397 5.65294
#
# Compressibility (1/GPa) = 0.04802163
#
# Stress axis : x y z
#
# Youngs Moduli (GPa) = 23.16798 59.91854 119.27597
#
# Poissons Ratio (x) = 0.05518 0.57010
# Poissons Ratio (y) = 0.02133 0.52563
# Poissons Ratio (z) = 0.11073 0.26405
#
# Static dielectric constant tensor:
#      x y z
#    x 3.397480 0.051010 -0.008460 
#    y 0.051010 4.662190 0.322190 
#    z -0.008460 0.322190 3.880700 
# 
# 
# High freq. dielectric constant tensor:
#      x y z
#    x 1.755180 0.003560 -0.004750 
#    y 0.003560 1.801840 0.007370 
#    z -0.004750 0.007370 1.797270 
# 
# From -- ./inp_files/336582.got.cif
#   From: 2010.06.25/outbox.cif.g09.slc.cpg/sg2_169_cif.got.tgz:336582.got - 2010.06.27 13:26:56.
