data_PCOD8002593
_publ_section_title
;
Structure prediction by ZEFSAII (Michael W. Deem and Ramdas Pophale) SiO2 
 PCOD8002593
Probable space group: P -1
;
_chemical_formula_sum "Si O2"
_cell_formula_units_Z 16
_cell_length_a 29.479160
_cell_length_b 9.306075
_cell_length_c 14.717938
_cell_angle_alpha 141.218281
_cell_angle_beta 21.601904
_cell_angle_gamma 143.432862
_cell_volume 875.641648
_symmetry_space_group_name_H-M "P -1"
_symmetry_group_IT_number 2
_symmetry_cell_setting 'triclinic'
loop_
_space_group_symop_operation_xyz
x,y,z
-x,-y,-z
loop_
_atom_site_type_symbol
_atom_site_label
_atom_site_fract_x
_atom_site_fract_y
_atom_site_fract_z
Si Si1 0.582170 0.277071 0.462853
Si Si2 0.944430 0.295366 0.576613
Si Si3 0.637049 0.612301 0.985867
Si Si4 0.654817 0.079793 0.061082
Si Si5 0.077404 0.284077 0.492771
Si Si6 0.786332 0.388310 0.296107
Si Si7 0.016795 0.209034 0.765847
Si Si8 0.560899 0.295693 0.812392
O O1 0.627140 0.283684 0.277546
O O2 0.710106 0.384801 0.341691
O O3 0.500000 0.000000 0.500000
O O4 0.480321 0.422670 0.740266
O O5 0.000000 0.500000 0.500000
O O6 0.999370 0.402155 0.627119
O O7 0.992349 0.069504 0.354319
O O8 0.788454 0.208274 0.822856
O O9 0.777889 0.657227 0.791010
O O10 0.603614 0.356876 0.867191
O O11 0.657229 0.847249 0.000043
O O12 0.544199 0.976303 0.138480
O O13 0.079739 0.365157 0.633777
O O14 0.000000 0.000000 0.500000
O O15 0.890803 0.656793 0.255765
O O16 0.682163 0.305024 0.528820
O O17 0.867691 0.203200 0.049592
O O18 0.500000 0.500000 0.000000
#
# Coordination Sequence:
#
# PCOD8002593 Si02
#       8
#     2   2   2   2   2   2   2   2
#     4  10  19  26  48  85 116 135 164 224 285 323
#     4  11  23  37  55  75 109 153 185 219 272 332
#     4  10  17  29  51  84 107 136 174 229 284 310
#     4  10  18  31  50  77 108 139 180 221 267 322
#     4  10  18  31  53  75 106 134 180 234 259 310
#     4  11  18  29  51  86 117 135 171 233 282 315
#     4  10  21  32  54  83 110 141 184 226 274 316
#     4  10  16  28  49  79 113 138 172 223 276 330
#
# _framework density 18.272314000000001
#
# number of rings (size 3 to 8) (size 9 to 14) (size 15 to 20)
#    0.000    1.750    7.500    1.500    5.250    0.000 
#    0.000    0.000    0.000   10.500    0.000    0.000 
#    0.000    0.000    0.000    0.000    0.000    0.000 
#
# Total GULP energy -198239.143458 kJ/mol
# GULP energy per Si atom -12389.946466 kJ/mol
# Density = 1.823073 g / cm^3
# Si number density = 18.272314 Si / 1000 Ang^3
#
#
#
# Elastic Constant Matrix: (Units=GPa)
#
#
# Indices 1 2 3 4 5 6 
#
# 1 85.7032 45.9958 38.6708 -4.8509 1.1827 23.8589
# 2 45.9958 56.6505 45.2277 -8.1785 3.3183 8.0452
# 3 38.6708 45.2277 162.5747 -15.0041 4.1224 15.9617
# 4 -4.8509 -8.1785 -15.0041 20.7976 12.1043 -1.8632
# 5 1.1827 3.3183 4.1224 12.1043 29.8581 -4.1884
# 6 23.8589 8.0452 15.9617 -1.8632 -4.1884 33.3099
#
#
#
# Elastic Compliance Matrix: (Units=1/GPa)
#
#
# Indices 1 2 3 4 5 6 
#
# 1 0.025813 -0.019762 0.000469 -0.002839 0.000287 -0.014064
# 2 -0.019762 0.039193 -0.005755 0.010897 -0.006175 0.007280
# 3 0.000469 -0.005755 0.008554 0.005652 -0.003292 -0.003143
# 4 -0.002839 0.010897 0.005652 0.074406 -0.032496 -0.003231
# 5 0.000287 -0.006175 -0.003292 -0.032496 0.048802 0.007182
# 6 -0.014064 0.007280 -0.003143 -0.003231 0.007182 0.040565
#
#
# Mechanical properties :
#
#
# Convention : Reuss Voigt Hill
#
# Bulk Modulus (GPa) = 42.61847 62.74635 52.68241
# Shear Modulus (GPa) = 16.93472 28.46206 22.69839
#
# Velocity S-wave (km/s) = 3.04764 3.95100 3.52835
# Velocity P-wave (km/s) = 5.97987 7.43156 6.74488
#
# Compressibility (1/GPa) = 0.02346400
#
# Stress axis : x y z
#
# Youngs Moduli (GPa) = 38.73983 25.51454 116.90215
#
# Poissons Ratio (x) = 0.50423 -0.05486
# Poissons Ratio (y) = 0.76559 0.67279
# Poissons Ratio (z) = -0.01818 0.14684
#
# Static dielectric constant tensor:
#      x y z
#    x 4.248480 0.934330 0.131010 
#    y 0.934330 3.311240 -0.135000 
#    z 0.131010 -0.135000 3.796200 
# 
# 
# High freq. dielectric constant tensor:
#      x y z
#    x 1.695500 0.059240 0.002910 
#    y 0.059240 1.647520 -0.014050 
#    z 0.002910 -0.014050 1.730350 
# 
# From -- ./inp_files/392668.got.cif
#   From: 2010.06.25/outbox.cif.g09.slc.cpg/sg2_197_cif.got.tgz:392668.got - 2010.06.27 13:26:56.
