data_PCOD8002411
_publ_section_title
;
Structure prediction by ZEFSAII (Michael W. Deem and Ramdas Pophale) SiO2 
 PCOD8002411
Probable space group: P -1
;
_chemical_formula_sum "Si O2"
_cell_formula_units_Z 14
_cell_length_a 17.792309
_cell_length_b 7.419581
_cell_length_c 12.418501
_cell_angle_alpha 55.689996
_cell_angle_beta 33.659434
_cell_angle_gamma 40.426181
_cell_volume 577.956377
_symmetry_space_group_name_H-M "P -1"
_symmetry_group_IT_number 2
_symmetry_cell_setting 'triclinic'
loop_
_space_group_symop_operation_xyz
x,y,z
-x,-y,-z
loop_
_atom_site_type_symbol
_atom_site_label
_atom_site_fract_x
_atom_site_fract_y
_atom_site_fract_z
Si Si1 0.242286 0.672533 0.582661
Si Si2 0.636958 0.279849 0.195760
Si Si3 0.311111 0.110756 0.070009
Si Si4 0.858278 0.681741 0.201113
Si Si5 0.969037 0.769278 0.492003
Si Si6 0.163765 0.600824 0.939900
Si Si7 0.658210 0.553752 0.894876
O O1 0.445833 0.534749 0.384745
O O2 0.206121 0.486660 0.619781
O O3 0.199681 0.662796 0.759788
O O4 0.124303 0.987543 0.570109
O O5 0.793747 0.258741 0.070995
O O6 0.685736 0.978251 0.258934
O O7 0.635857 0.341212 0.050265
O O8 0.149216 0.117513 0.296736
O O9 0.329494 0.271118 0.088124
O O10 0.278034 0.266110 0.943648
O O11 0.485197 0.785661 0.953280
O O12 0.000000 0.500000 0.000000
O O13 0.958835 0.730524 0.153153
O O14 0.000000 0.500000 0.500000
O O15 0.168106 0.648454 0.319183
#
# Coordination Sequence:
#
# PCOD8002411 Si02
#       7
#     2   2   2   2   2   2   2
#     4  11  22  40  61  92 126 161 202 252 313 371
#     4  11  20  37  65  93 119 160 211 256 298 363
#     4   9  18  35  54  87 119 153 200 254 298 351
#     4  10  22  39  59  85 126 165 201 247 316 370
#     4  10  20  35  61  88 117 163 207 246 301 372
#     4  10  22  38  62  92 124 155 208 260 300 357
#     4   9  17  32  58  83 120 156 199 248 304 352
#
# _framework density 24.223282999999999
#
# number of rings (size 3 to 8) (size 9 to 14) (size 15 to 20)
#    0.000    2.000    1.429    3.000    2.000    2.286 
#    2.571    0.714    0.000    4.286    0.000    0.000 
#    0.000    0.000    0.000    0.000    0.000    0.000 
#
# Total GULP energy -173469.078608 kJ/mol
# GULP energy per Si atom -12390.648472 kJ/mol
# Density = 2.416815 g / cm^3
# Si number density = 24.223283 Si / 1000 Ang^3
#
#
#
# Elastic Constant Matrix: (Units=GPa)
#
#
# Indices 1 2 3 4 5 6 
#
# 1 33.0591 23.7073 23.0098 -4.3418 -7.9713 -11.3913
# 2 23.7073 220.5902 70.5495 -11.5063 -0.7332 -37.6360
# 3 23.0098 70.5495 107.3299 -9.6370 -2.7263 -18.5843
# 4 -4.3418 -11.5063 -9.6370 49.4272 -7.8354 -2.1594
# 5 -7.9713 -0.7332 -2.7263 -7.8354 24.9547 -6.2652
# 6 -11.3913 -37.6360 -18.5843 -2.1594 -6.2652 25.3913
#
#
#
# Elastic Compliance Matrix: (Units=1/GPa)
#
#
# Indices 1 2 3 4 5 6 
#
# 1 0.049598 0.001701 -0.005535 0.008845 0.025006 0.027643
# 2 0.001701 0.007215 -0.003010 0.002290 0.003750 0.010375
# 3 -0.005535 -0.003010 0.013183 0.001655 0.000872 0.003060
# 4 0.008845 0.002290 0.001655 0.024774 0.014427 0.014241
# 5 0.025006 0.003750 0.000872 0.014427 0.061272 0.033760
# 6 0.027643 0.010375 0.003060 0.014241 0.033760 0.078943
#
#
# Mechanical properties :
#
#
# Convention : Reuss Voigt Hill
#
# Bulk Modulus (GPa) = 17.75979 66.16805 41.96392
# Shear Modulus (GPa) = 18.69562 36.20214 27.44888
#
# Velocity S-wave (km/s) = 2.78115 3.87009 3.36990
# Velocity P-wave (km/s) = 4.20246 6.88080 5.70114
#
# Compressibility (1/GPa) = 0.05630697
#
# Stress axis : x y z
#
# Youngs Moduli (GPa) = 20.16215 138.59741 75.85657
#
# Poissons Ratio (x) = -0.23570 0.41987
# Poissons Ratio (y) = -0.03429 0.22833
# Poissons Ratio (z) = 0.11160 0.41718
#
# Static dielectric constant tensor:
#      x y z
#    x 4.460450 -0.295640 -0.704370 
#    y -0.295640 4.680650 -0.088420 
#    z -0.704370 -0.088420 4.979300 
# 
# 
# High freq. dielectric constant tensor:
#      x y z
#    x 1.921560 -0.016750 -0.022890 
#    y -0.016750 1.984890 -0.011970 
#    z -0.022890 -0.011970 1.961850 
# 
# From -- ./inp_files/195286.got.cif
#   From: 2010.06.25/outbox.cif.g09.slc.cpg/sg2_98_cif.got.tgz:195286.got - 2010.06.27 13:26:56.
