data_PCOD8002592
_publ_section_title
;
Structure prediction by ZEFSAII (Michael W. Deem and Ramdas Pophale) SiO2 
 PCOD8002592
Probable space group: P -1
;
_chemical_formula_sum "Si O2"
_cell_formula_units_Z 16
_cell_length_a 14.569712
_cell_length_b 14.100841
_cell_length_c 11.431009
_cell_angle_alpha 31.982967
_cell_angle_beta 52.167781
_cell_angle_gamma 37.575192
_cell_volume 745.811889
_symmetry_space_group_name_H-M "P -1"
_symmetry_group_IT_number 2
_symmetry_cell_setting 'triclinic'
loop_
_space_group_symop_operation_xyz
x,y,z
-x,-y,-z
loop_
_atom_site_type_symbol
_atom_site_label
_atom_site_fract_x
_atom_site_fract_y
_atom_site_fract_z
Si Si1 0.559106 0.685545 0.222594
Si Si2 0.491101 0.099035 0.722062
Si Si3 0.912792 0.218502 0.126098
Si Si4 0.245134 0.841873 0.351248
Si Si5 0.021918 0.773080 0.181435
Si Si6 0.978360 0.503450 0.876038
Si Si7 0.168841 0.325677 0.684569
Si Si8 0.769098 0.018010 0.532488
O O1 0.572614 0.715964 0.316868
O O2 0.385520 0.787753 0.223750
O O3 0.692171 0.408482 0.382544
O O4 0.592259 0.829917 0.970705
O O5 0.348972 0.165824 0.691565
O O6 0.597645 0.117487 0.538700
O O7 0.789133 0.194209 0.281106
O O8 0.880632 0.420932 0.021477
O O9 0.090520 0.970192 0.261979
O O10 0.873948 0.316744 0.921681
O O11 0.200410 0.012570 0.318396
O O12 0.873270 0.808374 0.217813
O O13 0.095869 0.583602 0.425101
O O14 0.000000 0.000000 0.000000
O O15 0.124328 0.343540 0.839331
O O16 0.884340 0.772929 0.629554
O O17 0.000000 0.500000 0.000000
#
# Coordination Sequence:
#
# PCOD8002592 Si02
#       8
#     2   2   2   2   2   2   2   2
#     4   9  20  34  58  84 130 167 206 248 304 376
#     4  10  22  38  58  87 128 168 203 248 314 370
#     4  11  23  39  62  92 129 163 212 254 310 365
#     4  10  20  36  55  94 126 166 207 251 305 379
#     4  10  22  42  68  91 116 161 218 269 298 346
#     4  11  23  37  64  92 129 164 197 254 320 368
#     4  10  23  43  66  94 121 159 217 256 302 370
#     4  11  24  36  55  96 132 165 199 245 316 387
#
# _framework density 21.453130000000002
#
# number of rings (size 3 to 8) (size 9 to 14) (size 15 to 20)
#    0.000    1.750    1.250    2.625    8.750    0.000 
#    2.250    0.625    0.000   10.500    0.000    0.000 
#    0.000    0.000    0.000    0.000    0.000    0.000 
#
# Total GULP energy -198271.123937 kJ/mol
# GULP energy per Si atom -12391.945246 kJ/mol
# Density = 2.140430 g / cm^3
# Si number density = 21.453130 Si / 1000 Ang^3
#
#
#
# Elastic Constant Matrix: (Units=GPa)
#
#
# Indices 1 2 3 4 5 6 
#
# 1 91.7925 34.7903 51.1195 8.9038 -21.8660 3.9215
# 2 34.7903 61.4281 27.6826 -2.3674 -11.7007 4.9697
# 3 51.1195 27.6826 109.1877 14.8724 -34.2017 4.1105
# 4 8.9038 -2.3674 14.8724 38.8696 6.0011 -14.1773
# 5 -21.8660 -11.7007 -34.2017 6.0011 42.1894 1.1502
# 6 3.9215 4.9697 4.1105 -14.1773 1.1502 30.2310
#
#
#
# Elastic Compliance Matrix: (Units=1/GPa)
#
#
# Indices 1 2 3 4 5 6 
#
# 1 0.017613 -0.007130 -0.004370 -0.004479 0.004322 -0.002784
# 2 -0.007130 0.021686 -0.002873 0.004016 -0.000572 -0.000344
# 3 -0.004370 -0.002873 0.017633 -0.010357 0.012889 -0.006706
# 4 -0.004479 0.004016 -0.010357 0.041190 -0.016042 0.021256
# 5 0.004322 -0.000572 0.012889 -0.016042 0.038820 -0.011219
# 6 -0.002784 -0.000344 -0.006706 0.021256 -0.011219 0.044803
#
#
# Mechanical properties :
#
#
# Convention : Reuss Voigt Hill
#
# Bulk Modulus (GPa) = 35.47868 54.39922 44.93895
# Shear Modulus (GPa) = 22.73889 32.17908 27.45899
#
# Velocity S-wave (km/s) = 3.25919 3.87715 3.58152
# Velocity P-wave (km/s) = 5.54408 6.74206 6.17220
#
# Compressibility (1/GPa) = 0.02818594
#
# Stress axis : x y z
#
# Youngs Moduli (GPa) = 56.77647 46.11292 56.71091
#
# Poissons Ratio (x) = 0.32880 0.24780
# Poissons Ratio (y) = 0.40483 0.16294
# Poissons Ratio (z) = 0.24809 0.13249
#
# Static dielectric constant tensor:
#      x y z
#    x 3.928510 0.094000 -0.374880 
#    y 0.094000 3.716110 -0.044100 
#    z -0.374880 -0.044100 4.052900 
# 
# 
# High freq. dielectric constant tensor:
#      x y z
#    x 1.825430 0.002770 -0.034970 
#    y 0.002770 1.819980 -0.003000 
#    z -0.034970 -0.003000 1.851430 
# 
# From -- ./inp_files/454337.got.cif
#   From: 2010.06.25/outbox.cif.g09.slc.cpg/sg2_228_cif.got.tgz:454337.got - 2010.06.27 13:26:56.
