data_PCOD8002936
_publ_section_title
;
Structure prediction by ZEFSAII (Michael W. Deem and Ramdas Pophale) SiO2 
 PCOD8002936
Probable space group: P -1
;
_chemical_formula_sum "Si O2"
_cell_formula_units_Z 16
_cell_length_a 13.813739
_cell_length_b 14.072828
_cell_length_c 10.901028
_cell_angle_alpha 44.844116
_cell_angle_beta 32.202945
_cell_angle_gamma 46.629806
_cell_volume 774.872539
_symmetry_space_group_name_H-M "P -1"
_symmetry_group_IT_number 2
_symmetry_cell_setting 'triclinic'
loop_
_space_group_symop_operation_xyz
x,y,z
-x,-y,-z
loop_
_atom_site_type_symbol
_atom_site_label
_atom_site_fract_x
_atom_site_fract_y
_atom_site_fract_z
Si Si1 0.846898 0.952978 0.364525
Si Si2 0.933780 0.716717 0.680658
Si Si3 0.551218 0.554189 0.766315
Si Si4 0.527953 0.834641 0.439102
Si Si5 0.978663 0.531865 0.351809
Si Si6 0.654684 0.395056 0.576512
Si Si7 0.080389 0.163378 0.871154
Si Si8 0.629073 0.681794 0.220644
O O1 0.872509 0.858959 0.542849
O O2 0.918450 0.860241 0.254330
O O3 0.629963 0.025195 0.514476
O O4 0.968331 0.066849 0.150054
O O5 0.899050 0.590624 0.748279
O O6 0.148284 0.700391 0.505464
O O7 0.803990 0.724605 0.930852
O O8 0.451132 0.715522 0.705030
O O9 0.767201 0.549175 0.524583
O O10 0.515800 0.452829 0.788026
O O11 0.500000 0.500000 0.000000
O O12 0.709468 0.868657 0.275043
O O13 0.568679 0.787478 0.299250
O O14 0.031829 0.677345 0.131592
O O15 0.000000 0.500000 0.500000
O O16 0.695248 0.523653 0.338803
O O17 0.547441 0.302202 0.696013
#
# Coordination Sequence:
#
# PCOD8002936 Si02
#       8
#     2   2   2   2   2   2   2   2
#     4  11  24  39  63  91 123 166 195 244 318 365
#     4  11  23  39  64  93 120 157 206 251 300 363
#     4   9  20  33  59  91 119 155 197 253 305 352
#     4  10  23  41  58  87 123 164 206 243 301 366
#     4  10  20  36  60  91 118 149 199 248 300 354
#     4   9  21  39  59  91 123 156 204 256 304 355
#     4  10  23  42  61  88 128 159 196 252 308 364
#     4  10  22  40  63  86 122 165 205 252 303 348
#
# _framework density 20.648555999999999
#
# number of rings (size 3 to 8) (size 9 to 14) (size 15 to 20)
#    0.000    2.000    1.250    1.500    3.500    5.500 
#    0.000    1.250    0.000    0.000    0.000    0.000 
#    0.000    0.000    0.000    0.000    0.000    0.000 
#
# Total GULP energy -198422.242442 kJ/mol
# GULP energy per Si atom -12401.390153 kJ/mol
# Density = 2.060156 g / cm^3
# Si number density = 20.648556 Si / 1000 Ang^3
#
#
#
# Elastic Constant Matrix: (Units=GPa)
#
#
# Indices 1 2 3 4 5 6 
#
# 1 92.0704 19.0176 28.9598 -11.5254 4.2841 -4.8711
# 2 19.0176 88.1011 34.4223 -18.1182 7.0941 -13.8685
# 3 28.9598 34.4223 98.7840 -14.4109 15.8817 0.4771
# 4 -11.5254 -18.1182 -14.4109 21.6071 -0.6587 1.2849
# 5 4.2841 7.0941 15.8817 -0.6587 39.2020 0.5221
# 6 -4.8711 -13.8685 0.4771 1.2849 0.5221 37.7895
#
#
#
# Elastic Compliance Matrix: (Units=1/GPa)
#
#
# Indices 1 2 3 4 5 6 
#
# 1 0.012467 -0.000485 -0.002862 0.004254 -0.000061 0.001321
# 2 -0.000485 0.016011 -0.003767 0.010289 -0.001219 0.005528
# 3 -0.002862 -0.003767 0.013638 0.004395 -0.004430 -0.002012
# 4 0.004254 0.010289 0.004395 0.059878 -0.003132 0.002276
# 5 -0.000061 -0.001219 -0.004430 -0.003132 0.027487 -0.000673
# 6 0.001321 0.005528 -0.002012 0.002276 -0.000673 0.028619
#
#
# Mechanical properties :
#
#
# Convention : Reuss Voigt Hill
#
# Bulk Modulus (GPa) = 35.85689 49.30608 42.58148
# Shear Modulus (GPa) = 27.52941 32.82344 30.17643
#
# Velocity S-wave (km/s) = 3.65531 3.99133 3.82701
# Velocity P-wave (km/s) = 5.93448 6.72098 6.33994
#
# Compressibility (1/GPa) = 0.02788864
#
# Stress axis : x y z
#
# Youngs Moduli (GPa) = 80.21257 62.45547 73.32601
#
# Poissons Ratio (x) = 0.03031 0.20983
# Poissons Ratio (y) = 0.03892 0.27620
# Poissons Ratio (z) = 0.22954 0.23526
#
# Static dielectric constant tensor:
#      x y z
#    x 3.872850 0.073460 -0.055700 
#    y 0.073460 3.747020 -0.079290 
#    z -0.055700 -0.079290 3.563370 
# 
# 
# High freq. dielectric constant tensor:
#      x y z
#    x 1.822420 -0.001880 -0.000490 
#    y -0.001880 1.800100 -0.000740 
#    z -0.000490 -0.000740 1.798170 
# 
# From -- ./inp_files/454458.got.cif
#   From: 2010.06.25/outbox.cif.g09.slc.cpg/sg2_228_cif.got.tgz:454458.got - 2010.06.27 13:26:56.
