data_PCOD8002123
_publ_section_title
;
Structure prediction by ZEFSAII (Michael W. Deem and Ramdas Pophale) SiO2 
 PCOD8002123
Probable space group: P -1
;
_chemical_formula_sum "Si O2"
_cell_formula_units_Z 16
_cell_length_a 15.769018
_cell_length_b 14.133521
_cell_length_c 12.691785
_cell_angle_alpha 152.655144
_cell_angle_beta 37.707517
_cell_angle_gamma 135.522675
_cell_volume 794.119301
_symmetry_space_group_name_H-M "P -1"
_symmetry_group_IT_number 2
_symmetry_cell_setting 'triclinic'
loop_
_space_group_symop_operation_xyz
x,y,z
-x,-y,-z
loop_
_atom_site_type_symbol
_atom_site_label
_atom_site_fract_x
_atom_site_fract_y
_atom_site_fract_z
Si Si1 0.035270 0.145123 0.207382
Si Si2 0.319206 0.366614 0.101045
Si Si3 0.920572 0.804737 0.432848
Si Si4 0.799252 0.427898 0.779407
Si Si5 0.935316 0.572479 0.992124
Si Si6 0.370573 0.808547 0.564077
Si Si7 0.410306 0.882905 0.372953
Si Si8 0.858383 0.081030 0.940218
O O1 0.193086 0.233764 0.143360
O O2 0.935883 0.338215 0.502305
O O3 0.021122 0.003990 0.186061
O O4 0.000000 0.000000 0.000000
O O5 0.276232 0.426278 0.084090
O O6 0.355821 0.563424 0.333111
O O7 0.459719 0.245828 0.842108
O O8 0.024627 0.658514 0.247748
O O9 0.816887 0.905080 0.718813
O O10 0.000000 0.000000 0.500000
O O11 0.852700 0.672999 0.271734
O O12 0.690933 0.237827 0.728825
O O13 0.834769 0.562104 0.980122
O O14 0.076735 0.708270 0.965254
O O15 0.323637 0.903896 0.589760
O O16 0.528944 0.901489 0.522146
O O17 0.278891 0.881080 0.822135
#
# Coordination Sequence:
#
# PCOD8002123 Si02
#       8
#     2   2   2   2   2   2   2   2
#     4  12  22  33  53  87 124 152 189 242 281 335
#     4  11  22  39  54  79 121 164 198 227 278 342
#     4   9  20  38  59  85 115 146 184 244 308 351
#     4  11  21  35  56  85 115 154 195 241 287 333
#     4  10  20  38  58  86 117 144 193 246 294 349
#     4  10  20  35  56  76 111 160 199 227 266 344
#     4  10  22  39  54  79 122 163 202 226 275 338
#     4  11  20  35  57  86 115 155 189 233 294 338
#
# _framework density 20.148105999999999
#
# number of rings (size 3 to 8) (size 9 to 14) (size 15 to 20)
#    0.000    1.500    2.500    4.875    1.750    0.000 
#    2.250    0.000    0.000    0.750    0.000   11.375 
#    0.000    0.000    0.000    0.000    0.000    0.000 
#
# Total GULP energy -198216.877219 kJ/mol
# GULP energy per Si atom -12388.554826 kJ/mol
# Density = 2.010225 g / cm^3
# Si number density = 20.148106 Si / 1000 Ang^3
#
#
#
# Elastic Constant Matrix: (Units=GPa)
#
#
# Indices 1 2 3 4 5 6 
#
# 1 69.6521 26.5680 48.5763 -3.2078 20.2392 6.4255
# 2 26.5680 100.9222 36.6968 7.4032 10.4518 6.8155
# 3 48.5763 36.6968 119.0310 -1.7905 31.2542 1.5480
# 4 -3.2078 7.4032 -1.7905 30.1836 0.9143 -0.4077
# 5 20.2392 10.4518 31.2542 0.9143 36.7250 7.0752
# 6 6.4255 6.8155 1.5480 -0.4077 7.0752 29.3314
#
#
#
# Elastic Compliance Matrix: (Units=1/GPa)
#
#
# Indices 1 2 3 4 5 6 
#
# 1 0.021947 -0.002861 -0.006628 0.002766 -0.005229 -0.002494
# 2 -0.002861 0.011993 -0.002846 -0.003480 0.001121 -0.002329
# 3 -0.006628 -0.002846 0.014117 0.001126 -0.008229 0.003369
# 4 0.002766 -0.003480 0.001126 0.034440 -0.002590 0.001247
# 5 -0.005229 0.001121 -0.008229 -0.002590 0.038397 -0.007978
# 6 -0.002494 -0.002329 0.003369 0.001247 -0.007978 0.036945
#
#
# Mechanical properties :
#
#
# Convention : Reuss Voigt Hill
#
# Bulk Modulus (GPa) = 42.75666 57.03194 49.89430
# Shear Modulus (GPa) = 26.27371 31.09895 28.68633
#
# Velocity S-wave (km/s) = 3.61505 3.93302 3.77739
# Velocity P-wave (km/s) = 6.22029 6.99948 6.62136
#
# Compressibility (1/GPa) = 0.02338817
#
# Stress axis : x y z
#
# Youngs Moduli (GPa) = 45.56362 83.38108 70.83583
#
# Poissons Ratio (x) = 0.23853 0.46948
# Poissons Ratio (y) = 0.13034 0.20163
# Poissons Ratio (z) = 0.30198 0.23733
#
# Static dielectric constant tensor:
#      x y z
#    x 3.549210 0.066700 0.351330 
#    y 0.066700 4.044180 0.231510 
#    z 0.351330 0.231510 4.030380 
# 
# 
# High freq. dielectric constant tensor:
#      x y z
#    x 1.746210 0.001990 0.017740 
#    y 0.001990 1.792350 0.023520 
#    z 0.017740 0.023520 1.799910 
# 
# From -- ./inp_files/455985.got.cif
#   From: 2010.06.25/outbox.cif.g09.slc.cpg/sg2_228_cif.got.tgz:455985.got - 2010.06.27 13:26:56.
