data_PCOD8002632
_publ_section_title
;
Structure prediction by ZEFSAII (Michael W. Deem and Ramdas Pophale) SiO2 
 PCOD8002632
Probable space group: P -1
;
_chemical_formula_sum "Si O2"
_cell_formula_units_Z 16
_cell_length_a 14.024727
_cell_length_b 19.704564
_cell_length_c 11.867084
_cell_angle_alpha 30.964859
_cell_angle_beta 148.181359
_cell_angle_gamma 136.767841
_cell_volume 889.616792
_symmetry_space_group_name_H-M "P -1"
_symmetry_group_IT_number 2
_symmetry_cell_setting 'triclinic'
loop_
_space_group_symop_operation_xyz
x,y,z
-x,-y,-z
loop_
_atom_site_type_symbol
_atom_site_label
_atom_site_fract_x
_atom_site_fract_y
_atom_site_fract_z
Si Si1 0.296296 0.109870 0.802828
Si Si2 0.722852 0.099102 0.242272
Si Si3 0.280754 0.648862 0.558437
Si Si4 0.998287 0.809124 0.181385
Si Si5 0.704327 0.818585 0.538845
Si Si6 0.987144 0.889275 0.304004
Si Si7 0.295856 0.346035 0.021097
Si Si8 0.717532 0.170573 0.895842
O O1 0.238509 0.199971 0.508052
O O2 0.190717 0.158431 0.738286
O O3 0.510454 0.113594 0.036817
O O4 0.216442 0.964258 0.903886
O O5 0.833438 0.146999 0.393432
O O6 0.786416 0.949495 0.492143
O O7 0.783461 0.185602 0.070113
O O8 0.167189 0.720599 0.438471
O O9 0.233272 0.495141 0.727522
O O10 0.222445 0.705529 0.296421
O O11 0.491569 0.673999 0.760046
O O12 0.993915 0.803902 0.319269
O O13 0.809364 0.749405 0.033251
O O14 0.024350 0.956404 0.954243
O O15 0.494357 0.846393 0.286220
O O16 0.754250 0.692258 0.845163
#
# Coordination Sequence:
#
# PCOD8002632 Si02
#       8
#     2   2   2   2   2   2   2   2
#     4   9  17  31  50  74 105 130 162 214 253 295
#     4   9  17  31  50  74 105 130 162 214 253 295
#     4  10  20  36  57  76 100 134 169 211 257 294
#     4  11  23  35  47  76 110 133 174 207 235 310
#     4   8  15  29  51  78 100 124 167 214 255 293
#     4  11  22  32  50  75 105 146 166 191 258 310
#     4  10  20  36  57  76 100 134 169 211 257 294
#     4   8  15  29  51  78 100 124 167 214 255 293
#
# _framework density 17.985271999999998
#
# number of rings (size 3 to 8) (size 9 to 14) (size 15 to 20)
#    0.000    2.500    2.500    1.875    0.000    4.000 
#    0.000    2.500    0.000    3.000    0.000    7.000 
#    0.000    0.000    0.000    0.000    0.000    0.000 
#
# Total GULP energy -198295.868965 kJ/mol
# GULP energy per Si atom -12393.491810 kJ/mol
# Density = 1.794434 g / cm^3
# Si number density = 17.985272 Si / 1000 Ang^3
#
#
#
# Elastic Constant Matrix: (Units=GPa)
#
#
# Indices 1 2 3 4 5 6 
#
# 1 139.2693 34.1506 44.9314 5.4709 -16.6779 -3.1993
# 2 34.1506 30.1610 13.7985 1.0517 -2.1543 -0.5024
# 3 44.9314 13.7985 56.8842 0.0917 -18.5046 4.0634
# 4 5.4709 1.0517 0.0917 30.1927 5.5220 -6.2946
# 5 -16.6779 -2.1543 -18.5046 5.5220 31.7249 3.9698
# 6 -3.1993 -0.5024 4.0634 -6.2946 3.9698 19.9818
#
#
#
# Elastic Compliance Matrix: (Units=1/GPa)
#
#
# Indices 1 2 3 4 5 6 
#
# 1 0.012275 -0.010624 -0.006655 -0.001735 0.001885 0.002131
# 2 -0.010624 0.047086 -0.005155 0.001884 -0.006012 0.002319
# 3 -0.006655 -0.005155 0.030100 -0.004061 0.015886 -0.011752
# 4 -0.001735 0.001884 -0.004061 0.038689 -0.011779 0.015123
# 5 0.001885 -0.006012 0.015886 -0.011779 0.045398 -0.015810
# 6 0.002131 0.002319 -0.011752 0.015123 -0.015810 0.060740
#
#
# Mechanical properties :
#
#
# Convention : Reuss Voigt Hill
#
# Bulk Modulus (GPa) = 22.42423 45.78619 34.10521
# Shear Modulus (GPa) = 17.00558 25.27548 21.14053
#
# Velocity S-wave (km/s) = 3.07828 3.75286 3.43218
# Velocity P-wave (km/s) = 5.01294 6.65518 5.89156
#
# Compressibility (1/GPa) = 0.04459463
#
# Stress axis : x y z
#
# Youngs Moduli (GPa) = 81.46394 21.23761 33.22223
#
# Poissons Ratio (x) = 0.22562 0.22110
# Poissons Ratio (y) = 0.86546 0.17125
# Poissons Ratio (z) = 0.54215 0.10947
#
# Static dielectric constant tensor:
#      x y z
#    x 3.449080 0.175360 -0.301310 
#    y 0.175360 3.028070 0.057810 
#    z -0.301310 0.057810 3.456160 
# 
# 
# High freq. dielectric constant tensor:
#      x y z
#    x 1.697850 0.023830 -0.014520 
#    y 0.023830 1.658660 0.017960 
#    z -0.014520 0.017960 1.698630 
# 
# From -- ./inp_files/277925.got.cif
#   From: 2010.06.25/outbox.cif.g09.slc.cpg/sg2_139_cif.got.tgz:277925.got - 2010.06.27 13:26:56.
