data_PCOD8002902
_publ_section_title
;
Structure prediction by ZEFSAII (Michael W. Deem and Ramdas Pophale) SiO2 
 PCOD8002902
Probable space group: P -1
;
_chemical_formula_sum "Si O2"
_cell_formula_units_Z 14
_cell_length_a 16.563389
_cell_length_b 10.991259
_cell_length_c 11.637315
_cell_angle_alpha 67.331073
_cell_angle_beta 31.509065
_cell_angle_gamma 46.587658
_cell_volume 683.011287
_symmetry_space_group_name_H-M "P -1"
_symmetry_group_IT_number 2
_symmetry_cell_setting 'triclinic'
loop_
_space_group_symop_operation_xyz
x,y,z
-x,-y,-z
loop_
_atom_site_type_symbol
_atom_site_label
_atom_site_fract_x
_atom_site_fract_y
_atom_site_fract_z
Si Si1 0.242758 0.436121 0.357322
Si Si2 0.761804 0.719590 0.936107
Si Si3 0.989311 0.653027 0.912247
Si Si4 0.530577 0.610563 0.680761
Si Si5 0.222612 0.555977 0.094426
Si Si6 0.323907 0.999470 0.680357
Si Si7 0.287277 0.101707 0.434205
O O1 0.407439 0.412760 0.251510
O O2 0.316153 0.422936 0.143620
O O3 0.293296 0.253441 0.395600
O O4 0.965992 0.642730 0.631772
O O5 0.774318 0.551758 0.974834
O O6 0.807862 0.755653 0.990862
O O7 0.496144 0.931842 0.154015
O O8 0.233211 0.553979 0.614013
O O9 0.000000 0.500000 0.000000
O O10 0.916971 0.801732 0.044037
O O11 0.386397 0.820790 0.724980
O O12 0.385971 0.570492 0.854653
O O13 0.965131 0.774089 0.354908
O O14 0.310868 0.000099 0.558602
O O15 0.500000 0.000000 0.500000
#
# Coordination Sequence:
#
# PCOD8002902 Si02
#       7
#     2   2   2   2   2   2   2
#     4  10  21  40  62  83 112 159 203 231 274 344
#     4  10  20  36  60  87 113 152 195 238 284 336
#     4  11  19  36  63  86 109 150 202 236 275 345
#     4  11  23  39  60  87 119 152 191 239 290 344
#     4  11  25  38  55  88 126 153 183 239 299 340
#     4  12  20  38  65  87 110 149 198 241 281 338
#     4  11  21  39  63  88 115 150 198 240 283 341
#
# _framework density 20.497464000000001
#
# number of rings (size 3 to 8) (size 9 to 14) (size 15 to 20)
#    0.000    1.143    4.286    3.857    0.000    4.000 
#    0.000    5.000    0.000    6.857    0.000    0.000 
#    0.000    0.000    0.000    0.000    0.000    0.000 
#
# Total GULP energy -173517.876700 kJ/mol
# GULP energy per Si atom -12394.134050 kJ/mol
# Density = 2.045081 g / cm^3
# Si number density = 20.497464 Si / 1000 Ang^3
#
#
#
# Elastic Constant Matrix: (Units=GPa)
#
#
# Indices 1 2 3 4 5 6 
#
# 1 43.8449 30.0489 29.0096 -7.5242 -4.1514 5.1280
# 2 30.0489 77.7407 50.6708 3.0698 1.7645 -3.2821
# 3 29.0096 50.6708 92.4264 10.1973 -1.7619 4.7605
# 4 -7.5242 3.0698 10.1973 41.7226 4.1618 0.5184
# 5 -4.1514 1.7645 -1.7619 4.1618 34.2352 -4.3942
# 6 5.1280 -3.2821 4.7605 0.5184 -4.3942 26.6546
#
#
#
# Elastic Compliance Matrix: (Units=1/GPa)
#
#
# Indices 1 2 3 4 5 6 
#
# 1 0.037019 -0.011025 -0.006127 0.008798 0.002761 -0.007101
# 2 -0.011025 0.023960 -0.009919 -0.001199 -0.002100 0.006520
# 3 -0.006127 -0.009919 0.018919 -0.005055 0.000950 -0.003167
# 4 0.008798 -0.001199 -0.005055 0.027169 -0.002679 -0.001907
# 5 0.002761 -0.002100 0.000950 -0.002679 0.030557 0.004130
# 6 -0.007101 0.006520 -0.003167 -0.001907 0.004130 0.040970
#
#
# Mechanical properties :
#
#
# Convention : Reuss Voigt Hill
#
# Bulk Modulus (GPa) = 38.82524 48.16341 43.49433
# Shear Modulus (GPa) = 20.71919 27.47466 24.09692
#
# Velocity S-wave (km/s) = 3.18278 3.66511 3.43243
# Velocity P-wave (km/s) = 5.69995 6.43886 6.08064
#
# Compressibility (1/GPa) = 0.02575644
#
# Stress axis : x y z
#
# Youngs Moduli (GPa) = 27.01285 41.73601 52.85664
#
# Poissons Ratio (x) = 0.46016 0.32385
# Poissons Ratio (y) = 0.29783 0.52427
# Poissons Ratio (z) = 0.16551 0.41397
#
# Static dielectric constant tensor:
#      x y z
#    x 3.859280 -0.052330 0.202860 
#    y -0.052330 3.636770 0.262630 
#    z 0.202860 0.262630 4.004650 
# 
# 
# High freq. dielectric constant tensor:
#      x y z
#    x 1.789930 -0.012450 0.005050 
#    y -0.012450 1.790540 0.011810 
#    z 0.005050 0.011810 1.809530 
# 
# From -- ./inp_files/216085.got.cif
#   From: 2010.06.25/outbox.cif.g09.slc.cpg/sg2_109_cif.got.tgz:216085.got - 2010.06.27 13:26:56.
