data_PCOD8002771
_publ_section_title
;
Structure prediction by ZEFSAII (Michael W. Deem and Ramdas Pophale) SiO2 
 PCOD8002771
Probable space group: P -1
;
_chemical_formula_sum "Si O2"
_cell_formula_units_Z 14
_cell_length_a 12.267027
_cell_length_b 14.097957
_cell_length_c 21.439700
_cell_angle_alpha 150.891658
_cell_angle_beta 160.013972
_cell_angle_gamma 37.534351
_cell_volume 607.622488
_symmetry_space_group_name_H-M "P -1"
_symmetry_group_IT_number 2
_symmetry_cell_setting 'triclinic'
loop_
_space_group_symop_operation_xyz
x,y,z
-x,-y,-z
loop_
_atom_site_type_symbol
_atom_site_label
_atom_site_fract_x
_atom_site_fract_y
_atom_site_fract_z
Si Si1 0.110612 0.319651 0.864958
Si Si2 0.715015 0.174470 0.253106
Si Si3 0.580513 0.333701 0.495541
Si Si4 0.813009 0.878979 0.734896
Si Si5 0.432444 0.986707 0.789323
Si Si6 0.661090 0.537314 0.363660
Si Si7 0.318729 0.004093 0.470689
O O1 0.286208 0.184855 0.835275
O O2 0.861184 0.416846 0.743830
O O3 0.932225 0.194219 0.755224
O O4 0.374773 0.500284 0.136951
O O5 0.582433 0.373199 0.280633
O O6 0.659714 0.159534 0.287517
O O7 0.099444 0.177717 0.446603
O O8 0.500000 0.000000 0.000000
O O9 0.500000 0.500000 0.500000
O O10 0.258864 0.242510 0.309354
O O11 0.697267 0.146104 0.416262
O O12 0.694694 0.749854 0.535109
O O13 0.585347 0.046671 0.695634
O O14 0.183665 0.964234 0.981873
O O15 0.000000 0.500000 0.500000
O O16 0.500000 0.000000 0.500000
#
# Coordination Sequence:
#
# PCOD8002771 Si02
#       7
#     2   2   2   2   2   2   2
#     4  10  23  41  68  93 126 177 210 259 324 380
#     4  11  20  38  63  93 127 169 212 257 320 383
#     4  11  25  46  63  92 128 169 223 268 316 370
#     4  11  24  40  65  97 130 169 208 270 326 374
#     4  11  21  44  69  87 129 174 216 260 316 390
#     4  12  21  40  65  97 136 161 212 262 326 390
#     4  10  20  36  58  97 131 157 207 252 325 381
#
# _framework density 23.040621999999999
#
# number of rings (size 3 to 8) (size 9 to 14) (size 15 to 20)
#    0.000    1.143    4.286    3.429    0.000    2.286 
#    7.714    0.714    0.000    0.000    0.000    0.000 
#    0.000    0.000    0.000    0.000    0.000    0.000 
#
# Total GULP energy -173456.251368 kJ/mol
# GULP energy per Si atom -12389.732241 kJ/mol
# Density = 2.298818 g / cm^3
# Si number density = 23.040622 Si / 1000 Ang^3
#
#
#
# Elastic Constant Matrix: (Units=GPa)
#
#
# Indices 1 2 3 4 5 6 
#
# 1 117.9565 13.8349 33.8864 -15.5463 3.2864 -10.4214
# 2 13.8349 78.3087 15.4746 -24.5199 -7.8782 13.8179
# 3 33.8864 15.4746 95.4768 -24.8050 -0.9899 -4.4872
# 4 -15.5463 -24.5199 -24.8050 37.2683 -12.2851 -7.2713
# 5 3.2864 -7.8782 -0.9899 -12.2851 34.9761 -8.8105
# 6 -10.4214 13.8179 -4.4872 -7.2713 -8.8105 28.8282
#
#
#
# Elastic Compliance Matrix: (Units=1/GPa)
#
#
# Indices 1 2 3 4 5 6 
#
# 1 0.010114 -0.001038 -0.002293 0.003386 0.001205 0.005019
# 2 -0.001038 0.018876 0.001267 0.015337 0.009125 -0.002569
# 3 -0.002293 0.001267 0.014986 0.013549 0.007335 0.006555
# 4 0.003386 0.015337 0.013549 0.061386 0.030302 0.020726
# 5 0.001205 0.009125 0.007335 0.030302 0.046159 0.018954
# 6 0.005019 -0.002569 0.006555 0.020726 0.018954 0.049775
#
#
# Mechanical properties :
#
#
# Convention : Reuss Voigt Hill
#
# Bulk Modulus (GPa) = 25.09457 46.45931 35.77694
# Shear Modulus (GPa) = 22.86158 35.45092 29.15625
#
# Velocity S-wave (km/s) = 3.15338 3.92679 3.56114
# Velocity P-wave (km/s) = 4.91666 6.38494 5.69829
#
# Compressibility (1/GPa) = 0.03984926
#
# Stress axis : x y z
#
# Youngs Moduli (GPa) = 98.86827 52.97634 66.72684
#
# Poissons Ratio (x) = 0.05498 0.15304
# Poissons Ratio (y) = 0.10261 -0.08457
# Poissons Ratio (z) = 0.22675 -0.06714
#
# Static dielectric constant tensor:
#      x y z
#    x 4.727290 0.752180 0.026530 
#    y 0.752180 8.805110 -0.763250 
#    z 0.026530 -0.763250 4.155230 
# 
# 
# High freq. dielectric constant tensor:
#      x y z
#    x 1.923560 0.003360 0.012890 
#    y 0.003360 1.912520 -0.024110 
#    z 0.012890 -0.024110 1.898560 
# 
# From -- ./inp_files/240935.got.cif
#   From: 2010.06.25/outbox.cif.g09.slc.cpg/sg2_121_cif.got.tgz:240935.got - 2010.06.27 13:26:56.
