data_PCOD8002640
_publ_section_title
;
Structure prediction by ZEFSAII (Michael W. Deem and Ramdas Pophale) SiO2 
 PCOD8002640
Probable space group: P -1
;
_chemical_formula_sum "Si O2"
_cell_formula_units_Z 16
_cell_length_a 14.617175
_cell_length_b 8.382526
_cell_length_c 14.909863
_cell_angle_alpha 122.634760
_cell_angle_beta 58.812211
_cell_angle_gamma 73.980757
_cell_volume 838.632094
_symmetry_space_group_name_H-M "P -1"
_symmetry_group_IT_number 2
_symmetry_cell_setting 'triclinic'
loop_
_space_group_symop_operation_xyz
x,y,z
-x,-y,-z
loop_
_atom_site_type_symbol
_atom_site_label
_atom_site_fract_x
_atom_site_fract_y
_atom_site_fract_z
Si Si1 0.917395 0.842249 0.732393
Si Si2 0.540820 0.890859 0.732499
Si Si3 0.828523 0.190506 0.384992
Si Si4 0.386164 0.196369 0.532086
Si Si5 0.686642 0.291423 0.308405
Si Si6 0.141414 0.191796 0.615130
Si Si7 0.786682 0.861137 0.633389
Si Si8 0.786310 0.851175 0.978912
O O1 0.802874 0.988377 0.745116
O O2 0.991422 0.951958 0.739792
O O3 0.071895 0.490865 0.537809
O O4 0.804266 0.939594 0.903767
O O5 0.674037 0.544702 0.581329
O O6 0.509864 0.947193 0.657714
O O7 0.607056 0.000746 0.770652
O O8 0.369012 0.081296 0.928824
O O9 0.817812 0.107695 0.268188
O O10 0.809342 0.055638 0.427405
O O11 0.305924 0.512982 0.682817
O O12 0.238669 0.244868 0.615245
O O13 0.500000 0.000000 0.500000
O O14 0.500000 0.500000 0.500000
O O15 0.750604 0.049820 0.134143
O O16 0.191572 0.063891 0.449849
O O17 0.945884 0.506269 0.817358
#
# Coordination Sequence:
#
# PCOD8002640 Si02
#       8
#     2   2   2   2   2   2   2   2
#     4   9  19  35  58  81 108 145 187 227 273 320
#     4   9  19  36  59  80 111 146 186 218 273 338
#     4  10  20  37  56  82 111 152 182 218 274 333
#     4  10  20  36  57  81 108 152 185 216 273 331
#     4  11  20  36  57  79 114 150 180 218 272 336
#     4  10  22  35  57  85 112 140 187 232 268 317
#     4   8  17  38  58  78 109 147 183 225 276 330
#     4  11  21  36  56  85 112 142 184 229 268 322
#
# _framework density 19.078688
#
# number of rings (size 3 to 8) (size 9 to 14) (size 15 to 20)
#    0.000    2.250    2.500    3.000    0.000    3.500 
#    2.250    0.000    0.000    1.500    0.000    0.000 
#    0.000    0.000    0.000    0.000    0.000    0.000 
#
# Total GULP energy -198379.304866 kJ/mol
# GULP energy per Si atom -12398.706554 kJ/mol
# Density = 1.903526 g / cm^3
# Si number density = 19.078688 Si / 1000 Ang^3
#
#
#
# Elastic Constant Matrix: (Units=GPa)
#
#
# Indices 1 2 3 4 5 6 
#
# 1 151.0165 63.8659 54.7239 -21.4878 -10.9819 -13.2558
# 2 63.8659 144.5997 34.5243 -15.6620 -5.7588 -7.8804
# 3 54.7239 34.5243 81.0389 -20.0766 -15.8191 -2.7555
# 4 -21.4878 -15.6620 -20.0766 18.3347 3.5870 -4.0514
# 5 -10.9819 -5.7588 -15.8191 3.5870 28.4634 -9.5546
# 6 -13.2558 -7.8804 -2.7555 -4.0514 -9.5546 29.5950
#
#
#
# Elastic Compliance Matrix: (Units=1/GPa)
#
#
# Indices 1 2 3 4 5 6 
#
# 1 0.010776 -0.002717 -0.003713 0.006972 0.002521 0.005526
# 2 -0.002717 0.008832 -0.000893 0.003685 0.000337 0.001665
# 3 -0.003713 -0.000893 0.021956 0.018232 0.010293 0.005963
# 4 0.006972 0.003685 0.018232 0.088613 0.009444 0.020981
# 5 0.002521 0.000337 0.010293 0.009444 0.046958 0.018631
# 6 0.005526 0.001665 0.005963 0.020981 0.018631 0.046150
#
#
# Mechanical properties :
#
#
# Convention : Reuss Voigt Hill
#
# Bulk Modulus (GPa) = 37.14633 75.87593 56.51113
# Shear Modulus (GPa) = 20.25089 30.18135 25.21612
#
# Velocity S-wave (km/s) = 3.26151 3.98168 3.63945
# Velocity P-wave (km/s) = 5.80479 7.80991 6.88078
#
# Compressibility (1/GPa) = 0.02692056
#
# Stress axis : x y z
#
# Youngs Moduli (GPa) = 92.79580 113.22524 45.54592
#
# Poissons Ratio (x) = 0.30758 0.16909
# Poissons Ratio (y) = 0.25208 0.04066
# Poissons Ratio (z) = 0.34450 0.10108
#
# Static dielectric constant tensor:
#      x y z
#    x 3.980010 -0.101560 -0.094290 
#    y -0.101560 3.550800 -0.202460 
#    z -0.094290 -0.202460 3.325480 
# 
# 
# High freq. dielectric constant tensor:
#      x y z
#    x 1.759800 -0.002310 -0.012250 
#    y -0.002310 1.739810 -0.017320 
#    z -0.012250 -0.017320 1.710350 
# 
# From -- ./inp_files/213625.got.cif
#   From: 2010.06.25/outbox.cif.g09.slc.cpg/sg2_107_cif.got.tgz:213625.got - 2010.06.27 13:26:56.
