data_PCOD8002786
_publ_section_title
;
Structure prediction by ZEFSAII (Michael W. Deem and Ramdas Pophale) SiO2 
 PCOD8002786
Probable space group: P -1
;
_chemical_formula_sum "Si O2"
_cell_formula_units_Z 16
_cell_length_a 9.186094
_cell_length_b 10.990741
_cell_length_c 11.746818
_cell_angle_alpha 124.076281
_cell_angle_beta 110.737113
_cell_angle_gamma 54.972836
_cell_volume 803.495022
_symmetry_space_group_name_H-M "P -1"
_symmetry_group_IT_number 2
_symmetry_cell_setting 'triclinic'
loop_
_space_group_symop_operation_xyz
x,y,z
-x,-y,-z
loop_
_atom_site_type_symbol
_atom_site_label
_atom_site_fract_x
_atom_site_fract_y
_atom_site_fract_z
Si Si1 0.381274 0.518975 0.782426
Si Si2 0.007250 0.853477 0.850150
Si Si3 0.663705 0.502227 0.488674
Si Si4 0.040872 0.876554 0.617410
Si Si5 0.759256 0.491896 0.863967
Si Si6 0.791555 0.601578 0.168805
Si Si7 0.157111 0.357046 0.230064
Si Si8 0.924520 0.838397 0.325384
O O1 0.208975 0.702297 0.837688
O O2 0.385253 0.431320 0.618301
O O3 0.560287 0.529102 0.851140
O O4 0.377711 0.396741 0.816948
O O5 0.947059 0.917577 0.737060
O O6 0.860775 0.807866 0.837172
O O7 0.000000 0.000000 0.000000
O O8 0.500000 0.500000 0.500000
O O9 0.810448 0.311946 0.433028
O O10 0.728166 0.621968 0.627364
O O11 0.916083 0.893648 0.484223
O O12 0.120758 0.002901 0.684294
O O13 0.748633 0.645170 0.864886
O O14 0.881372 0.316142 0.739897
O O15 0.842807 0.494412 0.010333
O O16 0.957263 0.514278 0.256364
O O17 0.769794 0.786348 0.236950
#
# Coordination Sequence:
#
# PCOD8002786 Si02
#       8
#     2   2   2   2   2   2   2   2
#     4  10  22  36  60  86 114 151 193 232 292 330
#     4  10  24  38  57  85 119 149 191 238 285 341
#     4  11  19  38  62  86 116 145 195 244 278 340
#     4  10  21  35  58  83 113 150 185 231 289 334
#     4  11  20  38  60  86 114 151 191 239 285 338
#     4  10  21  34  59  85 114 151 194 236 273 347
#     4  10  20  36  62  85 108 152 196 231 288 334
#     4  10  20  36  59  83 112 147 193 230 282 342
#
# _framework density 19.913004999999998
#
# number of rings (size 3 to 8) (size 9 to 14) (size 15 to 20)
#    0.000    1.750    3.750    1.875    7.000    1.500 
#    0.000    1.875    0.000    2.250    0.000    0.000 
#    0.000    0.000    0.000    0.000    0.000    0.000 
#
# Total GULP energy -198272.812425 kJ/mol
# GULP energy per Si atom -12392.050777 kJ/mol
# Density = 1.986768 g / cm^3
# Si number density = 19.913005 Si / 1000 Ang^3
#
#
#
# Elastic Constant Matrix: (Units=GPa)
#
#
# Indices 1 2 3 4 5 6 
#
# 1 141.7059 24.5690 43.2718 3.5449 8.1366 39.9811
# 2 24.5690 34.4903 19.0684 -1.9918 7.4769 31.9745
# 3 43.2718 19.0684 118.0687 -3.3634 5.0464 23.4258
# 4 3.5449 -1.9918 -3.3634 23.9171 10.3835 1.9484
# 5 8.1366 7.4769 5.0464 10.3835 32.6132 -0.3189
# 6 39.9811 31.9745 23.4258 1.9484 -0.3189 40.5871
#
#
#
# Elastic Compliance Matrix: (Units=1/GPa)
#
#
# Indices 1 2 3 4 5 6 
#
# 1 0.012045 0.018727 -0.001744 0.005575 -0.009057 -0.025950
# 2 0.018727 0.205749 0.001492 0.061532 -0.073472 -0.184929
# 3 -0.001744 0.001492 0.010170 0.003398 -0.002616 -0.005511
# 4 0.005575 0.061532 0.003398 0.068049 -0.038271 -0.059495
# 5 -0.009057 -0.073472 -0.002616 -0.038271 0.063047 0.070646
# 6 -0.025950 -0.184929 -0.005511 -0.059495 0.070646 0.202480
#
#
# Mechanical properties :
#
#
# Convention : Reuss Voigt Hill
#
# Bulk Modulus (GPa) = 3.77481 52.00927 27.89204
# Shear Modulus (GPa) = 8.15801 33.24719 20.70260
#
# Velocity S-wave (km/s) = 2.02626 4.09053 3.22786
# Velocity P-wave (km/s) = 2.71552 6.96311 5.28483
#
# Compressibility (1/GPa) = 0.26491410
#
# Stress axis : x y z
#
# Youngs Moduli (GPa) = 83.02324 4.86028 98.32938
#
# Poissons Ratio (x) = -0.09102 0.17150
# Poissons Ratio (y) = -1.55478 -0.14672
# Poissons Ratio (z) = 0.14481 -0.00725
#
# Static dielectric constant tensor:
#      x y z
#    x 3.805980 0.358010 0.060270 
#    y 0.358010 3.229950 -0.002680 
#    z 0.060270 -0.002680 3.682120 
# 
# 
# High freq. dielectric constant tensor:
#      x y z
#    x 1.779490 0.034300 0.003960 
#    y 0.034300 1.745260 -0.017630 
#    z 0.003960 -0.017630 1.786270 
# 
# From -- ./inp_files/256692.got.cif
#   From: 2010.06.25/outbox.cif.g09.slc.cpg/sg2_129_cif.got.tgz:256692.got - 2010.06.27 13:26:56.
