data_PCOD8002269
_publ_section_title
;
Structure prediction by ZEFSAII (Michael W. Deem and Ramdas Pophale) SiO2 
 PCOD8002269
Probable space group: P -1
;
_chemical_formula_sum "Si O2"
_cell_formula_units_Z 16
_cell_length_a 11.249592
_cell_length_b 12.121953
_cell_length_c 11.638990
_cell_angle_alpha 116.322874
_cell_angle_beta 38.287402
_cell_angle_gamma 134.149635
_cell_volume 686.321037
_symmetry_space_group_name_H-M "P -1"
_symmetry_group_IT_number 2
_symmetry_cell_setting 'triclinic'
loop_
_space_group_symop_operation_xyz
x,y,z
-x,-y,-z
loop_
_atom_site_type_symbol
_atom_site_label
_atom_site_fract_x
_atom_site_fract_y
_atom_site_fract_z
Si Si1 0.239138 0.012505 0.336057
Si Si2 0.527245 0.497904 0.613801
Si Si3 0.509465 0.721752 0.893203
Si Si4 0.367276 0.092511 0.699059
Si Si5 0.943050 0.317020 0.745273
Si Si6 0.156186 0.105633 0.079837
Si Si7 0.586531 0.142001 0.337743
Si Si8 0.999721 0.229975 0.913721
O O1 0.412886 0.114760 0.143452
O O2 0.381200 0.105306 0.387318
O O3 0.174513 0.843103 0.309827
O O4 0.000000 0.000000 0.500000
O O5 0.500000 0.500000 0.500000
O O6 0.527195 0.629994 0.736652
O O7 0.291506 0.329803 0.767544
O O8 0.794615 0.541558 0.447524
O O9 0.691818 0.757966 0.876418
O O10 0.231266 0.632724 0.108743
O O11 0.483218 0.023829 0.645979
O O12 0.111079 0.944290 0.763598
O O13 0.554102 0.212949 0.511024
O O14 0.307802 0.173788 0.875604
O O15 0.977027 0.290297 0.838826
O O16 0.130028 0.954234 0.073384
O O17 0.860215 0.258324 0.128412
#
# Coordination Sequence:
#
# PCOD8002269 Si02
#       8
#     2   2   2   2   2   2   2   2
#     4  12  21  34  62 100 127 156 200 260 315 366
#     4  10  25  40  55  89 136 172 199 240 314 390
#     4  12  22  39  64  93 128 163 203 256 316 375
#     4   9  20  36  57  92 116 154 210 267 300 349
#     4  11  21  37  57  92 131 164 200 248 309 381
#     4  10  20  38  64  89 118 156 209 263 307 355
#     4  10  20  35  58  89 120 161 202 253 312 362
#     4  10  20  38  56  84 127 160 200 249 303 376
#
# _framework density 23.312707
#
# number of rings (size 3 to 8) (size 9 to 14) (size 15 to 20)
#    0.000    1.500    3.750    2.625    0.000    2.000 
#    2.250    0.000    0.000    7.500    0.000    0.000 
#    0.000    0.000    0.000    0.000    0.000    0.000 
#
# Total GULP energy -198267.456858 kJ/mol
# GULP energy per Si atom -12391.716054 kJ/mol
# Density = 2.325965 g / cm^3
# Si number density = 23.312707 Si / 1000 Ang^3
#
#
#
# Elastic Constant Matrix: (Units=GPa)
#
#
# Indices 1 2 3 4 5 6 
#
# 1 88.7669 15.3354 37.6792 1.6931 -5.3115 21.6492
# 2 15.3354 60.2771 47.7270 0.1845 7.5043 26.3633
# 3 37.6792 47.7270 178.5749 -6.9496 -1.9809 18.2247
# 4 1.6931 0.1845 -6.9496 33.3673 2.9361 1.8789
# 5 -5.3115 7.5043 -1.9809 2.9361 44.1896 0.4908
# 6 21.6492 26.3633 18.2247 1.8789 0.4908 20.4275
#
#
#
# Elastic Compliance Matrix: (Units=1/GPa)
#
#
# Indices 1 2 3 4 5 6 
#
# 1 0.018748 0.012607 -0.003999 -0.000046 0.000298 -0.032575
# 2 0.012607 0.055211 -0.009668 0.001988 -0.007582 -0.075991
# 3 -0.003999 -0.009668 0.008145 0.001312 0.001336 0.009296
# 4 -0.000046 0.001988 0.001312 0.030797 -0.002259 -0.006465
# 5 0.000298 -0.007582 0.001336 -0.002259 0.024075 0.007907
# 6 -0.032575 -0.075991 0.009296 -0.006465 0.007907 0.173660
#
#
# Mechanical properties :
#
#
# Convention : Reuss Voigt Hill
#
# Bulk Modulus (GPa) = 12.50241 58.78913 35.64577
# Shear Modulus (GPa) = 14.73112 34.72204 24.72658
#
# Velocity S-wave (km/s) = 2.51647 3.86347 3.26029
# Velocity P-wave (km/s) = 3.71727 6.72118 5.43104
#
# Compressibility (1/GPa) = 0.07998455
#
# Stress axis : x y z
#
# Youngs Moduli (GPa) = 53.33783 18.11224 122.77917
#
# Poissons Ratio (x) = -0.22834 0.49104
# Poissons Ratio (y) = -0.67243 1.18698
# Poissons Ratio (z) = 0.21332 0.17510
#
# Static dielectric constant tensor:
#      x y z
#    x 4.054220 0.317870 -0.057280 
#    y 0.317870 3.883930 -0.294230 
#    z -0.057280 -0.294230 5.073580 
# 
# 
# High freq. dielectric constant tensor:
#      x y z
#    x 1.908000 0.019270 -0.005920 
#    y 0.019270 1.867760 -0.000790 
#    z -0.005920 -0.000790 1.955600 
# 
# From -- ./inp_files/426916.got.cif
#   From: 2010.06.25/outbox.cif.g09.slc.cpg/sg2_214_cif.got.tgz:426916.got - 2010.06.27 13:26:56.
