data_PCOD8002414
_publ_section_title
;
Structure prediction by ZEFSAII (Michael W. Deem and Ramdas Pophale) SiO2 
 PCOD8002414
Probable space group: P -1
;
_chemical_formula_sum "Si O2"
_cell_formula_units_Z 14
_cell_length_a 5.097634
_cell_length_b 9.259047
_cell_length_c 17.022776
_cell_angle_alpha 112.825315
_cell_angle_beta 99.203297
_cell_angle_gamma 103.686487
_cell_volume 690.506138
_symmetry_space_group_name_H-M "P -1"
_symmetry_group_IT_number 2
_symmetry_cell_setting 'triclinic'
loop_
_space_group_symop_operation_xyz
x,y,z
-x,-y,-z
loop_
_atom_site_type_symbol
_atom_site_label
_atom_site_fract_x
_atom_site_fract_y
_atom_site_fract_z
Si Si1 0.769767 0.853755 0.126349
Si Si2 0.729119 0.602963 0.210257
Si Si3 0.272689 0.557433 0.292980
Si Si4 0.204367 0.468965 0.439622
Si Si5 0.980857 0.217712 0.254107
Si Si6 0.443586 0.764461 0.876692
Si Si7 0.210195 0.884061 0.032553
O O1 0.723830 0.719646 0.163159
O O2 0.470421 0.864301 0.090583
O O3 0.921279 0.799088 0.048014
O O4 0.981107 0.030807 0.205332
O O5 0.575955 0.651294 0.289043
O O6 0.542919 0.415096 0.136927
O O7 0.045981 0.618759 0.249554
O O8 0.256449 0.594495 0.393326
O O9 0.208827 0.355670 0.238871
O O10 0.500000 0.500000 0.500000
O O11 0.055348 0.279366 0.360928
O O12 0.000000 0.500000 0.500000
O O13 0.678094 0.233595 0.217245
O O14 0.739063 0.916254 0.933676
O O15 0.209399 0.802906 0.930548
#
# Coordination Sequence:
#
# PCOD8002414 Si02
#       7
#     2   2   2   2   2   2   2
#     4  11  22  36  54  82 114 148 185 226 273 314
#     4  11  20  35  56  79 112 150 184 219 268 333
#     4   9  20  35  57  81 104 145 179 221 266 333
#     4  10  20  35  61  89 105 130 182 234 268 320
#     4   8  20  36  59  81 108 145 181 225 275 332
#     4   9  20  37  57  79 110 150 191 226 273 316
#     4  10  22  36  54  80 113 147 191 236 260 311
#
# _framework density 20.274985999999998
#
# number of rings (size 3 to 8) (size 9 to 14) (size 15 to 20)
#    0.857    1.429    0.000    2.571    0.000    9.714 
#    0.000    0.000    0.000    5.143    0.000    0.000 
#    0.000    0.000    0.000    0.000    0.000    0.000 
#
# Total GULP energy -173453.873133 kJ/mol
# GULP energy per Si atom -12389.562367 kJ/mol
# Density = 2.022884 g / cm^3
# Si number density = 20.274986 Si / 1000 Ang^3
#
#
#
# Elastic Constant Matrix: (Units=GPa)
#
#
# Indices 1 2 3 4 5 6 
#
# 1 79.6227 29.1502 12.7709 -8.0605 -15.8112 3.0462
# 2 29.1502 102.5081 28.8033 -20.0356 -6.9714 -2.6080
# 3 12.7709 28.8033 86.7936 -4.5272 1.9514 2.8971
# 4 -8.0605 -20.0356 -4.5272 25.7996 6.2578 -2.3383
# 5 -15.8112 -6.9714 1.9514 6.2578 32.4136 -10.1958
# 6 3.0462 -2.6080 2.8971 -2.3383 -10.1958 23.0891
#
#
#
# Elastic Compliance Matrix: (Units=1/GPa)
#
#
# Indices 1 2 3 4 5 6 
#
# 1 0.015438 -0.003470 -0.001296 0.000262 0.007093 0.000892
# 2 -0.003470 0.013711 -0.003716 0.009030 0.000932 0.003799
# 3 -0.001296 -0.003716 0.013101 -0.000526 -0.003171 -0.003346
# 4 0.000262 0.009030 -0.000526 0.047524 -0.006072 0.003183
# 5 0.007093 0.000932 -0.003171 -0.006072 0.041279 0.017181
# 6 0.000892 0.003799 -0.003346 0.003183 0.017181 0.051951
#
#
# Mechanical properties :
#
#
# Convention : Reuss Voigt Hill
#
# Bulk Modulus (GPa) = 39.54644 45.59702 42.57173
# Shear Modulus (GPa) = 23.99269 29.47378 26.73323
#
# Velocity S-wave (km/s) = 3.44374 3.81688 3.63510
# Velocity P-wave (km/s) = 5.94641 6.47788 6.21783
#
# Compressibility (1/GPa) = 0.02528673
#
# Stress axis : x y z
#
# Youngs Moduli (GPa) = 64.77464 72.93264 76.32948
#
# Poissons Ratio (x) = 0.25306 0.09890
# Poissons Ratio (y) = 0.22476 0.28367
# Poissons Ratio (z) = 0.08393 0.27105
#
# Static dielectric constant tensor:
#      x y z
#    x 3.528750 0.023000 -0.015900 
#    y 0.023000 3.494000 -0.028910 
#    z -0.015900 -0.028910 3.697520 
# 
# 
# High freq. dielectric constant tensor:
#      x y z
#    x 1.802080 -0.002410 -0.000710 
#    y -0.002410 1.761780 -0.013080 
#    z -0.000710 -0.013080 1.781740 
# 
# From -- ./inp_files/122167.got.cif
#   From: 2010.06.25/outbox.cif.g09.slc.cpg/sg2_62_cif.got.tgz:122167.got - 2010.06.27 13:26:56.
