data_PCOD8002021
_publ_section_title
;
Structure prediction by ZEFSAII (Michael W. Deem and Ramdas Pophale) SiO2 
 PCOD8002021
Probable space group: P -1
;
_chemical_formula_sum "Si O2"
_cell_formula_units_Z 16
_cell_length_a 14.112361
_cell_length_b 11.992636
_cell_length_c 14.612153
_cell_angle_alpha 110.977774
_cell_angle_beta 19.404269
_cell_angle_gamma 110.656258
_cell_volume 766.251152
_symmetry_space_group_name_H-M "P -1"
_symmetry_group_IT_number 2
_symmetry_cell_setting 'triclinic'
loop_
_space_group_symop_operation_xyz
x,y,z
-x,-y,-z
loop_
_atom_site_type_symbol
_atom_site_label
_atom_site_fract_x
_atom_site_fract_y
_atom_site_fract_z
Si Si1 0.061731 0.245840 0.285975
Si Si2 0.878022 0.869001 0.091935
Si Si3 0.200182 0.360700 0.701689
Si Si4 0.446626 0.124345 0.784272
Si Si5 0.763126 0.517566 0.916131
Si Si6 0.467227 0.858232 0.622822
Si Si7 0.845512 0.586464 0.598492
Si Si8 0.336562 0.515504 0.794766
O O1 0.165129 0.355612 0.158487
O O2 0.094255 0.280965 0.374185
O O3 0.743684 0.200168 0.536784
O O4 0.279136 0.141330 0.037219
O O5 0.139227 0.803899 0.886948
O O6 0.757551 0.817753 0.090335
O O7 0.599015 0.878375 0.409472
O O8 0.000000 0.000000 0.000000
O O9 0.333241 0.231794 0.531233
O O10 0.250991 0.407263 0.772539
O O11 0.344527 0.443600 0.514449
O O12 0.860916 0.368562 0.998339
O O13 0.481903 0.982951 0.700339
O O14 0.020755 0.429487 0.630048
O O15 0.486252 0.449181 0.106213
O O16 0.700379 0.537609 0.086147
O O17 0.000000 0.500000 0.500000
#
# Coordination Sequence:
#
# PCOD8002021 Si02
#       8
#     2   2   2   2   2   2   2   2
#     4  11  21  34  55  85 120 145 182 229 276 340
#     4  10  20  35  49  76 113 149 191 225 255 329
#     4  10  22  40  58  80 114 143 190 248 276 306
#     4  11  21  34  51  85 114 151 189 220 269 350
#     4  11  21  37  60  82 112 152 185 225 290 339
#     4  11  21  37  56  76 113 156 185 230 283 318
#     4  10  20  37  55  82 116 148 181 228 282 344
#     4  10  22  40  58  84 107 142 198 240 274 331
#
# _framework density 20.880880999999999
#
# number of rings (size 3 to 8) (size 9 to 14) (size 15 to 20)
#    0.000    1.500    0.000    9.000    1.750    0.000 
#    9.000    0.000    0.000    0.000    0.000   17.500 
#    0.000    0.000    0.000    0.000    0.000    0.000 
#
# Total GULP energy -198214.545494 kJ/mol
# GULP energy per Si atom -12388.409093 kJ/mol
# Density = 2.083335 g / cm^3
# Si number density = 20.880881 Si / 1000 Ang^3
#
#
#
# Elastic Constant Matrix: (Units=GPa)
#
#
# Indices 1 2 3 4 5 6 
#
# 1 52.4464 22.0218 25.6840 -5.5189 9.2699 13.8000
# 2 22.0218 55.9018 22.0190 9.1697 -6.4835 19.2515
# 3 25.6840 22.0190 122.3957 4.4408 0.0942 27.0941
# 4 -5.5189 9.1697 4.4408 36.9383 7.4200 -3.9739
# 5 9.2699 -6.4835 0.0942 7.4200 48.6331 -0.9220
# 6 13.8000 19.2515 27.0941 -3.9739 -0.9220 28.0527
#
#
#
# Elastic Compliance Matrix: (Units=1/GPa)
#
#
# Indices 1 2 3 4 5 6 
#
# 1 0.028799 -0.011915 -0.003989 0.009333 -0.008515 -0.001095
# 2 -0.011915 0.031698 0.001480 -0.013514 0.008196 -0.018967
# 3 -0.003989 0.001480 0.011154 -0.003675 0.001301 -0.010304
# 4 0.009333 -0.013514 -0.003675 0.035411 -0.008730 0.012961
# 5 -0.008515 0.008196 0.001301 -0.008730 0.024548 -0.003123
# 6 -0.001095 -0.018967 -0.010304 0.012961 -0.003123 0.060888
#
#
# Mechanical properties :
#
#
# Convention : Reuss Voigt Hill
#
# Bulk Modulus (GPa) = 23.36255 41.13260 32.24758
# Shear Modulus (GPa) = 21.22109 33.45943 27.34026
#
# Velocity S-wave (km/s) = 3.19139 4.00734 3.62241
# Velocity P-wave (km/s) = 4.97923 6.41507 5.74221
#
# Compressibility (1/GPa) = 0.04280354
#
# Stress axis : x y z
#
# Youngs Moduli (GPa) = 34.72348 31.54746 89.65054
#
# Poissons Ratio (x) = 0.37589 0.35766
# Poissons Ratio (y) = 0.41373 -0.13272
# Poissons Ratio (z) = 0.13853 -0.04670
#
# Static dielectric constant tensor:
#      x y z
#    x 3.277880 0.135840 -0.004240 
#    y 0.135840 3.475540 0.198440 
#    z -0.004240 0.198440 4.614530 
# 
# 
# High freq. dielectric constant tensor:
#      x y z
#    x 1.786580 0.025220 0.002580 
#    y 0.025220 1.788820 0.005030 
#    z 0.002580 0.005030 1.855990 
# 
# From -- ./inp_files/531848.got.cif
#   From: 2010.06.25/outbox.cif.g09.slc.cpg/sg2_266_cif.got.tgz:531848.got - 2010.06.27 13:26:56.
