data_PCOD8002972
_publ_section_title
;
Structure prediction by ZEFSAII (Michael W. Deem and Ramdas Pophale) SiO2 
 PCOD8002972
Probable space group: P -1
;
_chemical_formula_sum "Si O2"
_cell_formula_units_Z 16
_cell_length_a 12.457862
_cell_length_b 8.523487
_cell_length_c 17.691911
_cell_angle_alpha 69.690081
_cell_angle_beta 48.238345
_cell_angle_gamma 37.795323
_cell_volume 790.033150
_symmetry_space_group_name_H-M "P -1"
_symmetry_group_IT_number 2
_symmetry_cell_setting 'triclinic'
loop_
_space_group_symop_operation_xyz
x,y,z
-x,-y,-z
loop_
_atom_site_type_symbol
_atom_site_label
_atom_site_fract_x
_atom_site_fract_y
_atom_site_fract_z
Si Si1 0.729890 0.958223 0.236203
Si Si2 0.430258 0.756656 0.996669
Si Si3 0.113081 0.582947 0.230599
Si Si4 0.314562 0.613199 0.781334
Si Si5 0.200748 0.420383 0.379074
Si Si6 0.149691 0.848345 0.379585
Si Si7 0.950955 0.977672 0.763664
Si Si8 0.957991 0.723648 0.011869
O O1 0.710663 0.174470 0.215157
O O2 0.470249 0.111681 0.325631
O O3 0.861034 0.762232 0.281917
O O4 0.906779 0.753203 0.119149
O O5 0.276919 0.923309 0.117990
O O6 0.265310 0.968686 0.969353
O O7 0.500000 0.500000 0.000000
O O8 0.675537 0.635281 0.894944
O O9 0.165794 0.421561 0.305941
O O10 0.105174 0.780727 0.228641
O O11 0.593656 0.307661 0.696301
O O12 0.197245 0.607366 0.902067
O O13 0.190197 0.697317 0.743293
O O14 0.170715 0.637761 0.381658
O O15 0.000000 0.500000 0.500000
O O16 0.024239 0.064004 0.331939
O O17 0.000000 0.000000 0.500000
O O18 0.000000 0.500000 0.000000
#
# Coordination Sequence:
#
# PCOD8002972 Si02
#       8
#     2   2   2   2   2   2   2   2
#     4  10  20  36  61  84 109 156 208 236 285 366
#     4   9  17  33  59  84 114 155 194 234 291 354
#     4   9  17  33  57  84 108 146 198 244 279 342
#     4   9  20  36  58  82 109 154 201 235 282 357
#     4  10  21  38  57  80 116 152 198 250 290 345
#     4  10  21  36  56  84 108 150 201 239 288 347
#     4   8  17  32  54  84 111 138 192 246 279 333
#     4  11  22  36  56  92 130 153 185 251 314 346
#
# _framework density 20.252314999999999
#
# number of rings (size 3 to 8) (size 9 to 14) (size 15 to 20)
#    0.000    2.500    1.250    1.125    3.500    2.000 
#    0.000    3.125    0.000    0.000    0.000    0.000 
#    0.000    0.000    0.000    0.000    0.000    0.000 
#
# Total GULP energy -198268.655847 kJ/mol
# GULP energy per Si atom -12391.790990 kJ/mol
# Density = 2.020622 g / cm^3
# Si number density = 20.252315 Si / 1000 Ang^3
#
#
#
# Elastic Constant Matrix: (Units=GPa)
#
#
# Indices 1 2 3 4 5 6 
#
# 1 85.7848 49.2187 71.8942 0.0465 -9.6529 -40.6628
# 2 49.2187 68.9205 35.3862 1.5230 -4.4407 -29.0568
# 3 71.8942 35.3862 164.1829 -0.8075 -8.0404 -40.2495
# 4 0.0465 1.5230 -0.8075 24.8571 -4.2146 -0.0952
# 5 -9.6529 -4.4407 -8.0404 -4.2146 41.8133 2.3910
# 6 -40.6628 -29.0568 -40.2495 -0.0952 2.3910 33.0846
#
#
#
# Elastic Compliance Matrix: (Units=1/GPa)
#
#
# Indices 1 2 3 4 5 6 
#
# 1 0.037576 -0.011479 -0.007091 0.001299 0.004671 0.027141
# 2 -0.011479 0.026649 0.002203 -0.001534 -0.000236 0.011990
# 3 -0.007091 0.002203 0.010072 0.000269 0.000249 0.005455
# 4 0.001299 -0.001534 0.000269 0.041062 0.004306 0.000383
# 5 0.004671 -0.000236 0.000249 0.004306 0.025221 0.004026
# 6 0.027141 0.011990 0.005455 0.000383 0.004026 0.080459
#
#
# Mechanical properties :
#
#
# Convention : Reuss Voigt Hill
#
# Bulk Modulus (GPa) = 24.06011 70.20960 47.13486
# Shear Modulus (GPa) = 18.68268 30.77694 24.72981
#
# Velocity S-wave (km/s) = 3.04056 3.90253 3.49819
# Velocity P-wave (km/s) = 4.92266 7.41950 6.29610
#
# Compressibility (1/GPa) = 0.04156256
#
# Stress axis : x y z
#
# Youngs Moduli (GPa) = 26.61284 37.52453 99.28434
#
# Poissons Ratio (x) = 0.43073 0.70407
# Poissons Ratio (y) = 0.30548 -0.21871
# Poissons Ratio (z) = 0.18872 -0.08266
#
# Static dielectric constant tensor:
#      x y z
#    x 3.583710 -0.440940 -0.111590 
#    y -0.440940 3.703740 -0.115960 
#    z -0.111590 -0.115960 4.020190 
# 
# 
# High freq. dielectric constant tensor:
#      x y z
#    x 1.768760 -0.029510 -0.006560 
#    y -0.029510 1.778420 -0.004410 
#    z -0.006560 -0.004410 1.791710 
# 
# From -- ./inp_files/259573.got.cif
#   From: 2010.06.25/outbox.cif.g09.slc.cpg/sg2_130_cif.got.tgz:259573.got - 2010.06.27 13:26:56.
