data_PCOD8002007
_publ_section_title
;
Structure prediction by ZEFSAII (Michael W. Deem and Ramdas Pophale) SiO2 
 PCOD8002007
Probable space group: P -1
;
_chemical_formula_sum "Si O2"
_cell_formula_units_Z 16
_cell_length_a 9.168451
_cell_length_b 11.184472
_cell_length_c 14.119730
_cell_angle_alpha 38.875527
_cell_angle_beta 118.099541
_cell_angle_gamma 104.551957
_cell_volume 784.017304
_symmetry_space_group_name_H-M "P -1"
_symmetry_group_IT_number 2
_symmetry_cell_setting 'triclinic'
loop_
_space_group_symop_operation_xyz
x,y,z
-x,-y,-z
loop_
_atom_site_type_symbol
_atom_site_label
_atom_site_fract_x
_atom_site_fract_y
_atom_site_fract_z
Si Si1 0.089404 0.866192 0.026443
Si Si2 0.837528 0.600226 0.104953
Si Si3 0.635918 0.880361 0.733244
Si Si4 0.984296 0.199152 0.317927
Si Si5 0.991481 0.559261 0.570098
Si Si6 0.663906 0.476151 0.626939
Si Si7 0.355022 0.235146 0.400103
Si Si8 0.026269 0.980605 0.286915
O O1 0.273029 0.753253 0.187128
O O2 0.990998 0.702199 0.058617
O O3 0.000000 0.000000 0.000000
O O4 0.092765 0.004596 0.851628
O O5 0.847155 0.384797 0.197503
O O6 0.855222 0.580662 0.237399
O O7 0.669662 0.740156 0.923209
O O8 0.617374 0.752183 0.712590
O O9 0.459910 0.031771 0.600430
O O10 0.780552 0.006445 0.685542
O O11 0.160789 0.258318 0.349023
O O12 0.000000 0.000000 0.500000
O O13 0.945784 0.157687 0.222655
O O14 0.811424 0.549734 0.567921
O O15 0.000000 0.500000 0.500000
O O16 0.024110 0.774891 0.461316
O O17 0.500000 0.500000 0.500000
O O18 0.599522 0.587881 0.635874
#
# Coordination Sequence:
#
# PCOD8002007 Si02
#       8
#     2   2   2   2   2   2   2   2
#     4  10  21  37  58  89 116 156 210 245 288 361
#     4  10  20  37  60  91 113 156 204 249 298 361
#     4   9  22  35  64  89 119 155 191 257 299 367
#     4  11  19  36  62  86 117 149 198 248 306 352
#     4  11  22  40  61  88 121 161 207 245 298 368
#     4  11  24  39  62  87 123 163 201 252 299 356
#     4  10  20  39  58  88 124 151 202 238 313 354
#     4  10  20  34  64  85 114 154 199 250 302 349
#
# _framework density 20.407713000000001
#
# number of rings (size 3 to 8) (size 9 to 14) (size 15 to 20)
#    0.000    1.750    3.750    1.500    7.000    1.500 
#    0.000    1.250    2.750    0.000    0.000    0.000 
#    0.000    0.000    0.000    0.000    0.000    0.000 
#
# Total GULP energy -198229.581820 kJ/mol
# GULP energy per Si atom -12389.348864 kJ/mol
# Density = 2.036126 g / cm^3
# Si number density = 20.407713 Si / 1000 Ang^3
#
#
#
# Elastic Constant Matrix: (Units=GPa)
#
#
# Indices 1 2 3 4 5 6 
#
# 1 26.8174 22.7376 20.1061 6.7085 -4.3372 -11.3395
# 2 22.7376 120.1009 51.4297 13.6730 6.6284 -16.6275
# 3 20.1061 51.4297 163.0540 24.3523 2.8256 -11.3860
# 4 6.7085 13.6730 24.3523 40.7394 -1.9528 -5.0532
# 5 -4.3372 6.6284 2.8256 -1.9528 27.7257 -3.4604
# 6 -11.3395 -16.6275 -11.3860 -5.0532 -3.4604 25.5308
#
#
#
# Elastic Compliance Matrix: (Units=1/GPa)
#
#
# Indices 1 2 3 4 5 6 
#
# 1 0.057188 -0.007055 -0.003334 -0.001835 0.013436 0.020776
# 2 -0.007055 0.011306 -0.002296 -0.001106 -0.003334 0.002535
# 3 -0.003334 -0.002296 0.007774 -0.003418 -0.001047 -0.000328
# 4 -0.001835 -0.001106 -0.003418 0.027734 0.002627 0.002786
# 5 0.013436 -0.003334 -0.001047 0.002627 0.040422 0.009328
# 6 0.020776 0.002535 -0.000328 0.002786 0.009328 0.051716
#
#
# Mechanical properties :
#
#
# Convention : Reuss Voigt Hill
#
# Bulk Modulus (GPa) = 19.64773 55.39100 37.51937
# Shear Modulus (GPa) = 20.96618 33.17913 27.07266
#
# Velocity S-wave (km/s) = 3.20873 4.03651 3.64619
# Velocity P-wave (km/s) = 4.83492 6.99469 6.01258
#
# Compressibility (1/GPa) = 0.05089646
#
# Stress axis : x y z
#
# Youngs Moduli (GPa) = 17.48609 88.44710 128.63185
#
# Poissons Ratio (x) = 0.62403 0.42892
# Poissons Ratio (y) = 0.12337 0.29537
# Poissons Ratio (z) = 0.05831 0.20310
#
# Static dielectric constant tensor:
#      x y z
#    x 3.307170 -0.101680 -0.100380 
#    y -0.101680 3.892180 0.116640 
#    z -0.100380 0.116640 4.111150 
# 
# 
# High freq. dielectric constant tensor:
#      x y z
#    x 1.743360 -0.011990 -0.007770 
#    y -0.011990 1.815220 0.007750 
#    z -0.007770 0.007750 1.812250 
# 
# From -- ./inp_files/243127.got.cif
#   From: 2010.06.25/outbox.cif.g09.slc.cpg/sg2_122_cif.got.tgz:243127.got - 2010.06.27 13:26:56.
