data_PCOD8002409
_publ_section_title
;
Structure prediction by ZEFSAII (Michael W. Deem and Ramdas Pophale) SiO2 
 PCOD8002409
Probable space group: P -1
;
_chemical_formula_sum "Si O2"
_cell_formula_units_Z 16
_cell_length_a 11.625909
_cell_length_b 8.939755
_cell_length_c 14.107761
_cell_angle_alpha 83.182531
_cell_angle_beta 136.183236
_cell_angle_gamma 122.245007
_cell_volume 764.702748
_symmetry_space_group_name_H-M "P -1"
_symmetry_group_IT_number 2
_symmetry_cell_setting 'triclinic'
loop_
_space_group_symop_operation_xyz
x,y,z
-x,-y,-z
loop_
_atom_site_type_symbol
_atom_site_label
_atom_site_fract_x
_atom_site_fract_y
_atom_site_fract_z
Si Si1 0.364199 0.421953 0.329296
Si Si2 0.997885 0.563314 0.861698
Si Si3 0.255939 0.136133 0.134835
Si Si4 0.573469 0.696192 0.975901
Si Si5 0.290442 0.792266 0.848006
Si Si6 0.133798 0.010580 0.708049
Si Si7 0.675588 0.820982 0.385834
Si Si8 0.313966 0.820881 0.195031
O O1 0.500000 0.500000 0.500000
O O2 0.122939 0.345668 0.212434
O O3 0.352463 0.254278 0.282884
O O4 0.479413 0.592454 0.306911
O O5 0.819813 0.321607 0.782290
O O6 0.123461 0.617806 0.834753
O O7 0.187477 0.668315 0.044471
O O8 0.337107 0.277244 0.079418
O O9 0.324469 0.004480 0.179059
O O10 0.000000 0.000000 0.000000
O O11 0.373883 0.698472 0.844114
O O12 0.500000 0.500000 0.000000
O O13 0.762119 0.884493 0.137555
O O14 0.154662 0.843267 0.709385
O O15 0.500000 0.000000 0.000000
O O16 0.254003 0.166456 0.681647
O O17 0.880931 0.911935 0.570210
O O18 0.569543 0.922437 0.335884
#
# Coordination Sequence:
#
# PCOD8002409 Si02
#       8
#     2   2   2   2   2   2   2   2
#     4  11  24  41  64  90 129 166 217 262 324 381
#     4  10  20  37  62  92 120 173 209 265 308 389
#     4  12  25  40  66  94 129 169 213 267 319 377
#     4  11  24  39  64  97 130 163 210 271 317 376
#     4  10  20  35  61  87 122 159 215 254 315 373
#     4  10  20  38  64  90 127 167 216 254 317 384
#     4  10  21  38  63  92 126 172 208 261 318 387
#     4  10  20  37  61  91 129 162 219 259 320 371
#
# _framework density 20.923162000000001
#
# number of rings (size 3 to 8) (size 9 to 14) (size 15 to 20)
#    0.000    1.500    1.250    5.250    3.500    0.000 
#    0.000    5.000    0.000    6.750    0.000    0.000 
#    0.000    0.000    0.000    0.000    0.000    0.000 
#
# Total GULP energy -198311.660160 kJ/mol
# GULP energy per Si atom -12394.478760 kJ/mol
# Density = 2.087554 g / cm^3
# Si number density = 20.923162 Si / 1000 Ang^3
#
#
#
# Elastic Constant Matrix: (Units=GPa)
#
#
# Indices 1 2 3 4 5 6 
#
# 1 107.1123 37.6279 50.2945 2.2201 11.8168 10.5064
# 2 37.6279 88.0548 24.0919 -10.8209 6.3052 -5.2642
# 3 50.2945 24.0919 113.8570 -11.7833 17.7518 -10.1467
# 4 2.2201 -10.8209 -11.7833 25.5436 -4.6778 4.8452
# 5 11.8168 6.3052 17.7518 -4.6778 45.9795 -4.5363
# 6 10.5064 -5.2642 -10.1467 4.8452 -4.5363 38.5368
#
#
#
# Elastic Compliance Matrix: (Units=1/GPa)
#
#
# Indices 1 2 3 4 5 6 
#
# 1 0.015286 -0.005736 -0.006401 -0.005895 -0.001873 -0.006116
# 2 -0.005736 0.014658 0.000303 0.006352 0.000278 0.002880
# 3 -0.006401 0.000303 0.012852 0.005376 -0.002396 0.004213
# 4 -0.005895 0.006352 0.005376 0.045677 0.003068 -0.001492
# 5 -0.001873 0.000278 -0.002396 0.003068 0.023658 0.002317
# 6 -0.006116 0.002880 0.004213 -0.001492 0.002317 0.029579
#
#
# Mechanical properties :
#
#
# Convention : Reuss Voigt Hill
#
# Bulk Modulus (GPa) = 52.28441 59.22806 55.75624
# Shear Modulus (GPa) = 29.11147 35.14597 32.12872
#
# Velocity S-wave (km/s) = 3.73413 4.10294 3.92287
# Velocity P-wave (km/s) = 6.60565 7.12842 6.87201
#
# Compressibility (1/GPa) = 0.01912616
#
# Stress axis : x y z
#
# Youngs Moduli (GPa) = 65.42101 68.22306 77.81044
#
# Poissons Ratio (x) = 0.39135 0.49809
# Poissons Ratio (y) = 0.37528 -0.02359
# Poissons Ratio (z) = 0.41878 -0.02068
#
# Static dielectric constant tensor:
#      x y z
#    x 6.368710 -1.861060 0.837810 
#    y -1.861060 5.608690 -0.667360 
#    z 0.837810 -0.667360 3.826790 
# 
# 
# High freq. dielectric constant tensor:
#      x y z
#    x 1.821350 0.020210 0.026650 
#    y 0.020210 1.822420 -0.018900 
#    z 0.026650 -0.018900 1.801470 
# 
# From -- ./inp_files/515550.got.cif
#   From: 2010.06.25/outbox.cif.g09.slc.cpg/sg2_258_cif.got.tgz:515550.got - 2010.06.27 13:26:56.
