data_PCOD8002563
_publ_section_title
;
Structure prediction by ZEFSAII (Michael W. Deem and Ramdas Pophale) SiO2 
 PCOD8002563
Probable space group: P -1
;
_chemical_formula_sum "Si O2"
_cell_formula_units_Z 16
_cell_length_a 13.791218
_cell_length_b 5.281581
_cell_length_c 18.839511
_cell_angle_alpha 75.908841
_cell_angle_beta 35.398777
_cell_angle_gamma 89.825373
_cell_volume 722.845442
_symmetry_space_group_name_H-M "P -1"
_symmetry_group_IT_number 2
_symmetry_cell_setting 'triclinic'
loop_
_space_group_symop_operation_xyz
x,y,z
-x,-y,-z
loop_
_atom_site_type_symbol
_atom_site_label
_atom_site_fract_x
_atom_site_fract_y
_atom_site_fract_z
Si Si1 0.003285 0.604519 0.340611
Si Si2 0.377555 0.615628 0.454816
Si Si3 0.917184 0.665078 0.118253
Si Si4 0.971128 0.021735 0.433380
Si Si5 0.013897 0.038062 0.799832
Si Si6 0.698421 0.206978 0.370842
Si Si7 0.786947 0.572817 0.054165
Si Si8 0.557995 0.788547 0.652938
O O1 0.792083 0.461002 0.490307
O O2 0.072970 0.842507 0.343175
O O3 0.046198 0.749230 0.227105
O O4 0.072186 0.344646 0.325959
O O5 0.303892 0.562407 0.583683
O O6 0.478420 0.407027 0.383923
O O7 0.496097 0.942882 0.352979
O O8 0.903428 0.848640 0.180600
O O9 0.777257 0.352788 0.239755
O O10 0.114573 0.652273 0.994041
O O11 0.855292 0.757592 0.073856
O O12 0.760245 0.898221 0.551611
O O13 0.000000 0.000000 0.500000
O O14 0.165005 0.950427 0.673195
O O15 0.834952 0.772765 0.942919
O O16 0.500000 0.000000 0.500000
O O17 0.574885 0.399336 0.194887
#
# Coordination Sequence:
#
# PCOD8002563 Si02
#       8
#     2   2   2   2   2   2   2   2
#     4  10  20  37  63  89 122 154 194 244 311 375
#     4  10  20  36  54  86 116 151 200 248 306 358
#     4  10  22  37  55  78 117 166 223 257 289 344
#     4  10  21  39  67  98 122 148 189 252 324 388
#     4  11  22  37  58  81 119 167 213 254 300 357
#     4  11  22  33  53  82 118 161 211 266 312 344
#     4  10  23  38  54  82 116 170 220 250 295 344
#     4  10  22  37  62  85 123 159 198 249 308 368
#
# _framework density 22.134747000000001
#
# number of rings (size 3 to 8) (size 9 to 14) (size 15 to 20)
#    0.000    1.750    1.250    3.750    5.250    0.500 
#    0.000    0.000    0.000    1.500    0.000    0.000 
#    0.000    0.000    0.000    0.000    0.000    0.000 
#
# Total GULP energy -198243.024833 kJ/mol
# GULP energy per Si atom -12390.189052 kJ/mol
# Density = 2.208437 g / cm^3
# Si number density = 22.134747 Si / 1000 Ang^3
#
#
#
# Elastic Constant Matrix: (Units=GPa)
#
#
# Indices 1 2 3 4 5 6 
#
# 1 52.6481 30.9959 31.3218 -3.0962 24.4985 4.8590
# 2 30.9959 142.9685 47.4319 -4.5192 15.0496 8.2193
# 3 31.3218 47.4319 129.3453 -11.1601 15.6805 -2.6639
# 4 -3.0962 -4.5192 -11.1601 29.2955 -8.5574 10.6202
# 5 24.4985 15.0496 15.6805 -8.5574 26.9146 -1.2404
# 6 4.8590 8.2193 -2.6639 10.6202 -1.2404 25.1598
#
#
#
# Elastic Compliance Matrix: (Units=1/GPa)
#
#
# Indices 1 2 3 4 5 6 
#
# 1 0.039741 -0.003240 -0.004990 -0.005682 -0.033557 -0.006401
# 2 -0.003240 0.008712 -0.002335 0.001073 -0.000356 -0.002938
# 3 -0.004990 -0.002335 0.009936 0.002538 0.000946 0.001754
# 4 -0.005682 0.001073 0.002538 0.045967 0.016899 -0.017555
# 5 -0.033557 -0.000356 0.000946 0.016899 0.072865 0.003156
# 6 -0.006401 -0.002938 0.001754 -0.017555 0.003156 0.049693
#
#
# Mechanical properties :
#
#
# Convention : Reuss Voigt Hill
#
# Bulk Modulus (GPa) = 26.83798 60.49568 43.66683
# Shear Modulus (GPa) = 19.19652 30.62147 24.90900
#
# Velocity S-wave (km/s) = 2.94812 3.72346 3.35824
# Velocity P-wave (km/s) = 4.87234 6.77315 5.89980
#
# Compressibility (1/GPa) = 0.03726062
#
# Stress axis : x y z
#
# Youngs Moduli (GPa) = 25.16276 114.78503 100.64286
#
# Poissons Ratio (x) = 0.37190 0.50216
# Poissons Ratio (y) = 0.08153 0.23499
# Poissons Ratio (z) = 0.12555 0.26801
#
# Static dielectric constant tensor:
#      x y z
#    x 3.485790 0.168580 0.212180 
#    y 0.168580 4.650650 -0.135840 
#    z 0.212180 -0.135840 4.151990 
# 
# 
# High freq. dielectric constant tensor:
#      x y z
#    x 1.803770 0.010810 0.020060 
#    y 0.010810 1.894820 -0.014100 
#    z 0.020060 -0.014100 1.872920 
# 
# From -- ./inp_files/550860.got.cif
#   From: 2010.06.25/outbox.cif.g09.slc.cpg/sg2_276_cif.got.tgz:550860.got - 2010.06.27 13:26:56.
