data_PCOD8002257
_publ_section_title
;
Structure prediction by ZEFSAII (Michael W. Deem and Ramdas Pophale) SiO2 
 PCOD8002257
Probable space group: P -1
;
_chemical_formula_sum "Si O2"
_cell_formula_units_Z 14
_cell_length_a 5.974468
_cell_length_b 15.258631
_cell_length_c 9.963490
_cell_angle_alpha 75.522243
_cell_angle_beta 132.378028
_cell_angle_gamma 87.986695
_cell_volume 622.775607
_symmetry_space_group_name_H-M "P -1"
_symmetry_group_IT_number 2
_symmetry_cell_setting 'triclinic'
loop_
_space_group_symop_operation_xyz
x,y,z
-x,-y,-z
loop_
_atom_site_type_symbol
_atom_site_label
_atom_site_fract_x
_atom_site_fract_y
_atom_site_fract_z
Si Si1 0.267870 0.743052 0.995601
Si Si2 0.829037 0.393052 0.793300
Si Si3 0.452042 0.677542 0.809404
Si Si4 0.691386 0.069668 0.009571
Si Si5 0.371910 0.961249 0.302728
Si Si6 0.440956 0.145058 0.326327
Si Si7 0.752074 0.440790 0.450175
O O1 0.305158 0.683331 0.896896
O O2 0.453292 0.824022 0.029403
O O3 0.917203 0.801507 0.870722
O O4 0.366075 0.672366 0.189116
O O5 0.871531 0.375643 0.656176
O O6 0.608694 0.498689 0.689262
O O7 0.172320 0.375881 0.008967
O O8 0.365254 0.784257 0.673918
O O9 0.266843 0.621604 0.663833
O O10 0.679306 0.083639 0.839815
O O11 0.045464 0.019500 0.219863
O O12 0.500000 0.000000 0.000000
O O13 0.530354 0.872979 0.495439
O O14 0.557592 0.042611 0.336201
O O15 0.000000 0.500000 0.500000
#
# Coordination Sequence:
#
# PCOD8002257 Si02
#       7
#     2   2   2   2   2   2   2
#     4  10  22  39  62  92 125 159 209 255 309 369
#     4  10  24  45  65  91 126 168 206 259 313 384
#     4  11  23  42  66  93 128 166 207 261 316 375
#     4  10  20  35  58  87 124 164 203 252 303 358
#     4   9  19  37  57  84 122 165 208 249 301 361
#     4   9  20  38  59  86 122 165 207 253 306 364
#     4  11  25  44  68  96 124 161 213 259 320 381
#
# _framework density 22.480005999999999
#
# number of rings (size 3 to 8) (size 9 to 14) (size 15 to 20)
#    0.000    2.000    0.000    2.143    2.000    9.143 
#    5.143    4.286    0.000    0.000    0.000    0.000 
#    0.000    0.000    0.000    0.000    0.000    0.000 
#
# Total GULP energy -173483.340414 kJ/mol
# GULP energy per Si atom -12391.667172 kJ/mol
# Density = 2.242884 g / cm^3
# Si number density = 22.480006 Si / 1000 Ang^3
#
#
#
# Elastic Constant Matrix: (Units=GPa)
#
#
# Indices 1 2 3 4 5 6 
#
# 1 58.9304 42.2413 19.6525 5.0485 -25.8796 12.3521
# 2 42.2413 130.0210 58.5689 16.5584 -20.9631 17.2253
# 3 19.6525 58.5689 118.6236 -0.8380 -25.1373 11.5418
# 4 5.0485 16.5584 -0.8380 36.9011 4.1616 -7.3178
# 5 -25.8796 -20.9631 -25.1373 4.1616 32.3402 -2.0256
# 6 12.3521 17.2253 11.5418 -7.3178 -2.0256 36.2611
#
#
#
# Elastic Compliance Matrix: (Units=1/GPa)
#
#
# Indices 1 2 3 4 5 6 
#
# 1 0.034917 -0.006696 0.004176 -0.006692 0.027089 -0.009880
# 2 -0.006696 0.013440 -0.005256 -0.005934 -0.000196 -0.003639
# 3 0.004176 -0.005256 0.012571 0.000549 0.009492 -0.002286
# 4 -0.006692 -0.005934 0.000549 0.034310 -0.012491 0.011150
# 5 0.027089 -0.000196 0.009492 -0.012491 0.060750 -0.011283
# 6 -0.009880 -0.003639 -0.002286 0.011150 -0.011283 0.035019
#
#
# Mechanical properties :
#
#
# Convention : Reuss Voigt Hill
#
# Bulk Modulus (GPa) = 22.03835 60.94449 41.49142
# Shear Modulus (GPa) = 22.55443 33.57462 28.06453
#
# Velocity S-wave (km/s) = 3.17094 3.86882 3.53713
# Velocity P-wave (km/s) = 4.81989 6.86487 5.93118
#
# Compressibility (1/GPa) = 0.04537545
#
# Stress axis : x y z
#
# Youngs Moduli (GPa) = 28.63947 74.40299 79.54785
#
# Poissons Ratio (x) = 0.49822 -0.33218
# Poissons Ratio (y) = 0.19178 0.41811
# Poissons Ratio (z) = -0.11959 0.39106
#
# Static dielectric constant tensor:
#      x y z
#    x 3.904840 0.071100 -0.105240 
#    y 0.071100 4.576680 -0.164150 
#    z -0.105240 -0.164150 4.248590 
# 
# 
# High freq. dielectric constant tensor:
#      x y z
#    x 1.867170 0.004300 -0.011430 
#    y 0.004300 1.882670 -0.009940 
#    z -0.011430 -0.009940 1.895830 
# 
# From -- ./inp_files/38326.got.cif
#   From: 2010.06.25/outbox.cif.g09.slc.cpg/sg2_20_cif.got.tgz:38326.got - 2010.06.27 13:26:56.
