data_PCOD8002961
_publ_section_title
;
Structure prediction by ZEFSAII (Michael W. Deem and Ramdas Pophale) SiO2 
 PCOD8002961
Probable space group: P -1
;
_chemical_formula_sum "Si O2"
_cell_formula_units_Z 16
_cell_length_a 14.300356
_cell_length_b 11.125828
_cell_length_c 8.897461
_cell_angle_alpha 124.699547
_cell_angle_beta 46.533805
_cell_angle_gamma 123.518901
_cell_volume 813.528921
_symmetry_space_group_name_H-M "P -1"
_symmetry_group_IT_number 2
_symmetry_cell_setting 'triclinic'
loop_
_space_group_symop_operation_xyz
x,y,z
-x,-y,-z
loop_
_atom_site_type_symbol
_atom_site_label
_atom_site_fract_x
_atom_site_fract_y
_atom_site_fract_z
Si Si1 0.965477 0.835186 0.991000
Si Si2 0.298810 0.202326 0.895024
Si Si3 0.581656 0.343657 0.536796
Si Si4 0.465331 0.779343 0.810387
Si Si5 0.673951 0.688172 0.720264
Si Si6 0.108777 0.097571 0.558383
Si Si7 0.681731 0.075477 0.712079
Si Si8 0.249508 0.848640 0.633296
O O1 0.089918 0.765859 0.765337
O O2 0.823387 0.744197 0.009930
O O3 0.956533 0.839760 0.184318
O O4 0.000000 0.000000 0.000000
O O5 0.433740 0.296858 0.735019
O O6 0.280575 0.024512 0.767730
O O7 0.301588 0.233526 0.090068
O O8 0.576431 0.346384 0.362790
O O9 0.656361 0.510079 0.631217
O O10 0.667608 0.229494 0.404882
O O11 0.543390 0.719847 0.813273
O O12 0.551285 0.933068 0.745438
O O13 0.335070 0.812687 0.055181
O O14 0.801081 0.757886 0.525078
O O15 0.189454 0.983570 0.447868
O O16 0.000000 0.000000 0.500000
O O17 0.700161 0.168139 0.602646
#
# Coordination Sequence:
#
# PCOD8002961 Si02
#       8
#     2   2   2   2   2   2   2   2
#     4  10  20  38  62  93 122 157 206 257 305 357
#     4  11  21  40  65  89 122 168 211 252 302 367
#     4  12  24  40  63  91 128 166 203 258 313 368
#     4  10  22  37  59  89 129 156 202 257 315 359
#     4  11  25  40  61  93 125 163 205 252 318 373
#     4  11  21  38  65  90 125 160 207 254 306 371
#     4  10  20  36  60  96 118 155 207 262 298 355
#     4  11  22  38  64  96 122 157 212 258 301 364
#
# _framework density 19.667401999999999
#
# number of rings (size 3 to 8) (size 9 to 14) (size 15 to 20)
#    0.000    1.250    3.750    4.125    7.000    0.000 
#    0.000    1.250    2.750    0.000    0.000    0.000 
#    0.000    0.000    0.000    0.000    0.000    0.000 
#
# Total GULP energy -198433.943211 kJ/mol
# GULP energy per Si atom -12402.121451 kJ/mol
# Density = 1.962264 g / cm^3
# Si number density = 19.667402 Si / 1000 Ang^3
#
#
#
# Elastic Constant Matrix: (Units=GPa)
#
#
# Indices 1 2 3 4 5 6 
#
# 1 107.2689 23.8887 39.0076 -16.3970 10.2283 7.6405
# 2 23.8887 70.7897 24.8742 -7.0345 -1.8380 3.4753
# 3 39.0076 24.8742 114.9977 -22.7405 15.5203 -0.8036
# 4 -16.3970 -7.0345 -22.7405 14.4338 0.0799 -2.7900
# 5 10.2283 -1.8380 15.5203 0.0799 37.1595 -9.1557
# 6 7.6405 3.4753 -0.8036 -2.7900 -9.1557 14.8500
#
#
#
# Elastic Compliance Matrix: (Units=1/GPa)
#
#
# Indices 1 2 3 4 5 6 
#
# 1 0.012888 -0.002710 -0.001159 0.010121 -0.005003 -0.007243
# 2 -0.002710 0.016184 -0.002933 -0.000019 0.002526 -0.000998
# 3 -0.001159 -0.002933 0.014557 0.020741 -0.005283 0.002710
# 4 0.010121 -0.000019 0.020741 0.115884 -0.008654 0.012356
# 5 -0.005003 0.002526 -0.005283 -0.008654 0.036147 0.022357
# 6 -0.007243 -0.000998 0.002710 0.012356 0.022357 0.087553
#
#
# Mechanical properties :
#
#
# Convention : Reuss Voigt Hill
#
# Bulk Modulus (GPa) = 33.30701 52.06637 42.68669
# Shear Modulus (GPa) = 16.29594 26.97438 21.63516
#
# Velocity S-wave (km/s) = 2.88162 3.70743 3.32030
# Velocity P-wave (km/s) = 5.29562 6.69758 6.03743
#
# Compressibility (1/GPa) = 0.03002371
#
# Stress axis : x y z
#
# Youngs Moduli (GPa) = 77.59439 61.78854 68.69622
#
# Poissons Ratio (x) = 0.16747 0.07963
# Poissons Ratio (y) = 0.21031 0.20148
# Poissons Ratio (z) = 0.08995 0.18122
#
# Static dielectric constant tensor:
#      x y z
#    x 3.982390 0.140570 -0.056220 
#    y 0.140570 3.379820 -0.275160 
#    z -0.056220 -0.275160 3.992610 
# 
# 
# High freq. dielectric constant tensor:
#      x y z
#    x 1.775870 0.001590 0.007070 
#    y 0.001590 1.734280 -0.017700 
#    z 0.007070 -0.017700 1.781400 
# 
# From -- ./inp_files/261473.got.cif
#   From: 2010.06.25/outbox.cif.g09.slc.cpg/sg2_131_cif.got.tgz:261473.got - 2010.06.27 13:26:56.
