data_PCOD8002281
_publ_section_title
;
Structure prediction by ZEFSAII (Michael W. Deem and Ramdas Pophale) SiO2 
 PCOD8002281
Probable space group: P -1
;
_chemical_formula_sum "Si O2"
_cell_formula_units_Z 14
_cell_length_a 7.658135
_cell_length_b 10.700851
_cell_length_c 9.947179
_cell_angle_alpha 90.950354
_cell_angle_beta 129.859852
_cell_angle_gamma 94.866955
_cell_volume 620.780913
_symmetry_space_group_name_H-M "P -1"
_symmetry_group_IT_number 2
_symmetry_cell_setting 'triclinic'
loop_
_space_group_symop_operation_xyz
x,y,z
-x,-y,-z
loop_
_atom_site_type_symbol
_atom_site_label
_atom_site_fract_x
_atom_site_fract_y
_atom_site_fract_z
Si Si1 0.034704 0.489922 0.808242
Si Si2 0.627148 0.492659 0.788739
Si Si3 0.669049 0.125292 0.059657
Si Si4 0.562031 0.781997 0.286146
Si Si5 0.096431 0.035821 0.400040
Si Si6 0.269218 0.660836 0.709906
Si Si7 0.994508 0.233784 0.654059
O O1 0.088436 0.556997 0.693516
O O2 0.975399 0.340017 0.757663
O O3 0.817240 0.541353 0.772039
O O4 0.259691 0.519320 0.010281
O O5 0.506040 0.354953 0.685127
O O6 0.446253 0.592215 0.708169
O O7 0.599858 0.240371 0.118924
O O8 0.651257 0.164016 0.893979
O O9 0.929583 0.105694 0.224160
O O10 0.500000 0.000000 0.000000
O O11 0.742050 0.774862 0.252993
O O12 0.664283 0.873719 0.459899
O O13 0.125724 0.899605 0.345963
O O14 0.000000 0.000000 0.500000
O O15 0.127769 0.739225 0.544117
#
# Coordination Sequence:
#
# PCOD8002281 Si02
#       7
#     2   2   2   2   2   2   2
#     4  11  24  42  61  94 129 162 216 262 309 380
#     4  11  25  40  64  93 127 167 212 259 316 377
#     4  12  20  34  66  96 122 168 213 255 318 373
#     4  11  20  39  61  92 130 162 210 261 310 375
#     4  10  20  35  58  98 123 162 216 258 304 384
#     4  12  22  39  64  96 125 167 208 256 322 377
#     4  11  21  38  63  93 128 161 212 261 310 376
#
# _framework density 22.552237999999999
#
# number of rings (size 3 to 8) (size 9 to 14) (size 15 to 20)
#    0.000    0.857    8.571    1.714    0.000    0.571 
#    0.000    0.714    0.000    3.429    0.000    1.000 
#    0.000    0.000    0.000    0.000    0.000    0.000 
#
# Total GULP energy -173605.351315 kJ/mol
# GULP energy per Si atom -12400.382237 kJ/mol
# Density = 2.250091 g / cm^3
# Si number density = 22.552238 Si / 1000 Ang^3
#
#
#
# Elastic Constant Matrix: (Units=GPa)
#
#
# Indices 1 2 3 4 5 6 
#
# 1 59.3082 19.6258 16.4196 -5.8208 1.3632 -10.8720
# 2 19.6258 137.8350 47.5379 20.7210 8.9999 -13.7960
# 3 16.4196 47.5379 125.5029 1.6680 14.2867 -1.7219
# 4 -5.8208 20.7210 1.6680 52.5476 -1.5434 2.7498
# 5 1.3632 8.9999 14.2867 -1.5434 10.3034 2.0146
# 6 -10.8720 -13.7960 -1.7219 2.7498 2.0146 11.9502
#
#
#
# Elastic Compliance Matrix: (Units=1/GPa)
#
#
# Indices 1 2 3 4 5 6 
#
# 1 0.021209 -0.000509 -0.002010 0.001555 -0.002971 0.018562
# 2 -0.000509 0.011251 -0.002824 -0.005470 -0.009596 0.014996
# 3 -0.002010 -0.002824 0.010592 0.000303 -0.011580 -0.001681
# 4 0.001555 -0.005470 0.000303 0.022245 0.009756 -0.011620
# 5 -0.002971 -0.009596 -0.011580 0.009756 0.131129 -0.039800
# 6 0.018562 0.014996 -0.001681 -0.011620 -0.039800 0.127022
#
#
# Mechanical properties :
#
#
# Convention : Reuss Voigt Hill
#
# Bulk Modulus (GPa) = 30.89602 54.42362 42.65982
# Shear Modulus (GPa) = 14.49597 30.89776 22.69687
#
# Velocity S-wave (km/s) = 2.53805 3.70544 3.17584
# Velocity P-wave (km/s) = 4.72424 6.51856 5.69254
#
# Compressibility (1/GPa) = 0.03236663
#
# Stress axis : x y z
#
# Youngs Moduli (GPa) = 47.14879 88.87769 94.41215
#
# Poissons Ratio (x) = 0.04520 0.18976
# Poissons Ratio (y) = 0.02398 0.26667
# Poissons Ratio (z) = 0.09477 0.25103
#
# Static dielectric constant tensor:
#      x y z
#    x 3.416820 -0.145450 0.086110 
#    y -0.145450 4.539650 0.245120 
#    z 0.086110 0.245120 4.333450 
# 
# 
# High freq. dielectric constant tensor:
#      x y z
#    x 1.829800 -0.005190 0.006040 
#    y -0.005190 1.909180 0.011330 
#    z 0.006040 0.011330 1.907260 
# 
# From -- ./inp_files/387965.got.cif
#   From: 2010.06.25/outbox.cif.g09.slc.cpg/sg2_194_cif.got.tgz:387965.got - 2010.06.27 13:26:56.
