data_PCOD8002236
_publ_section_title
;
Structure prediction by ZEFSAII (Michael W. Deem and Ramdas Pophale) SiO2 
 PCOD8002236
Probable space group: P -1
;
_chemical_formula_sum "Si O2"
_cell_formula_units_Z 16
_cell_length_a 9.080255
_cell_length_b 10.864270
_cell_length_c 11.817653
_cell_angle_alpha 87.624728
_cell_angle_beta 90.460385
_cell_angle_gamma 140.880827
_cell_volume 734.384267
_symmetry_space_group_name_H-M "P -1"
_symmetry_group_IT_number 2
_symmetry_cell_setting 'triclinic'
loop_
_space_group_symop_operation_xyz
x,y,z
-x,-y,-z
loop_
_atom_site_type_symbol
_atom_site_label
_atom_site_fract_x
_atom_site_fract_y
_atom_site_fract_z
Si Si1 0.447507 0.125975 0.095949
Si Si2 0.499496 0.305773 0.472944
Si Si3 0.078578 0.797297 0.285972
Si Si4 0.881436 0.762589 0.500730
Si Si5 0.163026 0.346567 0.257126
Si Si6 0.570539 0.417831 0.230526
Si Si7 0.657116 0.274338 0.683473
Si Si8 0.286376 0.943438 0.869631
O O1 0.555944 0.329414 0.118486
O O2 0.652749 0.158084 0.095218
O O3 0.253796 0.971630 0.193708
O O4 0.332040 0.059166 0.974116
O O5 0.673854 0.532265 0.483896
O O6 0.233432 0.174674 0.509666
O O7 0.517629 0.288775 0.339800
O O8 0.574071 0.240031 0.554305
O O9 0.082279 0.875602 0.402452
O O10 0.825824 0.642385 0.232679
O O11 0.139687 0.695336 0.317148
O O12 0.970823 0.791484 0.626769
O O13 0.388978 0.411990 0.228375
O O14 0.241121 0.537255 0.267279
O O15 0.985805 0.224534 0.156020
O O16 0.437786 0.086242 0.760053
#
# Coordination Sequence:
#
# PCOD8002236 Si02
#       8
#     2   2   2   2   2   2   2   2
#     4  10  23  41  57  77 108 146 188 229 269 318
#     4   8  16  32  53  80 113 144 174 213 268 329
#     4  10  20  35  58  84 110 143 181 224 271 320
#     4   8  16  32  53  80 113 144 174 213 268 329
#     4  10  21  37  58  83 112 145 178 220 274 327
#     4  10  21  37  58  83 112 145 178 220 274 327
#     4  10  20  35  58  84 110 143 181 224 271 320
#     4  10  23  41  57  77 108 146 188 229 269 318
#
# _framework density 21.786957999999998
#
# number of rings (size 3 to 8) (size 9 to 14) (size 15 to 20)
#    0.000    2.500    0.000    3.000    0.000   10.000 
#    0.000   10.000    0.000    0.000    0.000    0.000 
#    0.000    0.000    0.000    0.000    0.000    0.000 
#
# Total GULP energy -198404.132854 kJ/mol
# GULP energy per Si atom -12400.258303 kJ/mol
# Density = 2.173737 g / cm^3
# Si number density = 21.786958 Si / 1000 Ang^3
#
#
#
# Elastic Constant Matrix: (Units=GPa)
#
#
# Indices 1 2 3 4 5 6 
#
# 1 94.4472 24.3107 32.2840 17.8420 1.8510 9.0901
# 2 24.3107 20.3810 6.5255 13.9205 12.2074 6.6915
# 3 32.2840 6.5255 49.4685 24.9037 -1.6026 5.1359
# 4 17.8420 13.9205 24.9037 34.1680 1.8770 -1.7082
# 5 1.8510 12.2074 -1.6026 1.8770 31.5058 9.9587
# 6 9.0901 6.6915 5.1359 -1.7082 9.9587 33.5807
#
#
#
# Elastic Compliance Matrix: (Units=1/GPa)
#
#
# Indices 1 2 3 4 5 6 
#
# 1 0.024784 -0.044896 -0.019688 0.019099 0.013058 0.002348
# 2 -0.044896 0.184663 0.047813 -0.084605 -0.055148 -0.019906
# 3 -0.019688 0.047813 0.051244 -0.046697 -0.008193 -0.011981
# 4 0.019099 -0.084605 -0.046697 0.087678 0.018426 0.017827
# 5 0.013058 -0.055148 -0.008193 0.018426 0.052720 -0.005990
# 6 0.002348 -0.019906 -0.011981 0.017827 -0.005990 0.037626
#
#
# Mechanical properties :
#
#
# Convention : Reuss Voigt Hill
#
# Bulk Modulus (GPa) = 4.40240 32.28188 18.34214
# Shear Modulus (GPa) = 9.12454 26.59600 17.86027
#
# Velocity S-wave (km/s) = 2.04870 3.49769 2.86627
# Velocity P-wave (km/s) = 2.76066 5.58220 4.40353
#
# Compressibility (1/GPa) = 0.22714867
#
# Stress axis : x y z
#
# Youngs Moduli (GPa) = 40.34848 5.41526 19.51466
#
# Poissons Ratio (x) = 0.24313 0.38420
# Poissons Ratio (y) = 1.81150 -0.93306
# Poissons Ratio (z) = 0.79438 -0.25892
#
# Static dielectric constant tensor:
#      x y z
#    x 3.963580 0.040580 -0.082420 
#    y 0.040580 3.665880 0.170100 
#    z -0.082420 0.170100 4.163430 
# 
# 
# High freq. dielectric constant tensor:
#      x y z
#    x 1.853380 0.005050 -0.003730 
#    y 0.005050 1.853510 0.012000 
#    z -0.003730 0.012000 1.852130 
# 
# From -- ./inp_files/273253.got.cif
#   From: 2010.06.25/outbox.cif.g09.slc.cpg/sg2_137_cif.got.tgz:273253.got - 2010.06.27 13:26:56.
