data_PCOD8002999
_publ_section_title
;
Structure prediction by ZEFSAII (Michael W. Deem and Ramdas Pophale) SiO2 
 PCOD8002999
Probable space group: P -1
;
_chemical_formula_sum "Si O2"
_cell_formula_units_Z 16
_cell_length_a 11.715660
_cell_length_b 15.525318
_cell_length_c 9.734826
_cell_angle_alpha 57.484437
_cell_angle_beta 71.016899
_cell_angle_gamma 119.455896
_cell_volume 774.772831
_symmetry_space_group_name_H-M "P -1"
_symmetry_group_IT_number 2
_symmetry_cell_setting 'triclinic'
loop_
_space_group_symop_operation_xyz
x,y,z
-x,-y,-z
loop_
_atom_site_type_symbol
_atom_site_label
_atom_site_fract_x
_atom_site_fract_y
_atom_site_fract_z
Si Si1 0.821846 0.052154 0.672543
Si Si2 0.890857 0.893029 0.333562
Si Si3 0.246050 0.296849 0.732866
Si Si4 0.826913 0.285303 0.385453
Si Si5 0.880812 0.188995 0.000389
Si Si6 0.544488 0.923646 0.115939
Si Si7 0.763539 0.294694 0.112090
Si Si8 0.683816 0.917145 0.547674
O O1 0.855684 0.196902 0.521081
O O2 0.036575 0.153957 0.568065
O O3 0.794529 0.980935 0.597664
O O4 0.612777 0.890813 0.998557
O O5 0.768270 0.767485 0.353548
O O6 0.698792 0.817434 0.554755
O O7 0.105870 0.119477 0.036606
O O8 0.500000 0.500000 0.500000
O O9 0.127774 0.324349 0.756983
O O10 0.679726 0.259991 0.556352
O O11 0.710468 0.191588 0.360554
O O12 0.065427 0.498593 0.088485
O O13 0.859880 0.294926 0.949160
O O14 0.741046 0.062792 0.029732
O O15 0.801546 0.081009 0.263663
O O16 0.500000 0.000000 0.000000
O O17 0.557817 0.213707 0.211289
#
# Coordination Sequence:
#
# PCOD8002999 Si02
#       8
#     2   2   2   2   2   2   2   2
#     4  11  21  42  62  90 131 169 213 265 329 385
#     4  10  23  43  67  93 132 172 218 265 321 393
#     4  10  23  43  68  99 126 172 221 268 323 384
#     4  10  22  36  60  95 128 165 211 268 321 384
#     4  11  20  39  64  90 126 167 215 265 317 394
#     4  10  20  36  61  88 122 169 205 258 323 380
#     4  11  21  37  61  96 126 163 218 266 317 386
#     4  11  22  39  65  90 126 174 216 256 326 395
#
# _framework density 20.651214
#
# number of rings (size 3 to 8) (size 9 to 14) (size 15 to 20)
#    0.000    1.500    3.750    2.250    0.000    3.000 
#    2.250    6.250    0.000    0.000    0.000    0.000 
#    0.000    0.000    0.000    0.000    0.000    0.000 
#
# Total GULP energy -198240.286606 kJ/mol
# GULP energy per Si atom -12390.017913 kJ/mol
# Density = 2.060421 g / cm^3
# Si number density = 20.651214 Si / 1000 Ang^3
#
#
#
# Elastic Constant Matrix: (Units=GPa)
#
#
# Indices 1 2 3 4 5 6 
#
# 1 120.1089 44.1562 35.1341 5.9363 -28.7916 -3.3229
# 2 44.1562 116.4986 42.4393 19.7473 -12.5084 0.5892
# 3 35.1341 42.4393 68.3113 1.1094 -21.0898 -0.8521
# 4 5.9363 19.7473 1.1094 34.1697 0.3687 -8.9017
# 5 -28.7916 -12.5084 -21.0898 0.3687 32.5801 10.7398
# 6 -3.3229 0.5892 -0.8521 -8.9017 10.7398 39.3047
#
#
#
# Elastic Compliance Matrix: (Units=1/GPa)
#
#
# Indices 1 2 3 4 5 6 
#
# 1 0.012004 -0.002815 -0.001646 -0.000933 0.009018 -0.001654
# 2 -0.002815 0.013417 -0.007176 -0.007528 -0.001252 -0.001958
# 3 -0.001646 -0.007176 0.023450 0.003024 0.011597 -0.002007
# 4 -0.000933 -0.007528 0.003024 0.036290 -0.005397 0.009793
# 5 0.009018 -0.001252 0.011597 -0.005397 0.050348 -0.013947
# 6 -0.001654 -0.001958 -0.002007 0.009793 -0.013947 0.031317
#
#
# Mechanical properties :
#
#
# Convention : Reuss Voigt Hill
#
# Bulk Modulus (GPa) = 39.06911 60.93090 50.00000
# Shear Modulus (GPa) = 25.17208 33.42352 29.29780
#
# Velocity S-wave (km/s) = 3.49508 4.02739 3.77064
# Velocity P-wave (km/s) = 5.93693 7.15509 6.57429
#
# Compressibility (1/GPa) = 0.02559567
#
# Stress axis : x y z
#
# Youngs Moduli (GPa) = 83.30232 74.53480 42.64400
#
# Poissons Ratio (x) = 0.20985 0.07021
# Poissons Ratio (y) = 0.23454 0.30600
# Poissons Ratio (z) = 0.13716 0.53484
#
# Static dielectric constant tensor:
#      x y z
#    x 3.951120 -0.015680 -0.248460 
#    y -0.015680 3.842480 0.504070 
#    z -0.248460 0.504070 3.791000 
# 
# 
# High freq. dielectric constant tensor:
#      x y z
#    x 1.819140 0.005060 -0.020210 
#    y 0.005060 1.807860 0.031220 
#    z -0.020210 0.031220 1.784410 
# 
# From -- ./inp_files/181246.got.cif
#   From: 2010.06.25/outbox.cif.g09.slc.cpg/sg2_91_cif.got.tgz:181246.got - 2010.06.27 13:26:56.
