data_PCOD8002542
_publ_section_title
;
Structure prediction by ZEFSAII (Michael W. Deem and Ramdas Pophale) SiO2 
 PCOD8002542
Probable space group: P -1
;
_chemical_formula_sum "Si O2"
_cell_formula_units_Z 16
_cell_length_a 10.266242
_cell_length_b 8.962901
_cell_length_c 18.124961
_cell_angle_alpha 82.093396
_cell_angle_beta 145.991984
_cell_angle_gamma 76.392556
_cell_volume 717.137418
_symmetry_space_group_name_H-M "P -1"
_symmetry_group_IT_number 2
_symmetry_cell_setting 'triclinic'
loop_
_space_group_symop_operation_xyz
x,y,z
-x,-y,-z
loop_
_atom_site_type_symbol
_atom_site_label
_atom_site_fract_x
_atom_site_fract_y
_atom_site_fract_z
Si Si1 0.436752 0.175226 0.038588
Si Si2 0.001263 0.853586 0.406594
Si Si3 0.513195 0.415210 0.645858
Si Si4 0.650092 0.128494 0.989596
Si Si5 0.044173 0.510446 0.106014
Si Si6 0.308720 0.897854 0.349049
Si Si7 0.445089 0.898438 0.580143
Si Si8 0.299749 0.286668 0.666993
O O1 0.442560 0.249814 0.955423
O O2 0.785424 0.010068 0.233101
O O3 0.272822 0.348732 0.009523
O O4 0.275111 0.079798 0.965807
O O5 0.203969 0.635126 0.482812
O O6 0.217480 0.904601 0.531001
O O7 0.788698 0.857289 0.368453
O O8 0.775763 0.409193 0.802772
O O9 0.586301 0.315200 0.606961
O O10 0.516038 0.258931 0.706504
O O11 0.461932 0.261179 0.821988
O O12 0.974757 0.074825 0.151242
O O13 0.219540 0.298960 0.237716
O O14 0.000000 0.500000 0.000000
O O15 0.322093 0.898145 0.443104
O O16 0.539495 0.927354 0.419386
O O17 0.000000 0.500000 0.500000
#
# Coordination Sequence:
#
# PCOD8002542 Si02
#       8
#     2   2   2   2   2   2   2   2
#     4  10  20  40  66  98 123 166 220 271 325 379
#     4   9  19  41  64  90 125 162 217 267 320 384
#     4  10  22  40  67  96 128 173 221 265 325 396
#     4  10  20  35  68  94 126 165 221 274 319 387
#     4  11  25  43  64  97 134 174 215 267 331 394
#     4  11  22  41  67  96 130 172 222 275 322 380
#     4  10  24  41  64  92 137 171 220 270 325 387
#     4   9  20  36  59  95 129 160 211 265 320 385
#
# _framework density 22.310925999999998
#
# number of rings (size 3 to 8) (size 9 to 14) (size 15 to 20)
#    0.000    2.000    2.500    0.000    1.750    8.500 
#    0.000    8.750    0.000    0.000    0.000    0.000 
#    0.000    0.000    0.000    0.000    0.000    0.000 
#
# Total GULP energy -198223.663570 kJ/mol
# GULP energy per Si atom -12388.978973 kJ/mol
# Density = 2.226015 g / cm^3
# Si number density = 22.310926 Si / 1000 Ang^3
#
#
#
# Elastic Constant Matrix: (Units=GPa)
#
#
# Indices 1 2 3 4 5 6 
#
# 1 37.8465 10.4637 18.5859 -2.3605 4.4289 5.2641
# 2 10.4637 81.1323 24.2833 13.2181 3.8345 -3.6032
# 3 18.5859 24.2833 128.7900 -0.6194 -8.3148 -6.1388
# 4 -2.3605 13.2181 -0.6194 25.7724 3.5546 2.4234
# 5 4.4289 3.8345 -8.3148 3.5546 26.8790 0.4366
# 6 5.2641 -3.6032 -6.1388 2.4234 0.4366 36.1178
#
#
#
# Elastic Compliance Matrix: (Units=1/GPa)
#
#
# Indices 1 2 3 4 5 6 
#
# 1 0.031729 -0.003676 -0.004589 0.006199 -0.006844 -0.006104
# 2 -0.003676 0.014964 -0.002303 -0.008107 -0.001205 0.002196
# 3 -0.004589 -0.002303 0.009204 0.000267 0.003865 0.001939
# 4 0.006199 -0.008107 0.000267 0.044742 -0.005625 -0.004601
# 5 -0.006844 -0.001205 0.003865 -0.005625 0.040420 0.001423
# 6 -0.006104 0.002196 0.001939 -0.004601 0.001423 0.029417
#
#
# Mechanical properties :
#
#
# Convention : Reuss Voigt Hill
#
# Bulk Modulus (GPa) = 28.76765 39.38164 34.07464
# Shear Modulus (GPa) = 24.60640 30.71625 27.66133
#
# Velocity S-wave (km/s) = 3.32458 3.71446 3.52491
# Velocity P-wave (km/s) = 5.25919 6.00716 5.64557
#
# Compressibility (1/GPa) = 0.03476127
#
# Stress axis : x y z
#
# Youngs Moduli (GPa) = 31.51701 66.82567 108.64530
#
# Poissons Ratio (x) = 0.24567 0.49854
# Poissons Ratio (y) = 0.11587 0.25022
# Poissons Ratio (z) = 0.14462 0.15391
#
# Static dielectric constant tensor:
#      x y z
#    x 4.381620 0.381290 0.052320 
#    y 0.381290 3.867820 0.114190 
#    z 0.052320 0.114190 4.016650 
# 
# 
# High freq. dielectric constant tensor:
#      x y z
#    x 1.879570 0.018170 0.006520 
#    y 0.018170 1.854740 0.009970 
#    z 0.006520 0.009970 1.883640 
# 
# From -- ./inp_files/403546.got.cif
#   From: 2010.06.25/outbox.cif.g09.slc.cpg/sg2_202_cif.got.tgz:403546.got - 2010.06.27 13:26:56.
