data_PCOD8002118
_publ_section_title
;
Structure prediction by ZEFSAII (Michael W. Deem and Ramdas Pophale) SiO2 
 PCOD8002118
Probable space group: P -1
;
_chemical_formula_sum "Si O2"
_cell_formula_units_Z 16
_cell_length_a 13.299683
_cell_length_b 14.149838
_cell_length_c 12.238538
_cell_angle_alpha 48.607712
_cell_angle_beta 112.601270
_cell_angle_gamma 148.614868
_cell_volume 798.461226
_symmetry_space_group_name_H-M "P -1"
_symmetry_group_IT_number 2
_symmetry_cell_setting 'triclinic'
loop_
_space_group_symop_operation_xyz
x,y,z
-x,-y,-z
loop_
_atom_site_type_symbol
_atom_site_label
_atom_site_fract_x
_atom_site_fract_y
_atom_site_fract_z
Si Si1 0.917805 0.499832 0.564469
Si Si2 0.190711 0.639638 0.896898
Si Si3 0.189131 0.215765 0.117675
Si Si4 0.494437 0.617116 0.760641
Si Si5 0.427007 0.006491 0.066801
Si Si6 0.043196 0.788267 0.028076
Si Si7 0.343613 0.940336 0.541253
Si Si8 0.903805 0.730632 0.253303
O O1 0.715163 0.227462 0.739814
O O2 0.849129 0.569468 0.441995
O O3 0.000000 0.500000 0.500000
O O4 0.103106 0.699303 0.578165
O O5 0.100101 0.461116 0.899770
O O6 0.363929 0.739664 0.969588
O O7 0.318798 0.881250 0.704404
O O8 0.000000 0.500000 0.000000
O O9 0.291305 0.259662 0.239228
O O10 0.379479 0.485696 0.931203
O O11 0.102100 0.015429 0.158254
O O12 0.989940 0.115094 0.129669
O O13 0.557396 0.823415 0.611031
O O14 0.316229 0.405412 0.753978
O O15 0.295061 0.997746 0.977362
O O16 0.500000 0.000000 0.000000
O O17 0.963947 0.725761 0.167164
O O18 0.500000 0.000000 0.500000
#
# Coordination Sequence:
#
# PCOD8002118 Si02
#       8
#     2   2   2   2   2   2   2   2
#     4  12  21  37  59  94 126 156 201 261 317 363
#     4  12  24  42  63  91 125 165 204 258 315 373
#     4  10  22  37  58  90 130 166 205 252 306 366
#     4  10  20  35  55  86 128 160 202 245 313 356
#     4  12  24  41  63  91 124 164 206 255 318 372
#     4  11  22  38  61  90 124 162 213 243 307 371
#     4  12  22  36  60  95 127 156 203 260 317 363
#     4  11  21  37  60  94 128 160 203 259 304 370
#
# _framework density 20.038543000000001
#
# number of rings (size 3 to 8) (size 9 to 14) (size 15 to 20)
#    0.000    0.750    5.000    5.250    0.000    4.000 
#    0.000    0.000    0.000    1.500    3.250    0.000 
#    0.000    0.000    0.000    0.000    0.000    0.000 
#
# Total GULP energy -198293.148490 kJ/mol
# GULP energy per Si atom -12393.321781 kJ/mol
# Density = 1.999293 g / cm^3
# Si number density = 20.038543 Si / 1000 Ang^3
#
#
#
# Elastic Constant Matrix: (Units=GPa)
#
#
# Indices 1 2 3 4 5 6 
#
# 1 105.2738 44.5930 51.9058 11.6429 9.4437 31.4689
# 2 44.5930 132.4223 12.2259 5.3856 1.2596 34.0988
# 3 51.9058 12.2259 89.5107 2.3343 1.6563 5.0633
# 4 11.6429 5.3856 2.3343 29.3525 4.2317 10.4600
# 5 9.4437 1.2596 1.6563 4.2317 32.4988 8.8973
# 6 31.4689 34.0988 5.0633 10.4600 8.8973 48.3983
#
#
#
# Elastic Compliance Matrix: (Units=1/GPa)
#
#
# Indices 1 2 3 4 5 6 
#
# 1 0.018473 -0.003202 -0.009722 -0.002898 -0.002264 -0.007695
# 2 -0.003202 0.009935 0.000752 0.001104 0.001892 -0.005583
# 3 -0.009722 0.000752 0.016457 0.000970 0.000815 0.003710
# 4 -0.002898 0.001104 0.000970 0.037663 -0.002318 -0.006709
# 5 -0.002264 0.001892 0.000815 -0.002318 0.033131 -0.005536
# 6 -0.007695 -0.005583 0.003710 -0.006709 -0.005536 0.031678
#
#
# Mechanical properties :
#
#
# Convention : Reuss Voigt Hill
#
# Bulk Modulus (GPa) = 48.73284 60.51737 54.62510
# Shear Modulus (GPa) = 28.00784 36.61541 32.31163
#
# Velocity S-wave (km/s) = 3.74264 4.27927 4.01992
# Velocity P-wave (km/s) = 6.56116 7.39475 6.99039
#
# Compressibility (1/GPa) = 0.02052004
#
# Stress axis : x y z
#
# Youngs Moduli (GPa) = 54.13333 100.65254 60.76619
#
# Poissons Ratio (x) = 0.32230 0.59077
# Poissons Ratio (y) = 0.17334 -0.04569
# Poissons Ratio (z) = 0.52628 -0.07568
#
# Static dielectric constant tensor:
#      x y z
#    x 3.835460 0.578850 0.400260 
#    y 0.578850 4.316140 0.141140 
#    z 0.400260 0.141140 3.669310 
# 
# 
# High freq. dielectric constant tensor:
#      x y z
#    x 1.757450 0.029060 0.027740 
#    y 0.029060 1.811210 0.000030 
#    z 0.027740 0.000030 1.763000 
# 
# From -- ./inp_files/455560.got.cif
#   From: 2010.06.25/outbox.cif.g09.slc.cpg/sg2_228_cif.got.tgz:455560.got - 2010.06.27 13:26:56.
