data_PCOD8002057
_publ_section_title
;
Structure prediction by ZEFSAII (Michael W. Deem and Ramdas Pophale) SiO2 
 PCOD8002057
Probable space group: P -1
;
_chemical_formula_sum "Si O2"
_cell_formula_units_Z 16
_cell_length_a 8.818038
_cell_length_b 14.300296
_cell_length_c 8.818745
_cell_angle_alpha 98.968017
_cell_angle_beta 62.061165
_cell_angle_gamma 80.109414
_cell_volume 931.460735
_symmetry_space_group_name_H-M "P -1"
_symmetry_group_IT_number 2
_symmetry_cell_setting 'triclinic'
loop_
_space_group_symop_operation_xyz
x,y,z
-x,-y,-z
loop_
_atom_site_type_symbol
_atom_site_label
_atom_site_fract_x
_atom_site_fract_y
_atom_site_fract_z
Si Si1 0.880711 0.719227 0.768011
Si Si2 0.594692 0.609405 0.355648
Si Si3 0.222927 0.886958 0.263129
Si Si4 0.451281 0.280738 0.900017
Si Si5 0.246210 0.609342 0.704121
Si Si6 0.326363 0.252628 0.410592
Si Si7 0.123785 0.113047 0.390035
Si Si8 0.658057 0.252668 0.078927
O O1 0.797487 0.681121 0.647328
O O2 0.911313 0.825583 0.736708
O O3 0.064215 0.639682 0.702900
O O4 0.742992 0.733339 0.976354
O O5 0.563071 0.639765 0.204049
O O6 0.406854 0.613412 0.520333
O O7 0.727537 0.500041 0.272477
O O8 0.689222 0.683008 0.414219
O O9 0.411099 0.825642 0.236814
O O10 0.063079 0.873214 0.436305
O O11 0.221103 0.000008 0.278754
O O12 0.209066 0.843658 0.088725
O O13 0.533866 0.318888 0.021312
O O14 0.231172 0.682926 0.872261
O O15 0.255041 0.156280 0.447059
O O16 0.531585 0.216973 0.248450
#
# Coordination Sequence:
#
# PCOD8002057 Si02
#       8
#     2   2   2   2   2   2   2   2
#     4   9  19  34  52  76 105 134 170 210 251 300
#     4  10  20  35  54  76 104 137 171 209 253 299
#     4   9  17  32  55  78 100 131 170 210 254 302
#     4   9  19  34  52  76 105 134 170 210 251 300
#     4  10  20  35  54  76 104 137 171 209 253 299
#     4   8  18  34  51  75 106 134 166 208 254 300
#     4   9  17  32  55  78 100 131 170 210 254 302
#     4   8  18  34  51  75 106 134 166 208 254 300
#
# _framework density 17.177320000000002
#
# number of rings (size 3 to 8) (size 9 to 14) (size 15 to 20)
#    1.500    1.500    0.000    0.750    0.000    4.500 
#    0.000    1.250    0.000    0.000    0.000    0.000 
#    0.000    0.000    0.000    0.000    0.000    0.000 
#
# Total GULP energy -198210.294534 kJ/mol
# GULP energy per Si atom -12388.143408 kJ/mol
# Density = 1.713822 g / cm^3
# Si number density = 17.177320 Si / 1000 Ang^3
#
#
#
# Elastic Constant Matrix: (Units=GPa)
#
#
# Indices 1 2 3 4 5 6 
#
# 1 42.4106 3.9989 12.9207 6.7160 -5.5869 -3.6343
# 2 3.9989 64.9785 20.2211 -1.6785 -11.5209 1.1466
# 3 12.9207 20.2211 42.7350 -0.8745 -3.0223 8.2007
# 4 6.7160 -1.6785 -0.8745 26.8522 -2.7587 4.3082
# 5 -5.5869 -11.5209 -3.0223 -2.7587 20.2603 6.0618
# 6 -3.6343 1.1466 8.2007 4.3082 6.0618 25.4128
#
#
#
# Elastic Compliance Matrix: (Units=1/GPa)
#
#
# Indices 1 2 3 4 5 6 
#
# 1 0.029424 0.002057 -0.011353 -0.008523 0.003951 0.008281
# 2 0.002057 0.020147 -0.009234 0.001666 0.011037 -0.000550
# 3 -0.011353 -0.009234 0.034018 0.005693 0.001510 -0.013510
# 4 -0.008523 0.001666 0.005693 0.042590 0.008984 -0.012494
# 5 0.003951 0.011037 0.001510 0.008984 0.063269 -0.017035
# 6 0.008281 -0.000550 -0.013510 -0.012494 -0.017035 0.051101
#
#
# Mechanical properties :
#
#
# Convention : Reuss Voigt Hill
#
# Bulk Modulus (GPa) = 21.49332 24.93394 23.21363
# Shear Modulus (GPa) = 17.05792 22.03728 19.54760
#
# Velocity S-wave (km/s) = 3.15469 3.58569 3.37707
# Velocity P-wave (km/s) = 5.08027 5.62939 5.36186
#
# Compressibility (1/GPa) = 0.04652609
#
# Stress axis : x y z
#
# Youngs Moduli (GPa) = 33.98604 49.63619 29.39619
#
# Poissons Ratio (x) = -0.10208 0.33375
# Poissons Ratio (y) = -0.06990 0.27146
# Poissons Ratio (z) = 0.38586 0.45836
#
# Static dielectric constant tensor:
#      x y z
#    x 3.058450 0.055240 -0.047540 
#    y 0.055240 3.028560 0.006710 
#    z -0.047540 0.006710 3.113110 
# 
# 
# High freq. dielectric constant tensor:
#      x y z
#    x 1.652700 0.003800 -0.010380 
#    y 0.003800 1.644970 -0.003970 
#    z -0.010380 -0.003970 1.659780 
# 
# From -- ./inp_files/197170.got.cif
#   From: 2010.06.25/outbox.cif.g09.slc.cpg/sg2_99_cif.got.tgz:197170.got - 2010.06.27 13:26:56.
