data_PCOD8002329
_publ_section_title
;
Structure prediction by ZEFSAII (Michael W. Deem and Ramdas Pophale) SiO2 
 PCOD8002329
Probable space group: P -1
;
_chemical_formula_sum "Si O2"
_cell_formula_units_Z 14
_cell_length_a 5.466380
_cell_length_b 12.062362
_cell_length_c 11.124220
_cell_angle_alpha 106.593349
_cell_angle_beta 117.832746
_cell_angle_gamma 77.315877
_cell_volume 618.407471
_symmetry_space_group_name_H-M "P -1"
_symmetry_group_IT_number 2
_symmetry_cell_setting 'triclinic'
loop_
_space_group_symop_operation_xyz
x,y,z
-x,-y,-z
loop_
_atom_site_type_symbol
_atom_site_label
_atom_site_fract_x
_atom_site_fract_y
_atom_site_fract_z
Si Si1 0.786925 0.923141 0.553705
Si Si2 0.139481 0.386600 0.137953
Si Si3 0.902442 0.857889 0.307748
Si Si4 0.227344 0.714930 0.169343
Si Si5 0.129349 0.150585 0.189441
Si Si6 0.390718 0.490238 0.839936
Si Si7 0.653956 0.097186 0.918361
O O1 0.811070 0.836816 0.417521
O O2 0.806629 0.844427 0.653110
O O3 0.500000 0.000000 0.500000
O O4 0.022020 0.010316 0.638544
O O5 0.225076 0.265046 0.186176
O O6 0.428931 0.439163 0.190743
O O7 0.938809 0.464918 0.212440
O O8 0.974317 0.369703 0.969357
O O9 0.667672 0.854278 0.148740
O O10 0.132140 0.751010 0.294175
O O11 0.540004 0.646810 0.223283
O O12 0.200416 0.840066 0.137772
O O13 0.304434 0.040889 0.132314
O O14 0.799090 0.137817 0.086472
O O15 0.500000 0.500000 0.000000
#
# Coordination Sequence:
#
# PCOD8002329 Si02
#       7
#     2   2   2   2   2   2   2
#     4  11  22  42  56  89 130 169 218 249 320 389
#     4  10  23  37  60  95 129 172 205 264 330 373
#     4  11  22  35  64  89 122 170 214 259 312 389
#     4  10  20  35  59  90 124 159 216 265 311 374
#     4  10  21  40  59  90 137 160 204 273 317 396
#     4  10  21  39  61  91 131 167 215 263 317 379
#     4  10  21  37  58  96 122 163 207 262 334 369
#
# _framework density 22.638791999999999
#
# number of rings (size 3 to 8) (size 9 to 14) (size 15 to 20)
#    0.000    1.714    2.857    1.714    8.000    1.714 
#    0.000    0.000    0.000    1.714    0.000    0.000 
#    0.000    0.000    0.000    0.000    0.000    0.000 
#
# Total GULP energy -173448.166173 kJ/mol
# GULP energy per Si atom -12389.154727 kJ/mol
# Density = 2.258727 g / cm^3
# Si number density = 22.638792 Si / 1000 Ang^3
#
#
#
# Elastic Constant Matrix: (Units=GPa)
#
#
# Indices 1 2 3 4 5 6 
#
# 1 122.4148 39.6553 35.7095 -1.0327 -22.0443 -14.1087
# 2 39.6553 113.0746 33.9214 -4.6087 -25.4151 -13.2651
# 3 35.7095 33.9214 81.2649 -14.5110 -14.5775 -9.1240
# 4 -1.0327 -4.6087 -14.5110 23.2494 -4.7104 -12.1580
# 5 -22.0443 -25.4151 -14.5775 -4.7104 36.3271 9.3881
# 6 -14.1087 -13.2651 -9.1240 -12.1580 9.3881 31.8535
#
#
#
# Elastic Compliance Matrix: (Units=1/GPa)
#
#
# Indices 1 2 3 4 5 6 
#
# 1 0.010467 -0.001767 -0.003038 -0.000042 0.003368 0.002021
# 2 -0.001767 0.012021 -0.002033 0.004047 0.006178 0.003365
# 3 -0.003038 -0.002033 0.019221 0.016750 0.004449 0.008395
# 4 -0.000042 0.004047 0.016750 0.072686 0.010946 0.030982
# 5 0.003368 0.006178 0.004449 0.010946 0.037495 -0.001534
# 6 0.002021 0.003365 0.008395 0.030982 -0.001534 0.048372
#
#
# Mechanical properties :
#
#
# Convention : Reuss Voigt Hill
#
# Bulk Modulus (GPa) = 35.67210 59.48074 47.57642
# Shear Modulus (GPa) = 22.39317 32.11721 27.25519
#
# Velocity S-wave (km/s) = 3.14849 3.77062 3.47351
# Velocity P-wave (km/s) = 5.38596 6.72961 6.09493
#
# Compressibility (1/GPa) = 0.02803311
#
# Stress axis : x y z
#
# Youngs Moduli (GPa) = 95.54099 83.18480 52.02706
#
# Poissons Ratio (x) = 0.14697 0.15807
# Poissons Ratio (y) = 0.16880 0.10577
# Poissons Ratio (z) = 0.29027 0.16911
#
# Static dielectric constant tensor:
#      x y z
#    x 4.360360 -0.059190 -0.020910 
#    y -0.059190 4.929120 0.387120 
#    z -0.020910 0.387120 4.182030 
# 
# 
# High freq. dielectric constant tensor:
#      x y z
#    x 1.897440 -0.003090 -0.008740 
#    y -0.003090 1.890550 0.008150 
#    z -0.008740 0.008150 1.847960 
# 
# From -- ./inp_files/65491.got.cif
#   From: 2010.06.25/outbox.cif.g09.slc.cpg/sg2_33_cif.got.tgz:65491.got - 2010.06.27 13:26:56.
