data_PCOD8002200
_publ_section_title
;
Structure prediction by ZEFSAII (Michael W. Deem and Ramdas Pophale) SiO2 
 PCOD8002200
Probable space group: P -1
;
_chemical_formula_sum "Si O2"
_cell_formula_units_Z 16
_cell_length_a 20.904301
_cell_length_b 8.795212
_cell_length_c 8.821578
_cell_angle_alpha 99.746569
_cell_angle_beta 31.525373
_cell_angle_gamma 98.658183
_cell_volume 835.758967
_symmetry_space_group_name_H-M "P -1"
_symmetry_group_IT_number 2
_symmetry_cell_setting 'triclinic'
loop_
_space_group_symop_operation_xyz
x,y,z
-x,-y,-z
loop_
_atom_site_type_symbol
_atom_site_label
_atom_site_fract_x
_atom_site_fract_y
_atom_site_fract_z
Si Si1 0.838120 0.478358 0.482774
Si Si2 0.044460 0.706393 0.045651
Si Si3 0.853270 0.901669 0.303781
Si Si4 0.749290 0.186402 0.730994
Si Si5 0.778961 0.049071 0.184389
Si Si6 0.359714 0.017156 0.836640
Si Si7 0.344993 0.277782 0.158714
Si Si8 0.432429 0.844260 0.163634
O O1 0.867806 0.404398 0.246459
O O2 0.829890 0.345278 0.606789
O O3 0.704205 0.556099 0.763163
O O4 0.944084 0.606574 0.326612
O O5 0.126634 0.807376 0.013525
O O6 0.982559 0.826704 0.072646
O O7 0.746347 0.782467 0.538121
O O8 0.835033 0.055807 0.465388
O O9 0.845300 0.930979 0.144672
O O10 0.640300 0.227432 0.841952
O O11 0.686994 0.136081 0.005716
O O12 0.656666 0.115002 0.513750
O O13 0.736548 0.962923 0.102890
O O14 0.500000 0.000000 0.500000
O O15 0.347964 0.166761 0.988785
O O16 0.476637 0.284037 0.974835
O O17 0.500000 0.000000 0.000000
#
# Coordination Sequence:
#
# PCOD8002200 Si02
#       8
#     2   2   2   2   2   2   2   2
#     4  10  21  37  58  80 119 143 185 233 284 333
#     4  10  20  37  60  86 109 146 190 241 272 320
#     4   9  18  34  61  84 107 141 195 236 269 315
#     4  10  20  35  57  86 111 152 185 229 283 326
#     4  11  19  32  60  88 106 142 194 232 277 324
#     4  11  21  36  59  82 117 147 186 232 276 332
#     4  10  20  35  57  85 115 149 177 233 288 329
#     4  11  16  33  57  84 110 137 191 238 273 321
#
# _framework density 19.144276000000001
#
# number of rings (size 3 to 8) (size 9 to 14) (size 15 to 20)
#    0.000    1.750    7.500    0.375    0.000    0.500 
#    0.000    6.875    8.250    0.000    0.000    0.000 
#    0.000    0.000    0.000    0.000    0.000    0.000 
#
# Total GULP energy -198288.382601 kJ/mol
# GULP energy per Si atom -12393.023913 kJ/mol
# Density = 1.910070 g / cm^3
# Si number density = 19.144276 Si / 1000 Ang^3
#
#
#
# Elastic Constant Matrix: (Units=GPa)
#
#
# Indices 1 2 3 4 5 6 
#
# 1 89.5082 21.4469 31.1918 0.8772 0.3479 3.4256
# 2 21.4469 97.6124 37.1136 -5.1290 -3.4938 -11.9249
# 3 31.1918 37.1136 75.6394 -4.5090 -4.8236 -8.5278
# 4 0.8772 -5.1290 -4.5090 34.6492 -8.8019 -4.1003
# 5 0.3479 -3.4938 -4.8236 -8.8019 25.6394 -4.2216
# 6 3.4256 -11.9249 -8.5278 -4.1003 -4.2216 19.3334
#
#
#
# Elastic Compliance Matrix: (Units=1/GPa)
#
#
# Indices 1 2 3 4 5 6 
#
# 1 0.014215 -0.002092 -0.006243 -0.003528 -0.004219 -0.008232
# 2 -0.002092 0.013748 -0.004507 0.003407 0.003602 0.008372
# 3 -0.006243 -0.004507 0.019768 0.004809 0.006398 0.009463
# 4 -0.003528 0.003407 0.004809 0.036177 0.016491 0.016121
# 5 -0.004219 0.003602 0.006398 0.016491 0.049733 0.020149
# 6 -0.008232 0.008372 0.009463 0.016121 0.020149 0.070339
#
#
# Mechanical properties :
#
#
# Convention : Reuss Voigt Hill
#
# Bulk Modulus (GPa) = 45.35408 49.14052 47.24730
# Shear Modulus (GPa) = 21.09591 27.45824 24.27708
#
# Velocity S-wave (km/s) = 3.32315 3.79130 3.56492
# Velocity P-wave (km/s) = 6.20214 6.69996 6.45585
#
# Compressibility (1/GPa) = 0.02204873
#
# Stress axis : x y z
#
# Youngs Moduli (GPa) = 70.34867 72.73580 50.58708
#
# Poissons Ratio (x) = 0.15213 0.31582
# Poissons Ratio (y) = 0.14714 0.22798
# Poissons Ratio (z) = 0.43919 0.32779
#
# Static dielectric constant tensor:
#      x y z
#    x 3.427590 -0.119980 -0.302430 
#    y -0.119980 3.644670 -0.153350 
#    z -0.302430 -0.153350 3.807380 
# 
# 
# High freq. dielectric constant tensor:
#      x y z
#    x 1.712910 -0.006320 -0.024120 
#    y -0.006320 1.737530 -0.011570 
#    z -0.024120 -0.011570 1.753240 
# 
# From -- ./inp_files/170586.got.cif
#   From: 2010.06.25/outbox.cif.g09.slc.cpg/sg2_86_cif.got.tgz:170586.got - 2010.06.27 13:26:56.
