data_PCOD8002638
_publ_section_title
;
Structure prediction by ZEFSAII (Michael W. Deem and Ramdas Pophale) SiO2 
 PCOD8002638
Probable space group: P -1
;
_chemical_formula_sum "Si O2"
_cell_formula_units_Z 14
_cell_length_a 17.027349
_cell_length_b 11.932927
_cell_length_c 17.440220
_cell_angle_alpha 146.491455
_cell_angle_beta 158.892910
_cell_angle_gamma 32.924898
_cell_volume 669.903809
_symmetry_space_group_name_H-M "P -1"
_symmetry_group_IT_number 2
_symmetry_cell_setting 'triclinic'
loop_
_space_group_symop_operation_xyz
x,y,z
-x,-y,-z
loop_
_atom_site_type_symbol
_atom_site_label
_atom_site_fract_x
_atom_site_fract_y
_atom_site_fract_z
Si Si1 0.114035 0.630476 0.732137
Si Si2 0.657617 0.127288 0.181733
Si Si3 0.334763 0.549699 0.306335
Si Si4 0.267905 0.489230 0.447555
Si Si5 0.950310 0.714308 0.156403
Si Si6 0.474272 0.581700 0.913279
Si Si7 0.685611 0.778217 0.518197
O O1 0.282288 0.710889 0.875095
O O2 0.000000 0.500000 0.500000
O O3 0.904469 0.808043 0.686900
O O4 0.274352 0.477696 0.854611
O O5 0.733059 0.276550 0.394501
O O6 0.523982 0.262213 0.065370
O O7 0.893730 0.953176 0.271728
O O8 0.500000 0.000000 0.000000
O O9 0.500000 0.500000 0.500000
O O10 0.471120 0.637695 0.415751
O O11 0.094451 0.713139 0.208749
O O12 0.283752 0.337666 0.107124
O O13 0.206511 0.350902 0.379917
O O14 0.084734 0.532577 0.236465
O O15 0.432617 0.363559 0.720965
O O16 0.500000 0.000000 0.500000
#
# Coordination Sequence:
#
# PCOD8002638 Si02
#       7
#     2   2   2   2   2   2   2
#     4   9  19  41  61  81 115 152 197 241 286 336
#     4  11  21  35  59  91 116 149 189 234 293 344
#     4   9  19  37  53  76 114 155 190 222 271 344
#     4  10  21  37  57  84 117 148 189 241 283 344
#     4  10  20  36  57  80 117 156 186 229 284 343
#     4   9  21  40  61  84 119 152 191 243 285 345
#     4  10  22  37  60  88 112 149 193 242 296 337
#
# _framework density 20.898522
#
# number of rings (size 3 to 8) (size 9 to 14) (size 15 to 20)
#    0.000    2.286    1.429    0.429    2.000    1.714 
#    2.571   12.857    0.000    0.000    0.000    0.000 
#    0.000    0.000    0.000    0.000    0.000    0.000 
#
# Total GULP energy -173439.133533 kJ/mol
# GULP energy per Si atom -12388.509538 kJ/mol
# Density = 2.085096 g / cm^3
# Si number density = 20.898522 Si / 1000 Ang^3
#
#
#
# Elastic Constant Matrix: (Units=GPa)
#
#
# Indices 1 2 3 4 5 6 
#
# 1 113.4908 44.9841 39.9573 0.4458 2.6019 -17.1050
# 2 44.9841 88.5131 33.2025 -2.7391 3.3558 -15.1421
# 3 39.9573 33.2025 91.8113 -17.8593 -6.1074 3.3593
# 4 0.4458 -2.7391 -17.8593 23.9481 3.6911 1.4717
# 5 2.6019 3.3558 -6.1074 3.6911 30.3548 -10.2402
# 6 -17.1050 -15.1421 3.3593 1.4717 -10.2402 37.2597
#
#
#
# Elastic Compliance Matrix: (Units=1/GPa)
#
#
# Indices 1 2 3 4 5 6 
#
# 1 0.013068 -0.003879 -0.005441 -0.005166 0.000627 0.005290
# 2 -0.003879 0.015808 -0.004587 -0.001782 -0.000432 0.005009
# 3 -0.005441 -0.004587 0.017745 0.013063 0.000849 -0.006245
# 4 -0.005166 -0.001782 0.013063 0.052780 -0.005836 -0.007962
# 5 0.000627 -0.000432 0.000849 -0.005836 0.037373 0.010538
# 6 0.005290 0.005009 -0.006245 -0.007962 0.010538 0.035076
#
#
# Mechanical properties :
#
#
# Convention : Reuss Voigt Hill
#
# Bulk Modulus (GPa) = 53.17544 58.90033 56.03788
# Shear Modulus (GPa) = 24.27982 30.02395 27.15188
#
# Velocity S-wave (km/s) = 3.41221 3.79443 3.60839
# Velocity P-wave (km/s) = 6.40500 6.88782 6.65080
#
# Compressibility (1/GPa) = 0.01880568
#
# Stress axis : x y z
#
# Youngs Moduli (GPa) = 76.52502 63.25941 56.35431
#
# Poissons Ratio (x) = 0.24537 0.30664
# Poissons Ratio (y) = 0.29683 0.25851
# Poissons Ratio (z) = 0.41639 0.29019
#
# Static dielectric constant tensor:
#      x y z
#    x 4.689240 -0.545320 0.169150 
#    y -0.545320 3.587070 -0.224260 
#    z 0.169150 -0.224260 3.825640 
# 
# 
# High freq. dielectric constant tensor:
#      x y z
#    x 1.846730 -0.022600 -0.006810 
#    y -0.022600 1.778910 -0.019790 
#    z -0.006810 -0.019790 1.816010 
# 
# From -- ./inp_files/84485.got.cif
#   From: 2010.06.25/outbox.cif.g09.slc.cpg/sg2_43_cif.got.tgz:84485.got - 2010.06.27 13:26:56.
