data_PCOD8002722
_publ_section_title
;
Structure prediction by ZEFSAII (Michael W. Deem and Ramdas Pophale) SiO2 
 PCOD8002722
Probable space group: P -1
;
_chemical_formula_sum "Si O2"
_cell_formula_units_Z 14
_cell_length_a 12.825191
_cell_length_b 14.422845
_cell_length_c 11.391356
_cell_angle_alpha 84.680525
_cell_angle_beta 88.654940
_cell_angle_gamma 20.554546
_cell_volume 724.433687
_symmetry_space_group_name_H-M "P -1"
_symmetry_group_IT_number 2
_symmetry_cell_setting 'triclinic'
loop_
_space_group_symop_operation_xyz
x,y,z
-x,-y,-z
loop_
_atom_site_type_symbol
_atom_site_label
_atom_site_fract_x
_atom_site_fract_y
_atom_site_fract_z
Si Si1 0.174266 0.949143 0.476157
Si Si2 0.173083 0.639359 0.390858
Si Si3 0.953582 0.263393 0.984391
Si Si4 0.100712 0.488190 0.095367
Si Si5 0.936457 0.958091 0.792745
Si Si6 0.733214 0.914273 0.203348
Si Si7 0.636459 0.393337 0.818194
O O1 0.502388 0.679439 0.559759
O O2 0.000000 0.000000 0.500000
O O3 0.965971 0.205716 0.503067
O O4 0.233306 0.915439 0.340643
O O5 0.215032 0.687977 0.292664
O O6 0.935284 0.763681 0.330681
O O7 0.084457 0.119590 0.122222
O O8 0.811568 0.486570 0.972608
O O9 0.708658 0.391945 0.933809
O O10 0.209040 0.054084 0.900977
O O11 0.830021 0.732950 0.166978
O O12 0.375759 0.216943 0.198371
O O13 0.000000 0.500000 0.000000
O O14 0.278353 0.695561 0.780635
O O15 0.771734 0.176014 0.848250
#
# Coordination Sequence:
#
# PCOD8002722 Si02
#       7
#     2   2   2   2   2   2   2
#     4  12  21  32  49  72 104 145 188 217 241 286
#     4  11  20  36  50  73 103 142 182 217 246 294
#     4   9  24  33  54  77 110 136 173 206 269 318
#     4  10  20  36  58  85 105 125 165 219 279 321
#     4  12  23  33  49  75 111 147 177 210 249 298
#     4   9  21  35  57  77 107 128 170 217 264 317
#     4  11  21  33  52  71 109 144 179 211 250 302
#
# _framework density 19.325438999999999
#
# number of rings (size 3 to 8) (size 9 to 14) (size 15 to 20)
#    0.857    0.571    2.857    3.429    6.000    0.000 
#    0.000    0.000    0.000    0.000    0.000    6.000 
#    0.000    0.000    0.000    0.000    0.000    0.000 
#
# Total GULP energy -173509.938954 kJ/mol
# GULP energy per Si atom -12393.567068 kJ/mol
# Density = 1.928145 g / cm^3
# Si number density = 19.325439 Si / 1000 Ang^3
#
#
#
# Elastic Constant Matrix: (Units=GPa)
#
#
# Indices 1 2 3 4 5 6 
#
# 1 43.1229 28.5791 25.5537 1.7556 20.4911 15.8220
# 2 28.5791 105.2823 24.4268 -18.9916 17.1232 16.3415
# 3 25.5537 24.4268 97.0682 -2.9388 12.9620 6.1739
# 4 1.7556 -18.9916 -2.9388 32.9782 -1.5660 10.4581
# 5 20.4911 17.1232 12.9620 -1.5660 26.2161 4.2048
# 6 15.8220 16.3415 6.1739 10.4581 4.2048 24.3700
#
#
#
# Elastic Compliance Matrix: (Units=1/GPa)
#
#
# Indices 1 2 3 4 5 6 
#
# 1 0.055290 -0.003632 -0.007550 0.001091 -0.032819 -0.026355
# 2 -0.003632 0.015764 -0.001269 0.013025 -0.004001 -0.012790
# 3 -0.007550 -0.001269 0.012420 -0.000036 0.000171 0.002592
# 4 0.001091 0.013025 -0.000036 0.046956 -0.001844 -0.029266
# 5 -0.032819 -0.004001 0.000171 -0.001844 0.064019 0.013692
# 6 -0.026355 -0.012790 0.002592 -0.029266 0.013692 0.076261
#
#
# Mechanical properties :
#
#
# Convention : Reuss Voigt Hill
#
# Bulk Modulus (GPa) = 17.07248 44.73249 30.90249
# Shear Modulus (GPa) = 15.86622 27.84046 21.85334
#
# Velocity S-wave (km/s) = 2.86842 3.79966 3.36640
# Velocity P-wave (km/s) = 4.45240 6.51514 5.57991
#
# Compressibility (1/GPa) = 0.05857379
#
# Stress axis : x y z
#
# Youngs Moduli (GPa) = 18.08635 63.43589 80.51502
#
# Poissons Ratio (x) = 0.23038 0.60787
# Poissons Ratio (y) = 0.06569 0.10215
# Poissons Ratio (z) = 0.13655 0.08048
#
# Static dielectric constant tensor:
#      x y z
#    x 3.061140 0.068560 0.178670 
#    y 0.068560 3.540880 -0.021010 
#    z 0.178670 -0.021010 3.568580 
# 
# 
# High freq. dielectric constant tensor:
#      x y z
#    x 1.697610 0.009490 0.024460 
#    y 0.009490 1.764940 -0.005890 
#    z 0.024460 -0.005890 1.747750 
# 
# From -- ./inp_files/69326.got.cif
#   From: 2010.06.25/outbox.cif.g09.slc.cpg/sg2_35_cif.got.tgz:69326.got - 2010.06.27 13:26:56.
