data_PCOD8002220
_publ_section_title
;
Structure prediction by ZEFSAII (Michael W. Deem and Ramdas Pophale) SiO2 
 PCOD8002220
Probable space group: P -1
;
_chemical_formula_sum "Si O2"
_cell_formula_units_Z 16
_cell_length_a 13.484285
_cell_length_b 10.242171
_cell_length_c 9.206212
_cell_angle_alpha 76.557079
_cell_angle_beta 101.910244
_cell_angle_gamma 145.550345
_cell_volume 699.284374
_symmetry_space_group_name_H-M "P -1"
_symmetry_group_IT_number 2
_symmetry_cell_setting 'triclinic'
loop_
_space_group_symop_operation_xyz
x,y,z
-x,-y,-z
loop_
_atom_site_type_symbol
_atom_site_label
_atom_site_fract_x
_atom_site_fract_y
_atom_site_fract_z
Si Si1 0.552064 0.766119 0.740468
Si Si2 0.577233 0.208193 0.555100
Si Si3 0.077936 0.875147 0.340271
Si Si4 0.064469 0.487101 0.807698
Si Si5 0.206774 0.270227 0.874481
Si Si6 0.984897 0.788581 0.925911
Si Si7 0.041069 0.339695 0.351383
Si Si8 0.464878 0.928047 0.841758
O O1 0.489724 0.734249 0.565580
O O2 0.409404 0.510375 0.831343
O O3 0.579421 0.927745 0.810553
O O4 0.735775 0.886991 0.740338
O O5 0.787105 0.437856 0.562810
O O6 0.500000 0.000000 0.500000
O O7 0.508511 0.115279 0.723345
O O8 0.024026 0.668735 0.322316
O O9 0.931089 0.823244 0.262978
O O10 0.091298 0.875849 0.519501
O O11 0.268292 0.668984 0.820534
O O12 0.042049 0.621432 0.762987
O O13 0.983151 0.326402 0.968072
O O14 0.168062 0.301250 0.007622
O O15 0.168211 0.069024 0.925600
O O16 0.922527 0.719657 0.757396
O O17 0.500000 0.000000 0.000000
#
# Coordination Sequence:
#
# PCOD8002220 Si02
#       8
#     2   2   2   2   2   2   2   2
#     4  11  21  42  63  92 129 168 211 260 325 376
#     4  10  20  35  57  93 130 163 198 256 324 376
#     4  11  22  40  69  95 123 170 213 257 321 391
#     4  11  21  40  62  95 132 165 207 262 327 384
#     4  10  22  47  66  89 128 174 215 260 327 373
#     4  10  23  41  68  88 130 171 213 271 314 380
#     4  12  22  38  67 100 126 165 216 266 322 378
#     4  11  21  35  60  93 132 165 207 263 317 382
#
# _framework density 22.880534999999998
#
# number of rings (size 3 to 8) (size 9 to 14) (size 15 to 20)
#    0.000    1.250    3.750    4.500    0.000    2.500 
#    0.000    6.250    5.500    0.000    0.000    0.000 
#    0.000    0.000    0.000    0.000    0.000    0.000 
#
# Total GULP energy -198314.216734 kJ/mol
# GULP energy per Si atom -12394.638546 kJ/mol
# Density = 2.282846 g / cm^3
# Si number density = 22.880535 Si / 1000 Ang^3
#
#
#
# Elastic Constant Matrix: (Units=GPa)
#
#
# Indices 1 2 3 4 5 6 
#
# 1 44.4142 24.5228 30.7181 -4.0458 -3.8667 8.5140
# 2 24.5228 115.5346 28.4699 -24.9723 -15.3654 20.7683
# 3 30.7181 28.4699 136.5434 -15.3107 -32.3707 10.4469
# 4 -4.0458 -24.9723 -15.3107 38.0211 0.7279 3.2570
# 5 -3.8667 -15.3654 -32.3707 0.7279 23.9479 -2.6034
# 6 8.5140 20.7683 10.4469 3.2570 -2.6034 15.5132
#
#
#
# Elastic Compliance Matrix: (Units=1/GPa)
#
#
# Indices 1 2 3 4 5 6 
#
# 1 0.031118 -0.005725 -0.008187 -0.003127 -0.010159 -0.004949
# 2 -0.005725 0.018430 0.004270 0.015127 0.013459 -0.025324
# 3 -0.008187 0.004270 0.014656 0.008265 0.019947 -0.009480
# 4 -0.003127 0.015127 0.008265 0.041512 0.015832 -0.030159
# 5 -0.010159 0.013459 0.019947 0.015832 0.073399 -0.016882
# 6 -0.004949 -0.025324 -0.009480 -0.030159 -0.016882 0.110962
#
#
# Mechanical properties :
#
#
# Convention : Reuss Voigt Hill
#
# Bulk Modulus (GPa) = 22.26202 51.54597 36.90400
# Shear Modulus (GPa) = 15.41609 29.68188 22.54899
#
# Velocity S-wave (km/s) = 2.59851 3.60565 3.14269
# Velocity P-wave (km/s) = 4.33057 6.31755 5.41596
#
# Compressibility (1/GPa) = 0.04491956
#
# Stress axis : x y z
#
# Youngs Moduli (GPa) = 32.13551 54.25887 68.23012
#
# Poissons Ratio (x) = 0.31063 0.55862
# Poissons Ratio (y) = 0.18397 -0.29132
# Poissons Ratio (z) = 0.26310 -0.23167
#
# Static dielectric constant tensor:
#      x y z
#    x 3.632870 0.007170 0.017280 
#    y 0.007170 4.201630 -0.319920 
#    z 0.017280 -0.319920 4.636710 
# 
# 
# High freq. dielectric constant tensor:
#      x y z
#    x 1.857740 0.004060 -0.000820 
#    y 0.004060 1.901290 -0.016360 
#    z -0.000820 -0.016360 1.922440 
# 
# From -- ./inp_files/307125.got.cif
#   From: 2010.06.25/outbox.cif.g09.slc.cpg/sg2_154_cif.got.tgz:307125.got - 2010.06.27 13:26:56.
