data_PCOD8002941
_publ_section_title
;
Structure prediction by ZEFSAII (Michael W. Deem and Ramdas Pophale) SiO2 
 PCOD8002941
Probable space group: P -1
;
_chemical_formula_sum "Si O2"
_cell_formula_units_Z 16
_cell_length_a 9.141438
_cell_length_b 14.699601
_cell_length_c 9.251508
_cell_angle_alpha 47.892749
_cell_angle_beta 67.952183
_cell_angle_gamma 92.066606
_cell_volume 776.401181
_symmetry_space_group_name_H-M "P -1"
_symmetry_group_IT_number 2
_symmetry_cell_setting 'triclinic'
loop_
_space_group_symop_operation_xyz
x,y,z
-x,-y,-z
loop_
_atom_site_type_symbol
_atom_site_label
_atom_site_fract_x
_atom_site_fract_y
_atom_site_fract_z
Si Si1 0.755917 0.139971 0.538621
Si Si2 0.388693 0.388706 0.542284
Si Si3 0.554145 0.835199 0.885035
Si Si4 0.340761 0.691126 0.394172
Si Si5 0.854240 0.750923 0.760486
Si Si6 0.268743 0.716012 0.888336
Si Si7 0.682972 0.545561 0.814029
Si Si8 0.113520 0.381583 0.832632
O O1 0.739574 0.208447 0.623301
O O2 0.710903 0.223522 0.343162
O O3 0.945826 0.140010 0.444332
O O4 0.615763 0.986699 0.756649
O O5 0.500000 0.500000 0.500000
O O6 0.502266 0.303414 0.561834
O O7 0.344177 0.449774 0.351106
O O8 0.204760 0.307341 0.777351
O O9 0.723790 0.812054 0.802282
O O10 0.434989 0.814565 0.810747
O O11 0.431957 0.734210 0.158434
O O12 0.185238 0.541131 0.599307
O O13 0.805002 0.689769 0.683109
O O14 0.846663 0.632825 0.998374
O O15 0.244316 0.562608 0.055975
O O16 0.088440 0.702387 0.040568
O O17 0.500000 0.500000 0.000000
#
# Coordination Sequence:
#
# PCOD8002941 Si02
#       8
#     2   2   2   2   2   2   2   2
#     4  11  25  43  62  88 126 171 213 249 296 366
#     4  10  20  36  60  91 128 157 190 250 320 371
#     4  12  24  42  64  87 126 174 209 246 301 374
#     4  11  22  39  66  90 123 161 207 254 314 369
#     4  11  23  41  64  93 125 161 210 257 308 367
#     4  11  23  39  63  93 126 156 205 260 311 368
#     4  12  21  34  62  95 122 153 202 257 315 364
#     4  10  21  39  63  95 124 156 195 264 328 361
#
# _framework density 20.607903
#
# number of rings (size 3 to 8) (size 9 to 14) (size 15 to 20)
#    0.000    1.000    2.500    6.375    0.000    5.000 
#    0.000    0.000    0.000    1.500    0.000    0.000 
#    0.000    0.000    0.000    0.000    0.000    0.000 
#
# Total GULP energy -198307.030426 kJ/mol
# GULP energy per Si atom -12394.189402 kJ/mol
# Density = 2.056100 g / cm^3
# Si number density = 20.607903 Si / 1000 Ang^3
#
#
#
# Elastic Constant Matrix: (Units=GPa)
#
#
# Indices 1 2 3 4 5 6 
#
# 1 106.8210 26.2171 26.5311 11.5278 -11.8812 -2.0067
# 2 26.2171 81.4169 26.2493 2.9969 -5.7639 0.3177
# 3 26.5311 26.2493 71.8718 7.8801 -6.0621 4.2024
# 4 11.5278 2.9969 7.8801 29.5796 -3.6257 -1.1342
# 5 -11.8812 -5.7639 -6.0621 -3.6257 34.7664 10.0224
# 6 -2.0067 0.3177 4.2024 -1.1342 10.0224 32.7880
#
#
#
# Elastic Compliance Matrix: (Units=1/GPa)
#
#
# Indices 1 2 3 4 5 6 
#
# 1 0.011264 -0.002455 -0.002712 -0.003094 0.002601 0.000159
# 2 -0.002455 0.014529 -0.004413 0.000768 0.000870 0.000035
# 3 -0.002712 -0.004413 0.017187 -0.002957 0.001897 -0.003008
# 4 -0.003094 0.000768 -0.002957 0.036008 0.002082 0.000792
# 5 0.002601 0.000870 0.001897 0.002082 0.033283 -0.010194
# 6 0.000159 0.000035 -0.003008 0.000792 -0.010194 0.034037
#
#
# Mechanical properties :
#
#
# Convention : Reuss Voigt Hill
#
# Bulk Modulus (GPa) = 41.98308 46.45610 44.21959
# Shear Modulus (GPa) = 28.83371 31.50093 30.16732
#
# Velocity S-wave (km/s) = 3.74459 3.91395 3.83021
# Velocity P-wave (km/s) = 6.25400 6.55875 6.40818
#
# Compressibility (1/GPa) = 0.02381912
#
# Stress axis : x y z
#
# Youngs Moduli (GPa) = 88.78034 68.82772 58.18485
#
# Poissons Ratio (x) = 0.16899 0.15779
# Poissons Ratio (y) = 0.21798 0.25676
# Poissons Ratio (z) = 0.24077 0.30373
#
# Static dielectric constant tensor:
#      x y z
#    x 4.037370 -0.326070 -0.254390 
#    y -0.326070 3.364240 0.147670 
#    z -0.254390 0.147670 3.660940 
# 
# 
# High freq. dielectric constant tensor:
#      x y z
#    x 1.821220 -0.007680 -0.011700 
#    y -0.007680 1.788470 0.019330 
#    z -0.011700 0.019330 1.800810 
# 
# From -- ./inp_files/205536.got.cif
#   From: 2010.06.25/outbox.cif.g09.slc.cpg/sg2_103_cif.got.tgz:205536.got - 2010.06.27 13:26:56.
