data_PCOD8002045
_publ_section_title
;
Structure prediction by ZEFSAII (Michael W. Deem and Ramdas Pophale) SiO2 
 PCOD8002045
Probable space group: P -1
;
_chemical_formula_sum "Si O2"
_cell_formula_units_Z 14
_cell_length_a 8.420589
_cell_length_b 13.343238
_cell_length_c 9.037148
_cell_angle_alpha 73.125656
_cell_angle_beta 131.244068
_cell_angle_gamma 80.940617
_cell_volume 639.012764
_symmetry_space_group_name_H-M "P -1"
_symmetry_group_IT_number 2
_symmetry_cell_setting 'triclinic'
loop_
_space_group_symop_operation_xyz
x,y,z
-x,-y,-z
loop_
_atom_site_type_symbol
_atom_site_label
_atom_site_fract_x
_atom_site_fract_y
_atom_site_fract_z
Si Si1 0.329787 0.957554 0.489277
Si Si2 0.823332 0.916686 0.368108
Si Si3 0.451850 0.846123 0.082347
Si Si4 0.882601 0.464098 0.810576
Si Si5 0.277076 0.238373 0.996370
Si Si6 0.588967 0.336159 0.668810
Si Si7 0.896753 0.178474 0.684812
O O1 0.500000 0.000000 0.500000
O O2 0.143538 0.050867 0.457294
O O3 0.508962 0.829563 0.727368
O O4 0.169498 0.929287 0.285747
O O5 0.620338 0.877065 0.276293
O O6 0.063925 0.815279 0.474151
O O7 0.746403 0.031918 0.166101
O O8 0.613839 0.751323 0.097019
O O9 0.335232 0.783088 0.137660
O O10 0.722794 0.403882 0.796151
O O11 0.700843 0.580309 0.552712
O O12 0.098937 0.372711 0.879526
O O13 0.000000 0.500000 0.000000
O O14 0.142899 0.157045 0.927086
O O15 0.682845 0.299821 0.572019
#
# Coordination Sequence:
#
# PCOD8002045 Si02
#       7
#     2   2   2   2   2   2   2
#     4  11  21  33  54  83 110 143 185 220 262 326
#     4   9  19  34  54  81 117 146 173 221 269 319
#     4   9  18  36  56  81 112 144 181 220 268 325
#     4  10  21  39  57  79 107 140 185 234 275 315
#     4   9  21  38  55  76 110 143 174 229 278 315
#     4  10  21  36  59  81 105 145 187 224 269 325
#     4  10  20  35  53  77 109 145 178 217 271 320
#
# _framework density 21.908795999999999
#
# number of rings (size 3 to 8) (size 9 to 14) (size 15 to 20)
#    0.000    2.286    0.000    3.000    0.000    4.000 
#    0.000    6.429    0.000    0.000    0.000    0.000 
#    0.000    0.000    0.000    0.000    0.000    0.000 
#
# Total GULP energy -173434.366201 kJ/mol
# GULP energy per Si atom -12388.169014 kJ/mol
# Density = 2.185893 g / cm^3
# Si number density = 21.908796 Si / 1000 Ang^3
#
#
#
# Elastic Constant Matrix: (Units=GPa)
#
#
# Indices 1 2 3 4 5 6 
#
# 1 96.0562 50.7372 21.8635 1.1629 3.8078 -8.6769
# 2 50.7372 124.8141 32.0319 23.9072 -1.3798 -8.9086
# 3 21.8635 32.0319 41.9271 9.7785 -1.9354 -2.5726
# 4 1.1629 23.9072 9.7785 34.6337 6.7931 8.4960
# 5 3.8078 -1.3798 -1.9354 6.7931 22.0539 -5.6642
# 6 -8.6769 -8.9086 -2.5726 8.4960 -5.6642 51.3581
#
#
#
# Elastic Compliance Matrix: (Units=1/GPa)
#
#
# Indices 1 2 3 4 5 6 
#
# 1 0.014808 -0.006061 -0.004810 0.006198 -0.005372 -0.000408
# 2 -0.006061 0.013884 -0.004662 -0.009967 0.005450 0.003401
# 3 -0.004810 -0.004662 0.032021 -0.007310 0.006079 0.001862
# 4 0.006198 -0.009967 -0.007310 0.043765 -0.018467 -0.010325
# 5 -0.005372 0.005450 0.006079 -0.018467 0.055272 0.009493
# 6 -0.000408 0.003401 0.001862 -0.010325 0.009493 0.022840
#
#
# Mechanical properties :
#
#
# Convention : Reuss Voigt Hill
#
# Bulk Modulus (GPa) = 33.73012 52.45140 43.09076
# Shear Modulus (GPa) = 22.36761 32.15346 27.26053
#
# Velocity S-wave (km/s) = 3.19868 3.83509 3.53125
# Velocity P-wave (km/s) = 5.39177 6.60328 6.02804
#
# Compressibility (1/GPa) = 0.02964709
#
# Stress axis : x y z
#
# Youngs Moduli (GPa) = 67.53248 72.02417 31.22974
#
# Poissons Ratio (x) = 0.43652 0.15022
# Poissons Ratio (y) = 0.40929 0.14560
# Poissons Ratio (z) = 0.32483 0.33578
#
# Static dielectric constant tensor:
#      x y z
#    x 4.115070 -0.241100 0.302000 
#    y -0.241100 4.219840 0.222730 
#    z 0.302000 0.222730 3.588300 
# 
# 
# High freq. dielectric constant tensor:
#      x y z
#    x 1.868420 -0.012060 0.030540 
#    y -0.012060 1.871140 0.026700 
#    z 0.030540 0.026700 1.818540 
# 
# From -- ./inp_files/201026.got.cif
#   From: 2010.06.25/outbox.cif.g09.slc.cpg/sg2_101_cif.got.tgz:201026.got - 2010.06.27 13:26:56.
