data_PCOD8002011
_publ_section_title
;
Structure prediction by ZEFSAII (Michael W. Deem and Ramdas Pophale) SiO2 
 PCOD8002011
Probable space group: P -1
;
_chemical_formula_sum "Si O2"
_cell_formula_units_Z 16
_cell_length_a 14.328355
_cell_length_b 11.847389
_cell_length_c 9.906825
_cell_angle_alpha 113.553203
_cell_angle_beta 102.638112
_cell_angle_gamma 32.314789
_cell_volume 799.467021
_symmetry_space_group_name_H-M "P -1"
_symmetry_group_IT_number 2
_symmetry_cell_setting 'triclinic'
loop_
_space_group_symop_operation_xyz
x,y,z
-x,-y,-z
loop_
_atom_site_type_symbol
_atom_site_label
_atom_site_fract_x
_atom_site_fract_y
_atom_site_fract_z
Si Si1 0.087795 0.811834 0.678099
Si Si2 0.365470 0.956439 0.247252
Si Si3 0.784242 0.266521 0.960242
Si Si4 0.973052 0.539900 0.667758
Si Si5 0.845765 0.900455 0.486421
Si Si6 0.573264 0.319051 0.085235
Si Si7 0.336248 0.752063 0.628864
Si Si8 0.232671 0.478128 0.773894
O O1 0.181217 0.822757 0.639693
O O2 0.217097 0.566830 0.667957
O O3 0.973650 0.872816 0.553880
O O4 0.963785 0.998726 0.849846
O O5 0.379362 0.833265 0.084233
O O6 0.562473 0.793574 0.270257
O O7 0.239412 0.198432 0.252882
O O8 0.271778 0.009877 0.378697
O O9 0.697163 0.303981 0.087595
O O10 0.636812 0.414148 0.864472
O O11 0.822333 0.368926 0.049630
O O12 0.000000 0.500000 0.500000
O O13 0.034046 0.342549 0.653462
O O14 0.097329 0.511691 0.755395
O O15 0.718986 0.081197 0.411490
O O16 0.609790 0.237060 0.210108
O O17 0.500000 0.500000 0.500000
#
# Coordination Sequence:
#
# PCOD8002011 Si02
#       8
#     2   2   2   2   2   2   2   2
#     4  12  21  37  63  90 126 160 206 254 312 376
#     4  10  21  39  65  90 121 160 217 262 294 358
#     4  10  20  34  64  95 117 156 209 261 306 354
#     4  10  21  39  60  88 128 157 213 260 296 361
#     4  11  23  41  57  91 129 165 203 251 311 373
#     4  10  20  37  62  89 126 158 205 262 302 367
#     4  12  26  39  58  93 131 166 196 250 326 378
#     4  11  20  34  63  99 116 158 206 261 312 343
#
# _framework density 20.013331999999998
#
# number of rings (size 3 to 8) (size 9 to 14) (size 15 to 20)
#    0.000    1.250    5.000    2.250    3.500    2.000 
#    2.250    0.625    0.000    1.500    0.000    0.000 
#    0.000    0.000    0.000    0.000    0.000    0.000 
#
# Total GULP energy -198374.974851 kJ/mol
# GULP energy per Si atom -12398.435928 kJ/mol
# Density = 1.996778 g / cm^3
# Si number density = 20.013332 Si / 1000 Ang^3
#
#
#
# Elastic Constant Matrix: (Units=GPa)
#
#
# Indices 1 2 3 4 5 6 
#
# 1 52.6432 33.6193 28.9181 4.6558 8.3028 -5.0567
# 2 33.6193 164.0805 50.6972 7.1824 -0.7676 3.8481
# 3 28.9181 50.6972 83.2101 -7.1030 5.5968 2.7310
# 4 4.6558 7.1824 -7.1030 34.6870 3.2710 -1.3249
# 5 8.3028 -0.7676 5.5968 3.2710 22.8009 -2.0757
# 6 -5.0567 3.8481 2.7310 -1.3249 -2.0757 36.2123
#
#
#
# Elastic Compliance Matrix: (Units=1/GPa)
#
#
# Indices 1 2 3 4 5 6 
#
# 1 0.026951 -0.003219 -0.007364 -0.003621 -0.007221 0.004114
# 2 -0.003219 0.008206 -0.004243 -0.002431 0.002754 -0.000933
# 3 -0.007364 -0.004243 0.017905 0.005730 -0.002850 -0.001881
# 4 -0.003621 -0.002431 0.005730 0.031439 -0.004662 0.000204
# 5 -0.007221 0.002754 -0.002850 -0.004662 0.048085 0.001500
# 6 0.004114 -0.000933 -0.001881 0.000204 0.001500 0.028524
#
#
# Mechanical properties :
#
#
# Convention : Reuss Voigt Hill
#
# Bulk Modulus (GPa) = 42.71609 58.48923 50.60266
# Shear Modulus (GPa) = 25.18070 31.18667 28.18369
#
# Velocity S-wave (km/s) = 3.55095 3.95181 3.75673
# Velocity P-wave (km/s) = 6.18082 7.07891 6.64505
#
# Compressibility (1/GPa) = 0.02341038
#
# Stress axis : x y z
#
# Youngs Moduli (GPa) = 37.10494 121.85643 55.85084
#
# Poissons Ratio (x) = 0.39221 0.41126
# Poissons Ratio (y) = 0.11943 0.23700
# Poissons Ratio (z) = 0.27323 0.51709
#
# Static dielectric constant tensor:
#      x y z
#    x 3.351230 0.004830 0.346560 
#    y 0.004830 4.345500 0.219040 
#    z 0.346560 0.219040 3.629160 
# 
# 
# High freq. dielectric constant tensor:
#      x y z
#    x 1.754560 -0.018050 0.026800 
#    y -0.018050 1.803120 0.002980 
#    z 0.026800 0.002980 1.767190 
# 
# From -- ./inp_files/308064.got.cif
#   From: 2010.06.25/outbox.cif.g09.slc.cpg/sg2_155_cif.got.tgz:308064.got - 2010.06.27 13:26:56.
