data_PCOD8002616
_publ_section_title
;
Structure prediction by ZEFSAII (Michael W. Deem and Ramdas Pophale) SiO2 
 PCOD8002616
Probable space group: P -1
;
_chemical_formula_sum "Si O2"
_cell_formula_units_Z 12
_cell_length_a 6.263244
_cell_length_b 14.828990
_cell_length_c 9.115011
_cell_angle_alpha 96.308656
_cell_angle_beta 57.917828
_cell_angle_gamma 126.230036
_cell_volume 552.224201
_symmetry_space_group_name_H-M "P -1"
_symmetry_group_IT_number 2
_symmetry_cell_setting 'triclinic'
loop_
_space_group_symop_operation_xyz
x,y,z
-x,-y,-z
loop_
_atom_site_type_symbol
_atom_site_label
_atom_site_fract_x
_atom_site_fract_y
_atom_site_fract_z
Si Si1 0.733139 0.647798 0.059164
Si Si2 0.645186 0.795686 0.316110
Si Si3 0.382792 0.073684 0.881114
Si Si4 0.694334 0.964866 0.777782
Si Si5 0.619956 0.426457 0.114262
Si Si6 0.421741 0.739728 0.697407
O O1 0.768199 0.730499 0.187295
O O2 0.547996 0.517827 0.172761
O O3 0.514689 0.638487 0.005304
O O4 0.081112 0.698850 0.875690
O O5 0.459938 0.815421 0.265259
O O6 0.399979 0.719524 0.526350
O O7 0.948354 0.919080 0.294099
O O8 0.487506 0.996800 0.777757
O O9 0.493379 0.109070 0.016688
O O10 0.000000 0.000000 0.000000
O O11 0.699741 0.878487 0.655098
O O12 0.464847 0.329282 0.281971
O O13 0.000000 0.500000 0.000000
#
# Coordination Sequence:
#
# PCOD8002616 Si02
#       6
#     2   2   2   2   2   2
#     4  10  21  41  62  84 116 151 193 241 290 342
#     4  11  23  36  59  91 119 153 193 235 284 342
#     4   9  18  33  53  78 111 155 194 228 275 329
#     4  10  20  36  56  84 123 159 190 229 282 343
#     4   9  21  42  64  83 112 153 192 242 297 342
#     4  11  22  37  60  89 119 153 193 236 285 341
#
# _framework density 21.730302999999999
#
# number of rings (size 3 to 8) (size 9 to 14) (size 15 to 20)
#    0.000    2.000    0.000    4.500    0.000    5.333 
#    0.000    7.500    0.000    0.000    0.000    0.000 
#    0.000    0.000    0.000    0.000    0.000    0.000 
#
# Total GULP energy -148725.762059 kJ/mol
# GULP energy per Si atom -12393.813505 kJ/mol
# Density = 2.168084 g / cm^3
# Si number density = 21.730303 Si / 1000 Ang^3
#
#
#
# Elastic Constant Matrix: (Units=GPa)
#
#
# Indices 1 2 3 4 5 6 
#
# 1 120.5572 33.7192 46.8219 1.8261 23.8638 -27.7145
# 2 33.7192 98.5672 47.9441 7.9263 11.5980 -12.9251
# 3 46.8219 47.9441 125.2465 17.8863 25.7984 -27.1247
# 4 1.8261 7.9263 17.8863 15.1278 1.9504 3.8093
# 5 23.8638 11.5980 25.7984 1.9504 29.6698 -14.3720
# 6 -27.7145 -12.9251 -27.1247 3.8093 -14.3720 42.2206
#
#
#
# Elastic Compliance Matrix: (Units=1/GPa)
#
#
# Indices 1 2 3 4 5 6 
#
# 1 0.011441 -0.002044 -0.001847 0.001555 -0.005038 0.003842
# 2 -0.002044 0.012905 -0.003838 -0.002123 0.000285 0.000432
# 3 -0.001847 -0.003838 0.015239 -0.016785 -0.005798 0.006944
# 4 0.001555 -0.002123 -0.016785 0.091818 -0.001100 -0.019071
# 5 -0.005038 0.000285 -0.005798 -0.001100 0.047231 0.009232
# 6 0.003842 0.000432 0.006944 -0.019071 0.009232 0.035664
#
#
# Mechanical properties :
#
#
# Convention : Reuss Voigt Hill
#
# Bulk Modulus (GPa) = 41.44670 66.81569 54.13120
# Shear Modulus (GPa) = 21.02631 31.79602 26.41116
#
# Velocity S-wave (km/s) = 3.11401 3.82934 3.49005
# Velocity P-wave (km/s) = 5.66074 7.09692 6.41912
#
# Compressibility (1/GPa) = 0.02412737
#
# Stress axis : x y z
#
# Youngs Moduli (GPa) = 87.40645 77.48804 65.62113
#
# Poissons Ratio (x) = 0.15838 0.12119
# Poissons Ratio (y) = 0.17865 0.25186
# Poissons Ratio (z) = 0.16142 0.29741
#
# Static dielectric constant tensor:
#      x y z
#    x 4.485450 -0.428820 0.656430 
#    y -0.428820 4.098800 -0.143860 
#    z 0.656430 -0.143860 3.960450 
# 
# 
# High freq. dielectric constant tensor:
#      x y z
#    x 1.864890 -0.012630 0.019580 
#    y -0.012630 1.848880 -0.000620 
#    z 0.019580 -0.000620 1.826840 
# 
# From -- ./inp_files/21795.got.cif
#   From: 2010.06.25/outbox.cif.g09.slc.cpg/sg2_11_cif.got.tgz:21795.got - 2010.06.27 13:26:56.
