data_PCOD8002169
_publ_section_title
;
Structure prediction by ZEFSAII (Michael W. Deem and Ramdas Pophale) SiO2 
 PCOD8002169
Probable space group: P -1
;
_chemical_formula_sum "Si O2"
_cell_formula_units_Z 16
_cell_length_a 23.068608
_cell_length_b 11.639618
_cell_length_c 9.390792
_cell_angle_alpha 39.080904
_cell_angle_beta 133.850011
_cell_angle_gamma 152.790819
_cell_volume 726.808066
_symmetry_space_group_name_H-M "P -1"
_symmetry_group_IT_number 2
_symmetry_cell_setting 'triclinic'
loop_
_space_group_symop_operation_xyz
x,y,z
-x,-y,-z
loop_
_atom_site_type_symbol
_atom_site_label
_atom_site_fract_x
_atom_site_fract_y
_atom_site_fract_z
Si Si1 0.149614 0.758952 0.162698
Si Si2 0.307600 0.365554 0.306054
Si Si3 0.512744 0.782656 0.454166
Si Si4 0.560894 0.802009 0.820893
Si Si5 0.982018 0.758179 0.751453
Si Si6 0.518942 0.873005 0.983552
Si Si7 0.209212 0.584400 0.982776
Si Si8 0.786207 0.134001 0.511568
O O1 0.060312 0.436629 0.268569
O O2 0.137373 0.747295 0.324886
O O3 0.288583 0.952481 0.160102
O O4 0.109923 0.886581 0.906417
O O5 0.383611 0.453631 0.498459
O O6 0.226193 0.405293 0.141924
O O7 0.204961 0.033359 0.407878
O O8 0.416840 0.565954 0.179229
O O9 0.506893 0.815781 0.579506
O O10 0.517145 0.980573 0.185495
O O11 0.637499 0.890214 0.526948
O O12 0.511554 0.823948 0.850885
O O13 0.500000 0.500000 0.000000
O O14 0.880503 0.564115 0.891072
O O15 0.000000 0.000000 0.500000
O O16 0.660104 0.082031 0.078714
O O17 0.154881 0.597151 0.740032
#
# Coordination Sequence:
#
# PCOD8002169 Si02
#       8
#     2   2   2   2   2   2   2   2
#     4  10  25  47  68  99 130 174 226 282 332 390
#     4  11  22  37  63 101 138 177 214 254 332 413
#     4  10  20  35  56  91 138 181 209 260 317 392
#     4  11  23  37  62 101 137 175 218 268 336 400
#     4  11  26  50  74  91 128 177 234 286 329 386
#     4  11  19  38  59  96 138 177 215 260 325 399
#     4  11  23  41  66  96 129 174 226 275 327 386
#     4  11  22  40  66  97 138 172 214 276 331 395
#
# _framework density 22.014064999999999
#
# number of rings (size 3 to 8) (size 9 to 14) (size 15 to 20)
#    0.000    1.250    3.750    3.000    1.750    5.500 
#    4.500    1.250    0.000    0.000    0.000    0.000 
#    0.000    0.000    0.000    0.000    0.000    0.000 
#
# Total GULP energy -198377.596723 kJ/mol
# GULP energy per Si atom -12398.599795 kJ/mol
# Density = 2.196396 g / cm^3
# Si number density = 22.014065 Si / 1000 Ang^3
#
#
#
# Elastic Constant Matrix: (Units=GPa)
#
#
# Indices 1 2 3 4 5 6 
#
# 1 86.9222 32.8873 27.6487 12.9434 -3.6948 -17.7909
# 2 32.8873 84.7362 44.9172 21.8479 3.4065 -20.1215
# 3 27.6487 44.9172 106.3622 26.5339 5.8229 -10.0082
# 4 12.9434 21.8479 26.5339 30.1481 -7.6094 -6.2188
# 5 -3.6948 3.4065 5.8229 -7.6094 35.3129 -2.6236
# 6 -17.7909 -20.1215 -10.0082 -6.2188 -2.6236 31.6860
#
#
#
# Elastic Compliance Matrix: (Units=1/GPa)
#
#
# Indices 1 2 3 4 5 6 
#
# 1 0.014704 -0.003346 -0.001914 -0.000403 0.002510 0.005655
# 2 -0.003346 0.019319 -0.004537 -0.007736 -0.002596 0.007223
# 3 -0.001914 -0.004537 0.014399 -0.010041 -0.004430 -0.001745
# 4 -0.000403 -0.007736 -0.010041 0.051881 0.013763 0.003012
# 5 0.002510 -0.002596 -0.004430 0.013763 0.032808 0.003779
# 6 0.005655 0.007223 -0.001745 0.003012 0.003779 0.039674
#
#
# Mechanical properties :
#
#
# Convention : Reuss Voigt Hill
#
# Bulk Modulus (GPa) = 34.68968 54.32522 44.50745
# Shear Modulus (GPa) = 24.75389 30.93389 27.84389
#
# Velocity S-wave (km/s) = 3.35693 3.75265 3.56029
# Velocity P-wave (km/s) = 5.55135 6.59603 6.09611
#
# Compressibility (1/GPa) = 0.02882702
#
# Stress axis : x y z
#
# Youngs Moduli (GPa) = 68.01084 51.76186 69.45139
#
# Poissons Ratio (x) = 0.17321 0.13291
# Poissons Ratio (y) = 0.22759 0.31511
# Poissons Ratio (z) = 0.13015 0.23485
#
# Static dielectric constant tensor:
#      x y z
#    x 3.741630 0.024430 0.121990 
#    y 0.024430 3.589930 0.020600 
#    z 0.121990 0.020600 3.798770 
# 
# 
# High freq. dielectric constant tensor:
#      x y z
#    x 1.875500 -0.016790 -0.001830 
#    y -0.016790 1.848850 0.013930 
#    z -0.001830 0.013930 1.871960 
# 
# From -- ./inp_files/353351.got.cif
#   From: 2010.06.25/outbox.cif.g09.slc.cpg/sg2_177_cif.got.tgz:353351.got - 2010.06.27 13:26:56.
