data_PCOD8002203
_publ_section_title
;
Structure prediction by ZEFSAII (Michael W. Deem and Ramdas Pophale) SiO2 
 PCOD8002203
Probable space group: P -1
;
_chemical_formula_sum "Si O2"
_cell_formula_units_Z 14
_cell_length_a 13.840354
_cell_length_b 7.271458
_cell_length_c 8.524416
_cell_angle_alpha 104.770460
_cell_angle_beta 42.322575
_cell_angle_gamma 95.948156
_cell_volume 553.769336
_symmetry_space_group_name_H-M "P -1"
_symmetry_group_IT_number 2
_symmetry_cell_setting 'triclinic'
loop_
_space_group_symop_operation_xyz
x,y,z
-x,-y,-z
loop_
_atom_site_type_symbol
_atom_site_label
_atom_site_fract_x
_atom_site_fract_y
_atom_site_fract_z
Si Si1 0.857435 0.070837 0.094632
Si Si2 0.207261 0.560975 0.947354
Si Si3 0.656823 0.638584 0.531164
Si Si4 0.626339 0.184728 0.976495
Si Si5 0.317485 0.729297 0.407392
Si Si6 0.126801 0.104003 0.290425
Si Si7 0.908143 0.527465 0.414996
O O1 0.855556 0.286044 0.077161
O O2 0.724070 0.087724 0.385458
O O3 0.846135 0.928096 0.933627
O O4 0.000000 0.000000 0.000000
O O5 0.318297 0.396480 0.692889
O O6 0.285375 0.658094 0.015153
O O7 0.071240 0.465146 0.150489
O O8 0.596408 0.450712 0.641679
O O9 0.811067 0.662813 0.432185
O O10 0.529485 0.814439 0.750816
O O11 0.592355 0.221994 0.841205
O O12 0.719816 0.976579 0.831588
O O13 0.164263 0.665840 0.510205
O O14 0.091401 0.333742 0.402854
O O15 0.000000 0.000000 0.500000
#
# Coordination Sequence:
#
# PCOD8002203 Si02
#       7
#     2   2   2   2   2   2   2
#     4  10  20  35  57  86 115 154 190 238 290 346
#     4  10  20  36  60  87 117 148 197 243 283 342
#     4   9  21  37  59  85 119 154 195 237 290 345
#     4  11  20  37  63  85 115 161 195 233 290 353
#     4   9  22  36  59  85 120 152 197 234 289 345
#     4  11  21  37  60  86 120 152 196 240 291 347
#     4  10  21  38  59  87 125 144 195 244 294 333
#
# _framework density 25.281283999999999
#
# number of rings (size 3 to 8) (size 9 to 14) (size 15 to 20)
#    0.857    1.143    2.857    2.143    0.000    1.143 
#    0.000    0.000    0.000    0.857    0.000    0.000 
#    0.000    0.000    0.000    0.000    0.000    0.000 
#
# Total GULP energy -173489.621309 kJ/mol
# GULP energy per Si atom -12392.115808 kJ/mol
# Density = 2.522374 g / cm^3
# Si number density = 25.281284 Si / 1000 Ang^3
#
#
#
# Elastic Constant Matrix: (Units=GPa)
#
#
# Indices 1 2 3 4 5 6 
#
# 1 56.0251 -1.5315 35.6929 -3.1802 8.1925 0.6934
# 2 -1.5315 31.8432 32.7519 14.2981 7.9692 6.1041
# 3 35.6929 32.7519 196.1902 26.7312 15.1277 -2.3556
# 4 -3.1802 14.2981 26.7312 22.1499 7.2939 -1.7865
# 5 8.1925 7.9692 15.1277 7.2939 49.6811 7.2819
# 6 0.6934 6.1041 -2.3556 -1.7865 7.2819 28.1520
#
#
#
# Elastic Compliance Matrix: (Units=1/GPa)
#
#
# Indices 1 2 3 4 5 6 
#
# 1 0.022661 0.004056 -0.005698 0.008764 -0.003887 -0.000353
# 2 0.004056 0.052675 -0.005919 -0.026889 -0.001410 -0.013358
# 3 -0.005698 -0.005919 0.008029 -0.006613 0.000176 0.001630
# 4 0.008764 -0.026889 -0.006613 0.075310 -0.007917 0.011888
# 5 -0.003887 -0.001410 0.000176 -0.007917 0.022988 -0.006032
# 6 -0.000353 -0.013358 0.001630 0.011888 -0.006032 0.040878
#
#
# Mechanical properties :
#
#
# Convention : Reuss Voigt Hill
#
# Bulk Modulus (GPa) = 14.65386 46.43168 30.54277
# Shear Modulus (GPa) = 19.20043 34.47296 26.83669
#
# Velocity S-wave (km/s) = 2.75884 3.69667 3.26164
# Velocity P-wave (km/s) = 3.99465 6.05197 5.12755
#
# Compressibility (1/GPa) = 0.06824138
#
# Stress axis : x y z
#
# Youngs Moduli (GPa) = 44.12940 18.98442 124.54789
#
# Poissons Ratio (x) = -0.07701 0.70972
# Poissons Ratio (y) = -0.17900 0.73725
# Poissons Ratio (z) = 0.25147 0.11238
#
# Static dielectric constant tensor:
#      x y z
#    x 4.470100 -0.026920 0.241770 
#    y -0.026920 4.036820 0.441110 
#    z 0.241770 0.441110 4.798550 
# 
# 
# High freq. dielectric constant tensor:
#      x y z
#    x 1.999140 -0.005610 0.016610 
#    y -0.005610 1.965200 0.028410 
#    z 0.016610 0.028410 2.023830 
# 
# From -- ./inp_files/299041.got.cif
#   From: 2010.06.25/outbox.cif.g09.slc.cpg/sg2_150_cif.got.tgz:299041.got - 2010.06.27 13:26:56.
