data_PCOD8002299
_publ_section_title
;
Structure prediction by ZEFSAII (Michael W. Deem and Ramdas Pophale) SiO2 
 PCOD8002299
Probable space group: P -1
;
_chemical_formula_sum "Si O2"
_cell_formula_units_Z 16
_cell_length_a 13.970543
_cell_length_b 7.799241
_cell_length_c 20.346786
_cell_angle_alpha 115.190297
_cell_angle_beta 159.288133
_cell_angle_gamma 64.340144
_cell_volume 705.275634
_symmetry_space_group_name_H-M "P -1"
_symmetry_group_IT_number 2
_symmetry_cell_setting 'triclinic'
loop_
_space_group_symop_operation_xyz
x,y,z
-x,-y,-z
loop_
_atom_site_type_symbol
_atom_site_label
_atom_site_fract_x
_atom_site_fract_y
_atom_site_fract_z
Si Si1 0.754396 0.429702 0.913037
Si Si2 0.824869 0.624200 0.504370
Si Si3 0.132995 0.728182 0.437222
Si Si4 0.700141 0.564569 0.048494
Si Si5 0.006102 0.165442 0.470725
Si Si6 0.521560 0.005711 0.180533
Si Si7 0.255519 0.769136 0.878453
Si Si8 0.728518 0.738332 0.838992
O O1 0.497112 0.327738 0.704962
O O2 0.811725 0.601907 0.931512
O O3 0.713599 0.514440 0.972899
O O4 0.022073 0.272944 0.054406
O O5 0.915127 0.406501 0.550767
O O6 0.975835 0.661182 0.538935
O O7 0.937678 0.770542 0.654066
O O8 0.453039 0.689534 0.617704
O O9 0.968400 0.658952 0.258551
O O10 0.046020 0.952632 0.428881
O O11 0.670349 0.371500 0.036539
O O12 0.435667 0.711710 0.920015
O O13 0.699271 0.185408 0.308554
O O14 0.247123 0.169101 0.680948
O O15 0.332334 0.054286 0.131138
O O16 0.337445 0.968068 0.992651
#
# Coordination Sequence:
#
# PCOD8002299 Si02
#       8
#     2   2   2   2   2   2   2   2
#     4  10  21  40  58  85 115 161 209 233 285 357
#     4  10  22  37  59  87 120 157 195 240 297 353
#     4   9  19  40  58  89 122 149 193 249 297 348
#     4  10  20  35  59  85 121 155 189 246 296 355
#     4  10  20  36  60  89 119 152 192 243 303 356
#     4  10  20  37  57  86 123 151 190 251 295 347
#     4  10  21  36  55  89 123 149 190 246 304 350
#     4   9  21  39  61  81 119 160 198 246 285 346
#
# _framework density 22.686164999999999
#
# number of rings (size 3 to 8) (size 9 to 14) (size 15 to 20)
#    0.000    2.250    1.250    0.750    1.750    2.500 
#    2.250    6.250    0.000    0.000    0.000    0.000 
#    0.000    0.000    0.000    0.000    0.000    0.000 
#
# Total GULP energy -198209.066514 kJ/mol
# GULP energy per Si atom -12388.066657 kJ/mol
# Density = 2.263453 g / cm^3
# Si number density = 22.686165 Si / 1000 Ang^3
#
#
#
# Elastic Constant Matrix: (Units=GPa)
#
#
# Indices 1 2 3 4 5 6 
#
# 1 86.5157 25.9997 57.7807 10.3484 -0.5960 -20.7243
# 2 25.9997 49.9386 45.4208 7.6923 10.1619 -14.0041
# 3 57.7807 45.4208 183.5149 21.7189 -4.1694 -24.4855
# 4 10.3484 7.6923 21.7189 22.9443 -6.7409 0.3983
# 5 -0.5960 10.1619 -4.1694 -6.7409 26.6126 -3.6256
# 6 -20.7243 -14.0041 -24.4855 0.3983 -3.6256 32.4692
#
#
#
# Elastic Compliance Matrix: (Units=1/GPa)
#
#
# Indices 1 2 3 4 5 6 
#
# 1 0.016779 -0.003906 -0.002982 -0.003097 0.001568 0.006990
# 2 -0.003906 0.033121 -0.005467 -0.008667 -0.014955 0.006106
# 3 -0.002982 -0.005467 0.008657 -0.004285 0.002648 0.002616
# 4 -0.003097 -0.008667 -0.004285 0.056741 0.015869 -0.007870
# 5 0.001568 -0.014955 0.002648 0.015869 0.047989 0.001712
# 6 0.006990 0.006106 0.002616 -0.007870 0.001712 0.040154
#
#
# Mechanical properties :
#
#
# Convention : Reuss Voigt Hill
#
# Bulk Modulus (GPa) = 29.54373 64.26352 46.90363
# Shear Modulus (GPa) = 20.88262 29.12309 25.00286
#
# Velocity S-wave (km/s) = 3.03727 3.58682 3.32342
# Velocity P-wave (km/s) = 5.03498 6.74851 5.95371
#
# Compressibility (1/GPa) = 0.03384813
#
# Stress axis : x y z
#
# Youngs Moduli (GPa) = 59.59734 30.19227 115.50895
#
# Poissons Ratio (x) = 0.11793 0.34440
# Poissons Ratio (y) = 0.23279 0.63151
# Poissons Ratio (z) = 0.17769 0.16507
#
# Static dielectric constant tensor:
#      x y z
#    x 4.043910 0.000890 0.148800 
#    y 0.000890 3.896980 0.002300 
#    z 0.148800 0.002300 4.526150 
# 
# 
# High freq. dielectric constant tensor:
#      x y z
#    x 1.867490 0.008190 -0.007520 
#    y 0.008190 1.876600 0.012030 
#    z -0.007520 0.012030 1.912500 
# 
# From -- ./inp_files/406897.got.cif
#   From: 2010.06.25/outbox.cif.g09.slc.cpg/sg2_204_cif.got.tgz:406897.got - 2010.06.27 13:26:56.
