data_PCOD8002518
_publ_section_title
;
Structure prediction by ZEFSAII (Michael W. Deem and Ramdas Pophale) SiO2 
 PCOD8002518
Probable space group: P -1
;
_chemical_formula_sum "Si O2"
_cell_formula_units_Z 16
_cell_length_a 9.090375
_cell_length_b 14.220038
_cell_length_c 9.192460
_cell_angle_alpha 95.030364
_cell_angle_beta 87.650809
_cell_angle_gamma 39.178310
_cell_volume 736.485865
_symmetry_space_group_name_H-M "P -1"
_symmetry_group_IT_number 2
_symmetry_cell_setting 'triclinic'
loop_
_space_group_symop_operation_xyz
x,y,z
-x,-y,-z
loop_
_atom_site_type_symbol
_atom_site_label
_atom_site_fract_x
_atom_site_fract_y
_atom_site_fract_z
Si Si1 0.433867 0.834813 0.132833
Si Si2 0.364955 0.045230 0.362185
Si Si3 0.002531 0.040860 0.739507
Si Si4 0.152588 0.463980 0.356460
Si Si5 0.164607 0.636899 0.553653
Si Si6 0.526108 0.136709 0.186606
Si Si7 0.739726 0.573740 0.279313
Si Si8 0.703716 0.237779 0.514302
O O1 0.601184 0.660991 0.145602
O O2 0.168443 0.927744 0.136155
O O3 0.444174 0.904200 0.275772
O O4 0.519615 0.837818 0.980564
O O5 0.412831 0.098807 0.245258
O O6 0.087287 0.184070 0.423786
O O7 0.500000 0.000000 0.500000
O O8 0.844298 0.180641 0.653289
O O9 0.192475 0.008309 0.813668
O O10 0.146664 0.892120 0.624805
O O11 0.193278 0.553453 0.400733
O O12 0.402873 0.289130 0.287888
O O13 0.000000 0.500000 0.500000
O O14 0.962126 0.534095 0.247720
O O15 0.181510 0.573803 0.702163
O O16 0.352180 0.628936 0.526994
O O17 0.548879 0.688179 0.435960
#
# Coordination Sequence:
#
# PCOD8002518 Si02
#       8
#     2   2   2   2   2   2   2   2
#     4  11  25  42  62  93 130 164 207 254 317 375
#     4  12  24  40  67  95 124 159 212 265 304 367
#     4  10  21  38  63  93 125 161 211 254 312 365
#     4  10  20  37  60  90 121 157 213 248 305 364
#     4  11  20  37  61  92 123 154 206 263 306 356
#     4  12  24  41  64  90 130 171 200 256 322 368
#     4  10  21  37  59  87 125 161 201 253 302 374
#     4  10  20  35  64  95 120 157 210 267 304 354
#
# _framework density 21.724789000000001
#
# number of rings (size 3 to 8) (size 9 to 14) (size 15 to 20)
#    0.000    1.250    3.750    4.125    5.250    0.500 
#    0.000    0.000    0.000    2.250    0.000    0.000 
#    0.000    0.000    0.000    0.000    0.000    0.000 
#
# Total GULP energy -198223.943837 kJ/mol
# GULP energy per Si atom -12388.996490 kJ/mol
# Density = 2.167534 g / cm^3
# Si number density = 21.724789 Si / 1000 Ang^3
#
#
#
# Elastic Constant Matrix: (Units=GPa)
#
#
# Indices 1 2 3 4 5 6 
#
# 1 82.9695 6.8807 2.9541 -4.9218 -8.8106 6.3129
# 2 6.8807 93.8058 18.8432 -8.0361 -2.7921 -0.1739
# 3 2.9541 18.8432 64.2351 -10.0625 -9.5671 3.9767
# 4 -4.9218 -8.0361 -10.0625 26.0096 3.1552 -2.5276
# 5 -8.8106 -2.7921 -9.5671 3.1552 27.5441 -1.3015
# 6 6.3129 -0.1739 3.9767 -2.5276 -1.3015 35.1502
#
#
#
# Elastic Compliance Matrix: (Units=1/GPa)
#
#
# Indices 1 2 3 4 5 6 
#
# 1 0.012776 -0.000803 0.000635 0.001735 0.003928 -0.002100
# 2 -0.000803 0.011528 -0.003081 0.002334 -0.000393 0.000703
# 3 0.000635 -0.003081 0.018208 0.005387 0.005522 -0.001597
# 4 0.001735 0.002334 0.005387 0.042028 -0.002056 0.002037
# 5 0.003928 -0.000393 0.005522 -0.002056 0.039675 -0.000011
# 6 -0.002100 0.000703 -0.001597 0.002037 -0.000011 0.029157
#
#
# Mechanical properties :
#
#
# Convention : Reuss Voigt Hill
#
# Bulk Modulus (GPa) = 27.76767 33.15180 30.45974
# Shear Modulus (GPa) = 29.09091 31.89628 30.49359
#
# Velocity S-wave (km/s) = 3.66329 3.83586 3.75057
# Velocity P-wave (km/s) = 5.54096 5.90859 5.72773
#
# Compressibility (1/GPa) = 0.03601311
#
# Stress axis : x y z
#
# Youngs Moduli (GPa) = 78.26911 86.74766 54.92159
#
# Poissons Ratio (x) = 0.06966 -0.03486
# Poissons Ratio (y) = 0.06285 0.16922
# Poissons Ratio (z) = -0.04968 0.26728
#
# Static dielectric constant tensor:
#      x y z
#    x 5.001550 -0.667150 0.232090 
#    y -0.667150 4.491660 -0.261920 
#    z 0.232090 -0.261920 3.682740 
# 
# 
# High freq. dielectric constant tensor:
#      x y z
#    x 1.858250 -0.021400 -0.016160 
#    y -0.021400 1.873500 -0.007730 
#    z -0.016160 -0.007730 1.811420 
# 
# From -- ./inp_files/207771.got.cif
#   From: 2010.06.25/outbox.cif.g09.slc.cpg/sg2_104_cif.got.tgz:207771.got - 2010.06.27 13:26:56.
