data_PCOD8002495
_publ_section_title
;
Structure prediction by ZEFSAII (Michael W. Deem and Ramdas Pophale) SiO2 
 PCOD8002495
Probable space group: P -1
;
_chemical_formula_sum "Si O2"
_cell_formula_units_Z 16
_cell_length_a 8.558649
_cell_length_b 16.860176
_cell_length_c 9.226220
_cell_angle_alpha 55.229131
_cell_angle_beta 78.472913
_cell_angle_gamma 116.655533
_cell_volume 766.318936
_symmetry_space_group_name_H-M "P -1"
_symmetry_group_IT_number 2
_symmetry_cell_setting 'triclinic'
loop_
_space_group_symop_operation_xyz
x,y,z
-x,-y,-z
loop_
_atom_site_type_symbol
_atom_site_label
_atom_site_fract_x
_atom_site_fract_y
_atom_site_fract_z
Si Si1 0.840972 0.495910 0.434791
Si Si2 0.592667 0.297921 0.429706
Si Si3 0.015109 0.233133 0.890874
Si Si4 0.862205 0.812686 0.365265
Si Si5 0.336519 0.058921 0.069943
Si Si6 0.525396 0.954343 0.246738
Si Si7 0.442403 0.365124 0.152330
Si Si8 0.580603 0.698038 0.107780
O O1 0.779514 0.406136 0.398619
O O2 0.969134 0.646553 0.202006
O O3 0.622047 0.437558 0.625782
O O4 0.000000 0.500000 0.500000
O O5 0.344989 0.213346 0.635082
O O6 0.622098 0.377730 0.198387
O O7 0.590494 0.183775 0.500199
O O8 0.073494 0.245333 0.697152
O O9 0.184768 0.245852 0.945469
O O10 0.768976 0.087559 0.122031
O O11 0.795973 0.743242 0.608169
O O12 0.076590 0.971636 0.180097
O O13 0.365638 0.980442 0.256543
O O14 0.446262 0.199472 0.970258
O O15 0.471207 0.087436 0.872293
O O16 0.500000 0.500000 0.000000
O O17 0.438397 0.323932 0.035818
#
# Coordination Sequence:
#
# PCOD8002495 Si02
#       8
#     2   2   2   2   2   2   2   2
#     4  12  24  37  61  94 121 148 200 251 304 351
#     4  10  21  41  60  86 119 160 194 246 295 358
#     4  11  21  36  64  91 117 155 200 252 294 352
#     4   9  20  37  62  84 118 153 205 235 305 340
#     4  10  20  35  63  93 117 158 195 251 300 350
#     4  10  20  38  61  90 128 152 194 246 310 349
#     4  10  22  40  61  83 121 160 201 244 296 349
#     4  12  21  38  64  88 118 154 210 245 288 351
#
# _framework density 20.879034999999998
#
# number of rings (size 3 to 8) (size 9 to 14) (size 15 to 20)
#    0.750    0.750    2.500    3.375    3.500    2.500 
#    0.000    1.250    2.750    0.000    0.000    0.000 
#    0.000    0.000    0.000    0.000    0.000    0.000 
#
# Total GULP energy -198334.013311 kJ/mol
# GULP energy per Si atom -12395.875832 kJ/mol
# Density = 2.083151 g / cm^3
# Si number density = 20.879035 Si / 1000 Ang^3
#
#
#
# Elastic Constant Matrix: (Units=GPa)
#
#
# Indices 1 2 3 4 5 6 
#
# 1 99.8373 44.5636 7.3428 -14.1153 29.1543 8.9812
# 2 44.5636 128.8503 48.5072 -16.6656 15.2940 11.7791
# 3 7.3428 48.5072 56.9735 -8.4844 28.0427 -1.4240
# 4 -14.1153 -16.6656 -8.4844 36.6321 -7.8802 10.9468
# 5 29.1543 15.2940 28.0427 -7.8802 35.6077 -7.3176
# 6 8.9812 11.7791 -1.4240 10.9468 -7.3176 31.2604
#
#
#
# Elastic Compliance Matrix: (Units=1/GPa)
#
#
# Indices 1 2 3 4 5 6 
#
# 1 0.028292 -0.013724 0.029132 0.006543 -0.041571 -0.013652
# 2 -0.013724 0.020172 -0.027008 0.002954 0.024455 -0.000198
# 3 0.029132 -0.027008 0.071815 0.004263 -0.070522 -0.012923
# 4 0.006543 0.002954 0.004263 0.035959 -0.005450 -0.016666
# 5 -0.041571 0.024455 -0.070522 -0.005450 0.111612 0.027551
# 6 -0.013652 -0.000198 -0.012923 -0.016666 0.027551 0.047683
#
#
# Mechanical properties :
#
#
# Convention : Reuss Voigt Hill
#
# Bulk Modulus (GPa) = 10.30065 54.05427 32.17746
# Shear Modulus (GPa) = 13.47374 33.04986 23.26180
#
# Velocity S-wave (km/s) = 2.54308 3.98291 3.34147
# Velocity P-wave (km/s) = 3.68337 6.86272 5.50745
#
# Compressibility (1/GPa) = 0.09708129
#
# Stress axis : x y z
#
# Youngs Moduli (GPa) = 35.34572 49.57310 13.92462
#
# Poissons Ratio (x) = 0.68032 -0.40566
# Poissons Ratio (y) = 0.48507 0.37607
# Poissons Ratio (z) = -1.02971 1.33887
#
# Static dielectric constant tensor:
#      x y z
#    x 3.725520 0.224960 0.316120 
#    y 0.224960 3.406820 -0.432030 
#    z 0.316120 -0.432030 3.529430 
# 
# 
# High freq. dielectric constant tensor:
#      x y z
#    x 1.816180 0.006290 0.017930 
#    y 0.006290 1.812680 -0.025140 
#    z 0.017930 -0.025140 1.796710 
# 
# From -- ./inp_files/205903.got.cif
#   From: 2010.06.25/outbox.cif.g09.slc.cpg/sg2_103_cif.got.tgz:205903.got - 2010.06.27 13:26:56.
