data_PCOD8002887
_publ_section_title
;
Structure prediction by ZEFSAII (Michael W. Deem and Ramdas Pophale) SiO2 
 PCOD8002887
Probable space group: P -1
;
_chemical_formula_sum "Si O2"
_cell_formula_units_Z 16
_cell_length_a 10.231343
_cell_length_b 11.943554
_cell_length_c 11.533332
_cell_angle_alpha 104.610142
_cell_angle_beta 107.777237
_cell_angle_gamma 37.247742
_cell_volume 812.196024
_symmetry_space_group_name_H-M "P -1"
_symmetry_group_IT_number 2
_symmetry_cell_setting 'triclinic'
loop_
_space_group_symop_operation_xyz
x,y,z
-x,-y,-z
loop_
_atom_site_type_symbol
_atom_site_label
_atom_site_fract_x
_atom_site_fract_y
_atom_site_fract_z
Si Si1 0.842636 0.609875 0.145922
Si Si2 0.694054 0.630237 0.859878
Si Si3 0.525714 0.503684 0.696310
Si Si4 0.251167 0.797912 0.502993
Si Si5 0.725092 0.890392 0.682299
Si Si6 0.549788 0.783830 0.477710
Si Si7 0.781769 0.474184 0.295441
Si Si8 0.475799 0.991205 0.856755
O O1 0.759348 0.577633 0.211581
O O2 0.102541 0.455865 0.183237
O O3 0.749151 0.801672 0.192655
O O4 0.754033 0.612551 0.004520
O O5 0.647662 0.526415 0.802255
O O6 0.486776 0.843683 0.814254
O O7 0.331919 0.676652 0.606213
O O8 0.711295 0.309867 0.626404
O O9 0.406496 0.500463 0.758179
O O10 0.394576 0.819486 0.535160
O O11 0.000000 0.000000 0.500000
O O12 0.662076 0.812326 0.584196
O O13 0.668530 0.922063 0.812328
O O14 0.982674 0.742807 0.696346
O O15 0.594100 0.080268 0.635617
O O16 0.740628 0.572142 0.429170
O O17 0.500000 0.000000 0.000000
#
# Coordination Sequence:
#
# PCOD8002887 Si02
#       8
#     2   2   2   2   2   2   2   2
#     4  10  21  37  62  84 116 153 198 245 293 338
#     4  10  21  39  59  87 113 156 200 242 288 348
#     4  10  23  38  59  86 119 153 195 237 295 355
#     4  10  21  40  58  82 119 157 190 238 293 354
#     4  11  20  35  57  86 114 152 191 243 293 341
#     4  10  22  35  56  86 115 150 196 236 290 350
#     4  11  21  38  57  85 120 152 187 242 294 351
#     4  10  20  36  60  84 113 150 198 245 285 340
#
# _framework density 19.699677000000001
#
# number of rings (size 3 to 8) (size 9 to 14) (size 15 to 20)
#    0.000    1.750    2.500    1.875    0.000    2.500 
#    2.250    0.000    0.000    1.500    0.000    0.000 
#    0.000    0.000    0.000    0.000    0.000    0.000 
#
# Total GULP energy -198327.189642 kJ/mol
# GULP energy per Si atom -12395.449353 kJ/mol
# Density = 1.965484 g / cm^3
# Si number density = 19.699677 Si / 1000 Ang^3
#
#
#
# Elastic Constant Matrix: (Units=GPa)
#
#
# Indices 1 2 3 4 5 6 
#
# 1 122.1191 29.1889 45.3838 8.5906 -5.7194 5.0464
# 2 29.1889 104.1353 36.9682 9.3488 0.4646 -7.2340
# 3 45.3838 36.9682 57.3492 8.5895 -10.4532 -7.5513
# 4 8.5906 9.3488 8.5895 24.0027 3.4975 -6.9191
# 5 -5.7194 0.4646 -10.4532 3.4975 37.0531 5.5049
# 6 5.0464 -7.2340 -7.5513 -6.9191 5.5049 29.7377
#
#
#
# Elastic Compliance Matrix: (Units=1/GPa)
#
#
# Indices 1 2 3 4 5 6 
#
# 1 0.012311 -0.000039 -0.010047 -0.002302 0.000056 -0.005195
# 2 -0.000039 0.012778 -0.008330 -0.001267 -0.002572 0.001181
# 3 -0.010047 -0.008330 0.033595 -0.004644 0.007620 0.005718
# 4 -0.002302 -0.001267 -0.004644 0.049231 -0.008057 0.011849
# 5 0.000056 -0.002572 0.007620 -0.008057 0.030874 -0.006290
# 6 -0.005195 0.001181 0.005718 0.011849 -0.006290 0.040170
#
#
# Mechanical properties :
#
#
# Convention : Reuss Voigt Hill
#
# Bulk Modulus (GPa) = 45.76023 56.29837 51.02930
# Shear Modulus (GPa) = 22.41421 29.62954 26.02188
#
# Velocity S-wave (km/s) = 3.37678 3.88243 3.63840
# Velocity P-wave (km/s) = 6.20346 6.98127 6.60382
#
# Compressibility (1/GPa) = 0.02185304
#
# Stress axis : x y z
#
# Youngs Moduli (GPa) = 81.22907 78.25870 29.76674
#
# Poissons Ratio (x) = 0.00303 0.29906
# Poissons Ratio (y) = 0.00314 0.24796
# Poissons Ratio (z) = 0.81608 0.65189
#
# Static dielectric constant tensor:
#      x y z
#    x 3.547970 0.184570 -0.259560 
#    y 0.184570 3.985450 0.200870 
#    z -0.259560 0.200870 3.447970 
# 
# 
# High freq. dielectric constant tensor:
#      x y z
#    x 1.760220 0.013680 -0.025130 
#    y 0.013680 1.784980 0.012340 
#    z -0.025130 0.012340 1.754100 
# 
# From -- ./inp_files/270277.got.cif
#   From: 2010.06.25/outbox.cif.g09.slc.cpg/sg2_136_cif.got.tgz:270277.got - 2010.06.27 13:26:56.
