data_PCOD8002320
_publ_section_title
;
Structure prediction by ZEFSAII (Michael W. Deem and Ramdas Pophale) SiO2 
 PCOD8002320
Probable space group: P -1
;
_chemical_formula_sum "Si O2"
_cell_formula_units_Z 14
_cell_length_a 14.506635
_cell_length_b 12.268641
_cell_length_c 9.497592
_cell_angle_alpha 36.201727
_cell_angle_beta 133.564613
_cell_angle_gamma 137.277949
_cell_volume 657.466098
_symmetry_space_group_name_H-M "P -1"
_symmetry_group_IT_number 2
_symmetry_cell_setting 'triclinic'
loop_
_space_group_symop_operation_xyz
x,y,z
-x,-y,-z
loop_
_atom_site_type_symbol
_atom_site_label
_atom_site_fract_x
_atom_site_fract_y
_atom_site_fract_z
Si Si1 0.851659 0.431356 0.768056
Si Si2 0.348650 0.776130 0.701465
Si Si3 0.601041 0.588276 0.884134
Si Si4 0.903725 0.819408 0.939339
Si Si5 0.037876 0.737328 0.419290
Si Si6 0.571938 0.192107 0.574166
Si Si7 0.952276 0.766383 0.736733
O O1 0.699548 0.264029 0.740949
O O2 0.843676 0.606676 0.678950
O O3 0.936861 0.542783 0.602693
O O4 0.916105 0.293765 0.059229
O O5 0.196279 0.768124 0.576262
O O6 0.373014 0.774420 0.562346
O O7 0.467318 0.957014 0.722952
O O8 0.363804 0.579696 0.985409
O O9 0.751618 0.761447 0.911438
O O10 0.519623 0.686091 0.601330
O O11 0.500000 0.500000 0.000000
O O12 0.881544 0.729151 0.853691
O O13 0.983657 0.063229 0.761332
O O14 0.989331 0.714457 0.227673
O O15 0.000000 0.000000 0.500000
#
# Coordination Sequence:
#
# PCOD8002320 Si02
#       7
#     2   2   2   2   2   2   2
#     4  11  24  42  68  93 127 169 213 260 319 380
#     4  10  20  35  59  88 130 161 198 259 320 365
#     4  10  20  36  60  90 129 164 201 260 320 374
#     4  11  22  38  66  97 129 162 215 267 315 371
#     4  11  21  38  67  99 124 163 214 266 317 376
#     4  10  21  37  56  92 124 161 206 251 311 381
#     4  11  24  44  64  93 130 169 211 263 316 377
#
# _framework density 21.293872
#
# number of rings (size 3 to 8) (size 9 to 14) (size 15 to 20)
#    0.000    1.429    2.857    3.429    0.000    2.857 
#    0.000    0.714    0.000    8.571    0.000    0.000 
#    0.000    0.000    0.000    0.000    0.000    0.000 
#
# Total GULP energy -173493.517768 kJ/mol
# GULP energy per Si atom -12392.394126 kJ/mol
# Density = 2.124541 g / cm^3
# Si number density = 21.293872 Si / 1000 Ang^3
#
#
#
# Elastic Constant Matrix: (Units=GPa)
#
#
# Indices 1 2 3 4 5 6 
#
# 1 71.2552 42.5210 25.5985 8.5812 4.4993 2.2667
# 2 42.5210 143.6545 54.4491 16.0706 0.8724 9.5118
# 3 25.5985 54.4491 99.8798 -12.9849 15.3460 -3.3381
# 4 8.5812 16.0706 -12.9849 30.7541 1.5178 4.0865
# 5 4.4993 0.8724 15.3460 1.5178 29.2309 4.6211
# 6 2.2667 9.5118 -3.3381 4.0865 4.6211 36.9728
#
#
#
# Elastic Compliance Matrix: (Units=1/GPa)
#
#
# Indices 1 2 3 4 5 6 
#
# 1 0.017874 -0.003678 -0.002997 -0.004310 -0.000870 0.000165
# 2 -0.003678 0.012046 -0.007604 -0.008296 0.005149 -0.003287
# 3 -0.002997 -0.007604 0.018229 0.012518 -0.010111 0.003666
# 4 -0.004310 -0.008296 0.012518 0.043771 -0.007883 -0.000324
# 5 -0.000870 0.005149 -0.010111 -0.007883 0.040925 -0.006428
# 6 0.000165 -0.003287 0.003666 -0.000324 -0.006428 0.029053
#
#
# Mechanical properties :
#
#
# Convention : Reuss Voigt Hill
#
# Bulk Modulus (GPa) = 51.04254 62.21409 56.62832
# Shear Modulus (GPa) = 25.38243 32.20629 28.79436
#
# Velocity S-wave (km/s) = 3.45629 3.89326 3.68127
# Velocity P-wave (km/s) = 6.32064 7.03494 6.68733
#
# Compressibility (1/GPa) = 0.01959150
#
# Stress axis : x y z
#
# Youngs Moduli (GPa) = 55.94575 83.01175 54.85822
#
# Poissons Ratio (x) = 0.30535 0.16440
# Poissons Ratio (y) = 0.20579 0.41714
# Poissons Ratio (z) = 0.16766 0.63121
#
# Static dielectric constant tensor:
#      x y z
#    x 3.822330 -0.068480 0.293860 
#    y -0.068480 4.019210 -0.266990 
#    z 0.293860 -0.266990 4.136280 
# 
# 
# High freq. dielectric constant tensor:
#      x y z
#    x 1.818950 0.004620 0.020160 
#    y 0.004620 1.842170 -0.022940 
#    z 0.020160 -0.022940 1.831950 
# 
# From -- ./inp_files/241984.got.cif
#   From: 2010.06.25/outbox.cif.g09.slc.cpg/sg2_121_cif.got.tgz:241984.got - 2010.06.27 13:26:56.
