data_PCOD8002899
_publ_section_title
;
Structure prediction by ZEFSAII (Michael W. Deem and Ramdas Pophale) SiO2 
 PCOD8002899
Probable space group: P -1
;
_chemical_formula_sum "Si O2"
_cell_formula_units_Z 16
_cell_length_a 8.814273
_cell_length_b 5.452476
_cell_length_c 20.941616
_cell_angle_alpha 87.821012
_cell_angle_beta 50.664921
_cell_angle_gamma 66.363055
_cell_volume 679.149961
_symmetry_space_group_name_H-M "P -1"
_symmetry_group_IT_number 2
_symmetry_cell_setting 'triclinic'
loop_
_space_group_symop_operation_xyz
x,y,z
-x,-y,-z
loop_
_atom_site_type_symbol
_atom_site_label
_atom_site_fract_x
_atom_site_fract_y
_atom_site_fract_z
Si Si1 0.222140 0.850426 0.525515
Si Si2 0.520616 0.472198 0.919027
Si Si3 0.107728 0.505309 0.871723
Si Si4 0.137688 0.619113 0.426550
Si Si5 0.372863 0.687779 0.719705
Si Si6 0.013302 0.290283 0.780701
Si Si7 0.722828 0.878410 0.056968
Si Si8 0.713475 0.557526 0.381906
O O1 0.207845 0.787226 0.455772
O O2 0.473040 0.809238 0.469024
O O3 0.170567 0.656607 0.588523
O O4 0.027759 0.171699 0.586364
O O5 0.780232 0.295158 0.828897
O O6 0.407691 0.290265 0.927375
O O7 0.416934 0.784043 0.912645
O O8 0.500000 0.500000 0.000000
O O9 0.324744 0.526837 0.791275
O O10 0.194459 0.216420 0.891576
O O11 0.966770 0.523003 0.845235
O O12 0.942383 0.775616 0.955195
O O13 0.371005 0.374278 0.337567
O O14 0.000000 0.500000 0.500000
O O15 0.334467 0.600358 0.660806
O O16 0.201741 0.014590 0.767900
O O17 0.116706 0.333438 0.686850
#
# Coordination Sequence:
#
# PCOD8002899 Si02
#       8
#     2   2   2   2   2   2   2   2
#     4   9  19  38  60  83 121 156 208 256 315 378
#     4  12  25  43  68  98 133 169 220 271 326 387
#     4  10  24  43  66  89 128 168 214 262 326 386
#     4  10  20  36  60  86 118 159 203 258 313 380
#     4  10  22  39  60  88 123 163 207 257 321 382
#     4  11  23  39  65  88 130 166 210 267 327 384
#     4  11  26  44  69  98 128 175 221 270 325 386
#     4   9  20  38  59  88 117 165 204 259 317 387
#
# _framework density 23.558861
#
# number of rings (size 3 to 8) (size 9 to 14) (size 15 to 20)
#    0.000    1.750    1.250    1.875    5.250    4.000 
#    2.250    3.750    0.000    0.000    0.000    0.000 
#    0.000    0.000    0.000    0.000    0.000    0.000 
#
# Total GULP energy -198335.352269 kJ/mol
# GULP energy per Si atom -12395.959517 kJ/mol
# Density = 2.350524 g / cm^3
# Si number density = 23.558861 Si / 1000 Ang^3
#
#
#
# Elastic Constant Matrix: (Units=GPa)
#
#
# Indices 1 2 3 4 5 6 
#
# 1 54.2832 24.1640 33.6367 -3.4943 -20.6059 -7.7252
# 2 24.1640 134.5226 44.0298 0.1176 -18.3326 -31.7760
# 3 33.6367 44.0298 128.2387 -12.3035 -33.0138 -21.3775
# 4 -3.4943 0.1176 -12.3035 36.0618 -6.4022 -4.6228
# 5 -20.6059 -18.3326 -33.0138 -6.4022 42.9177 1.9464
# 6 -7.7252 -31.7760 -21.3775 -4.6228 1.9464 41.6348
#
#
#
# Elastic Compliance Matrix: (Units=1/GPa)
#
#
# Indices 1 2 3 4 5 6 
#
# 1 0.025092 -0.001882 -0.002915 0.003327 0.009422 0.001652
# 2 -0.001882 0.010047 -0.001205 0.000628 0.002253 0.006664
# 3 -0.002915 -0.001205 0.012653 0.006232 0.008506 0.005330
# 4 0.003327 0.000628 0.006232 0.033131 0.011264 0.007449
# 5 0.009422 0.002253 0.008506 0.011264 0.036676 0.007371
# 6 0.001652 0.006664 0.005330 0.007449 0.007371 0.032631
#
#
# Mechanical properties :
#
#
# Convention : Reuss Voigt Hill
#
# Bulk Modulus (GPa) = 27.94227 57.85617 42.89922
# Shear Modulus (GPa) = 28.70895 38.47047 33.58971
#
# Velocity S-wave (km/s) = 3.49464 4.04536 3.78004
# Velocity P-wave (km/s) = 5.30751 6.81406 6.10742
#
# Compressibility (1/GPa) = 0.03578807
#
# Stress axis : x y z
#
# Youngs Moduli (GPa) = 39.85342 99.53518 79.03522
#
# Poissons Ratio (x) = 0.18730 0.23040
# Poissons Ratio (y) = 0.07499 0.09521
# Poissons Ratio (z) = 0.11618 0.11991
#
# Static dielectric constant tensor:
#      x y z
#    x 4.355230 -0.261180 -0.180400 
#    y -0.261180 4.238110 0.049800 
#    z -0.180400 0.049800 4.451640 
# 
# 
# High freq. dielectric constant tensor:
#      x y z
#    x 1.921670 -0.013610 -0.007990 
#    y -0.013610 1.928000 -0.007210 
#    z -0.007990 -0.007210 1.941930 
# 
# From -- ./inp_files/126466.got.cif
#   From: 2010.06.25/outbox.cif.g09.slc.cpg/sg2_64_cif.got.tgz:126466.got - 2010.06.27 13:26:56.
