data_PCOD8002192
_publ_section_title
;
Structure prediction by ZEFSAII (Michael W. Deem and Ramdas Pophale) SiO2 
 PCOD8002192
Probable space group: P -1
;
_chemical_formula_sum "Si O2"
_cell_formula_units_Z 16
_cell_length_a 14.046451
_cell_length_b 22.630324
_cell_length_c 13.831561
_cell_angle_alpha 148.620993
_cell_angle_beta 30.768560
_cell_angle_gamma 155.879282
_cell_volume 866.856863
_symmetry_space_group_name_H-M "P -1"
_symmetry_group_IT_number 2
_symmetry_cell_setting 'triclinic'
loop_
_space_group_symop_operation_xyz
x,y,z
-x,-y,-z
loop_
_atom_site_type_symbol
_atom_site_label
_atom_site_fract_x
_atom_site_fract_y
_atom_site_fract_z
Si Si1 0.096917 0.935912 0.109813
Si Si2 0.495066 0.067148 0.308810
Si Si3 0.330082 0.861956 0.529287
Si Si4 0.953180 0.890967 0.471183
Si Si5 0.715121 0.654154 0.194768
Si Si6 0.385754 0.633458 0.146797
Si Si7 0.301872 0.613805 0.408956
Si Si8 0.070578 0.133408 0.058343
O O1 0.888957 0.787442 0.149454
O O2 0.165571 0.087823 0.306018
O O3 0.350687 0.967394 0.927969
O O4 0.996983 0.918560 0.065950
O O5 0.515610 0.072828 0.414537
O O6 0.603211 0.232015 0.408230
O O7 0.208287 0.934135 0.342325
O O8 0.265814 0.708060 0.332743
O O9 0.061600 0.808958 0.704865
O O10 0.500000 0.000000 0.500000
O O11 0.770318 0.720041 0.347675
O O12 0.000000 0.000000 0.500000
O O13 0.417830 0.558458 0.295378
O O14 0.777204 0.544737 0.986866
O O15 0.435628 0.650049 0.240485
O O16 0.634966 0.725060 0.993672
O O17 0.000000 0.500000 0.500000
O O18 0.000000 0.000000 0.000000
#
# Coordination Sequence:
#
# PCOD8002192 Si02
#       8
#     2   2   2   2   2   2   2   2
#     4  10  20  37  57  85 115 153 196 237 287 337
#     4  10  20  35  57  84 112 151 196 235 282 340
#     4  10  21  36  57  89 112 145 194 242 292 342
#     4  10  20  38  54  81 117 159 199 228 274 350
#     4  11  22  36  56  81 124 158 185 236 292 354
#     4  11  22  36  54  85 122 146 185 239 299 343
#     4  11  21  34  55  85 122 154 182 237 300 350
#     4  11  21  36  62  88 111 152 195 241 296 343
#
# _framework density 18.457488999999999
#
# number of rings (size 3 to 8) (size 9 to 14) (size 15 to 20)
#    0.000    1.500    5.000    1.875    5.250    2.000 
#    2.250    0.000    0.000    1.500    0.000    0.000 
#    0.000    0.000    0.000    0.000    0.000    0.000 
#
# Total GULP energy -198270.542537 kJ/mol
# GULP energy per Si atom -12391.908909 kJ/mol
# Density = 1.841548 g / cm^3
# Si number density = 18.457489 Si / 1000 Ang^3
#
#
#
# Elastic Constant Matrix: (Units=GPa)
#
#
# Indices 1 2 3 4 5 6 
#
# 1 55.7753 32.3641 49.7991 4.3038 -11.0449 -2.0022
# 2 32.3641 71.5767 56.6015 3.2828 -1.1777 1.5454
# 3 49.7991 56.6015 168.3970 10.8450 -5.7264 7.4803
# 4 4.3038 3.2828 10.8450 37.1201 0.1606 -3.2884
# 5 -11.0449 -1.1777 -5.7264 0.1606 26.2623 -4.5938
# 6 -2.0022 1.5454 7.4803 -3.2884 -4.5938 26.6860
#
#
#
# Elastic Compliance Matrix: (Units=1/GPa)
#
#
# Indices 1 2 3 4 5 6 
#
# 1 0.031559 -0.009444 -0.005990 -0.000534 0.012721 0.006718
# 2 -0.009444 0.021875 -0.004672 0.000425 -0.004247 -0.001345
# 3 -0.005990 -0.004672 0.009511 -0.001958 -0.001219 -0.003296
# 4 -0.000534 0.000425 -0.001958 0.027882 -0.000121 0.003899
# 5 0.012721 -0.004247 -0.001219 -0.000121 0.044581 0.009202
# 6 0.006718 -0.001345 -0.003296 0.003899 0.009202 0.041043
#
#
# Mechanical properties :
#
#
# Convention : Reuss Voigt Hill
#
# Bulk Modulus (GPa) = 43.98827 63.69759 53.84293
# Shear Modulus (GPa) = 22.29746 28.47929 25.38838
#
# Velocity S-wave (km/s) = 3.47946 3.93232 3.71280
# Velocity P-wave (km/s) = 6.32662 7.42987 6.90033
#
# Compressibility (1/GPa) = 0.02273333
#
# Stress axis : x y z
#
# Youngs Moduli (GPa) = 31.68718 45.71328 105.14127
#
# Poissons Ratio (x) = 0.43172 0.62976
# Poissons Ratio (y) = 0.29926 0.49121
# Poissons Ratio (z) = 0.18980 0.21357
#
# Static dielectric constant tensor:
#      x y z
#    x 3.193570 0.285960 -0.240520 
#    y 0.285960 3.010830 0.342310 
#    z -0.240520 0.342310 3.747410 
# 
# 
# High freq. dielectric constant tensor:
#      x y z
#    x 1.694730 0.001580 -0.010300 
#    y 0.001580 1.684920 -0.006700 
#    z -0.010300 -0.006700 1.741710 
# 
# From -- ./inp_files/432285.got.cif
#   From: 2010.06.25/outbox.cif.g09.slc.cpg/sg2_217_cif.got.tgz:432285.got - 2010.06.27 13:26:56.
