data_PCOD8002349
_publ_section_title
;
Structure prediction by ZEFSAII (Michael W. Deem and Ramdas Pophale) SiO2 
 PCOD8002349
Probable space group: P -1
;
_chemical_formula_sum "Si O2"
_cell_formula_units_Z 14
_cell_length_a 11.983180
_cell_length_b 8.163330
_cell_length_c 9.540797
_cell_angle_alpha 89.680317
_cell_angle_beta 71.675253
_cell_angle_gamma 121.191145
_cell_volume 741.428070
_symmetry_space_group_name_H-M "P -1"
_symmetry_group_IT_number 2
_symmetry_cell_setting 'triclinic'
loop_
_space_group_symop_operation_xyz
x,y,z
-x,-y,-z
loop_
_atom_site_type_symbol
_atom_site_label
_atom_site_fract_x
_atom_site_fract_y
_atom_site_fract_z
Si Si1 0.834663 0.495563 0.949340
Si Si2 0.215245 0.095567 0.405661
Si Si3 0.058643 0.298887 0.554200
Si Si4 0.353488 0.929642 0.490528
Si Si5 0.125143 0.584777 0.768685
Si Si6 0.734660 0.354632 0.711616
Si Si7 0.349190 0.405875 0.128012
O O1 0.769564 0.321270 0.857483
O O2 0.769175 0.625918 0.939403
O O3 0.002882 0.617222 0.863405
O O4 0.794783 0.417034 0.123216
O O5 0.145211 0.195614 0.510690
O O6 0.292817 0.200531 0.228910
O O7 0.328104 0.103223 0.469910
O O8 0.103255 0.864910 0.416355
O O9 0.071344 0.384863 0.704408
O O10 0.116874 0.476979 0.419306
O O11 0.234199 0.771781 0.638066
O O12 0.349663 0.843604 0.339461
O O13 0.500000 0.000000 0.500000
O O14 0.636128 0.441593 0.759572
O O15 0.500000 0.500000 0.000000
#
# Coordination Sequence:
#
# PCOD8002349 Si02
#       7
#     2   2   2   2   2   2   2
#     4   9  19  36  62  79 105 153 189 214 277 335
#     4  10  20  35  60  84 110 142 192 230 270 327
#     4   9  18  36  61  86 105 143 189 234 272 317
#     4  11  23  36  56  87 114 143 185 234 275 325
#     4  10  20  37  59  84 115 144 181 234 276 327
#     4   8  18  38  58  80 105 153 186 213 281 332
#     4   9  20  38  58  79 112 153 183 220 274 343
#
# _framework density 18.882477999999999
#
# number of rings (size 3 to 8) (size 9 to 14) (size 15 to 20)
#    0.857    1.714    0.000    1.714    4.000    2.286 
#    2.571    8.571    0.000    0.000    0.000    0.000 
#    0.000    0.000    0.000    0.000    0.000    0.000 
#
# Total GULP energy -173443.093459 kJ/mol
# GULP energy per Si atom -12388.792390 kJ/mol
# Density = 1.883950 g / cm^3
# Si number density = 18.882478 Si / 1000 Ang^3
#
#
#
# Elastic Constant Matrix: (Units=GPa)
#
#
# Indices 1 2 3 4 5 6 
#
# 1 130.5977 26.2312 49.3119 -10.9421 12.2098 4.2529
# 2 26.2312 46.8531 28.7269 -1.4896 3.1742 2.3803
# 3 49.3119 28.7269 112.6142 4.2543 11.1480 1.5982
# 4 -10.9421 -1.4896 4.2543 25.9089 5.2993 3.7870
# 5 12.2098 3.1742 11.1480 5.2993 39.9112 -3.1774
# 6 4.2529 2.3803 1.5982 3.7870 -3.1774 16.1733
#
#
#
# Elastic Compliance Matrix: (Units=1/GPa)
#
#
# Indices 1 2 3 4 5 6 
#
# 1 0.010616 -0.003040 -0.003741 0.006144 -0.003097 -0.004021
# 2 -0.003040 0.026604 -0.005463 0.001599 -0.000109 -0.002972
# 3 -0.003741 -0.005463 0.012158 -0.003825 -0.001210 0.001244
# 4 0.006144 0.001599 -0.003825 0.045572 -0.008083 -0.013732
# 5 -0.003097 -0.000109 -0.001210 -0.008083 0.028088 0.008361
# 6 -0.004021 -0.002972 0.001244 -0.013732 0.008361 0.068060
#
#
# Mechanical properties :
#
#
# Convention : Reuss Voigt Hill
#
# Bulk Modulus (GPa) = 40.17734 55.40055 47.78894
# Shear Modulus (GPa) = 22.33311 28.78502 25.55906
#
# Velocity S-wave (km/s) = 3.44283 3.90863 3.68310
# Velocity P-wave (km/s) = 6.09327 7.05501 6.59170
#
# Compressibility (1/GPa) = 0.02488965
#
# Stress axis : x y z
#
# Youngs Moduli (GPa) = 94.20054 37.58862 82.24816
#
# Poissons Ratio (x) = 0.11426 0.30773
# Poissons Ratio (y) = 0.28636 0.44930
# Poissons Ratio (z) = 0.35245 0.20534
#
# Static dielectric constant tensor:
#      x y z
#    x 3.502530 -0.089910 0.036800 
#    y -0.089910 3.242320 0.090000 
#    z 0.036800 0.090000 3.553600 
# 
# 
# High freq. dielectric constant tensor:
#      x y z
#    x 1.740460 -0.011020 -0.002350 
#    y -0.011020 1.698230 0.001150 
#    z -0.002350 0.001150 1.735820 
# 
# From -- ./inp_files/234188.got.cif
#   From: 2010.06.25/outbox.cif.g09.slc.cpg/sg2_118_cif.got.tgz:234188.got - 2010.06.27 13:26:56.
