data_PCOD8002221
_publ_section_title
;
Structure prediction by ZEFSAII (Michael W. Deem and Ramdas Pophale) SiO2 
 PCOD8002221
Probable space group: P -1
;
_chemical_formula_sum "Si O2"
_cell_formula_units_Z 16
_cell_length_a 17.957740
_cell_length_b 9.463761
_cell_length_c 8.098779
_cell_angle_alpha 116.138429
_cell_angle_beta 95.186665
_cell_angle_gamma 37.636698
_cell_volume 665.403978
_symmetry_space_group_name_H-M "P -1"
_symmetry_group_IT_number 2
_symmetry_cell_setting 'triclinic'
loop_
_space_group_symop_operation_xyz
x,y,z
-x,-y,-z
loop_
_atom_site_type_symbol
_atom_site_label
_atom_site_fract_x
_atom_site_fract_y
_atom_site_fract_z
Si Si1 0.353297 0.400856 0.806682
Si Si2 0.931529 0.196159 0.891707
Si Si3 0.210043 0.356134 0.151664
Si Si4 0.617506 0.766080 0.627101
Si Si5 0.524488 0.379444 0.714532
Si Si6 0.553835 0.195153 0.276415
Si Si7 0.979095 0.282478 0.274532
Si Si8 0.801109 0.855606 0.690013
O O1 0.210870 0.640253 0.999664
O O2 0.337562 0.320652 0.599243
O O3 0.393966 0.506309 0.813287
O O4 0.478022 0.115769 0.796885
O O5 0.989837 0.215019 0.049235
O O6 0.918974 0.322499 0.788482
O O7 0.034334 0.865016 0.710699
O O8 0.260838 0.368408 0.320949
O O9 0.173905 0.251666 0.172019
O O10 0.320241 0.143558 0.916675
O O11 0.587985 0.649034 0.642796
O O12 0.592275 0.207597 0.464765
O O13 0.466003 0.656582 0.809200
O O14 0.641494 0.173564 0.774374
O O15 0.852994 0.626201 0.457055
O O16 0.115208 0.130175 0.294166
#
# Coordination Sequence:
#
# PCOD8002221 Si02
#       8
#     2   2   2   2   2   2   2   2
#     4  10  20  38  65  90 126 162 195 246 319 378
#     4  11  24  43  67  90 124 163 216 259 300 366
#     4  12  23  35  65  94 126 153 205 266 306 367
#     4  10  20  35  57  98 127 160 189 241 324 380
#     4  10  22  40  63  92 129 163 195 247 319 378
#     4  10  22  36  57  99 131 159 193 243 321 381
#     4  10  26  47  64  84 118 178 216 253 303 361
#     4  11  24  44  66  88 127 166 210 257 309 365
#
# _framework density 24.045545000000001
#
# number of rings (size 3 to 8) (size 9 to 14) (size 15 to 20)
#    0.000    1.500    2.500    1.875    5.250    1.500 
#    0.000    0.000    2.750    0.000    0.000    0.000 
#    0.000    0.000    0.000    0.000    0.000    0.000 
#
# Total GULP energy -198327.488674 kJ/mol
# GULP energy per Si atom -12395.468042 kJ/mol
# Density = 2.399082 g / cm^3
# Si number density = 24.045545 Si / 1000 Ang^3
#
#
#
# Elastic Constant Matrix: (Units=GPa)
#
#
# Indices 1 2 3 4 5 6 
#
# 1 59.6020 15.8961 9.1712 -3.2817 15.7492 15.5255
# 2 15.8961 124.7655 4.2388 -13.5773 17.0169 20.2805
# 3 9.1712 4.2388 47.6950 -3.9669 16.2344 2.5198
# 4 -3.2817 -13.5773 -3.9669 28.6990 1.6671 -0.9951
# 5 15.7492 17.0169 16.2344 1.6671 33.5249 -0.2836
# 6 15.5255 20.2805 2.5198 -0.9951 -0.2836 39.4000
#
#
#
# Elastic Compliance Matrix: (Units=1/GPa)
#
#
# Indices 1 2 3 4 5 6 
#
# 1 0.021995 0.000459 0.000156 0.003076 -0.010870 -0.008914
# 2 0.000459 0.010292 0.002032 0.005402 -0.006739 -0.005520
# 3 0.000156 0.002032 0.026122 0.005310 -0.014042 -0.002745
# 4 0.003076 0.005402 0.005310 0.038874 -0.008721 -0.003413
# 5 -0.010870 -0.006739 -0.014042 -0.008721 0.045663 0.008758
# 6 -0.008914 -0.005520 -0.002745 -0.003413 0.008758 0.031887
#
#
# Mechanical properties :
#
#
# Convention : Reuss Voigt Hill
#
# Bulk Modulus (GPa) = 15.69796 32.29717 23.99757
# Shear Modulus (GPa) = 26.20909 33.84189 30.02549
#
# Velocity S-wave (km/s) = 3.30506 3.75561 3.53752
# Velocity P-wave (km/s) = 4.59425 5.68041 5.16595
#
# Compressibility (1/GPa) = 0.06370254
#
# Stress axis : x y z
#
# Youngs Moduli (GPa) = 45.46486 97.16376 38.28177
#
# Poissons Ratio (x) = -0.04455 -0.00599
# Poissons Ratio (y) = -0.02085 -0.07778
# Poissons Ratio (z) = -0.00711 -0.19742
#
# Static dielectric constant tensor:
#      x y z
#    x 4.319530 0.248410 0.127390 
#    y 0.248410 4.384160 0.061380 
#    z 0.127390 0.061380 4.189860 
# 
# 
# High freq. dielectric constant tensor:
#      x y z
#    x 1.948960 0.014450 0.012480 
#    y 0.014450 1.949450 0.001100 
#    z 0.012480 0.001100 1.949920 
# 
# From -- ./inp_files/240445.got.cif
#   From: 2010.06.25/outbox.cif.g09.slc.cpg/sg2_121_cif.got.tgz:240445.got - 2010.06.27 13:26:56.
