data_PCOD8002628
_publ_section_title
;
Structure prediction by ZEFSAII (Michael W. Deem and Ramdas Pophale) SiO2 
 PCOD8002628
Probable space group: P -1
;
_chemical_formula_sum "Si O2"
_cell_formula_units_Z 16
_cell_length_a 15.617538
_cell_length_b 15.385056
_cell_length_c 9.856076
_cell_angle_alpha 76.730107
_cell_angle_beta 48.316541
_cell_angle_gamma 36.351594
_cell_volume 757.404221
_symmetry_space_group_name_H-M "P -1"
_symmetry_group_IT_number 2
_symmetry_cell_setting 'triclinic'
loop_
_space_group_symop_operation_xyz
x,y,z
-x,-y,-z
loop_
_atom_site_type_symbol
_atom_site_label
_atom_site_fract_x
_atom_site_fract_y
_atom_site_fract_z
Si Si1 0.454870 0.029430 0.376172
Si Si2 0.221874 0.013922 0.639036
Si Si3 0.194091 0.637275 0.667997
Si Si4 0.293460 0.826067 0.403538
Si Si5 0.809420 0.039547 0.827133
Si Si6 0.333178 0.600761 0.815959
Si Si7 0.995496 0.591826 0.882589
Si Si8 0.567973 0.758458 0.638055
O O1 0.237043 0.107470 0.543307
O O2 0.500000 0.000000 0.500000
O O3 0.385298 0.179350 0.357431
O O4 0.698538 0.828516 0.099097
O O5 0.350071 0.856076 0.454020
O O6 0.379919 0.894969 0.655733
O O7 0.914111 0.208068 0.897343
O O8 0.222480 0.682099 0.750944
O O9 0.460412 0.461808 0.361625
O O10 0.150856 0.567210 0.792885
O O11 0.947299 0.846124 0.768244
O O12 0.295873 0.879649 0.242793
O O13 0.524714 0.592336 0.235151
O O14 0.014192 0.974730 0.667631
O O15 0.563281 0.217572 0.125375
O O16 0.140351 0.476190 0.627394
O O17 0.000000 0.500000 0.000000
#
# Coordination Sequence:
#
# PCOD8002628 Si02
#       8
#     2   2   2   2   2   2   2   2
#     4  10  20  36  56  89 125 158 196 257 304 345
#     4  11  21  36  63  91 119 158 203 254 298 363
#     4  10  20  38  61  89 124 152 201 257 297 352
#     4  10  24  40  62  87 128 164 199 243 311 367
#     4  10  21  45  59  86 130 166 193 251 307 359
#     4  10  21  37  59  92 123 153 194 261 303 349
#     4  12  21  33  59  95 117 156 204 247 297 360
#     4  11  22  36  63  89 121 162 205 254 293 358
#
# _framework density 21.124782
#
# number of rings (size 3 to 8) (size 9 to 14) (size 15 to 20)
#    0.000    1.500    5.000    1.500    1.750    0.500 
#    2.250    2.500    0.000    1.500    0.000    0.000 
#    0.000    0.000    0.000    0.000    0.000    0.000 
#
# Total GULP energy -198255.831295 kJ/mol
# GULP energy per Si atom -12390.989456 kJ/mol
# Density = 2.107670 g / cm^3
# Si number density = 21.124782 Si / 1000 Ang^3
#
#
#
# Elastic Constant Matrix: (Units=GPa)
#
#
# Indices 1 2 3 4 5 6 
#
# 1 61.0163 18.4318 25.1811 -15.3663 -5.6259 14.9974
# 2 18.4318 69.6915 35.2137 -11.3912 4.6499 0.3172
# 3 25.1811 35.2137 159.9328 3.5852 -3.2648 4.0409
# 4 -15.3663 -11.3912 3.5852 36.8180 5.8016 -2.7288
# 5 -5.6259 4.6499 -3.2648 5.8016 25.6725 -2.1511
# 6 14.9974 0.3172 4.0409 -2.7288 -2.1511 23.8006
#
#
#
# Elastic Compliance Matrix: (Units=1/GPa)
#
#
# Indices 1 2 3 4 5 6 
#
# 1 0.024245 -0.003891 -0.002733 0.007733 0.002781 -0.013623
# 2 -0.003891 0.018583 -0.003797 0.005617 -0.005721 0.002976
# 3 -0.002733 -0.003797 0.007624 -0.003327 0.001832 0.000262
# 4 0.007733 0.005617 -0.003327 0.033530 -0.007425 -0.001210
# 5 0.002781 -0.005721 0.001832 -0.007425 0.042593 0.001011
# 6 -0.013623 0.002976 0.000262 -0.001210 0.001011 0.050469
#
#
# Mechanical properties :
#
#
# Convention : Reuss Voigt Hill
#
# Bulk Modulus (GPa) = 33.77167 49.81038 41.79102
# Shear Modulus (GPa) = 24.06673 31.37918 27.72295
#
# Velocity S-wave (km/s) = 3.37896 3.85830 3.62656
# Velocity P-wave (km/s) = 5.58969 6.59385 6.11243
#
# Compressibility (1/GPa) = 0.02961062
#
# Stress axis : x y z
#
# Youngs Moduli (GPa) = 41.24597 53.81320 131.16031
#
# Poissons Ratio (x) = 0.20938 0.35846
# Poissons Ratio (y) = 0.16048 0.49799
# Poissons Ratio (z) = 0.11272 0.20432
#
# Static dielectric constant tensor:
#      x y z
#    x 3.681530 0.349240 -0.272820 
#    y 0.349240 3.740320 0.029170 
#    z -0.272820 0.029170 4.299500 
# 
# 
# High freq. dielectric constant tensor:
#      x y z
#    x 1.799490 0.035300 -0.019700 
#    y 0.035300 1.802210 0.003550 
#    z -0.019700 0.003550 1.844620 
# 
# From -- ./inp_files/315043.got.cif
#   From: 2010.06.25/outbox.cif.g09.slc.cpg/sg2_158_cif.got.tgz:315043.got - 2010.06.27 13:26:56.
