data_PCOD8002049
_publ_section_title
;
Structure prediction by ZEFSAII (Michael W. Deem and Ramdas Pophale) SiO2 
 PCOD8002049
Probable space group: P -1
;
_chemical_formula_sum "Si O2"
_cell_formula_units_Z 16
_cell_length_a 10.870034
_cell_length_b 7.000710
_cell_length_c 9.843905
_cell_angle_alpha 82.331738
_cell_angle_beta 87.156291
_cell_angle_gamma 76.105189
_cell_volume 720.557872
_symmetry_space_group_name_H-M "P -1"
_symmetry_group_IT_number 2
_symmetry_cell_setting 'triclinic'
loop_
_space_group_symop_operation_xyz
x,y,z
-x,-y,-z
loop_
_atom_site_type_symbol
_atom_site_label
_atom_site_fract_x
_atom_site_fract_y
_atom_site_fract_z
Si Si1 0.245958 0.843118 0.787944
Si Si2 0.578030 0.518048 0.786271
Si Si3 0.813195 0.637780 0.675806
Si Si4 0.557828 0.183072 0.013712
Si Si5 0.361929 0.526457 0.622482
Si Si6 0.361601 0.109282 0.551402
Si Si7 0.865572 0.276675 0.549815
Si Si8 0.980991 0.888055 0.708525
O O1 0.296299 0.965617 0.655271
O O2 0.298973 0.885030 0.928467
O O3 0.291919 0.610597 0.761560
O O4 0.093109 0.899383 0.805830
O O5 0.725288 0.513087 0.767372
O O6 0.522648 0.699991 0.870407
O O7 0.507700 0.550875 0.636623
O O8 0.557777 0.312650 0.866944
O O9 0.728600 0.821215 0.579111
O O10 0.901943 0.473275 0.589735
O O11 0.896704 0.731813 0.769321
O O12 0.500000 0.000000 0.000000
O O13 0.365170 0.296077 0.629217
O O14 0.284081 0.660186 0.492308
O O15 0.500000 0.000000 0.500000
O O16 0.957783 0.197795 0.429041
O O17 0.887401 0.104499 0.678150
#
# Coordination Sequence:
#
# PCOD8002049 Si02
#       8
#     2   2   2   2   2   2   2   2
#     4  10  21  37  57  80 107 148 191 227 276 331
#     4  10  22  37  57  85 109 143 186 229 287 336
#     4  11  22  34  53  83 119 149 180 224 274 330
#     4  10  21  41  63  80 104 139 187 240 286 333
#     4   9  19  34  52  79 114 142 176 227 275 327
#     4  11  21  32  53  86 117 147 181 223 281 336
#     4   9  19  34  54  79 115 155 185 216 265 328
#     4  10  20  35  53  79 115 153 189 220 261 328
#
# _framework density 22.205017999999999
#
# number of rings (size 3 to 8) (size 9 to 14) (size 15 to 20)
#    0.000    2.000    0.000    4.875    0.000    9.500 
#    0.000    0.625    0.000    1.500    0.000    0.000 
#    0.000    0.000    0.000    0.000    0.000    0.000 
#
# Total GULP energy -198275.446250 kJ/mol
# GULP energy per Si atom -12392.215391 kJ/mol
# Density = 2.215448 g / cm^3
# Si number density = 22.205018 Si / 1000 Ang^3
#
#
#
# Elastic Constant Matrix: (Units=GPa)
#
#
# Indices 1 2 3 4 5 6 
#
# 1 151.0102 69.0150 35.8996 -4.0612 28.1625 20.8005
# 2 69.0150 140.3115 37.5016 -10.3016 20.7178 8.8182
# 3 35.8996 37.5016 38.3522 -4.4198 20.7836 10.8440
# 4 -4.0612 -10.3016 -4.4198 15.1855 6.7244 2.1751
# 5 28.1625 20.7178 20.7836 6.7244 32.5233 4.6164
# 6 20.8005 8.8182 10.8440 2.1751 4.6164 37.0993
#
#
#
# Elastic Compliance Matrix: (Units=1/GPa)
#
#
# Indices 1 2 3 4 5 6 
#
# 1 0.010216 -0.003211 -0.001898 0.003069 -0.005671 -0.003884
# 2 -0.003211 0.010998 -0.007018 0.004799 -0.000884 0.001066
# 3 -0.001898 -0.007018 0.063311 0.032358 -0.039220 -0.012791
# 4 0.003069 0.004799 0.032358 0.101323 -0.045555 -0.012592
# 5 -0.005671 -0.000884 -0.039220 -0.045555 0.069442 0.008884
# 6 -0.003884 0.001066 -0.012791 -0.012592 0.008884 0.032250
#
#
# Mechanical properties :
#
#
# Convention : Reuss Voigt Hill
#
# Bulk Modulus (GPa) = 16.59108 68.27848 42.43478
# Shear Modulus (GPa) = 15.06551 29.44546 22.25549
#
# Velocity S-wave (km/s) = 2.60758 3.64548 3.16930
# Velocity P-wave (km/s) = 4.06865 6.96672 5.70479
#
# Compressibility (1/GPa) = 0.06027337
#
# Stress axis : x y z
#
# Youngs Moduli (GPa) = 97.88717 90.92719 15.79493
#
# Poissons Ratio (x) = 0.29195 0.02997
# Poissons Ratio (y) = 0.31430 0.11084
# Poissons Ratio (z) = 0.18574 0.63808
#
# Static dielectric constant tensor:
#      x y z
#    x 4.266890 -0.040230 0.338930 
#    y -0.040230 4.382680 0.100760 
#    z 0.338930 0.100760 3.639670 
# 
# 
# High freq. dielectric constant tensor:
#      x y z
#    x 1.879960 0.001370 0.020130 
#    y 0.001370 1.893300 0.004740 
#    z 0.020130 0.004740 1.821730 
# 
# From -- ./inp_files/409179.got.cif
#   From: 2010.06.25/outbox.cif.g09.slc.cpg/sg2_205_cif.got.tgz:409179.got - 2010.06.27 13:26:56.
