data_PCOD8002930
_publ_section_title
;
Structure prediction by ZEFSAII (Michael W. Deem and Ramdas Pophale) SiO2 
 PCOD8002930
Probable space group: P -1
;
_chemical_formula_sum "Si O2"
_cell_formula_units_Z 16
_cell_length_a 8.443223
_cell_length_b 23.133278
_cell_length_c 19.907676
_cell_angle_alpha 16.206065
_cell_angle_beta 49.452626
_cell_angle_gamma 58.416487
_cell_volume 726.136094
_symmetry_space_group_name_H-M "P -1"
_symmetry_group_IT_number 2
_symmetry_cell_setting 'triclinic'
loop_
_space_group_symop_operation_xyz
x,y,z
-x,-y,-z
loop_
_atom_site_type_symbol
_atom_site_label
_atom_site_fract_x
_atom_site_fract_y
_atom_site_fract_z
Si Si1 0.548059 0.262520 0.187590
Si Si2 0.888256 0.037724 0.921036
Si Si3 0.743912 0.432504 0.227380
Si Si4 0.996955 0.466210 0.332662
Si Si5 0.756694 0.723863 0.180512
Si Si6 0.628517 0.098345 0.751440
Si Si7 0.697087 0.288029 0.257026
Si Si8 0.273174 0.155680 0.261318
O O1 0.563962 0.348047 0.165857
O O2 0.332557 0.257960 0.208306
O O3 0.500000 0.000000 0.500000
O O4 0.792060 0.414220 0.911544
O O5 0.054232 0.297619 0.554194
O O6 0.840982 0.827855 0.116157
O O7 0.644967 0.044088 0.995351
O O8 0.000000 0.000000 0.000000
O O9 0.645536 0.206473 0.552799
O O10 0.632884 0.350863 0.275610
O O11 0.651099 0.623114 0.057926
O O12 0.026296 0.567951 0.996949
O O13 0.954766 0.660669 0.167466
O O14 0.756468 0.308383 0.534480
O O15 0.500000 0.500000 0.500000
O O16 0.745051 0.925321 0.912778
O O17 0.601275 0.004387 0.606520
O O18 0.000000 0.000000 0.500000
#
# Coordination Sequence:
#
# PCOD8002930 Si02
#       8
#     2   2   2   2   2   2   2   2
#     4  10  21  41  62  92 128 169 217 268 314 383
#     4  11  25  43  66  99 137 163 212 279 334 388
#     4  10  20  36  60  90 120 165 204 254 322 376
#     4  11  22  44  69  92 130 174 218 269 328 390
#     4  11  21  45  70  94 124 175 223 261 327 401
#     4  11  22  41  68  95 129 170 214 271 326 389
#     4   9  19  39  56  85 126 159 211 255 305 383
#     4   9  20  38  59  83 123 164 209 264 319 366
#
# _framework density 22.034438000000002
#
# number of rings (size 3 to 8) (size 9 to 14) (size 15 to 20)
#    0.000    1.750    3.750    0.750    1.750    2.000 
#   13.500    0.000    0.000    0.000    0.000    0.000 
#    0.000    0.000    0.000    0.000    0.000    0.000 
#
# Total GULP energy -198209.968796 kJ/mol
# GULP energy per Si atom -12388.123050 kJ/mol
# Density = 2.198429 g / cm^3
# Si number density = 22.034438 Si / 1000 Ang^3
#
#
#
# Elastic Constant Matrix: (Units=GPa)
#
#
# Indices 1 2 3 4 5 6 
#
# 1 141.7567 42.5927 46.1952 -6.7573 16.3376 27.9944
# 2 42.5927 76.2138 33.6806 -6.9569 13.1905 15.6432
# 3 46.1952 33.6806 121.6104 0.4388 31.2273 11.6237
# 4 -6.7573 -6.9569 0.4388 30.4790 0.7913 2.6928
# 5 16.3376 13.1905 31.2273 0.7913 36.5966 -0.3122
# 6 27.9944 15.6432 11.6237 2.6928 -0.3122 28.6501
#
#
#
# Elastic Compliance Matrix: (Units=1/GPa)
#
#
# Indices 1 2 3 4 5 6 
#
# 1 0.010494 -0.002722 -0.001880 0.002520 -0.002224 -0.008266
# 2 -0.002722 0.018066 -0.002502 0.004227 -0.003309 -0.006623
# 3 -0.001880 -0.002502 0.011967 -0.000793 -0.008467 -0.001670
# 4 0.002520 0.004227 -0.000793 0.035104 -0.002798 -0.007779
# 5 -0.002224 -0.003309 -0.008467 -0.002798 0.036865 0.008080
# 6 -0.008266 -0.006623 -0.001670 -0.007779 0.008080 0.048093
#
#
# Mechanical properties :
#
#
# Convention : Reuss Voigt Hill
#
# Bulk Modulus (GPa) = 37.99689 64.94643 51.47166
# Shear Modulus (GPa) = 27.23768 33.61929 30.42849
#
# Velocity S-wave (km/s) = 3.51969 3.91034 3.72015
# Velocity P-wave (km/s) = 5.81373 7.06588 6.47016
#
# Compressibility (1/GPa) = 0.02631795
#
# Stress axis : x y z
#
# Youngs Moduli (GPa) = 95.29513 55.35323 83.56519
#
# Poissons Ratio (x) = 0.15067 0.15712
# Poissons Ratio (y) = 0.25940 0.20907
# Poissons Ratio (z) = 0.17917 0.13849
#
# Static dielectric constant tensor:
#      x y z
#    x 4.473170 0.212780 0.332380 
#    y 0.212780 3.972370 -0.278920 
#    z 0.332380 -0.278920 4.303030 
# 
# 
# High freq. dielectric constant tensor:
#      x y z
#    x 1.879370 0.013080 0.014030 
#    y 0.013080 1.840880 -0.022260 
#    z 0.014030 -0.022260 1.880200 
# 
# From -- ./inp_files/562519.got.cif
#   From: 2010.06.25/outbox.cif.g09.slc.cpg/sg2_282_cif.got.tgz:562519.got - 2010.06.27 13:26:56.
