data_PCOD8002151
_publ_section_title
;
Structure prediction by ZEFSAII (Michael W. Deem and Ramdas Pophale) SiO2 
 PCOD8002151
Probable space group: P -1
;
_chemical_formula_sum "Si O2"
_cell_formula_units_Z 16
_cell_length_a 8.891184
_cell_length_b 8.320102
_cell_length_c 19.435852
_cell_angle_alpha 87.283009
_cell_angle_beta 132.103989
_cell_angle_gamma 62.416972
_cell_volume 793.230283
_symmetry_space_group_name_H-M "P -1"
_symmetry_group_IT_number 2
_symmetry_cell_setting 'triclinic'
loop_
_space_group_symop_operation_xyz
x,y,z
-x,-y,-z
loop_
_atom_site_type_symbol
_atom_site_label
_atom_site_fract_x
_atom_site_fract_y
_atom_site_fract_z
Si Si1 0.622763 0.820991 0.985899
Si Si2 0.058545 0.034548 0.771047
Si Si3 0.087928 0.880219 0.636966
Si Si4 0.038389 0.288977 0.026371
Si Si5 0.610329 0.076555 0.385758
Si Si6 0.574347 0.404394 0.799390
Si Si7 0.298099 0.971036 0.230635
Si Si8 0.128936 0.553917 0.226298
O O1 0.880544 0.598064 0.107424
O O2 0.383749 0.829455 0.886182
O O3 0.728343 0.877706 0.954405
O O4 0.500000 0.000000 0.000000
O O5 0.987276 0.023984 0.671694
O O6 0.899953 0.010413 0.777217
O O7 0.983281 0.264040 0.753135
O O8 0.260780 0.909675 0.642307
O O9 0.269694 0.628046 0.717014
O O10 0.820517 0.959902 0.514898
O O11 0.132945 0.195461 0.133742
O O12 0.000000 0.500000 0.000000
O O13 0.762738 0.335364 0.925486
O O14 0.538438 0.931317 0.346995
O O15 0.334592 0.310905 0.323887
O O16 0.696195 0.434374 0.772430
O O17 0.569724 0.219570 0.780875
#
# Coordination Sequence:
#
# PCOD8002151 Si02
#       8
#     2   2   2   2   2   2   2   2
#     4   9  17  32  55  80 110 141 174 218 265 324
#     4  10  20  35  56  83 115 142 179 233 278 322
#     4  10  21  39  59  79 106 145 195 235 264 323
#     4  11  20  36  60  81 112 149 181 218 272 338
#     4  10  21  38  59  79 105 149 194 226 273 331
#     4   9  19  35  55  82 113 144 179 225 276 324
#     4  11  22  36  56  82 114 148 179 222 285 334
#     4   8  17  35  56  80 111 146 179 220 275 332
#
# _framework density 20.170686
#
# number of rings (size 3 to 8) (size 9 to 14) (size 15 to 20)
#    0.000    2.250    0.000    4.875    0.000    1.500 
#    0.000   10.625    0.000    0.000    0.000    0.000 
#    0.000    0.000    0.000    0.000    0.000    0.000 
#
# Total GULP energy -198302.949781 kJ/mol
# GULP energy per Si atom -12393.934361 kJ/mol
# Density = 2.012478 g / cm^3
# Si number density = 20.170686 Si / 1000 Ang^3
#
#
#
# Elastic Constant Matrix: (Units=GPa)
#
#
# Indices 1 2 3 4 5 6 
#
# 1 55.7046 22.5961 44.8114 2.9771 5.3402 -4.5469
# 2 22.5961 92.4259 44.7504 13.0924 7.8674 -1.2980
# 3 44.8114 44.7504 141.2647 15.4893 22.2250 -1.1089
# 4 2.9771 13.0924 15.4893 30.8982 -3.8483 4.3884
# 5 5.3402 7.8674 22.2250 -3.8483 31.9440 9.4618
# 6 -4.5469 -1.2980 -1.1089 4.3884 9.4618 30.6698
#
#
#
# Elastic Compliance Matrix: (Units=1/GPa)
#
#
# Indices 1 2 3 4 5 6 
#
# 1 0.025119 -0.002923 -0.007472 0.002345 0.001227 0.002616
# 2 -0.002923 0.013620 -0.002541 -0.004665 -0.002061 0.001354
# 3 -0.007472 -0.002541 0.012151 -0.005646 -0.008000 0.002500
# 4 0.002345 -0.004665 -0.005646 0.039836 0.012314 -0.009553
# 5 0.001227 -0.002061 -0.008000 0.012314 0.043182 -0.015278
# 6 0.002616 0.001354 0.002500 -0.009553 -0.015278 0.039221
#
#
# Mechanical properties :
#
#
# Convention : Reuss Voigt Hill
#
# Bulk Modulus (GPa) = 39.97087 57.07899 48.52493
# Shear Modulus (GPa) = 24.11497 30.51820 27.31659
#
# Velocity S-wave (km/s) = 3.46142 3.89395 3.68404
# Velocity P-wave (km/s) = 5.98620 6.96969 6.49658
#
# Compressibility (1/GPa) = 0.02501822
#
# Stress axis : x y z
#
# Youngs Moduli (GPa) = 39.81085 73.42372 82.29564
#
# Poissons Ratio (x) = 0.21464 0.61488
# Poissons Ratio (y) = 0.11638 0.20910
# Poissons Ratio (z) = 0.29745 0.18655
#
# Static dielectric constant tensor:
#      x y z
#    x 3.271860 -0.292530 0.200040 
#    y -0.292530 3.938190 -0.069090 
#    z 0.200040 -0.069090 3.994580 
# 
# 
# High freq. dielectric constant tensor:
#      x y z
#    x 1.759610 -0.017170 0.013250 
#    y -0.017170 1.792240 0.011480 
#    z 0.013250 0.011480 1.787990 
# 
# From -- ./inp_files/187898.got.cif
#   From: 2010.06.25/outbox.cif.g09.slc.cpg/sg2_94_cif.got.tgz:187898.got - 2010.06.27 13:26:56.
