data_PCOD8002752
_publ_section_title
;
Structure prediction by ZEFSAII (Michael W. Deem and Ramdas Pophale) SiO2 
 PCOD8002752
Probable space group: P -1
;
_chemical_formula_sum "Si O2"
_cell_formula_units_Z 16
_cell_length_a 9.141613
_cell_length_b 14.289239
_cell_length_c 8.826384
_cell_angle_alpha 63.164112
_cell_angle_beta 117.708729
_cell_angle_gamma 82.746740
_cell_volume 824.232021
_symmetry_space_group_name_H-M "P -1"
_symmetry_group_IT_number 2
_symmetry_cell_setting 'triclinic'
loop_
_space_group_symop_operation_xyz
x,y,z
-x,-y,-z
loop_
_atom_site_type_symbol
_atom_site_label
_atom_site_fract_x
_atom_site_fract_y
_atom_site_fract_z
Si Si1 0.427808 0.837462 0.223171
Si Si2 0.663849 0.815650 0.818192
Si Si3 0.239672 0.190655 0.787635
Si Si4 0.961406 0.559526 0.595695
Si Si5 0.697409 0.041512 0.603834
Si Si6 0.606396 0.570523 0.564983
Si Si7 0.931137 0.989363 0.140217
Si Si8 0.190053 0.437360 0.051342
O O1 0.579820 0.863910 0.188910
O O2 0.384632 0.907667 0.308176
O O3 0.480571 0.703786 0.372175
O O4 0.242002 0.889116 0.994675
O O5 0.443985 0.879096 0.648219
O O6 0.755218 0.699013 0.847789
O O7 0.735666 0.906465 0.719886
O O8 0.710578 0.782581 0.040158
O O9 0.099898 0.304894 0.551856
O O10 0.135708 0.110518 0.806416
O O11 0.802417 0.530540 0.611214
O O12 0.000000 0.500000 0.500000
O O13 0.150769 0.505491 0.822861
O O14 0.890467 0.041525 0.647634
O O15 0.500000 0.500000 0.500000
O O16 0.647387 0.551836 0.780012
O O17 0.000000 0.000000 0.000000
O O18 0.000000 0.500000 0.000000
#
# Coordination Sequence:
#
# PCOD8002752 Si02
#       8
#     2   2   2   2   2   2   2   2
#     4  10  20  37  61  88 121 155 201 242 304 361
#     4  11  20  37  62  88 123 157 201 247 303 364
#     4  11  21  36  62  87 123 159 194 251 303 356
#     4  10  21  37  59  89 116 157 204 242 304 357
#     4  10  22  37  61  92 117 159 201 249 300 359
#     4  10  22  39  61  88 116 161 204 250 298 357
#     4  10  20  36  58  89 113 156 199 242 289 358
#     4  10  21  39  60  88 120 162 204 248 293 365
#
# _framework density 19.412009000000001
#
# number of rings (size 3 to 8) (size 9 to 14) (size 15 to 20)
#    0.000    1.750    5.000    0.375    0.000    4.000 
#    0.000    3.750    0.000    0.000    0.000    0.000 
#    0.000    0.000    0.000    0.000    0.000    0.000 
#
# Total GULP energy -198259.419491 kJ/mol
# GULP energy per Si atom -12391.213718 kJ/mol
# Density = 1.936783 g / cm^3
# Si number density = 19.412009 Si / 1000 Ang^3
#
#
#
# Elastic Constant Matrix: (Units=GPa)
#
#
# Indices 1 2 3 4 5 6 
#
# 1 98.5880 54.0327 57.7722 -5.5942 16.6710 17.6129
# 2 54.0327 119.6545 73.6487 -0.9693 15.0990 10.0095
# 3 57.7722 73.6487 139.7909 2.1902 12.0301 16.2224
# 4 -5.5942 -0.9693 2.1902 32.6995 0.5051 2.9566
# 5 16.6710 15.0990 12.0301 0.5051 28.2589 4.0362
# 6 17.6129 10.0095 16.2224 2.9566 4.0362 29.9113
#
#
#
# Elastic Compliance Matrix: (Units=1/GPa)
#
#
# Indices 1 2 3 4 5 6 
#
# 1 0.016723 -0.004098 -0.003639 0.003621 -0.005314 -0.006143
# 2 -0.004098 0.013848 -0.005493 0.000018 -0.002806 0.001135
# 3 -0.003639 -0.005493 0.011809 -0.001371 0.000413 -0.002344
# 4 0.003621 0.000018 -0.001371 0.031708 -0.001511 -0.004325
# 5 -0.005314 -0.002806 0.000413 -0.001511 0.040074 -0.001414
# 6 -0.006143 0.001135 -0.002344 -0.004325 -0.001414 0.038559
#
#
# Mechanical properties :
#
#
# Convention : Reuss Voigt Hill
#
# Bulk Modulus (GPa) = 62.80952 80.99338 71.90145
# Shear Modulus (GPa) = 27.10206 29.67925 28.39065
#
# Velocity S-wave (km/s) = 3.74056 3.91437 3.82845
# Velocity P-wave (km/s) = 7.14717 7.88947 7.52747
#
# Compressibility (1/GPa) = 0.01592115
#
# Stress axis : x y z
#
# Youngs Moduli (GPa) = 59.79754 72.21190 84.68086
#
# Poissons Ratio (x) = 0.29595 0.30812
# Poissons Ratio (y) = 0.24507 0.46513
# Poissons Ratio (z) = 0.21758 0.39664
#
# Static dielectric constant tensor:
#      x y z
#    x 3.748970 -0.063590 0.467290 
#    y -0.063590 3.506370 0.088490 
#    z 0.467290 0.088490 4.376250 
# 
# 
# High freq. dielectric constant tensor:
#      x y z
#    x 1.734940 -0.010330 0.015440 
#    y -0.010330 1.749920 -0.009540 
#    z 0.015440 -0.009540 1.778300 
# 
# From -- ./inp_files/206067.got.cif
#   From: 2010.06.25/outbox.cif.g09.slc.cpg/sg2_104_cif.got.tgz:206067.got - 2010.06.27 13:26:56.
