data_PCOD8002740
_publ_section_title
;
Structure prediction by ZEFSAII (Michael W. Deem and Ramdas Pophale) SiO2 
 PCOD8002740
Probable space group: P -1
;
_chemical_formula_sum "Si O2"
_cell_formula_units_Z 14
_cell_length_a 10.866502
_cell_length_b 13.731352
_cell_length_c 10.462057
_cell_angle_alpha 145.920820
_cell_angle_beta 52.656198
_cell_angle_gamma 113.354321
_cell_volume 675.437003
_symmetry_space_group_name_H-M "P -1"
_symmetry_group_IT_number 2
_symmetry_cell_setting 'triclinic'
loop_
_space_group_symop_operation_xyz
x,y,z
-x,-y,-z
loop_
_atom_site_type_symbol
_atom_site_label
_atom_site_fract_x
_atom_site_fract_y
_atom_site_fract_z
Si Si1 0.001313 0.097652 0.738515
Si Si2 0.356910 0.042106 0.430662
Si Si3 0.618326 0.338101 0.918030
Si Si4 0.613395 0.788626 0.674132
Si Si5 0.585816 0.280599 0.592158
Si Si6 0.848718 0.437167 0.073735
Si Si7 0.718178 0.072863 0.049164
O O1 0.182769 0.077431 0.645627
O O2 0.908054 0.302290 0.004437
O O3 0.897778 0.027709 0.834787
O O4 0.000000 0.000000 0.500000
O O5 0.343203 0.096349 0.348969
O O6 0.447842 0.174274 0.588656
O O7 0.441121 0.830834 0.169334
O O8 0.665465 0.305751 0.704002
O O9 0.485276 0.525427 0.218437
O O10 0.779486 0.348423 0.901001
O O11 0.712114 0.588001 0.387297
O O12 0.424352 0.791698 0.794541
O O13 0.661753 0.884613 0.875216
O O14 0.716824 0.154943 0.281218
O O15 0.000000 0.500000 0.000000
#
# Coordination Sequence:
#
# PCOD8002740 Si02
#       7
#     2   2   2   2   2   2   2
#     4  12  21  34  60  87 118 153 199 245 301 358
#     4  11  20  39  62  90 115 158 199 244 293 355
#     4  11  21  38  67  87 115 162 204 234 299 355
#     4  10  20  36  58  86 125 150 193 253 297 345
#     4  10  23  42  60  88 122 157 199 249 283 364
#     4  12  20  36  63  92 119 154 195 253 297 350
#     4  10  20  38  54  87 124 151 194 248 300 346
#
# _framework density 20.727321
#
# number of rings (size 3 to 8) (size 9 to 14) (size 15 to 20)
#    0.000    1.143    7.143    0.429    0.000    0.571 
#    7.714    0.714    0.000    4.286    0.000    0.000 
#    0.000    0.000    0.000    0.000    0.000    0.000 
#
# Total GULP energy -173474.183696 kJ/mol
# GULP energy per Si atom -12391.013121 kJ/mol
# Density = 2.068015 g / cm^3
# Si number density = 20.727321 Si / 1000 Ang^3
#
#
#
# Elastic Constant Matrix: (Units=GPa)
#
#
# Indices 1 2 3 4 5 6 
#
# 1 51.1319 12.7819 25.2180 0.1281 6.4158 10.8838
# 2 12.7819 65.5959 27.4949 5.1467 -8.6864 11.4721
# 3 25.2180 27.4949 117.4197 4.0523 7.7726 10.2734
# 4 0.1281 5.1467 4.0523 50.4985 -1.6570 -10.2607
# 5 6.4158 -8.6864 7.7726 -1.6570 37.0441 -7.5789
# 6 10.8838 11.4721 10.2734 -10.2607 -7.5789 29.9143
#
#
#
# Elastic Compliance Matrix: (Units=1/GPa)
#
#
# Indices 1 2 3 4 5 6 
#
# 1 0.024511 -0.002449 -0.003472 -0.001522 -0.005963 -0.008819
# 2 -0.002449 0.018901 -0.003699 -0.002444 0.004546 -0.004774
# 3 -0.003472 -0.003699 0.010531 -0.000963 -0.002929 -0.002008
# 4 -0.001522 -0.002444 -0.000963 0.022309 0.002983 0.010230
# 5 -0.005963 0.004546 -0.002929 0.002983 0.032003 0.010564
# 6 -0.008819 -0.004774 -0.002008 0.010230 0.010564 0.045343
#
#
# Mechanical properties :
#
#
# Convention : Reuss Voigt Hill
#
# Bulk Modulus (GPa) = 28.81506 40.57080 34.69293
# Shear Modulus (GPa) = 27.11414 34.73490 30.92452
#
# Velocity S-wave (km/s) = 3.62074 4.09810 3.86679
# Velocity P-wave (km/s) = 5.60462 6.48141 6.05890
#
# Compressibility (1/GPa) = 0.03470408
#
# Stress axis : x y z
#
# Youngs Moduli (GPa) = 40.79796 52.90697 94.95726
#
# Poissons Ratio (x) = 0.12956 0.32968
# Poissons Ratio (y) = 0.09990 0.35123
# Poissons Ratio (z) = 0.14165 0.19570
#
# Static dielectric constant tensor:
#      x y z
#    x 3.680660 0.165550 -0.004270 
#    y 0.165550 3.517840 0.150290 
#    z -0.004270 0.150290 4.072980 
# 
# 
# High freq. dielectric constant tensor:
#      x y z
#    x 1.786700 0.014000 0.003740 
#    y 0.014000 1.788810 0.013210 
#    z 0.003740 0.013210 1.828300 
# 
# From -- ./inp_files/272419.got.cif
#   From: 2010.06.25/outbox.cif.g09.slc.cpg/sg2_137_cif.got.tgz:272419.got - 2010.06.27 13:26:56.
