data_PCOD8002100
_publ_section_title
;
Structure prediction by ZEFSAII (Michael W. Deem and Ramdas Pophale) SiO2 
 PCOD8002100
Probable space group: P -1
;
_chemical_formula_sum "Si O2"
_cell_formula_units_Z 16
_cell_length_a 9.428756
_cell_length_b 14.132319
_cell_length_c 8.125061
_cell_angle_alpha 67.979187
_cell_angle_beta 52.235216
_cell_angle_gamma 91.820992
_cell_volume 741.254156
_symmetry_space_group_name_H-M "P -1"
_symmetry_group_IT_number 2
_symmetry_cell_setting 'triclinic'
loop_
_space_group_symop_operation_xyz
x,y,z
-x,-y,-z
loop_
_atom_site_type_symbol
_atom_site_label
_atom_site_fract_x
_atom_site_fract_y
_atom_site_fract_z
Si Si1 0.855367 0.197740 0.004288
Si Si2 0.042276 0.544915 0.691397
Si Si3 0.344797 0.054367 0.024280
Si Si4 0.100536 0.362204 0.965405
Si Si5 0.329431 0.266751 0.063231
Si Si6 0.950252 0.861309 0.398873
Si Si7 0.723027 0.370480 0.845078
Si Si8 0.774436 0.964629 0.228562
O O1 0.718627 0.263287 0.015332
O O2 0.986867 0.202315 0.748538
O O3 0.980708 0.248418 0.040362
O O4 0.727769 0.073969 0.227750
O O5 0.178843 0.622337 0.407972
O O6 0.019025 0.618531 0.808229
O O7 0.833197 0.477831 0.804466
O O8 0.142407 0.460929 0.740833
O O9 0.384078 0.164989 0.026311
O O10 0.358768 0.091203 0.797015
O O11 0.130665 0.965901 0.265443
O O12 0.500000 0.000000 0.000000
O O13 0.293741 0.343492 0.896200
O O14 0.133310 0.221379 0.338050
O O15 0.500322 0.351491 0.992632
O O16 0.764551 0.891179 0.445108
O O17 0.000000 0.000000 0.000000
#
# Coordination Sequence:
#
# PCOD8002100 Si02
#       8
#     2   2   2   2   2   2   2   2
#     4   9  17  36  58  79 107 151 187 223 272 336
#     4   9  21  42  59  79 108 147 178 238 297 329
#     4  10  20  36  56  82 117 150 187 229 271 317
#     4  10  20  36  61  84 108 138 190 236 282 335
#     4  12  22  34  57  89 111 146 192 228 267 334
#     4  10  20  35  55  81 119 152 182 223 275 323
#     4  10  21  38  59  79 111 145 186 227 286 342
#     4   8  16  33  53  74 110 149 179 217 267 314
#
# _framework density 21.585038999999998
#
# number of rings (size 3 to 8) (size 9 to 14) (size 15 to 20)
#    0.000    2.500    0.000    4.875    0.000    1.000 
#    0.000   12.500    0.000    0.000    0.000    0.000 
#    0.000    0.000    0.000    0.000    0.000    0.000 
#
# Total GULP energy -198275.382322 kJ/mol
# GULP energy per Si atom -12392.211395 kJ/mol
# Density = 2.153591 g / cm^3
# Si number density = 21.585039 Si / 1000 Ang^3
#
#
#
# Elastic Constant Matrix: (Units=GPa)
#
#
# Indices 1 2 3 4 5 6 
#
# 1 139.7317 6.7060 17.3735 -12.1200 4.7556 -5.9204
# 2 6.7060 66.7821 -1.8124 2.8682 -4.7949 8.9344
# 3 17.3735 -1.8124 31.6417 -10.5792 -5.3863 4.1809
# 4 -12.1200 2.8682 -10.5792 17.9900 1.5645 4.2304
# 5 4.7556 -4.7949 -5.3863 1.5645 22.9754 -3.8618
# 6 -5.9204 8.9344 4.1809 4.2304 -3.8618 30.3895
#
#
#
# Elastic Compliance Matrix: (Units=1/GPa)
#
#
# Indices 1 2 3 4 5 6 
#
# 1 0.008210 -0.001530 -0.004315 0.003058 -0.002928 0.001845
# 2 -0.001530 0.016147 0.002575 -0.001281 0.003576 -0.004767
# 3 -0.004315 0.002575 0.045284 0.024961 0.008632 -0.010206
# 4 0.003058 -0.001281 0.024961 0.075879 -0.002457 -0.013337
# 5 -0.002928 0.003576 0.008632 -0.002457 0.047672 0.003591
# 6 0.001845 -0.004767 -0.010206 -0.013337 0.003591 0.038384
#
#
# Mechanical properties :
#
#
# Convention : Reuss Voigt Hill
#
# Bulk Modulus (GPa) = 15.84744 31.40994 23.62869
# Shear Modulus (GPa) = 19.29392 28.66355 23.97874
#
# Velocity S-wave (km/s) = 2.99299 3.64804 3.33663
# Velocity P-wave (km/s) = 4.39338 5.68573 5.08081
#
# Compressibility (1/GPa) = 0.06310166
#
# Stress axis : x y z
#
# Youngs Moduli (GPa) = 121.80874 61.93065 22.08273
#
# Poissons Ratio (x) = 0.09475 0.09529
# Poissons Ratio (y) = 0.18635 -0.05687
# Poissons Ratio (z) = 0.52562 -0.15949
#
# Static dielectric constant tensor:
#      x y z
#    x 4.299500 -0.087690 0.546080 
#    y -0.087690 3.911680 -0.241110 
#    z 0.546080 -0.241110 3.665210 
# 
# 
# High freq. dielectric constant tensor:
#      x y z
#    x 1.863700 0.000700 0.031260 
#    y 0.000700 1.847730 -0.009400 
#    z 0.031260 -0.009400 1.809340 
# 
# From -- ./inp_files/205838.got.cif
#   From: 2010.06.25/outbox.cif.g09.slc.cpg/sg2_103_cif.got.tgz:205838.got - 2010.06.27 13:26:56.
