data_PCOD8002629
_publ_section_title
;
Structure prediction by ZEFSAII (Michael W. Deem and Ramdas Pophale) SiO2 
 PCOD8002629
Probable space group: P -1
;
_chemical_formula_sum "Si O2"
_cell_formula_units_Z 16
_cell_length_a 10.278059
_cell_length_b 12.935152
_cell_length_c 12.171747
_cell_angle_alpha 35.099538
_cell_angle_beta 123.319405
_cell_angle_gamma 115.904517
_cell_volume 777.255609
_symmetry_space_group_name_H-M "P -1"
_symmetry_group_IT_number 2
_symmetry_cell_setting 'triclinic'
loop_
_space_group_symop_operation_xyz
x,y,z
-x,-y,-z
loop_
_atom_site_type_symbol
_atom_site_label
_atom_site_fract_x
_atom_site_fract_y
_atom_site_fract_z
Si Si1 0.567523 0.311683 0.075780
Si Si2 0.300443 0.151232 0.232459
Si Si3 0.236543 0.021598 0.542036
Si Si4 0.303779 0.501294 0.665021
Si Si5 0.944418 0.818928 0.493374
Si Si6 0.210264 0.875244 0.254320
Si Si7 0.866041 0.835436 0.199010
Si Si8 0.834820 0.493566 0.171116
O O1 0.451010 0.248024 0.171603
O O2 0.692490 0.438952 0.075895
O O3 0.656441 0.137035 0.216937
O O4 0.475413 0.422447 0.842592
O O5 0.332418 0.114548 0.407828
O O6 0.265645 0.968020 0.312005
O O7 0.151706 0.290763 0.025700
O O8 0.190666 0.163531 0.492651
O O9 0.083895 0.947002 0.477822
O O10 0.313137 0.691826 0.439374
O O11 0.217246 0.354598 0.680448
O O12 0.200998 0.552261 0.679985
O O13 0.877819 0.887729 0.286467
O O14 0.005350 0.611061 0.697123
O O15 0.031702 0.818948 0.229919
O O16 0.235703 0.010842 0.046252
#
# Coordination Sequence:
#
# PCOD8002629 Si02
#       8
#     2   2   2   2   2   2   2   2
#     4  10  21  37  57  87 119 150 187 245 296 333
#     4  11  19  35  58  91 114 142 198 241 285 344
#     4  10  21  38  57  83 112 158 194 236 282 345
#     4  11  20  35  57  87 120 146 185 248 290 336
#     4  10  21  38  58  77 120 157 191 231 291 344
#     4  11  21  33  59  91 115 148 193 237 292 342
#     4  11  21  36  56  89 115 156 187 239 290 338
#     4  10  20  36  56  90 120 148 185 243 300 337
#
# _framework density 20.585251
#
# number of rings (size 3 to 8) (size 9 to 14) (size 15 to 20)
#    0.000    1.500    5.000    3.000    0.000    1.500 
#    0.000    0.625    0.000    0.750    0.000    0.000 
#    0.000    0.000    0.000    0.000    0.000    0.000 
#
# Total GULP energy -198387.789619 kJ/mol
# GULP energy per Si atom -12399.236851 kJ/mol
# Density = 2.053840 g / cm^3
# Si number density = 20.585251 Si / 1000 Ang^3
#
#
#
# Elastic Constant Matrix: (Units=GPa)
#
#
# Indices 1 2 3 4 5 6 
#
# 1 46.4320 24.6300 42.9588 1.7124 13.6892 -14.9439
# 2 24.6300 61.5654 60.0820 -7.9726 8.4079 -17.6614
# 3 42.9588 60.0820 146.7295 -16.9787 12.7029 -15.8599
# 4 1.7124 -7.9726 -16.9787 35.1859 -2.4515 -2.1937
# 5 13.6892 8.4079 12.7029 -2.4515 22.5761 -6.3649
# 6 -14.9439 -17.6614 -15.8599 -2.1937 -6.3649 24.2457
#
#
#
# Elastic Compliance Matrix: (Units=1/GPa)
#
#
# Indices 1 2 3 4 5 6 
#
# 1 0.039775 -0.002765 -0.008677 -0.007079 -0.015564 0.012099
# 2 -0.002765 0.032312 -0.010377 0.003423 0.000197 0.015407
# 3 -0.008677 -0.010377 0.013690 0.004541 0.000991 -0.003281
# 4 -0.007079 0.003423 0.004541 0.032460 0.005535 0.005491
# 5 -0.015564 0.000197 0.000991 0.005535 0.055467 0.006261
# 6 0.012099 0.015407 -0.003281 0.005491 0.006261 0.059919
#
#
# Mechanical properties :
#
#
# Convention : Reuss Voigt Hill
#
# Bulk Modulus (GPa) = 23.73091 56.67427 40.20259
# Shear Modulus (GPa) = 17.16395 24.87192 21.01794
#
# Velocity S-wave (km/s) = 2.89069 3.47975 3.19881
# Velocity P-wave (km/s) = 4.76388 6.61333 5.76328
#
# Compressibility (1/GPa) = 0.04213914
#
# Stress axis : x y z
#
# Youngs Moduli (GPa) = 25.14130 30.94790 73.04635
#
# Poissons Ratio (x) = 0.08557 0.63382
# Poissons Ratio (y) = 0.06951 0.75802
# Poissons Ratio (z) = 0.21815 0.32115
#
# Static dielectric constant tensor:
#      x y z
#    x 3.427980 -0.086160 0.210820 
#    y -0.086160 3.691740 -0.161540 
#    z 0.210820 -0.161540 4.100610 
# 
# 
# High freq. dielectric constant tensor:
#      x y z
#    x 1.750220 0.002910 0.016240 
#    y 0.002910 1.801790 -0.008670 
#    z 0.016240 -0.008670 1.821900 
# 
# From -- ./inp_files/425140.got.cif
#   From: 2010.06.25/outbox.cif.g09.slc.cpg/sg2_213_cif.got.tgz:425140.got - 2010.06.27 13:26:56.
