data_PCOD8002605
_publ_section_title
;
Structure prediction by ZEFSAII (Michael W. Deem and Ramdas Pophale) SiO2 
 PCOD8002605
Probable space group: P -1
;
_chemical_formula_sum "Si O2"
_cell_formula_units_Z 16
_cell_length_a 11.891539
_cell_length_b 19.236955
_cell_length_c 6.957381
_cell_angle_alpha 44.480258
_cell_angle_beta 66.497874
_cell_angle_gamma 43.185908
_cell_volume 738.281982
_symmetry_space_group_name_H-M "P -1"
_symmetry_group_IT_number 2
_symmetry_cell_setting 'triclinic'
loop_
_space_group_symop_operation_xyz
x,y,z
-x,-y,-z
loop_
_atom_site_type_symbol
_atom_site_label
_atom_site_fract_x
_atom_site_fract_y
_atom_site_fract_z
Si Si1 0.360645 0.164877 0.784992
Si Si2 0.029594 0.096875 0.530623
Si Si3 0.804664 0.642340 0.838946
Si Si4 0.479583 0.716938 0.503821
Si Si5 0.255737 0.520078 0.969487
Si Si6 0.732784 0.283689 0.630733
Si Si7 0.134855 0.243534 0.123613
Si Si8 0.784148 0.193603 0.179055
O O1 0.254654 0.250115 0.499765
O O2 0.458018 0.205974 0.721733
O O3 0.203260 0.216345 0.917851
O O4 0.500000 0.000000 0.000000
O O5 0.923813 0.149993 0.695862
O O6 0.905769 0.187764 0.250770
O O7 0.120183 0.943016 0.740236
O O8 0.164052 0.112311 0.425768
O O9 0.704506 0.594888 0.974964
O O10 0.758670 0.733666 0.875775
O O11 0.000000 0.500000 0.000000
O O12 0.633416 0.555634 0.764208
O O13 0.392706 0.730065 0.340257
O O14 0.356542 0.780875 0.646807
O O15 0.064715 0.625694 0.969500
O O16 0.314129 0.584074 0.689396
O O17 0.714597 0.302132 0.838919
#
# Coordination Sequence:
#
# PCOD8002605 Si02
#       8
#     2   2   2   2   2   2   2   2
#     4  11  24  40  61  89 120 156 196 241 295 350
#     4   9  20  36  56  85 114 142 189 242 288 345
#     4   9  21  39  58  86 119 151 196 240 282 347
#     4  10  22  37  54  84 119 148 191 240 285 347
#     4   9  20  39  58  85 118 147 195 247 284 343
#     4  10  20  36  60  82 108 153 192 230 292 350
#     4  10  21  39  63  84 115 157 192 240 295 343
#     4  10  20  36  56  82 116 148 184 240 293 340
#
# _framework density 21.671935999999999
#
# number of rings (size 3 to 8) (size 9 to 14) (size 15 to 20)
#    0.000    2.250    0.000    1.500    0.000   11.500 
#    0.000    6.250    0.000    0.000    0.000    0.000 
#    0.000    0.000    0.000    0.000    0.000    0.000 
#
# Total GULP energy -198227.833489 kJ/mol
# GULP energy per Si atom -12389.239593 kJ/mol
# Density = 2.162261 g / cm^3
# Si number density = 21.671936 Si / 1000 Ang^3
#
#
#
# Elastic Constant Matrix: (Units=GPa)
#
#
# Indices 1 2 3 4 5 6 
#
# 1 73.9025 21.4589 27.5492 1.0360 -10.3069 1.0387
# 2 21.4589 42.1242 20.8915 1.4586 0.3003 7.1250
# 3 27.5492 20.8915 83.7714 -8.1380 5.4123 -7.3770
# 4 1.0360 1.4586 -8.1380 32.7769 3.3443 -2.3552
# 5 -10.3069 0.3003 5.4123 3.3443 33.3923 -0.7311
# 6 1.0387 7.1250 -7.3770 -2.3552 -0.7311 22.7408
#
#
#
# Elastic Compliance Matrix: (Units=1/GPa)
#
#
# Indices 1 2 3 4 5 6 
#
# 1 0.018350 -0.006758 -0.005037 -0.002246 0.006758 -0.000370
# 2 -0.006758 0.033263 -0.007535 -0.003964 -0.001051 -0.013002
# 3 -0.005037 -0.007535 0.017097 0.005832 -0.004654 0.008591
# 4 -0.002246 -0.003964 0.005832 0.033161 -0.004781 0.006517
# 5 0.006758 -0.001051 -0.004654 -0.004781 0.033255 -0.000915
# 6 -0.000370 -0.013002 0.008591 0.006517 -0.000915 0.051497
#
#
# Mechanical properties :
#
#
# Convention : Reuss Voigt Hill
#
# Bulk Modulus (GPa) = 33.27753 37.73305 35.50529
# Shear Modulus (GPa) = 21.24954 26.44191 23.84572
#
# Velocity S-wave (km/s) = 3.13471 3.49678 3.32068
# Velocity P-wave (km/s) = 5.33763 5.80966 5.57864
#
# Compressibility (1/GPa) = 0.03005031
#
# Stress axis : x y z
#
# Youngs Moduli (GPa) = 54.49464 30.06353 58.49140
#
# Poissons Ratio (x) = 0.20317 0.29461
# Poissons Ratio (y) = 0.36827 0.44074
# Poissons Ratio (z) = 0.27448 0.22653
#
# Static dielectric constant tensor:
#      x y z
#    x 4.199270 0.231730 0.003010 
#    y 0.231730 3.940800 -0.177700 
#    z 0.003010 -0.177700 3.840920 
# 
# 
# High freq. dielectric constant tensor:
#      x y z
#    x 1.857410 0.010800 -0.004930 
#    y 0.010800 1.847970 -0.008730 
#    z -0.004930 -0.008730 1.844000 
# 
# From -- ./inp_files/81104.got.cif
#   From: 2010.06.25/outbox.cif.g09.slc.cpg/sg2_41_cif.got.tgz:81104.got - 2010.06.27 13:26:56.
