data_PCOD8003935
_publ_section_title
;
Structure prediction by ZEFSAII (Michael W. Deem and Ramdas Pophale) SiO2 
 PCOD8003935
Probable space group: P -1
;
_chemical_formula_sum "Si O2"
_cell_formula_units_Z 16
_cell_length_a 9.807135
_cell_length_b 11.768690
_cell_length_c 9.482049
_cell_angle_alpha 82.422052
_cell_angle_beta 132.085444
_cell_angle_gamma 90.239063
_cell_volume 799.811895
_symmetry_space_group_name_H-M "P -1"
_symmetry_group_IT_number 2
_symmetry_cell_setting 'triclinic'
loop_
_space_group_symop_operation_xyz
x,y,z
-x,-y,-z
loop_
_atom_site_type_symbol
_atom_site_label
_atom_site_fract_x
_atom_site_fract_y
_atom_site_fract_z
Si Si1 0.891603 0.920156 0.037659
Si Si2 0.097106 0.916667 0.466842
Si Si3 0.730322 0.430556 0.792981
Si Si4 0.694424 0.481765 0.063022
Si Si5 0.945051 0.653663 0.136591
Si Si6 0.493212 0.084876 0.353210
Si Si7 0.512353 0.337402 0.417393
Si Si8 0.166511 0.654946 0.564756
O O1 0.941641 0.784812 0.064252
O O2 0.960309 0.943949 0.236508
O O3 0.669150 0.945049 0.861124
O O4 0.000000 0.000000 0.000000
O O5 0.308851 0.937767 0.581916
O O6 0.103956 0.786071 0.546020
O O7 0.000000 0.000000 0.500000
O O8 0.638772 0.338238 0.645929
O O9 0.654911 0.563655 0.688936
O O10 0.944624 0.419991 0.898144
O O11 0.697469 0.399476 0.939815
O O12 0.745695 0.605900 0.020145
O O13 0.842107 0.422950 0.288801
O O14 0.500000 0.500000 0.000000
O O15 0.029636 0.622816 0.354048
O O16 0.445890 0.212401 0.367133
O O17 0.500000 0.000000 0.500000
O O18 0.626855 0.365224 0.352988
#
# Coordination Sequence:
#
# PCOD8003935 Si02
#       8
#     2   2   2   2   2   2   2   2
#     4  11  23  42  72  93 124 174 222 262 321 387
#     4  10  23  44  62  96 131 162 212 275 318 376
#     4  10  20  37  62  90 127 160 206 260 307 374
#     4  12  22  36  59  93 124 164 205 247 315 386
#     4  10  23  40  62  89 125 164 210 258 313 373
#     4  11  22  41  69  92 124 172 217 265 322 375
#     4   9  19  39  62  90 125 166 202 258 314 376
#     4   9  20  40  62  81 128 168 198 250 320 378
#
# _framework density 20.004705000000001
#
# number of rings (size 3 to 8) (size 9 to 14) (size 15 to 20)
#    0.000    1.750    2.500    2.250    1.750    1.500 
#    2.250    1.250    0.000    0.000    0.000    0.000 
#    0.000    0.000    0.000    0.000    0.000    0.000 
#
# Total GULP energy -198278.736022 kJ/mol
# GULP energy per Si atom -12392.421001 kJ/mol
# Density = 1.995917 g / cm^3
# Si number density = 20.004705 Si / 1000 Ang^3
#
#
#
# Elastic Constant Matrix: (Units=GPa)
#
#
# Indices 1 2 3 4 5 6 
#
# 1 128.1079 69.5180 56.6682 8.2633 4.4877 -11.0794
# 2 69.5180 106.2258 38.5173 4.1621 -3.4773 -2.7119
# 3 56.6682 38.5173 116.2475 4.5621 2.1195 0.6077
# 4 8.2633 4.1621 4.5621 29.6034 3.1596 -2.1519
# 5 4.4877 -3.4773 2.1195 3.1596 39.5287 -1.2767
# 6 -11.0794 -2.7119 0.6077 -2.1519 -1.2767 41.1824
#
#
#
# Elastic Compliance Matrix: (Units=1/GPa)
#
#
# Indices 1 2 3 4 5 6 
#
# 1 0.014410 -0.007751 -0.004368 -0.001825 -0.001832 0.003279
# 2 -0.007751 0.014978 -0.001217 -0.000067 0.002235 -0.001015
# 3 -0.004368 -0.001217 0.011163 -0.000411 -0.000224 -0.001449
# 4 -0.001825 -0.000067 -0.000411 0.034721 -0.002512 0.001247
# 5 -0.001832 0.002235 -0.000224 -0.002512 0.025926 0.000330
# 6 0.003279 -0.001015 -0.001449 0.001247 0.000330 0.025194
#
#
# Mechanical properties :
#
#
# Convention : Reuss Voigt Hill
#
# Bulk Modulus (GPa) = 72.05938 75.55425 73.80681
# Shear Modulus (GPa) = 31.70767 34.45474 33.08121
#
# Velocity S-wave (km/s) = 3.98554 4.15460 4.07095
# Velocity P-wave (km/s) = 7.56827 7.80157 7.68581
#
# Compressibility (1/GPa) = 0.01387744
#
# Stress axis : x y z
#
# Youngs Moduli (GPa) = 69.39671 66.76589 89.58289
#
# Poissons Ratio (x) = 0.51751 0.39133
# Poissons Ratio (y) = 0.53790 0.10902
# Poissons Ratio (z) = 0.30315 0.08125
#
# Static dielectric constant tensor:
#      x y z
#    x 3.530350 0.104870 0.159470 
#    y 0.104870 3.755730 0.479850 
#    z 0.159470 0.479850 5.172410 
# 
# 
# High freq. dielectric constant tensor:
#      x y z
#    x 1.766740 0.000510 0.004460 
#    y 0.000510 1.773400 0.002650 
#    z 0.004460 0.002650 1.805030 
# 
# From -- ./inp_files/187934.got.cif
#   From: 2010.06.25/outbox.cif.g09.slc.cpg/sg2_94_cif.got.tgz:187934.got - 2010.06.27 13:26:56.
