data_PCOD8003526
_publ_section_title
;
Structure prediction by ZEFSAII (Michael W. Deem and Ramdas Pophale) SiO2 
 PCOD8003526
Probable space group: P -1
;
_chemical_formula_sum "Si O2"
_cell_formula_units_Z 16
_cell_length_a 9.242464
_cell_length_b 21.444331
_cell_length_c 9.279070
_cell_angle_alpha 35.426755
_cell_angle_beta 122.066757
_cell_angle_gamma 129.144377
_cell_volume 826.229179
_symmetry_space_group_name_H-M "P -1"
_symmetry_group_IT_number 2
_symmetry_cell_setting 'triclinic'
loop_
_space_group_symop_operation_xyz
x,y,z
-x,-y,-z
loop_
_atom_site_type_symbol
_atom_site_label
_atom_site_fract_x
_atom_site_fract_y
_atom_site_fract_z
Si Si1 0.195326 0.495754 0.575887
Si Si2 0.880794 0.333865 0.174291
Si Si3 0.200422 0.060242 0.920589
Si Si4 0.811743 0.550933 0.662075
Si Si5 0.192088 0.336899 0.123461
Si Si6 0.412327 0.334400 0.511674
Si Si7 0.030331 0.070220 0.530918
Si Si8 0.694251 0.062785 0.560109
O O1 0.175316 0.432152 0.533133
O O2 0.364872 0.626353 0.423156
O O3 0.000000 0.500000 0.500000
O O4 0.256732 0.421217 0.862595
O O5 0.737297 0.199093 0.348983
O O6 0.989351 0.361409 0.331978
O O7 0.033296 0.363165 0.073648
O O8 0.768280 0.416030 0.937638
O O9 0.297754 0.198686 0.749051
O O10 0.176004 0.044773 0.762808
O O11 0.320051 0.995177 0.178880
O O12 0.000000 0.000000 0.000000
O O13 0.645364 0.583845 0.566452
O O14 0.367685 0.358182 0.279630
O O15 0.111170 0.204661 0.271921
O O16 0.842657 0.040562 0.578819
O O17 0.000000 0.000000 0.500000
O O18 0.500000 0.000000 0.500000
#
# Coordination Sequence:
#
# PCOD8003526 Si02
#       8
#     2   2   2   2   2   2   2   2
#     4  12  23  35  55  87 117 150 189 233 290 341
#     4   9  19  38  58  81 115 155 185 233 293 334
#     4   9  19  38  62  84 112 150 194 237 288 342
#     4  10  20  37  59  81 115 149 195 236 276 342
#     4   9  19  38  57  77 117 153 185 226 290 349
#     4  10  22  38  59  85 115 151 193 236 284 343
#     4   9  19  37  58  82 110 149 188 236 283 337
#     4  10  21  36  60  84 113 148 192 237 286 341
#
# _framework density 19.365088
#
# number of rings (size 3 to 8) (size 9 to 14) (size 15 to 20)
#    0.000    2.250    1.250    3.000    1.750    3.000 
#    2.250    1.875    0.000    0.000    0.000    0.000 
#    0.000    0.000    0.000    0.000    0.000    0.000 
#
# Total GULP energy -198346.046603 kJ/mol
# GULP energy per Si atom -12396.627913 kJ/mol
# Density = 1.932101 g / cm^3
# Si number density = 19.365088 Si / 1000 Ang^3
#
#
#
# Elastic Constant Matrix: (Units=GPa)
#
#
# Indices 1 2 3 4 5 6 
#
# 1 67.0410 60.2380 32.5205 -3.5174 2.6319 1.0301
# 2 60.2380 155.8922 65.6662 -4.4082 -6.6902 -3.2355
# 3 32.5205 65.6662 111.7464 -1.8877 -9.6379 0.2725
# 4 -3.5174 -4.4082 -1.8877 30.4109 -4.2568 -3.3195
# 5 2.6319 -6.6902 -9.6379 -4.2568 23.7662 3.2917
# 6 1.0301 -3.2355 0.2725 -3.3195 3.2917 38.5557
#
#
#
# Elastic Compliance Matrix: (Units=1/GPa)
#
#
# Indices 1 2 3 4 5 6 
#
# 1 0.024019 -0.008482 -0.002501 0.000486 -0.005865 -0.000793
# 2 -0.008482 0.011578 -0.004103 0.000918 0.002548 0.001089
# 3 -0.002501 -0.004103 0.012472 0.000423 0.004353 -0.000701
# 4 0.000486 0.000918 0.000423 0.034232 0.006164 0.002482
# 5 -0.005865 0.002548 0.004353 0.006164 0.046745 -0.003120
# 6 -0.000793 0.001089 -0.000701 0.002482 -0.003120 0.026534
#
#
# Mechanical properties :
#
#
# Convention : Reuss Voigt Hill
#
# Bulk Modulus (GPa) = 55.87543 72.39212 64.13377
# Shear Modulus (GPa) = 26.08002 30.29686 28.18844
#
# Velocity S-wave (km/s) = 3.67380 3.95968 3.81941
# Velocity P-wave (km/s) = 6.84924 7.63998 7.25539
#
# Compressibility (1/GPa) = 0.01789695
#
# Stress axis : x y z
#
# Youngs Moduli (GPa) = 41.63435 86.36886 80.17964
#
# Poissons Ratio (x) = 0.73256 0.20056
# Poissons Ratio (y) = 0.35313 0.32896
# Poissons Ratio (z) = 0.10415 0.35435
#
# Static dielectric constant tensor:
#      x y z
#    x 3.197350 0.008970 -0.105330 
#    y 0.008970 3.668080 0.159720 
#    z -0.105330 0.159720 3.371520 
# 
# 
# High freq. dielectric constant tensor:
#      x y z
#    x 1.719140 0.002430 -0.000240 
#    y 0.002430 1.767740 0.008160 
#    z -0.000240 0.008160 1.763440 
# 
# From -- ./inp_files/179476.got.cif
#   From: 2010.06.25/outbox.cif.g09.slc.cpg/sg2_90_cif.got.tgz:179476.got - 2010.06.27 13:26:56.
