data_PCOD8003339
_publ_section_title
;
Structure prediction by ZEFSAII (Michael W. Deem and Ramdas Pophale) SiO2 
 PCOD8003339
Probable space group: P -1
;
_chemical_formula_sum "Si O2"
_cell_formula_units_Z 16
_cell_length_a 13.611999
_cell_length_b 11.074434
_cell_length_c 9.359019
_cell_angle_alpha 51.409728
_cell_angle_beta 77.678815
_cell_angle_gamma 43.044886
_cell_volume 670.483820
_symmetry_space_group_name_H-M "P -1"
_symmetry_group_IT_number 2
_symmetry_cell_setting 'triclinic'
loop_
_space_group_symop_operation_xyz
x,y,z
-x,-y,-z
loop_
_atom_site_type_symbol
_atom_site_label
_atom_site_fract_x
_atom_site_fract_y
_atom_site_fract_z
Si Si1 0.585851 0.282401 0.746946
Si Si2 0.858845 0.182826 0.795974
Si Si3 0.240944 0.474447 0.204824
Si Si4 0.942790 0.592582 0.609603
Si Si5 0.936566 0.949454 0.419574
Si Si6 0.049065 0.684461 0.853315
Si Si7 0.797455 0.773040 0.968740
Si Si8 0.404983 0.489404 0.945194
O O1 0.500000 0.500000 0.500000
O O2 0.758769 0.146013 0.835733
O O3 0.485219 0.369130 0.855977
O O4 0.624191 0.066212 0.827521
O O5 0.742845 0.451109 0.707724
O O6 0.914243 0.176447 0.630696
O O7 0.000000 0.000000 0.000000
O O8 0.214511 0.324950 0.360558
O O9 0.078383 0.715311 0.981648
O O10 0.391579 0.346058 0.149830
O O11 0.889351 0.831457 0.479722
O O12 0.000000 0.500000 0.500000
O O13 0.102209 0.354213 0.822517
O O14 0.007547 0.872534 0.618040
O O15 0.778238 0.241199 0.228863
O O16 0.211276 0.390985 0.972588
O O17 0.895847 0.755531 0.834699
O O18 0.500000 0.500000 0.000000
#
# Coordination Sequence:
#
# PCOD8003339 Si02
#       8
#     2   2   2   2   2   2   2   2
#     4  12  27  44  69  99 146 185 219 275 352 417
#     4  12  22  41  68 104 132 176 231 289 329 396
#     4  11  22  40  66  97 135 169 217 283 341 392
#     4  10  20  36  69 101 125 170 233 285 331 384
#     4  11  23  39  70 100 130 173 236 280 329 411
#     4   9  20  39  70  98 123 165 229 286 327 381
#     4   9  20  41  65  95 133 172 220 278 335 398
#     4  12  26  43  62  96 144 180 215 275 352 406
#
# _framework density 23.863363
#
# number of rings (size 3 to 8) (size 9 to 14) (size 15 to 20)
#    0.000    1.250    3.750    3.000    3.500    0.500 
#    0.000    1.250    8.250    0.000    0.000    0.000 
#    0.000    0.000    0.000    0.000    0.000    0.000 
#
# Total GULP energy -198237.264140 kJ/mol
# GULP energy per Si atom -12389.829009 kJ/mol
# Density = 2.380905 g / cm^3
# Si number density = 23.863363 Si / 1000 Ang^3
#
#
#
# Elastic Constant Matrix: (Units=GPa)
#
#
# Indices 1 2 3 4 5 6 
#
# 1 84.6817 19.2548 19.0874 10.7364 -17.2728 -11.3845
# 2 19.2548 139.7412 54.3128 16.7530 -16.2120 1.2740
# 3 19.0874 54.3128 95.9427 17.3013 -16.7966 -1.1254
# 4 10.7364 16.7530 17.3013 53.8323 -0.7684 -11.3183
# 5 -17.2728 -16.2120 -16.7966 -0.7684 52.8304 7.7114
# 6 -11.3845 1.2740 -1.1254 -11.3183 7.7114 40.5399
#
#
#
# Elastic Compliance Matrix: (Units=1/GPa)
#
#
# Indices 1 2 3 4 5 6 
#
# 1 0.013525 -0.000805 -0.001374 -0.001375 0.003313 0.002771
# 2 -0.000805 0.009439 -0.004693 -0.001529 0.001313 -0.001330
# 3 -0.001374 -0.004693 0.014394 -0.003113 0.002823 -0.001245
# 4 -0.001375 -0.001529 -0.003113 0.021567 -0.002481 0.006069
# 5 0.003313 0.001313 0.002823 -0.002481 0.021843 -0.003880
# 6 0.002771 -0.001330 -0.001245 0.006069 -0.003880 0.027885
#
#
# Mechanical properties :
#
#
# Convention : Reuss Voigt Hill
#
# Bulk Modulus (GPa) = 42.35106 56.18618 49.26862
# Shear Modulus (GPa) = 38.38236 44.62124 41.50180
#
# Velocity S-wave (km/s) = 4.01486 4.32888 4.17483
# Velocity P-wave (km/s) = 6.26722 6.97006 6.62796
#
# Compressibility (1/GPa) = 0.02361216
#
# Stress axis : x y z
#
# Youngs Moduli (GPa) = 73.93985 105.94464 69.47327
#
# Poissons Ratio (x) = 0.08533 0.09547
# Poissons Ratio (y) = 0.05956 0.32604
# Poissons Ratio (z) = 0.10160 0.49720
#
# Static dielectric constant tensor:
#      x y z
#    x 4.953100 0.420630 -0.358910 
#    y 0.420630 4.598600 0.326670 
#    z -0.358910 0.326670 4.455810 
# 
# 
# High freq. dielectric constant tensor:
#      x y z
#    x 1.956840 0.027530 -0.021910 
#    y 0.027530 1.941330 0.030410 
#    z -0.021910 0.030410 1.946930 
# 
# From -- ./inp_files/306493.got.cif
#   From: 2010.06.25/outbox.cif.g09.slc.cpg/sg2_154_cif.got.tgz:306493.got - 2010.06.27 13:26:56.
