data_PCOD8003595
_publ_section_title
;
Structure prediction by ZEFSAII (Michael W. Deem and Ramdas Pophale) SiO2 
 PCOD8003595
Probable space group: P -1
;
_chemical_formula_sum "Si O2"
_cell_formula_units_Z 16
_cell_length_a 11.110845
_cell_length_b 8.220057
_cell_length_c 14.643095
_cell_angle_alpha 50.887841
_cell_angle_beta 130.806319
_cell_angle_gamma 123.249288
_cell_volume 764.093870
_symmetry_space_group_name_H-M "P -1"
_symmetry_group_IT_number 2
_symmetry_cell_setting 'triclinic'
loop_
_space_group_symop_operation_xyz
x,y,z
-x,-y,-z
loop_
_atom_site_type_symbol
_atom_site_label
_atom_site_fract_x
_atom_site_fract_y
_atom_site_fract_z
Si Si1 0.210971 0.946174 0.858673
Si Si2 0.867574 0.068329 0.476951
Si Si3 0.704187 0.188057 0.868485
Si Si4 0.357154 0.197562 0.668047
Si Si5 0.172851 0.119292 0.083613
Si Si6 0.975997 0.510509 0.142428
Si Si7 0.898203 0.518951 0.584536
Si Si8 0.102442 0.938983 0.304083
O O1 0.093876 0.734571 0.831528
O O2 0.318075 0.093035 0.784608
O O3 0.327599 0.893321 0.014209
O O4 0.091097 0.081054 0.798013
O O5 0.848332 0.958366 0.606905
O O6 0.938594 0.324934 0.432940
O O7 0.694994 0.992089 0.367004
O O8 0.000000 0.000000 0.500000
O O9 0.552649 0.289483 0.726872
O O10 0.875705 0.367416 0.892912
O O11 0.697378 0.980002 0.873121
O O12 0.263430 0.385981 0.536108
O O13 0.196593 0.081834 0.217100
O O14 0.177358 0.372009 0.979763
O O15 0.000000 0.000000 0.000000
O O16 0.063766 0.531620 0.275536
O O17 0.857831 0.294863 0.590906
#
# Coordination Sequence:
#
# PCOD8003595 Si02
#       8
#     2   2   2   2   2   2   2   2
#     4  12  21  39  67  92 116 159 210 255 293 362
#     4  10  20  37  59  89 120 158 201 250 290 364
#     4  11  23  41  62  90 128 161 195 255 308 363
#     4  11  24  41  59  91 132 158 196 251 315 354
#     4  10  20  39  60  89 119 157 202 252 297 355
#     4  11  21  39  67  91 115 159 213 247 298 354
#     4  11  20  37  64  90 121 161 205 248 298 364
#     4  12  20  37  67  91 114 156 219 250 289 349
#
# _framework density 20.939834999999999
#
# number of rings (size 3 to 8) (size 9 to 14) (size 15 to 20)
#    0.000    1.000    8.750    1.875    0.000    0.500 
#    0.000    2.500    0.000    0.000    0.000    0.000 
#    0.000    0.000    0.000    0.000    0.000    0.000 
#
# Total GULP energy -198270.307419 kJ/mol
# GULP energy per Si atom -12391.894214 kJ/mol
# Density = 2.089217 g / cm^3
# Si number density = 20.939835 Si / 1000 Ang^3
#
#
#
# Elastic Constant Matrix: (Units=GPa)
#
#
# Indices 1 2 3 4 5 6 
#
# 1 53.9741 31.2661 28.9897 -0.7678 -0.8383 -15.5092
# 2 31.2661 41.9168 21.4395 -10.3567 12.3949 -9.8594
# 3 28.9897 21.4395 94.0448 -7.2789 -8.7558 -16.6511
# 4 -0.7678 -10.3567 -7.2789 32.5816 -9.4610 -3.1331
# 5 -0.8383 12.3949 -8.7558 -9.4610 51.2876 5.7123
# 6 -15.5092 -9.8594 -16.6511 -3.1331 5.7123 21.4942
#
#
#
# Elastic Compliance Matrix: (Units=1/GPa)
#
#
# Indices 1 2 3 4 5 6 
#
# 1 0.040176 -0.028268 -0.004163 -0.006678 0.004358 0.010666
# 2 -0.028268 0.055288 -0.002560 0.013446 -0.012707 0.008317
# 3 -0.004163 -0.002560 0.014236 0.003758 0.002937 0.006618
# 4 -0.006678 0.013446 0.003758 0.037430 0.003200 0.008866
# 5 0.004358 -0.012707 0.002937 0.003200 0.024449 -0.006440
# 6 0.010666 0.008317 0.006618 0.008866 -0.006440 0.066166
#
#
# Mechanical properties :
#
#
# Convention : Reuss Voigt Hill
#
# Bulk Modulus (GPa) = 25.17752 39.25849 32.21801
# Shear Modulus (GPa) = 15.57796 28.28869 21.93333
#
# Velocity S-wave (km/s) = 2.73048 3.67952 3.23994
# Velocity P-wave (km/s) = 4.68941 6.06966 5.42362
#
# Compressibility (1/GPa) = 0.03971797
#
# Stress axis : x y z
#
# Youngs Moduli (GPa) = 24.89039 18.08722 70.24470
#
# Poissons Ratio (x) = 0.51130 0.29241
# Poissons Ratio (y) = 0.70361 0.17981
# Poissons Ratio (z) = 0.10361 0.04630
#
# Static dielectric constant tensor:
#      x y z
#    x 3.792400 -0.338400 -0.050630 
#    y -0.338400 3.885180 -0.227880 
#    z -0.050630 -0.227880 4.134380 
# 
# 
# High freq. dielectric constant tensor:
#      x y z
#    x 1.797370 -0.027990 -0.019700 
#    y -0.027990 1.793650 -0.006540 
#    z -0.019700 -0.006540 1.839400 
# 
# From -- ./inp_files/254476.got.cif
#   From: 2010.06.25/outbox.cif.g09.slc.cpg/sg2_128_cif.got.tgz:254476.got - 2010.06.27 13:26:56.
