data_PCOD8003136
_publ_section_title
;
Structure prediction by ZEFSAII (Michael W. Deem and Ramdas Pophale) SiO2 
 PCOD8003136
Probable space group: P -1
;
_chemical_formula_sum "Si O2"
_cell_formula_units_Z 14
_cell_length_a 13.579589
_cell_length_b 8.856271
_cell_length_c 12.136874
_cell_angle_alpha 121.588615
_cell_angle_beta 112.436263
_cell_angle_gamma 30.798857
_cell_volume 628.782473
_symmetry_space_group_name_H-M "P -1"
_symmetry_group_IT_number 2
_symmetry_cell_setting 'triclinic'
loop_
_space_group_symop_operation_xyz
x,y,z
-x,-y,-z
loop_
_atom_site_type_symbol
_atom_site_label
_atom_site_fract_x
_atom_site_fract_y
_atom_site_fract_z
Si Si1 0.256626 0.757258 0.311111
Si Si2 0.000179 0.755468 0.798009
Si Si3 0.672548 0.040234 0.189704
Si Si4 0.887736 0.783008 0.408529
Si Si5 0.220115 0.460833 0.313368
Si Si6 0.591513 0.790435 0.154401
Si Si7 0.231361 0.104695 0.060253
O O1 0.475204 0.425856 0.237138
O O2 0.190591 0.695951 0.342395
O O3 0.118038 0.948904 0.218248
O O4 0.240191 0.967222 0.449120
O O5 0.869965 0.899603 0.906241
O O6 0.054187 0.501842 0.656987
O O7 0.205848 0.562029 0.843114
O O8 0.771346 0.969950 0.316347
O O9 0.637653 0.875365 0.113601
O O10 0.806901 0.888960 0.081554
O O11 0.086374 0.624524 0.426983
O O12 0.142421 0.420748 0.176334
O O13 0.448887 0.096483 0.297458
O O14 0.469335 0.791292 0.057421
#
# Coordination Sequence:
#
# PCOD8003136 Si02
#       7
#     2   2   2   2   2   2   2
#     4  11  21  36  56  88 119 147 188 238 283 333
#     4  10  21  37  60  85 117 152 182 234 295 336
#     4  10  20  36  63  82 113 150 195 237 274 333
#     4  10  20  38  59  83 113 157 192 227 280 343
#     4   8  19  36  60  81 114 144 196 241 267 335
#     4   8  18  36  58  83 111 146 187 230 282 335
#     4   9  19  39  62  83 113 147 196 228 286 341
#
# _framework density 22.265253000000001
#
# number of rings (size 3 to 8) (size 9 to 14) (size 15 to 20)
#    0.857    1.714    0.000    1.714    0.000    5.714 
#    2.571    1.429    0.000    0.000    0.000    0.000 
#    0.000    0.000    0.000    0.000    0.000    0.000 
#
# Total GULP energy -173435.452270 kJ/mol
# GULP energy per Si atom -12388.246591 kJ/mol
# Density = 2.221458 g / cm^3
# Si number density = 22.265253 Si / 1000 Ang^3
#
#
#
# Elastic Constant Matrix: (Units=GPa)
#
#
# Indices 1 2 3 4 5 6 
#
# 1 42.9534 12.7458 -8.4323 -2.2969 -5.5134 -17.4791
# 2 12.7458 121.1020 12.2364 -5.1857 -9.9077 -18.9051
# 3 -8.4323 12.2364 64.3438 2.7630 -7.9117 -6.8016
# 4 -2.2969 -5.1857 2.7630 22.4389 -7.7260 3.5872
# 5 -5.5134 -9.9077 -7.9117 -7.7260 13.7094 4.5197
# 6 -17.4791 -18.9051 -6.8016 3.5872 4.5197 21.7924
#
#
#
# Elastic Compliance Matrix: (Units=1/GPa)
#
#
# Indices 1 2 3 4 5 6 
#
# 1 0.040326 0.001120 0.010119 0.002354 0.013199 0.033350
# 2 0.001120 0.010084 -0.000253 0.003795 0.007280 0.007433
# 3 0.010119 -0.000253 0.019545 0.000841 0.011884 0.011394
# 4 0.002354 0.003795 0.000841 0.063142 0.044429 -0.014166
# 5 0.013199 0.007280 0.011884 0.044429 0.119173 -0.011419
# 6 0.033350 0.007433 0.011394 -0.014166 -0.011419 0.087341
#
#
# Mechanical properties :
#
#
# Convention : Reuss Voigt Hill
#
# Bulk Modulus (GPa) = 10.87815 29.05545 19.96680
# Shear Modulus (GPa) = 14.35624 25.71142 20.03383
#
# Velocity S-wave (km/s) = 2.54201 3.40189 3.00289
# Velocity P-wave (km/s) = 3.67588 5.33933 4.58370
#
# Compressibility (1/GPa) = 0.09192742
#
# Stress axis : x y z
#
# Youngs Moduli (GPa) = 24.79770 99.17147 51.16327
#
# Poissons Ratio (x) = -0.11108 -0.51772
# Poissons Ratio (y) = -0.02778 0.01294
# Poissons Ratio (z) = -0.25093 0.02508
#
# Static dielectric constant tensor:
#      x y z
#    x 3.829900 -0.312130 -0.154930 
#    y -0.312130 3.945290 0.212300 
#    z -0.154930 0.212300 3.657530 
# 
# 
# High freq. dielectric constant tensor:
#      x y z
#    x 1.857740 -0.018380 -0.012330 
#    y -0.018380 1.871440 0.019810 
#    z -0.012330 0.019810 1.855230 
# 
# From -- ./inp_files/335579.got.cif
#   From: 2010.06.25/outbox.cif.g09.slc.cpg/sg2_168_cif.got.tgz:335579.got - 2010.06.27 13:26:56.
