data_PCOD8003680
_publ_section_title
;
Structure prediction by ZEFSAII (Michael W. Deem and Ramdas Pophale) SiO2 
 PCOD8003680
Probable space group: P -1
;
_chemical_formula_sum "Si O2"
_cell_formula_units_Z 16
_cell_length_a 15.288189
_cell_length_b 6.727816
_cell_length_c 15.115809
_cell_angle_alpha 63.954468
_cell_angle_beta 142.209489
_cell_angle_gamma 102.690532
_cell_volume 832.765037
_symmetry_space_group_name_H-M "P -1"
_symmetry_group_IT_number 2
_symmetry_cell_setting 'triclinic'
loop_
_space_group_symop_operation_xyz
x,y,z
-x,-y,-z
loop_
_atom_site_type_symbol
_atom_site_label
_atom_site_fract_x
_atom_site_fract_y
_atom_site_fract_z
Si Si1 0.598048 0.156387 0.086552
Si Si2 0.412603 0.194635 0.283410
Si Si3 0.865800 0.393589 0.515046
Si Si4 0.407772 0.717272 0.429322
Si Si5 0.551844 0.354802 0.198572
Si Si6 0.910033 0.860962 0.398215
Si Si7 0.098579 0.801447 0.223961
Si Si8 0.094314 0.286694 0.066668
O O1 0.583946 0.179335 0.176907
O O2 0.764256 0.039994 0.214498
O O3 0.546302 0.403197 0.954944
O O4 0.500000 0.000000 0.000000
O O5 0.538847 0.244050 0.437409
O O6 0.446746 0.264280 0.199339
O O7 0.255995 0.328621 0.171052
O O8 0.414584 0.929151 0.331364
O O9 0.706455 0.369753 0.361284
O O10 0.868532 0.659097 0.461803
O O11 0.903684 0.301349 0.661215
O O12 0.994671 0.244459 0.588677
O O13 0.500000 0.500000 0.500000
O O14 0.245285 0.677250 0.314259
O O15 0.000000 0.000000 0.500000
O O16 0.095418 0.070109 0.172881
O O17 0.964593 0.752398 0.070227
O O18 0.000000 0.500000 0.000000
#
# Coordination Sequence:
#
# PCOD8003680 Si02
#       8
#     2   2   2   2   2   2   2   2
#     4  11  24  42  63  91 127 167 204 260 316 372
#     4  10  22  37  60  91 120 156 206 246 302 363
#     4  11  23  41  66  94 124 164 211 263 309 372
#     4  10  20  37  60  88 120 157 198 252 297 359
#     4  11  23  41  65  92 129 163 210 262 312 369
#     4  11  24  42  64  93 127 162 211 259 317 373
#     4  10  22  39  62  88 124 158 204 248 306 361
#     4  10  22  41  59  89 129 162 195 254 305 364
#
# _framework density 19.213104000000001
#
# number of rings (size 3 to 8) (size 9 to 14) (size 15 to 20)
#    0.000    1.500    3.750    0.750    0.000    6.000 
#    0.000    0.000    0.000    0.000    0.000    0.000 
#    0.000    0.000    0.000    0.000    0.000    0.000 
#
# Total GULP energy -198428.183472 kJ/mol
# GULP energy per Si atom -12401.761467 kJ/mol
# Density = 1.916937 g / cm^3
# Si number density = 19.213104 Si / 1000 Ang^3
#
#
#
# Elastic Constant Matrix: (Units=GPa)
#
#
# Indices 1 2 3 4 5 6 
#
# 1 108.4158 54.5118 50.1322 -25.4035 -5.2344 4.2370
# 2 54.5118 88.8209 34.0590 -2.6985 1.5466 -1.7286
# 3 50.1322 34.0590 109.9699 -8.8596 5.4193 3.7625
# 4 -25.4035 -2.6985 -8.8596 33.1434 -2.3468 9.5443
# 5 -5.2344 1.5466 5.4193 -2.3468 46.1955 -7.5585
# 6 4.2370 -1.7286 3.7625 9.5443 -7.5585 26.1690
#
#
#
# Elastic Compliance Matrix: (Units=1/GPa)
#
#
# Indices 1 2 3 4 5 6 
#
# 1 0.021485 -0.011036 -0.004835 0.017044 0.002776 -0.008927
# 2 -0.011036 0.018509 -0.001609 -0.009276 -0.001122 0.006300
# 3 -0.004835 -0.001609 0.011925 -0.000361 -0.002162 -0.001531
# 4 0.017044 -0.009276 -0.000361 0.048407 0.001376 -0.020578
# 5 0.002776 -0.001122 -0.002162 0.001376 0.023307 0.006017
# 6 -0.008927 0.006300 -0.001531 -0.020578 0.006017 0.049538
#
#
# Mechanical properties :
#
#
# Convention : Reuss Voigt Hill
#
# Bulk Modulus (GPa) = 58.96226 64.95697 61.95961
# Shear Modulus (GPa) = 23.38799 32.33516 27.86157
#
# Velocity S-wave (km/s) = 3.49276 4.10686 3.81219
# Velocity P-wave (km/s) = 6.85719 7.50803 7.18997
#
# Compressibility (1/GPa) = 0.01696000
#
# Stress axis : x y z
#
# Youngs Moduli (GPa) = 46.54411 54.02721 83.85405
#
# Poissons Ratio (x) = 0.59626 0.40540
# Poissons Ratio (y) = 0.51368 0.13491
# Poissons Ratio (z) = 0.22502 0.08692
#
# Static dielectric constant tensor:
#      x y z
#    x 3.667650 -0.688230 0.781740 
#    y -0.688230 6.312970 -2.498120 
#    z 0.781740 -2.498120 5.919260 
# 
# 
# High freq. dielectric constant tensor:
#      x y z
#    x 1.747950 0.000460 0.012130 
#    y 0.000460 1.752990 0.000130 
#    z 0.012130 0.000130 1.763710 
# 
# From -- ./inp_files/96918.got.cif
#   From: 2010.06.25/outbox.cif.g09.slc.cpg/sg2_49_cif.got.tgz:96918.got - 2010.06.27 13:26:56.
