data_PCOD8003910
_publ_section_title
;
Structure prediction by ZEFSAII (Michael W. Deem and Ramdas Pophale) SiO2 
 PCOD8003910
Probable space group: P -1
;
_chemical_formula_sum "Si O2"
_cell_formula_units_Z 14
_cell_length_a 9.190108
_cell_length_b 9.952470
_cell_length_c 11.018569
_cell_angle_alpha 39.002203
_cell_angle_beta 86.549233
_cell_angle_gamma 80.018521
_cell_volume 620.132748
_symmetry_space_group_name_H-M "P -1"
_symmetry_group_IT_number 2
_symmetry_cell_setting 'triclinic'
loop_
_space_group_symop_operation_xyz
x,y,z
-x,-y,-z
loop_
_atom_site_type_symbol
_atom_site_label
_atom_site_fract_x
_atom_site_fract_y
_atom_site_fract_z
Si Si1 0.423249 0.020616 0.860647
Si Si2 0.663377 0.781066 0.868144
Si Si3 0.290782 0.604447 0.180353
Si Si4 0.673346 0.498519 0.487850
Si Si5 0.478041 0.755367 0.687522
Si Si6 0.084575 0.376375 0.194303
Si Si7 0.214280 0.616130 0.697476
O O1 0.563627 0.002927 0.771535
O O2 0.309305 0.248980 0.690322
O O3 0.331170 0.830653 0.975343
O O4 0.500000 0.000000 0.000000
O O5 0.544662 0.669289 0.876941
O O6 0.788444 0.816174 0.736851
O O7 0.736583 0.631461 0.081115
O O8 0.245161 0.621735 0.313045
O O9 0.435341 0.408340 0.303596
O O10 0.156948 0.547629 0.147601
O O11 0.500000 0.500000 0.500000
O O12 0.751918 0.374655 0.453125
O O13 0.303410 0.759613 0.675226
O O14 0.500000 0.000000 0.500000
O O15 0.962874 0.288449 0.343587
O O16 0.000000 0.500000 0.000000
#
# Coordination Sequence:
#
# PCOD8003910 Si02
#       7
#     2   2   2   2   2   2   2
#     4  12  21  37  69  97 124 165 211 264 319 361
#     4  10  20  37  62  88 121 159 211 257 312 365
#     4  11  23  42  62  98 125 167 213 262 312 375
#     4  12  22  39  66  98 127 159 215 265 309 376
#     4  11  21  35  63  93 121 159 215 266 311 363
#     4   9  23  41  65  86 130 170 207 258 317 380
#     4  11  21  40  61  91 125 168 205 258 319 369
#
# _framework density 22.575811000000002
#
# number of rings (size 3 to 8) (size 9 to 14) (size 15 to 20)
#    0.000    1.143    5.714    1.286    4.000    0.571 
#    0.000    3.571    3.143    0.000    0.000    0.000 
#    0.000    0.000    0.000    0.000    0.000    0.000 
#
# Total GULP energy -173478.278735 kJ/mol
# GULP energy per Si atom -12391.305624 kJ/mol
# Density = 2.252443 g / cm^3
# Si number density = 22.575811 Si / 1000 Ang^3
#
#
#
# Elastic Constant Matrix: (Units=GPa)
#
#
# Indices 1 2 3 4 5 6 
#
# 1 146.6119 64.5949 18.4221 8.5434 -27.2554 4.8234
# 2 64.5949 110.4371 7.2557 29.7782 -12.0582 -8.6853
# 3 18.4221 7.2557 49.6820 1.2303 -7.2491 -1.1523
# 4 8.5434 29.7782 1.2303 43.8555 4.6761 -3.7106
# 5 -27.2554 -12.0582 -7.2491 4.6761 27.9398 7.1087
# 6 4.8234 -8.6853 -1.1523 -3.7106 7.1087 41.8646
#
#
#
# Elastic Compliance Matrix: (Units=1/GPa)
#
#
# Indices 1 2 3 4 5 6 
#
# 1 0.011579 -0.006151 -0.002193 0.000671 0.009013 -0.004142
# 2 -0.006151 0.015531 0.000554 -0.009302 0.001682 0.002836
# 3 -0.002193 0.000554 0.021437 -0.000931 0.003757 0.000237
# 4 0.000671 -0.009302 -0.000931 0.030183 -0.009215 0.002207
# 5 0.009013 0.001682 0.003757 -0.009215 0.050359 -0.009954
# 6 -0.004142 0.002836 0.000237 0.002207 -0.009954 0.026844
#
#
# Mechanical properties :
#
#
# Convention : Reuss Voigt Hill
#
# Bulk Modulus (GPa) = 30.33262 54.14183 42.23723
# Shear Modulus (GPa) = 27.39685 37.16254 32.27970
#
# Velocity S-wave (km/s) = 3.48738 4.06164 3.78542
# Velocity P-wave (km/s) = 5.44801 6.78456 6.15269
#
# Compressibility (1/GPa) = 0.03296781
#
# Stress axis : x y z
#
# Youngs Moduli (GPa) = 86.36284 64.38625 46.64841
#
# Poissons Ratio (x) = 0.39604 0.10229
# Poissons Ratio (y) = 0.53122 -0.02585
# Poissons Ratio (z) = 0.18937 -0.03568
#
# Static dielectric constant tensor:
#      x y z
#    x 4.671650 -0.184990 -0.103940 
#    y -0.184990 4.477630 0.214740 
#    z -0.103940 0.214740 4.093920 
# 
# 
# High freq. dielectric constant tensor:
#      x y z
#    x 1.867470 0.004950 -0.008580 
#    y 0.004950 1.905460 0.016970 
#    z -0.008580 0.016970 1.874200 
# 
# From -- ./inp_files/261387.got.cif
#   From: 2010.06.25/outbox.cif.g09.slc.cpg/sg2_131_cif.got.tgz:261387.got - 2010.06.27 13:26:56.
