data_PCOD8003900
_publ_section_title
;
Structure prediction by ZEFSAII (Michael W. Deem and Ramdas Pophale) SiO2 
 PCOD8003900
Probable space group: P -1
;
_chemical_formula_sum "Si O2"
_cell_formula_units_Z 16
_cell_length_a 22.216554
_cell_length_b 19.210581
_cell_length_c 9.677705
_cell_angle_alpha 145.599539
_cell_angle_beta 143.164848
_cell_angle_gamma 19.038317
_cell_volume 756.533937
_symmetry_space_group_name_H-M "P -1"
_symmetry_group_IT_number 2
_symmetry_cell_setting 'triclinic'
loop_
_space_group_symop_operation_xyz
x,y,z
-x,-y,-z
loop_
_atom_site_type_symbol
_atom_site_label
_atom_site_fract_x
_atom_site_fract_y
_atom_site_fract_z
Si Si1 0.791981 0.309318 0.158140
Si Si2 0.857628 0.368471 0.636320
Si Si3 0.161574 0.018319 0.295252
Si Si4 0.552258 0.182365 0.707215
Si Si5 0.622633 0.825574 0.815606
Si Si6 0.784332 0.265664 0.553966
Si Si7 0.520002 0.318213 0.156552
Si Si8 0.751060 0.953959 0.210591
O O1 0.867734 0.241618 0.343265
O O2 0.585657 0.571398 0.198395
O O3 0.937715 0.245357 0.234310
O O4 0.782982 0.177575 0.881839
O O5 0.756844 0.584764 0.730506
O O6 0.754833 0.421388 0.667361
O O7 0.063167 0.198429 0.777735
O O8 0.237942 0.022789 0.568948
O O9 0.246529 0.983446 0.252038
O O10 0.499923 0.103550 0.418749
O O11 0.534642 0.198875 0.868506
O O12 0.735501 0.822690 0.954558
O O13 0.500000 0.000000 0.000000
O O14 0.655659 0.286834 0.301249
O O15 0.690802 0.407248 0.761375
O O16 0.000000 0.000000 0.500000
O O17 0.583968 0.194435 0.217640
#
# Coordination Sequence:
#
# PCOD8003900 Si02
#       8
#     2   2   2   2   2   2   2   2
#     4   9  21  34  59  93 121 155 209 266 319 371
#     4  10  21  40  65  94 122 168 214 272 312 374
#     4  10  20  37  62  87 125 160 210 265 317 374
#     4  11  23  39  60  91 126 167 205 271 312 369
#     4  11  22  41  67  89 123 171 225 267 308 367
#     4  11  23  42  64  95 136 171 203 252 325 395
#     4  11  26  38  65  99 132 168 208 255 329 390
#     4  11  22  41  64  96 123 171 222 258 314 383
#
# _framework density 21.149084999999999
#
# number of rings (size 3 to 8) (size 9 to 14) (size 15 to 20)
#    0.000    1.500    2.500    2.250    5.250    2.500 
#    0.000    0.000    0.000    1.500    0.000    0.000 
#    0.000    0.000    0.000    0.000    0.000    0.000 
#
# Total GULP energy -198240.709170 kJ/mol
# GULP energy per Si atom -12390.044323 kJ/mol
# Density = 2.110095 g / cm^3
# Si number density = 21.149085 Si / 1000 Ang^3
#
#
#
# Elastic Constant Matrix: (Units=GPa)
#
#
# Indices 1 2 3 4 5 6 
#
# 1 104.3502 36.1359 41.8279 1.9018 9.2321 -14.4609
# 2 36.1359 73.4657 24.8536 1.5672 -0.4679 -18.3521
# 3 41.8279 24.8536 123.5188 6.5968 1.2270 -8.7623
# 4 1.9018 1.5672 6.5968 22.3008 -2.6111 -1.2771
# 5 9.2321 -0.4679 1.2270 -2.6111 34.5905 7.1062
# 6 -14.4609 -18.3521 -8.7623 -1.2771 7.1062 34.3101
#
#
#
# Elastic Compliance Matrix: (Units=1/GPa)
#
#
# Indices 1 2 3 4 5 6 
#
# 1 0.013332 -0.004683 -0.003302 -0.000139 -0.004157 0.003127
# 2 -0.004683 0.018297 -0.001571 0.000006 0.000032 0.007405
# 3 -0.003302 -0.001571 0.009662 -0.002424 0.000318 0.000079
# 4 -0.000139 0.000006 -0.002424 0.046001 0.003533 0.000306
# 5 -0.004157 0.000032 0.000318 0.003533 0.031947 -0.008139
# 6 0.003127 0.007405 0.000079 0.000306 -0.008139 0.036142
#
#
# Mechanical properties :
#
#
# Convention : Reuss Voigt Hill
#
# Bulk Modulus (GPa) = 45.08779 56.32994 50.70887
# Shear Modulus (GPa) = 27.48969 31.47476 29.48223
#
# Velocity S-wave (km/s) = 3.60919 3.86195 3.73771
# Velocity P-wave (km/s) = 6.22364 6.82486 6.53117
#
# Compressibility (1/GPa) = 0.02217895
#
# Stress axis : x y z
#
# Youngs Moduli (GPa) = 75.00734 54.65471 103.49677
#
# Poissons Ratio (x) = 0.25595 0.34173
# Poissons Ratio (y) = 0.35126 0.16260
# Poissons Ratio (z) = 0.24767 0.08586
#
# Static dielectric constant tensor:
#      x y z
#    x 3.740840 -0.627680 -0.323680 
#    y -0.627680 2.603580 -1.375480 
#    z -0.323680 -1.375480 2.335670 
# 
# 
# High freq. dielectric constant tensor:
#      x y z
#    x 1.823360 -0.029540 0.005350 
#    y -0.029540 1.819040 0.003660 
#    z 0.005350 0.003660 1.829790 
# 
# From -- ./inp_files/348954.got.cif
#   From: 2010.06.25/outbox.cif.g09.slc.cpg/sg2_175_cif.got.tgz:348954.got - 2010.06.27 13:26:56.
