data_PCOD8003748
_publ_section_title
;
Structure prediction by ZEFSAII (Michael W. Deem and Ramdas Pophale) SiO2 
 PCOD8003748
Probable space group: P -1
;
_chemical_formula_sum "Si O2"
_cell_formula_units_Z 12
_cell_length_a 15.890300
_cell_length_b 15.466476
_cell_length_c 9.448929
_cell_angle_alpha 45.836454
_cell_angle_beta 151.194426
_cell_angle_gamma 144.241818
_cell_volume 653.019882
_symmetry_space_group_name_H-M "P -1"
_symmetry_group_IT_number 2
_symmetry_cell_setting 'triclinic'
loop_
_space_group_symop_operation_xyz
x,y,z
-x,-y,-z
loop_
_atom_site_type_symbol
_atom_site_label
_atom_site_fract_x
_atom_site_fract_y
_atom_site_fract_z
Si Si1 0.684037 0.830605 0.129728
Si Si2 0.525216 0.647992 0.827418
Si Si3 0.069021 0.573738 0.169646
Si Si4 0.011339 0.830596 0.809877
Si Si5 0.670099 0.670468 0.713889
Si Si6 0.653411 0.394910 0.918843
O O1 0.845854 0.802083 0.475638
O O2 0.457968 0.746130 0.978994
O O3 0.651647 0.773356 0.988372
O O4 0.777822 0.002600 0.070817
O O5 0.292835 0.610763 0.505071
O O6 0.667409 0.717044 0.816576
O O7 0.500000 0.500000 0.000000
O O8 0.000000 0.500000 0.000000
O O9 0.083169 0.723521 0.011759
O O10 0.898215 0.460886 0.165984
O O11 0.894123 0.797532 0.826325
O O12 0.637683 0.514193 0.843152
O O13 0.471291 0.650577 0.361630
#
# Coordination Sequence:
#
# PCOD8003748 Si02
#       6
#     2   2   2   2   2   2
#     4  10  20  37  61  82 115 141 187 228 274 324
#     4  12  22  34  58  89 112 137 191 241 266 311
#     4  11  21  36  60  82 110 146 190 224 275 330
#     4   9  21  40  60  78 110 158 180 214 284 343
#     4   9  17  34  58  81 110 146 184 218 277 332
#     4   9  17  35  58  80 109 150 180 219 276 336
#
# _framework density 18.376162999999998
#
# number of rings (size 3 to 8) (size 9 to 14) (size 15 to 20)
#    0.000    2.000    3.333    2.000    0.000    2.000 
#    0.000    0.833    3.667    0.000    0.000    0.000 
#    0.000    0.000    0.000    0.000    0.000    0.000 
#
# Total GULP energy -148805.354512 kJ/mol
# GULP energy per Si atom -12400.446209 kJ/mol
# Density = 1.833434 g / cm^3
# Si number density = 18.376163 Si / 1000 Ang^3
#
#
#
# Elastic Constant Matrix: (Units=GPa)
#
#
# Indices 1 2 3 4 5 6 
#
# 1 152.2912 70.5456 54.2926 2.8974 -17.5008 4.1860
# 2 70.5456 133.7239 50.3935 1.9088 0.8633 14.4186
# 3 54.2926 50.3935 84.5272 -7.1254 -0.7756 -6.4221
# 4 2.8974 1.9088 -7.1254 17.3606 -12.8312 -0.6981
# 5 -17.5008 0.8633 -0.7756 -12.8312 23.4371 4.5036
# 6 4.1860 14.4186 -6.4221 -0.6981 4.5036 29.6672
#
#
#
# Elastic Compliance Matrix: (Units=1/GPa)
#
#
# Indices 1 2 3 4 5 6 
#
# 1 0.011466 -0.004328 -0.004366 0.005592 0.012053 -0.002157
# 2 -0.004328 0.012962 -0.006267 -0.009325 -0.007855 -0.006072
# 3 -0.004366 -0.006267 0.019995 0.011880 0.002624 0.007871
# 4 0.005592 -0.009325 0.011880 0.111381 0.066102 -0.001099
# 5 0.012053 -0.007855 0.002624 0.066102 0.090044 -0.009429
# 6 -0.002157 -0.006072 0.007871 -0.001099 -0.009429 0.040072
#
#
# Mechanical properties :
#
#
# Convention : Reuss Voigt Hill
#
# Bulk Modulus (GPa) = 68.96774 80.11172 74.53973
# Shear Modulus (GPa) = 15.59207 27.11369 21.35288
#
# Velocity S-wave (km/s) = 2.91605 3.84537 3.41249
# Velocity P-wave (km/s) = 6.99646 7.96278 7.49521
#
# Compressibility (1/GPa) = 0.01449953
#
# Stress axis : x y z
#
# Youngs Moduli (GPa) = 87.21502 77.14989 50.01347
#
# Poissons Ratio (x) = 0.33394 0.21836
# Poissons Ratio (y) = 0.37751 0.31343
# Poissons Ratio (z) = 0.38079 0.48349
#
# Static dielectric constant tensor:
#      x y z
#    x 3.528520 0.144730 -0.033250 
#    y 0.144730 3.379920 0.003070 
#    z -0.033250 0.003070 3.397400 
# 
# 
# High freq. dielectric constant tensor:
#      x y z
#    x 1.723170 0.010790 -0.004560 
#    y 0.010790 1.703800 0.005750 
#    z -0.004560 0.005750 1.698300 
# 
# From -- ./inp_files/144653.got.cif
#   From: 2010.06.25/outbox.cif.g09.slc.cpg/sg2_73_cif.got.tgz:144653.got - 2010.06.27 13:26:56.
