data_PCOD8003663
_publ_section_title
;
Structure prediction by ZEFSAII (Michael W. Deem and Ramdas Pophale) SiO2 
 PCOD8003663
Probable space group: P -1
;
_chemical_formula_sum "Si O2"
_cell_formula_units_Z 14
_cell_length_a 14.172070
_cell_length_b 9.149870
_cell_length_c 8.766306
_cell_angle_alpha 79.031015
_cell_angle_beta 137.029011
_cell_angle_gamma 117.770143
_cell_volume 663.867914
_symmetry_space_group_name_H-M "P -1"
_symmetry_group_IT_number 2
_symmetry_cell_setting 'triclinic'
loop_
_space_group_symop_operation_xyz
x,y,z
-x,-y,-z
loop_
_atom_site_type_symbol
_atom_site_label
_atom_site_fract_x
_atom_site_fract_y
_atom_site_fract_z
Si Si1 0.997383 0.162847 0.736126
Si Si2 0.556866 0.117986 0.400472
Si Si3 0.902945 0.408280 0.755253
Si Si4 0.654857 0.878512 0.433761
Si Si5 0.330939 0.236142 0.190860
Si Si6 0.894853 0.572411 0.425663
Si Si7 0.561965 0.444513 0.939837
O O1 0.980631 0.302784 0.791358
O O2 0.040581 0.234856 0.598353
O O3 0.840705 0.980547 0.591650
O O4 0.140422 0.133091 0.969869
O O5 0.720446 0.284535 0.605412
O O6 0.418145 0.165305 0.191724
O O7 0.500000 0.000000 0.500000
O O8 0.586079 0.011851 0.322727
O O9 0.904478 0.558600 0.622343
O O10 0.000000 0.500000 0.000000
O O11 0.626312 0.782245 0.581050
O O12 0.568242 0.743857 0.225050
O O13 0.397420 0.432387 0.183443
O O14 0.000000 0.500000 0.500000
O O15 0.719178 0.443935 0.182206
O O16 0.500000 0.500000 0.000000
#
# Coordination Sequence:
#
# PCOD8003663 Si02
#       7
#     2   2   2   2   2   2   2
#     4   9  20  38  59  86 118 154 196 244 294 341
#     4   9  20  37  58  90 119 148 196 244 289 341
#     4  10  20  37  60  86 117 155 195 238 292 357
#     4  10  21  40  61  86 120 159 197 241 292 345
#     4  10  20  38  62  88 119 154 199 244 287 349
#     4   9  20  39  57  81 118 154 192 234 290 355
#     4  11  23  39  59  87 120 158 197 241 294 350
#
# _framework density 21.088532000000001
#
# number of rings (size 3 to 8) (size 9 to 14) (size 15 to 20)
#    0.000    2.286    0.000    1.714    0.000    9.143 
#    0.000   21.429    0.000    0.000    0.000    0.000 
#    0.000    0.000    0.000    0.000    0.000    0.000 
#
# Total GULP energy -173508.381504 kJ/mol
# GULP energy per Si atom -12393.455822 kJ/mol
# Density = 2.104053 g / cm^3
# Si number density = 21.088532 Si / 1000 Ang^3
#
#
#
# Elastic Constant Matrix: (Units=GPa)
#
#
# Indices 1 2 3 4 5 6 
#
# 1 104.9539 45.9905 79.9610 14.2977 22.7217 2.7710
# 2 45.9905 81.1005 72.2980 12.3258 -3.3664 5.4939
# 3 79.9610 72.2980 144.6902 5.7845 8.7615 -7.8321
# 4 14.2977 12.3258 5.7845 40.2314 -0.1243 2.2752
# 5 22.7217 -3.3664 8.7615 -0.1243 47.4868 -11.4060
# 6 2.7710 5.4939 -7.8321 2.2752 -11.4060 36.7133
#
#
#
# Elastic Compliance Matrix: (Units=1/GPa)
#
#
# Indices 1 2 3 4 5 6 
#
# 1 0.021265 -0.002197 -0.010184 -0.005099 -0.009961 -0.006228
# 2 -0.002197 0.025202 -0.011662 -0.004993 0.003876 -0.004580
# 3 -0.010184 -0.011662 0.018434 0.004158 0.002315 0.006908
# 4 -0.005099 -0.004993 0.004158 0.027559 0.001583 0.000803
# 5 -0.009961 0.003876 0.002315 0.001583 0.027894 0.009234
# 6 -0.006228 -0.004580 0.006908 0.000803 0.009234 0.032686
#
#
# Mechanical properties :
#
#
# Convention : Reuss Voigt Hill
#
# Bulk Modulus (GPa) = 59.46885 80.80485 70.13685
# Shear Modulus (GPa) = 24.18583 33.71929 28.95256
#
# Velocity S-wave (km/s) = 3.39022 4.00301 3.70929
# Velocity P-wave (km/s) = 6.60194 7.73082 7.18858
#
# Compressibility (1/GPa) = 0.01681552
#
# Stress axis : x y z
#
# Youngs Moduli (GPa) = 47.02521 39.67897 54.24715
#
# Poissons Ratio (x) = 0.08717 0.55247
# Poissons Ratio (y) = 0.10331 0.63262
# Poissons Ratio (z) = 0.47892 0.46273
#
# Static dielectric constant tensor:
#      x y z
#    x 4.325370 0.312800 0.227250 
#    y 0.312800 4.708720 -0.653560 
#    z 0.227250 -0.653560 3.831770 
# 
# 
# High freq. dielectric constant tensor:
#      x y z
#    x 1.834630 0.019240 0.026630 
#    y 0.019240 1.827110 -0.017930 
#    z 0.026630 -0.017930 1.812340 
# 
# From -- ./inp_files/157454.got.cif
#   From: 2010.06.25/outbox.cif.g09.slc.cpg/sg2_79_cif.got.tgz:157454.got - 2010.06.27 13:26:56.
