data_PCOD8003841
_publ_section_title
;
Structure prediction by ZEFSAII (Michael W. Deem and Ramdas Pophale) SiO2 
 PCOD8003841
Probable space group: P -1
;
_chemical_formula_sum "Si O2"
_cell_formula_units_Z 16
_cell_length_a 5.063278
_cell_length_b 25.314069
_cell_length_c 8.645800
_cell_angle_alpha 67.473570
_cell_angle_beta 117.895272
_cell_angle_gamma 69.337275
_cell_volume 686.093689
_symmetry_space_group_name_H-M "P -1"
_symmetry_group_IT_number 2
_symmetry_cell_setting 'triclinic'
loop_
_space_group_symop_operation_xyz
x,y,z
-x,-y,-z
loop_
_atom_site_type_symbol
_atom_site_label
_atom_site_fract_x
_atom_site_fract_y
_atom_site_fract_z
Si Si1 0.304485 0.958555 0.266615
Si Si2 0.088254 0.551771 0.414386
Si Si3 0.576932 0.132217 0.323294
Si Si4 0.391069 0.252588 0.357043
Si Si5 0.239006 0.180676 0.641992
Si Si6 0.806728 0.604169 0.968526
Si Si7 0.467994 0.547233 0.797692
Si Si8 0.009712 0.894623 0.849176
O O1 0.183767 0.929494 0.403265
O O2 0.694438 0.884216 0.375099
O O3 0.325068 0.018919 0.279842
O O4 0.000000 0.000000 0.000000
O O5 0.500000 0.500000 0.500000
O O6 0.090488 0.588416 0.533601
O O7 0.000000 0.500000 0.500000
O O8 0.761283 0.616149 0.129887
O O9 0.412992 0.213194 0.249335
O O10 0.881653 0.105021 0.298499
O O11 0.198711 0.141079 0.156896
O O12 0.185817 0.242267 0.447650
O O13 0.132797 0.341378 0.152897
O O14 0.827212 0.218957 0.570350
O O15 0.590970 0.149778 0.891946
O O16 0.443570 0.615526 0.776797
O O17 0.161661 0.515247 0.138481
O O18 0.500000 0.500000 0.000000
#
# Coordination Sequence:
#
# PCOD8003841 Si02
#       8
#     2   2   2   2   2   2   2   2
#     4   9  20  38  64  91 119 165 209 257 314 359
#     4  10  20  37  61  92 124 152 195 256 306 359
#     4  11  22  39  61  92 127 159 205 261 309 367
#     4  11  24  43  62  85 127 173 200 242 316 379
#     4  10  23  42  62  88 126 164 210 251 304 382
#     4  10  23  40  64  91 126 166 203 256 315 373
#     4  10  20  39  67  94 121 155 212 260 308 364
#     4  11  22  40  64  92 123 158 211 268 307 351
#
# _framework density 23.320428
#
# number of rings (size 3 to 8) (size 9 to 14) (size 15 to 20)
#    0.000    1.750    1.250    3.000    1.750    2.000 
#    4.500   10.625    0.000    0.000    0.000    0.000 
#    0.000    0.000    0.000    0.000    0.000    0.000 
#
# Total GULP energy -198214.095976 kJ/mol
# GULP energy per Si atom -12388.380999 kJ/mol
# Density = 2.326735 g / cm^3
# Si number density = 23.320428 Si / 1000 Ang^3
#
#
#
# Elastic Constant Matrix: (Units=GPa)
#
#
# Indices 1 2 3 4 5 6 
#
# 1 70.5918 11.5586 -7.8380 5.8508 0.5461 14.9545
# 2 11.5586 109.4255 52.3491 17.4017 -0.3229 30.9250
# 3 -7.8380 52.3491 93.5317 28.0968 -12.1528 13.3466
# 4 5.8508 17.4017 28.0968 45.6052 1.4769 -1.7563
# 5 0.5461 -0.3229 -12.1528 1.4769 29.9463 1.8819
# 6 14.9545 30.9250 13.3466 -1.7563 1.8819 37.3128
#
#
#
# Elastic Compliance Matrix: (Units=1/GPa)
#
#
# Indices 1 2 3 4 5 6 
#
# 1 0.017065 -0.001107 0.005142 -0.005331 0.002538 -0.008140
# 2 -0.001107 0.015851 -0.007265 -0.001752 -0.002038 -0.010075
# 3 0.005142 -0.007265 0.020164 -0.010757 0.008806 -0.004203
# 4 -0.005331 -0.001752 -0.010757 0.030467 -0.006367 0.009192
# 5 0.002538 -0.002038 0.008806 -0.006367 0.037506 -0.004669
# 6 -0.008140 -0.010075 -0.004203 0.009192 -0.004669 0.040584
#
#
# Mechanical properties :
#
#
# Convention : Reuss Voigt Hill
#
# Bulk Modulus (GPa) = 21.44986 42.85426 32.15206
# Shear Modulus (GPa) = 27.22751 37.07147 32.14949
#
# Velocity S-wave (km/s) = 3.42063 3.99138 3.71698
# Velocity P-wave (km/s) = 4.98185 6.29743 5.67787
#
# Compressibility (1/GPa) = 0.04662036
#
# Stress axis : x y z
#
# Youngs Moduli (GPa) = 58.60013 63.08662 49.59302
#
# Poissons Ratio (x) = 0.06983 -0.25502
# Poissons Ratio (y) = 0.06486 0.36031
# Poissons Ratio (z) = -0.30134 0.45834
#
# Static dielectric constant tensor:
#      x y z
#    x 4.029250 0.105940 -0.097030 
#    y 0.105940 4.935480 0.796830 
#    z -0.097030 0.796830 4.511930 
# 
# 
# High freq. dielectric constant tensor:
#      x y z
#    x 1.916440 0.013870 -0.008650 
#    y 0.013870 1.924530 0.027770 
#    z -0.008650 0.027770 1.919400 
# 
# From -- ./inp_files/142283.got.cif
#   From: 2010.06.25/outbox.cif.g09.slc.cpg/sg2_72_cif.got.tgz:142283.got - 2010.06.27 13:26:56.
