data_PCOD8003899
_publ_section_title
;
Structure prediction by ZEFSAII (Michael W. Deem and Ramdas Pophale) SiO2 
 PCOD8003899
Probable space group: P -1
;
_chemical_formula_sum "Si O2"
_cell_formula_units_Z 16
_cell_length_a 18.964452
_cell_length_b 8.714771
_cell_length_c 12.108926
_cell_angle_alpha 79.872351
_cell_angle_beta 49.612479
_cell_angle_gamma 40.387213
_cell_volume 755.834441
_symmetry_space_group_name_H-M "P -1"
_symmetry_group_IT_number 2
_symmetry_cell_setting 'triclinic'
loop_
_space_group_symop_operation_xyz
x,y,z
-x,-y,-z
loop_
_atom_site_type_symbol
_atom_site_label
_atom_site_fract_x
_atom_site_fract_y
_atom_site_fract_z
Si Si1 0.803496 0.931097 0.941493
Si Si2 0.553637 0.573378 0.870371
Si Si3 0.300018 0.132164 0.764309
Si Si4 0.202722 0.380164 0.599377
Si Si5 0.405367 0.270219 0.777570
Si Si6 0.181465 0.774347 0.548078
Si Si7 0.612778 0.486695 0.420552
Si Si8 0.237128 0.646764 0.111218
O O1 0.004679 0.610830 0.723086
O O2 0.760092 0.178915 0.956546
O O3 0.805408 0.860407 0.073615
O O4 0.640694 0.076549 0.022379
O O5 0.689615 0.333447 0.661465
O O6 0.659487 0.531372 0.854187
O O7 0.500000 0.500000 0.000000
O O8 0.188224 0.370791 0.746928
O O9 0.336480 0.205240 0.812599
O O10 0.492836 0.793002 0.564151
O O11 0.227780 0.524874 0.531711
O O12 0.371093 0.042402 0.415430
O O13 0.313230 0.541662 0.762985
O O14 0.342410 0.383981 0.951844
O O15 0.224656 0.788976 0.622718
O O16 0.969502 0.114864 0.693155
O O17 0.500000 0.500000 0.500000
#
# Coordination Sequence:
#
# PCOD8003899 Si02
#       8
#     2   2   2   2   2   2   2   2
#     4  10  20  38  62  88 116 161 207 244 292 357
#     4  10  21  40  64  86 118 157 207 259 297 338
#     4  11  19  39  59  90 127 163 191 242 310 362
#     4  10  20  37  62  87 123 163 196 235 309 372
#     4  11  21  39  57  91 130 155 195 248 303 360
#     4  11  20  42  63  89 118 162 205 244 301 361
#     4  11  21  35  64  90 122 161 198 248 299 360
#     4  10  24  39  62  91 119 160 210 250 289 352
#
# _framework density 21.168655000000001
#
# number of rings (size 3 to 8) (size 9 to 14) (size 15 to 20)
#    0.000    1.500    3.750    2.250    1.750    0.500 
#    6.750    3.125    0.000    0.000    0.000    0.000 
#    0.000    0.000    0.000    0.000    0.000    0.000 
#
# Total GULP energy -198321.995080 kJ/mol
# GULP energy per Si atom -12395.124693 kJ/mol
# Density = 2.112047 g / cm^3
# Si number density = 21.168655 Si / 1000 Ang^3
#
#
#
# Elastic Constant Matrix: (Units=GPa)
#
#
# Indices 1 2 3 4 5 6 
#
# 1 103.5036 26.7308 41.7701 23.3908 -3.8380 -26.6607
# 2 26.7308 62.1639 44.1073 2.3478 -3.2628 -11.3168
# 3 41.7701 44.1073 127.6715 14.0021 -9.7860 -27.7473
# 4 23.3908 2.3478 14.0021 35.8205 -3.0966 -9.6199
# 5 -3.8380 -3.2628 -9.7860 -3.0966 34.5112 2.9991
# 6 -26.6607 -11.3168 -27.7473 -9.6199 2.9991 30.0492
#
#
#
# Elastic Compliance Matrix: (Units=1/GPa)
#
#
# Indices 1 2 3 4 5 6 
#
# 1 0.014779 -0.003910 -0.000879 -0.006743 -0.000337 0.008703
# 2 -0.003910 0.022525 -0.006955 0.003744 0.000078 -0.000217
# 3 -0.000879 -0.006955 0.012462 -0.001691 0.001986 0.007368
# 4 -0.006743 0.003744 -0.001691 0.034129 0.001786 0.004614
# 5 -0.000337 0.000078 0.001986 0.001786 0.029742 -0.000832
# 6 0.008703 -0.000217 0.007368 0.004614 -0.000832 0.049283
#
#
# Mechanical properties :
#
#
# Convention : Reuss Voigt Hill
#
# Bulk Modulus (GPa) = 38.05286 57.61729 47.83507
# Shear Modulus (GPa) = 25.61898 32.12489 28.87194
#
# Velocity S-wave (km/s) = 3.48261 3.89982 3.69711
# Velocity P-wave (km/s) = 5.84692 6.89605 6.39304
#
# Compressibility (1/GPa) = 0.02627923
#
# Stress axis : x y z
#
# Youngs Moduli (GPa) = 67.66274 44.39420 80.24378
#
# Poissons Ratio (x) = 0.17357 0.07057
# Poissons Ratio (y) = 0.26455 0.55806
# Poissons Ratio (z) = 0.05950 0.30874
#
# Static dielectric constant tensor:
#      x y z
#    x 3.844430 -0.498630 -0.210140 
#    y -0.498630 4.163830 -0.018130 
#    z -0.210140 -0.018130 3.818990 
# 
# 
# High freq. dielectric constant tensor:
#      x y z
#    x 1.807120 -0.019470 -0.020500 
#    y -0.019470 1.826500 -0.010380 
#    z -0.020500 -0.010380 1.830610 
# 
# From -- ./inp_files/177362.got.cif
#   From: 2010.06.25/outbox.cif.g09.slc.cpg/sg2_89_cif.got.tgz:177362.got - 2010.06.27 13:26:56.
