data_PCOD8003736
_publ_section_title
;
Structure prediction by ZEFSAII (Michael W. Deem and Ramdas Pophale) SiO2 
 PCOD8003736
Probable space group: P -1
;
_chemical_formula_sum "Si O2"
_cell_formula_units_Z 14
_cell_length_a 5.184337
_cell_length_b 12.840532
_cell_length_c 14.388771
_cell_angle_alpha 134.562636
_cell_angle_beta 74.332606
_cell_angle_gamma 104.565379
_cell_volume 654.411745
_symmetry_space_group_name_H-M "P -1"
_symmetry_group_IT_number 2
_symmetry_cell_setting 'triclinic'
loop_
_space_group_symop_operation_xyz
x,y,z
-x,-y,-z
loop_
_atom_site_type_symbol
_atom_site_label
_atom_site_fract_x
_atom_site_fract_y
_atom_site_fract_z
Si Si1 0.772655 0.695483 0.628363
Si Si2 0.863281 0.973502 0.401014
Si Si3 0.581403 0.246947 0.637972
Si Si4 0.986726 0.190193 0.874776
Si Si5 0.648004 0.388765 0.534090
Si Si6 0.421923 0.663122 0.108869
Si Si7 0.796187 0.990318 0.928852
O O1 0.651665 0.561170 0.620530
O O2 0.567290 0.707277 0.569609
O O3 0.806323 0.840873 0.777177
O O4 0.059780 0.666176 0.541131
O O5 0.701979 0.815076 0.330972
O O6 0.057039 0.950198 0.280310
O O7 0.699402 0.113505 0.486878
O O8 0.000000 0.000000 0.500000
O O9 0.560623 0.371802 0.640416
O O10 0.721241 0.307283 0.758205
O O11 0.804553 0.315697 0.934048
O O12 0.305219 0.236456 0.880794
O O13 0.876508 0.133467 0.948664
O O14 0.500000 0.500000 0.000000
O O15 0.500000 0.000000 0.000000
O O16 0.000000 0.000000 0.000000
#
# Coordination Sequence:
#
# PCOD8003736 Si02
#       7
#     2   2   2   2   2   2   2
#     4  10  23  43  61  92 127 159 218 263 320 365
#     4  10  20  37  60  94 123 151 203 255 313 373
#     4  10  22  34  61  94 122 161 206 246 319 380
#     4  11  24  42  66  91 129 167 208 270 316 362
#     4  10  22  39  65  91 124 168 202 271 320 371
#     4  11  24  43  62  93 131 168 208 252 316 390
#     4  12  26  43  67  94 127 174 223 261 315 383
#
# _framework density 21.393262
#
# number of rings (size 3 to 8) (size 9 to 14) (size 15 to 20)
#    0.000    1.429    1.429    3.000    4.000    2.286 
#    0.000    0.000    0.000    0.000    0.000    0.000 
#    0.000    0.000    0.000    0.000    0.000    0.000 
#
# Total GULP energy -173512.011167 kJ/mol
# GULP energy per Si atom -12393.715083 kJ/mol
# Density = 2.134457 g / cm^3
# Si number density = 21.393262 Si / 1000 Ang^3
#
#
#
# Elastic Constant Matrix: (Units=GPa)
#
#
# Indices 1 2 3 4 5 6 
#
# 1 108.5460 28.5171 14.0700 -13.7391 4.2063 -14.3389
# 2 28.5171 125.2308 44.6414 -27.2895 3.4690 -12.3591
# 3 14.0700 44.6414 70.5419 -6.1994 -0.0284 1.3642
# 4 -13.7391 -27.2895 -6.1994 37.8031 -2.4419 6.0202
# 5 4.2063 3.4690 -0.0284 -2.4419 35.9617 -2.6467
# 6 -14.3389 -12.3591 1.3642 6.0202 -2.6467 23.6794
#
#
#
# Elastic Compliance Matrix: (Units=1/GPa)
#
#
# Indices 1 2 3 4 5 6 
#
# 1 0.010648 -0.000885 -0.001488 0.002075 -0.000617 0.005475
# 2 -0.000885 0.012826 -0.007423 0.006937 -0.000316 0.004787
# 3 -0.001488 -0.007423 0.019108 -0.001889 0.000383 -0.005353
# 4 0.002075 0.006937 -0.001889 0.032476 0.001060 -0.003152
# 5 -0.000617 -0.000316 0.000383 0.001060 0.028153 0.002316
# 6 0.005475 0.004787 -0.005353 -0.003152 0.002316 0.049413
#
#
# Mechanical properties :
#
#
# Convention : Reuss Voigt Hill
#
# Bulk Modulus (GPa) = 43.49608 53.19732 48.34670
# Shear Modulus (GPa) = 27.79662 33.96152 30.87907
#
# Velocity S-wave (km/s) = 3.60851 3.98865 3.80333
# Velocity P-wave (km/s) = 6.14310 6.79211 6.47574
#
# Compressibility (1/GPa) = 0.02299058
#
# Stress axis : x y z
#
# Youngs Moduli (GPa) = 93.91600 77.96803 52.33388
#
# Poissons Ratio (x) = 0.06898 0.07785
# Poissons Ratio (y) = 0.08309 0.38849
# Poissons Ratio (z) = 0.13971 0.57877
#
# Static dielectric constant tensor:
#      x y z
#    x 3.871920 0.067290 0.134620 
#    y 0.067290 3.940650 -0.243480 
#    z 0.134620 -0.243480 3.320810 
# 
# 
# High freq. dielectric constant tensor:
#      x y z
#    x 1.843600 -0.003120 0.002440 
#    y -0.003120 1.846450 -0.007980 
#    z 0.002440 -0.007980 1.835700 
# 
# From -- ./inp_files/65510.got.cif
#   From: 2010.06.25/outbox.cif.g09.slc.cpg/sg2_33_cif.got.tgz:65510.got - 2010.06.27 13:26:56.
