data_PCOD8003347
_publ_section_title
;
Structure prediction by ZEFSAII (Michael W. Deem and Ramdas Pophale) SiO2 
 PCOD8003347
Probable space group: P -1
;
_chemical_formula_sum "Si O2"
_cell_formula_units_Z 14
_cell_length_a 6.753987
_cell_length_b 8.081608
_cell_length_c 10.796904
_cell_angle_alpha 90.143575
_cell_angle_beta 76.630469
_cell_angle_gamma 103.236964
_cell_volume 557.331337
_symmetry_space_group_name_H-M "P -1"
_symmetry_group_IT_number 2
_symmetry_cell_setting 'triclinic'
loop_
_space_group_symop_operation_xyz
x,y,z
-x,-y,-z
loop_
_atom_site_type_symbol
_atom_site_label
_atom_site_fract_x
_atom_site_fract_y
_atom_site_fract_z
Si Si1 0.092648 0.343886 0.450410
Si Si2 0.548535 0.730189 0.124259
Si Si3 0.286522 0.367733 0.170601
Si Si4 0.172531 0.225224 0.701387
Si Si5 0.132053 0.849061 0.720697
Si Si6 0.416542 0.886740 0.886312
Si Si7 0.008061 0.316845 0.956485
O O1 0.281460 0.375953 0.322515
O O2 0.188776 0.275998 0.556842
O O3 0.888837 0.212422 0.419549
O O4 0.000000 0.500000 0.500000
O O5 0.367025 0.564241 0.113799
O O6 0.596683 0.737045 0.265523
O O7 0.486539 0.909716 0.091969
O O8 0.765878 0.713177 0.024024
O O9 0.040364 0.286492 0.170129
O O10 0.440092 0.245166 0.102294
O O11 0.025485 0.320885 0.802491
O O12 0.064613 0.026762 0.732025
O O13 0.364066 0.869252 0.745370
O O14 0.188116 0.833452 0.980518
O O15 0.000000 0.500000 0.000000
#
# Coordination Sequence:
#
# PCOD8003347 Si02
#       7
#     2   2   2   2   2   2   2
#     4  10  23  40  64  93 130 166 212 265 320 378
#     4   9  21  37  64  97 124 166 217 255 320 378
#     4  10  23  40  63  99 128 162 216 270 309 381
#     4   9  20  41  63  91 122 176 211 251 324 380
#     4   9  23  40  65  93 127 166 213 262 320 374
#     4  11  20  44  67  92 128 173 210 260 324 378
#     4  10  20  36  72  90 128 171 211 262 317 382
#
# _framework density 25.119709
#
# number of rings (size 3 to 8) (size 9 to 14) (size 15 to 20)
#    1.714    0.571    1.429    0.857    4.000    1.714 
#    0.000    2.857    3.143    0.000    0.000    0.000 
#    0.000    0.000    0.000    0.000    0.000    0.000 
#
# Total GULP energy -173439.673429 kJ/mol
# GULP energy per Si atom -12388.548102 kJ/mol
# Density = 2.506254 g / cm^3
# Si number density = 25.119709 Si / 1000 Ang^3
#
#
#
# Elastic Constant Matrix: (Units=GPa)
#
#
# Indices 1 2 3 4 5 6 
#
# 1 111.5426 66.1509 39.1210 6.7129 18.4851 -3.6935
# 2 66.1509 193.1218 59.8581 20.1893 16.3745 0.6231
# 3 39.1210 59.8581 114.6996 17.4242 9.8784 -5.9921
# 4 6.7129 20.1893 17.4242 48.7952 -2.3082 5.8350
# 5 18.4851 16.3745 9.8784 -2.3082 35.7887 -0.6055
# 6 -3.6935 0.6231 -5.9921 5.8350 -0.6055 43.0850
#
#
#
# Elastic Compliance Matrix: (Units=1/GPa)
#
#
# Indices 1 2 3 4 5 6 
#
# 1 0.012355 -0.003217 -0.002143 0.000105 -0.004299 0.000733
# 2 -0.003217 0.007295 -0.002376 -0.001722 -0.001140 -0.000494
# 3 -0.002143 -0.002376 0.011341 -0.003042 -0.001102 0.001825
# 4 0.000105 -0.001722 -0.003042 0.022831 0.002988 -0.003439
# 5 -0.004299 -0.001140 -0.001102 0.002988 0.031173 -0.000472
# 6 0.000733 -0.000494 0.001825 -0.003439 -0.000472 0.023993
#
#
# Mechanical properties :
#
#
# Convention : Reuss Voigt Hill
#
# Bulk Modulus (GPa) = 64.43055 83.29157 73.86106
# Shear Modulus (GPa) = 38.57112 42.48269 40.52690
#
# Velocity S-wave (km/s) = 3.92279 4.11689 4.02101
# Velocity P-wave (km/s) = 6.79873 7.47183 7.14321
#
# Compressibility (1/GPa) = 0.01552059
#
# Stress axis : x y z
#
# Youngs Moduli (GPa) = 80.94083 137.08918 88.17197
#
# Poissons Ratio (x) = 0.44097 0.18892
# Poissons Ratio (y) = 0.26036 0.20947
# Poissons Ratio (z) = 0.17343 0.32569
#
# Static dielectric constant tensor:
#      x y z
#    x 4.654130 -0.009030 0.863460 
#    y -0.009030 4.519360 0.089160 
#    z 0.863460 0.089160 5.262090 
# 
# 
# High freq. dielectric constant tensor:
#      x y z
#    x 1.995240 -0.003230 0.046710 
#    y -0.003230 2.009810 0.016280 
#    z 0.046710 0.016280 2.024630 
# 
# From -- ./inp_files/379873.got.cif
#   From: 2010.06.25/outbox.cif.g09.slc.cpg/sg2_190_cif.got.tgz:379873.got - 2010.06.27 13:26:56.
