data_PCOD8003076
_publ_section_title
;
Structure prediction by ZEFSAII (Michael W. Deem and Ramdas Pophale) SiO2 
 PCOD8003076
Probable space group: P -1
;
_chemical_formula_sum "Si O2"
_cell_formula_units_Z 12
_cell_length_a 8.679838
_cell_length_b 9.525504
_cell_length_c 12.915060
_cell_angle_alpha 80.068074
_cell_angle_beta 128.945760
_cell_angle_gamma 134.567642
_cell_volume 517.468661
_symmetry_space_group_name_H-M "P -1"
_symmetry_group_IT_number 2
_symmetry_cell_setting 'triclinic'
loop_
_space_group_symop_operation_xyz
x,y,z
-x,-y,-z
loop_
_atom_site_type_symbol
_atom_site_label
_atom_site_fract_x
_atom_site_fract_y
_atom_site_fract_z
Si Si1 0.246146 0.185825 0.865160
Si Si2 0.855209 0.494061 0.539101
Si Si3 0.073914 0.693654 0.957318
Si Si4 0.697247 0.754133 0.794824
Si Si5 0.773275 0.508887 0.196769
Si Si6 0.242546 0.895663 0.784524
O O1 0.140862 0.280588 0.765770
O O2 0.205580 0.041881 0.779643
O O3 0.610080 0.399911 0.029148
O O4 0.016079 0.022537 0.885354
O O5 0.495353 0.334717 0.384377
O O6 0.000000 0.500000 0.500000
O O7 0.912085 0.411133 0.667575
O O8 0.033690 0.739791 0.616242
O O9 0.139501 0.733220 0.855964
O O10 0.782780 0.635678 0.866053
O O11 0.000000 0.500000 0.000000
O O12 0.395439 0.932531 0.113619
O O13 0.485057 0.693364 0.805529
#
# Coordination Sequence:
#
# PCOD8003076 Si02
#       6
#     2   2   2   2   2   2
#     4  10  21  36  62  86 109 148 191 237 282 332
#     4  10  22  40  58  81 120 157 186 233 288 337
#     4  10  20  36  62  89 111 146 193 239 283 335
#     4  10  21  36  56  83 115 152 189 228 281 341
#     4  10  20  38  58  85 116 145 188 236 283 334
#     4  10  21  40  59  84 119 149 186 239 288 331
#
# _framework density 23.189810999999999
#
# number of rings (size 3 to 8) (size 9 to 14) (size 15 to 20)
#    0.000    2.000    0.000    4.500    0.000    6.000 
#    0.000   10.833    0.000    0.000    0.000    0.000 
#    0.000    0.000    0.000    0.000    0.000    0.000 
#
# Total GULP energy -148675.903651 kJ/mol
# GULP energy per Si atom -12389.658638 kJ/mol
# Density = 2.313703 g / cm^3
# Si number density = 23.189811 Si / 1000 Ang^3
#
#
#
# Elastic Constant Matrix: (Units=GPa)
#
#
# Indices 1 2 3 4 5 6 
#
# 1 45.0462 31.5596 8.3812 2.4287 2.2070 -20.0899
# 2 31.5596 112.0110 43.7027 -2.3584 1.5923 -35.1817
# 3 8.3812 43.7027 108.4048 -0.3151 12.7181 -22.0192
# 4 2.4287 -2.3584 -0.3151 25.6725 -14.2683 3.7065
# 5 2.2070 1.5923 12.7181 -14.2683 40.0993 0.6794
# 6 -20.0899 -35.1817 -22.0192 3.7065 0.6794 43.2453
#
#
#
# Elastic Compliance Matrix: (Units=1/GPa)
#
#
# Indices 1 2 3 4 5 6 
#
# 1 0.032463 -0.006735 0.003332 -0.008659 -0.005863 0.012133
# 2 -0.006735 0.014470 -0.004232 0.001969 0.001732 0.006292
# 3 0.003332 -0.004232 0.012289 -0.004324 -0.005533 0.004820
# 4 -0.008659 0.001969 -0.004324 0.052777 0.020710 -0.009471
# 5 -0.005863 0.001732 -0.005533 0.020710 0.034425 -0.006447
# 6 0.012133 0.006292 0.004820 -0.009471 -0.006447 0.037246
#
#
# Mechanical properties :
#
#
# Convention : Reuss Voigt Hill
#
# Bulk Modulus (GPa) = 22.75210 48.08322 35.41766
# Shear Modulus (GPa) = 23.40940 33.92465 28.66702
#
# Velocity S-wave (km/s) = 3.18066 3.82895 3.51976
# Velocity P-wave (km/s) = 4.82922 6.35039 5.64131
#
# Compressibility (1/GPa) = 0.04395199
#
# Stress axis : x y z
#
# Youngs Moduli (GPa) = 30.80426 69.11040 81.37514
#
# Poissons Ratio (x) = 0.46546 -0.27117
# Poissons Ratio (y) = 0.20747 0.34439
# Poissons Ratio (z) = -0.10265 0.29248
#
# Static dielectric constant tensor:
#      x y z
#    x 4.039870 -0.122000 0.322790 
#    y -0.122000 4.079520 -0.075350 
#    z 0.322790 -0.075350 4.833920 
# 
# 
# High freq. dielectric constant tensor:
#      x y z
#    x 1.908020 -0.021630 0.011860 
#    y -0.021630 1.904800 -0.000140 
#    z 0.011860 -0.000140 1.912240 
# 
# From -- ./inp_files/245230.got.cif
#   From: 2010.06.25/outbox.cif.g09.slc.cpg/sg2_123_cif.got.tgz:245230.got - 2010.06.27 13:26:56.
