data_PCOD8003221
_publ_section_title
;
Structure prediction by ZEFSAII (Michael W. Deem and Ramdas Pophale) SiO2 
 PCOD8003221
Probable space group: P -1
;
_chemical_formula_sum "Si O2"
_cell_formula_units_Z 16
_cell_length_a 6.395691
_cell_length_b 18.681834
_cell_length_c 14.595770
_cell_angle_alpha 151.704604
_cell_angle_beta 115.961909
_cell_angle_gamma 74.774000
_cell_volume 711.697601
_symmetry_space_group_name_H-M "P -1"
_symmetry_group_IT_number 2
_symmetry_cell_setting 'triclinic'
loop_
_space_group_symop_operation_xyz
x,y,z
-x,-y,-z
loop_
_atom_site_type_symbol
_atom_site_label
_atom_site_fract_x
_atom_site_fract_y
_atom_site_fract_z
Si Si1 0.131395 0.044874 0.927017
Si Si2 0.141319 0.439322 0.035685
Si Si3 0.696476 0.856727 0.293593
Si Si4 0.468548 0.648376 0.714397
Si Si5 0.151585 0.666252 0.971797
Si Si6 0.373177 0.474742 0.677917
Si Si7 0.947059 0.212173 0.232701
Si Si8 0.975328 0.949361 0.280113
O O1 0.031400 0.958047 0.712351
O O2 0.181796 0.909688 0.848897
O O3 0.369394 0.183860 0.101645
O O4 0.946876 0.117603 0.030898
O O5 0.421077 0.542311 0.228790
O O6 0.965602 0.443115 0.090035
O O7 0.141289 0.264373 0.809865
O O8 0.000000 0.500000 0.000000
O O9 0.746192 0.936200 0.290335
O O10 0.784663 0.976573 0.529945
O O11 0.419373 0.775587 0.168492
O O12 0.500000 0.500000 0.500000
O O13 0.517422 0.607303 0.782356
O O14 0.194231 0.658252 0.663765
O O15 0.164403 0.543988 0.757517
O O16 0.983039 0.780192 0.047613
O O17 0.228998 0.304858 0.416730
#
# Coordination Sequence:
#
# PCOD8003221 Si02
#       8
#     2   2   2   2   2   2   2   2
#     4  11  24  43  63  96 138 172 217 275 338 394
#     4  10  23  40  60  93 130 164 216 273 327 391
#     4   9  20  38  58  93 121 166 224 269 323 392
#     4  12  24  42  71  94 130 176 225 276 321 390
#     4  10  20  36  64  87 126 162 223 272 315 389
#     4  11  24  41  67  99 123 176 226 264 332 394
#     4  11  26  43  63  99 138 173 222 276 334 398
#     4  10  20  37  62  88 126 170 214 270 328 390
#
# _framework density 22.481458
#
# number of rings (size 3 to 8) (size 9 to 14) (size 15 to 20)
#    0.000    1.500    1.250    4.125    3.500    4.000 
#    0.000    0.000    0.000    0.000    0.000    0.000 
#    0.000    0.000    0.000    0.000    0.000    0.000 
#
# Total GULP energy -198228.897072 kJ/mol
# GULP energy per Si atom -12389.306067 kJ/mol
# Density = 2.243029 g / cm^3
# Si number density = 22.481458 Si / 1000 Ang^3
#
#
#
# Elastic Constant Matrix: (Units=GPa)
#
#
# Indices 1 2 3 4 5 6 
#
# 1 81.7220 30.0762 17.6122 -5.5115 -5.6240 6.0960
# 2 30.0762 120.9036 24.1356 -9.7557 -5.8728 12.3076
# 3 17.6122 24.1356 75.5393 -8.0223 4.9887 6.5382
# 4 -5.5115 -9.7557 -8.0223 33.2739 6.9291 -1.4087
# 5 -5.6240 -5.8728 4.9887 6.9291 43.9263 -1.0127
# 6 6.0960 12.3076 6.5382 -1.4087 -1.0127 40.0872
#
#
#
# Elastic Compliance Matrix: (Units=1/GPa)
#
#
# Indices 1 2 3 4 5 6 
#
# 1 0.013980 -0.002806 -0.002335 0.000568 0.001571 -0.000824
# 2 -0.002806 0.009795 -0.002179 0.001605 0.000895 -0.002146
# 3 -0.002335 -0.002179 0.015122 0.003152 -0.002837 -0.001403
# 4 0.000568 0.001605 0.003152 0.032456 -0.005192 -0.000084
# 5 0.001571 0.000895 -0.002837 -0.005192 0.024236 0.000379
# 6 -0.000824 -0.002146 -0.001403 -0.000084 0.000379 0.025965
#
#
# Mechanical properties :
#
#
# Convention : Reuss Voigt Hill
#
# Bulk Modulus (GPa) = 41.22142 46.86810 44.04476
# Shear Modulus (GPa) = 34.65471 37.21353 35.93412
#
# Velocity S-wave (km/s) = 3.93043 4.07295 4.00232
# Velocity P-wave (km/s) = 6.24285 6.55830 6.40252
#
# Compressibility (1/GPa) = 0.02425923
#
# Stress axis : x y z
#
# Youngs Moduli (GPa) = 71.52901 102.08959 66.12772
#
# Poissons Ratio (x) = 0.28642 0.15443
# Poissons Ratio (y) = 0.20068 0.14406
# Poissons Ratio (z) = 0.16704 0.22240
#
# Static dielectric constant tensor:
#      x y z
#    x 4.176480 0.407940 -0.214020 
#    y 0.407940 4.268140 -0.239370 
#    z -0.214020 -0.239370 4.158020 
# 
# 
# High freq. dielectric constant tensor:
#      x y z
#    x 1.892670 0.016940 -0.001500 
#    y 0.016940 1.875010 -0.011670 
#    z -0.001500 -0.011670 1.882980 
# 
# From -- ./inp_files/98156.got.cif
#   From: 2010.06.25/outbox.cif.g09.slc.cpg/sg2_50_cif.got.tgz:98156.got - 2010.06.27 13:26:56.
