data_PCOD8003230
_publ_section_title
;
Structure prediction by ZEFSAII (Michael W. Deem and Ramdas Pophale) SiO2 
 PCOD8003230
Probable space group: P -1
;
_chemical_formula_sum "Si O2"
_cell_formula_units_Z 14
_cell_length_a 15.582466
_cell_length_b 16.383148
_cell_length_c 10.911029
_cell_angle_alpha 71.103649
_cell_angle_beta 100.634130
_cell_angle_gamma 161.707301
_cell_volume 752.928345
_symmetry_space_group_name_H-M "P -1"
_symmetry_group_IT_number 2
_symmetry_cell_setting 'triclinic'
loop_
_space_group_symop_operation_xyz
x,y,z
-x,-y,-z
loop_
_atom_site_type_symbol
_atom_site_label
_atom_site_fract_x
_atom_site_fract_y
_atom_site_fract_z
Si Si1 0.547587 0.131649 0.825904
Si Si2 0.800110 0.547380 0.674637
Si Si3 0.849137 0.495930 0.941486
Si Si4 0.591387 0.261756 0.255245
Si Si5 0.739184 0.917471 0.598919
Si Si6 0.115955 0.677526 0.347080
Si Si7 0.620313 0.522250 0.480365
O O1 0.673212 0.336523 0.690229
O O2 0.683278 0.176880 0.774769
O O3 0.660428 0.241766 0.944808
O O4 0.190786 0.788406 0.894370
O O5 0.580747 0.417734 0.635344
O O6 0.817112 0.554063 0.824092
O O7 0.134759 0.883356 0.547415
O O8 0.721078 0.394781 0.089240
O O9 0.475862 0.246720 0.273651
O O10 0.841566 0.467330 0.315246
O O11 0.316995 0.936165 0.346095
O O12 0.558529 0.678224 0.587381
O O13 0.024856 0.137332 0.626551
O O14 0.000000 0.500000 0.500000
O O15 0.500000 0.500000 0.500000
#
# Coordination Sequence:
#
# PCOD8003230 Si02
#       7
#     2   2   2   2   2   2   2
#     4  10  21  38  56  79 115 155 195 237 279 319
#     4   8  21  35  62  81 115 147 186 236 282 332
#     4  10  22  37  58  80 113 159 193 231 283 334
#     4  12  25  39  57  86 115 157 191 234 286 333
#     4  10  21  37  61  83 120 142 185 235 288 335
#     4  12  26  37  58  83 117 152 203 239 280 323
#     4  10  20  36  64  92 110 142 187 234 283 345
#
# _framework density 18.594066000000002
#
# number of rings (size 3 to 8) (size 9 to 14) (size 15 to 20)
#    1.714    0.000    0.000    5.143    4.000    3.429 
#    0.000    0.000    0.000    1.714    0.000    0.000 
#    0.000    0.000    0.000    0.000    0.000    0.000 
#
# Total GULP energy -173491.872790 kJ/mol
# GULP energy per Si atom -12392.276628 kJ/mol
# Density = 1.855175 g / cm^3
# Si number density = 18.594066 Si / 1000 Ang^3
#
#
#
# Elastic Constant Matrix: (Units=GPa)
#
#
# Indices 1 2 3 4 5 6 
#
# 1 116.2302 43.5744 15.5126 2.5593 -28.8870 4.5637
# 2 43.5744 179.7830 22.2261 17.6938 -17.5434 0.7820
# 3 15.5126 22.2261 57.8060 10.9458 -21.0777 3.1968
# 4 2.5593 17.6938 10.9458 34.3068 2.9805 -8.0515
# 5 -28.8870 -17.5434 -21.0777 2.9805 26.6066 2.1814
# 6 4.5637 0.7820 3.1968 -8.0515 2.1814 30.4629
#
#
#
# Elastic Compliance Matrix: (Units=1/GPa)
#
#
# Indices 1 2 3 4 5 6 
#
# 1 0.013360 -0.001602 0.004737 -0.004408 0.018098 -0.004919
# 2 -0.001602 0.006642 -0.000298 -0.003720 0.002910 -0.001091
# 3 0.004737 -0.000298 0.031513 -0.015528 0.032506 -0.010441
# 4 -0.004408 -0.003720 -0.015528 0.042173 -0.025524 0.015360
# 5 0.018098 0.002910 0.032506 -0.025524 0.089349 -0.019342
# 6 -0.004919 -0.001091 -0.010441 0.015360 -0.019342 0.040132
#
#
# Mechanical properties :
#
#
# Convention : Reuss Voigt Hill
#
# Bulk Modulus (GPa) = 17.48626 57.38282 37.43454
# Shear Modulus (GPa) = 21.13624 36.44232 28.78928
#
# Velocity S-wave (km/s) = 3.37518 4.43187 3.93912
# Velocity P-wave (km/s) = 4.96123 7.55754 6.39258
#
# Compressibility (1/GPa) = 0.05718776
#
# Stress axis : x y z
#
# Youngs Moduli (GPa) = 74.84780 150.55012 31.73274
#
# Poissons Ratio (x) = 0.24126 -0.15031
# Poissons Ratio (y) = 0.11994 0.00946
# Poissons Ratio (z) = -0.35453 0.04490
#
# Static dielectric constant tensor:
#      x y z
#    x 3.184610 0.012280 -0.027570 
#    y 0.012280 3.610150 -0.021240 
#    z -0.027570 -0.021240 3.256680 
# 
# 
# High freq. dielectric constant tensor:
#      x y z
#    x 1.699530 0.005580 -0.004650 
#    y 0.005580 1.742870 -0.001590 
#    z -0.004650 -0.001590 1.704500 
# 
# From -- ./inp_files/136257.got.cif
#   From: 2010.06.25/outbox.cif.g09.slc.cpg/sg2_69_cif.got.tgz:136257.got - 2010.06.27 13:26:56.
