data_PCOD8003791
_publ_section_title
;
Structure prediction by ZEFSAII (Michael W. Deem and Ramdas Pophale) SiO2 
 PCOD8003791
Probable space group: P -1
;
_chemical_formula_sum "Si O2"
_cell_formula_units_Z 14
_cell_length_a 8.007503
_cell_length_b 12.257305
_cell_length_c 9.009272
_cell_angle_alpha 91.323519
_cell_angle_beta 131.027216
_cell_angle_gamma 87.983933
_cell_volume 666.673725
_symmetry_space_group_name_H-M "P -1"
_symmetry_group_IT_number 2
_symmetry_cell_setting 'triclinic'
loop_
_space_group_symop_operation_xyz
x,y,z
-x,-y,-z
loop_
_atom_site_type_symbol
_atom_site_label
_atom_site_fract_x
_atom_site_fract_y
_atom_site_fract_z
Si Si1 0.267488 0.217581 0.023468
Si Si2 0.747655 0.459011 0.671592
Si Si3 0.957641 0.349730 0.068025
Si Si4 0.733375 0.220589 0.193020
Si Si5 0.198300 0.970125 0.963189
Si Si6 0.108656 0.748245 0.408658
Si Si7 0.275601 0.940981 0.328879
O O1 0.137669 0.239589 0.796604
O O2 0.296327 0.087947 0.057643
O O3 0.507497 0.268540 0.138426
O O4 0.142379 0.272528 0.092043
O O5 0.500000 0.500000 0.500000
O O6 0.801732 0.374611 0.568536
O O7 0.915726 0.558020 0.764785
O O8 0.782207 0.400456 0.849566
O O9 0.815006 0.285775 0.101236
O O10 0.691422 0.095858 0.111781
O O11 0.913393 0.225327 0.429050
O O12 0.253755 0.901256 0.143654
O O13 0.936966 0.977431 0.769382
O O14 0.268598 0.833894 0.423937
O O15 0.500000 0.000000 0.500000
#
# Coordination Sequence:
#
# PCOD8003791 Si02
#       7
#     2   2   2   2   2   2   2
#     4  10  22  42  59  86 128 157 194 248 292 347
#     4  10  21  42  65  85 117 157 197 250 302 347
#     4  10  23  41  63  89 116 155 203 243 297 360
#     4  12  23  38  63  91 122 159 195 243 298 348
#     4  10  21  36  58  89 123 161 200 235 290 360
#     4  10  23  38  57  90 122 153 202 246 290 360
#     4  10  20  37  61  87 122 162 199 242 291 347
#
# _framework density 20.999779
#
# number of rings (size 3 to 8) (size 9 to 14) (size 15 to 20)
#    0.000    1.714    0.000    5.571    0.000    6.286 
#    0.000   10.000    0.000    0.000    0.000    0.000 
#    0.000    0.000    0.000    0.000    0.000    0.000 
#
# Total GULP energy -173557.224595 kJ/mol
# GULP energy per Si atom -12396.944614 kJ/mol
# Density = 2.095198 g / cm^3
# Si number density = 20.999779 Si / 1000 Ang^3
#
#
#
# Elastic Constant Matrix: (Units=GPa)
#
#
# Indices 1 2 3 4 5 6 
#
# 1 114.2725 43.0389 43.0630 -1.1944 -5.2230 6.9527
# 2 43.0389 115.6724 40.7459 9.8416 -14.0792 -3.3166
# 3 43.0630 40.7459 92.0464 7.3355 -9.1851 0.4733
# 4 -1.1944 9.8416 7.3355 27.7986 -1.4151 -0.6536
# 5 -5.2230 -14.0792 -9.1851 -1.4151 36.3126 6.2071
# 6 6.9527 -3.3166 0.4733 -0.6536 6.2071 21.4751
#
#
#
# Elastic Compliance Matrix: (Units=1/GPa)
#
#
# Indices 1 2 3 4 5 6 
#
# 1 0.011885 -0.003234 -0.004303 0.002701 0.000195 -0.004226
# 2 -0.003234 0.011613 -0.003102 -0.003243 0.002784 0.002006
# 3 -0.004303 -0.003102 0.014656 -0.002864 0.001775 -0.000009
# 4 0.002701 -0.003243 -0.002864 0.037985 -0.000091 -0.000130
# 5 0.000195 0.002784 0.001775 -0.000091 0.030545 -0.008504
# 6 -0.004226 0.002006 -0.000009 -0.000130 -0.008504 0.050698
#
#
# Mechanical properties :
#
#
# Convention : Reuss Voigt Hill
#
# Bulk Modulus (GPa) = 59.25339 63.96521 61.60930
# Shear Modulus (GPa) = 27.13199 30.12683 28.62941
#
# Velocity S-wave (km/s) = 3.59836 3.79176 3.69632
# Velocity P-wave (km/s) = 6.74846 7.04954 6.90064
#
# Compressibility (1/GPa) = 0.01687667
#
# Stress axis : x y z
#
# Youngs Moduli (GPa) = 84.14184 86.10877 68.23266
#
# Poissons Ratio (x) = 0.27844 0.29359
# Poissons Ratio (y) = 0.27208 0.21166
# Poissons Ratio (z) = 0.36205 0.26711
#
# Static dielectric constant tensor:
#      x y z
#    x 3.620790 -0.098540 -0.026460 
#    y -0.098540 3.991650 0.098210 
#    z -0.026460 0.098210 3.884620 
# 
# 
# High freq. dielectric constant tensor:
#      x y z
#    x 1.805090 -0.002010 0.001030 
#    y -0.002010 1.823830 0.007820 
#    z 0.001030 0.007820 1.835770 
# 
# From -- ./inp_files/187987.got.cif
#   From: 2010.06.25/outbox.cif.g09.slc.cpg/sg2_94_cif.got.tgz:187987.got - 2010.06.27 13:26:56.
