data_PCOD8003537
_publ_section_title
;
Structure prediction by ZEFSAII (Michael W. Deem and Ramdas Pophale) SiO2 
 PCOD8003537
Probable space group: P -1
;
_chemical_formula_sum "Si O2"
_cell_formula_units_Z 14
_cell_length_a 18.591648
_cell_length_b 9.369213
_cell_length_c 9.041787
_cell_angle_alpha 121.989251
_cell_angle_beta 122.032061
_cell_angle_gamma 107.355956
_cell_volume 670.823406
_symmetry_space_group_name_H-M "P -1"
_symmetry_group_IT_number 2
_symmetry_cell_setting 'triclinic'
loop_
_space_group_symop_operation_xyz
x,y,z
-x,-y,-z
loop_
_atom_site_type_symbol
_atom_site_label
_atom_site_fract_x
_atom_site_fract_y
_atom_site_fract_z
Si Si1 0.581886 0.763116 0.131741
Si Si2 0.487435 0.302743 0.302821
Si Si3 0.617038 0.182891 0.358984
Si Si4 0.096953 0.780844 0.354365
Si Si5 0.954032 0.166185 0.163952
Si Si6 0.059130 0.233689 0.004680
Si Si7 0.174782 0.785898 0.756071
O O1 0.589781 0.971526 0.313948
O O2 0.740690 0.949772 0.378454
O O3 0.500000 0.500000 0.000000
O O4 0.489685 0.627341 0.806913
O O5 0.500000 0.500000 0.500000
O O6 0.595891 0.330851 0.498922
O O7 0.331066 0.978649 0.985374
O O8 0.780904 0.434365 0.618108
O O9 0.500000 0.000000 0.000000
O O10 0.090718 0.731241 0.493925
O O11 0.000000 0.500000 0.000000
O O12 0.019698 0.836386 0.270665
O O13 0.962057 0.151783 0.988539
O O14 0.094839 0.487756 0.555031
O O15 0.822261 0.073332 0.027494
O O16 0.937311 0.960131 0.108386
#
# Coordination Sequence:
#
# PCOD8003537 Si02
#       7
#     2   2   2   2   2   2   2
#     4  10  22  38  60  87 115 153 200 239 287 346
#     4  10  21  39  61  82 117 156 192 233 296 349
#     4  10  20  37  59  82 118 154 193 238 290 346
#     4  11  20  38  60  81 122 155 188 235 298 349
#     4  10  21  35  57  88 114 142 199 244 276 344
#     4  11  21  36  61  88 111 155 198 236 291 348
#     4  10  21  39  56  85 120 151 185 243 296 335
#
# _framework density 20.869873999999999
#
# number of rings (size 3 to 8) (size 9 to 14) (size 15 to 20)
#    0.000    1.714    2.857    2.571    0.000    7.429 
#    0.000    0.714    0.000    0.000    0.000    0.000 
#    0.000    0.000    0.000    0.000    0.000    0.000 
#
# Total GULP energy -173436.033508 kJ/mol
# GULP energy per Si atom -12388.288108 kJ/mol
# Density = 2.082237 g / cm^3
# Si number density = 20.869874 Si / 1000 Ang^3
#
#
#
# Elastic Constant Matrix: (Units=GPa)
#
#
# Indices 1 2 3 4 5 6 
#
# 1 86.5212 47.3062 17.1336 6.4079 -5.3159 -10.5533
# 2 47.3062 146.1788 39.1589 28.8937 10.5562 -17.9838
# 3 17.1336 39.1589 64.5364 1.4705 11.2575 -4.3070
# 4 6.4079 28.8937 1.4705 22.3474 -9.2075 -1.1607
# 5 -5.3159 10.5562 11.2575 -9.2075 29.6472 7.3594
# 6 -10.5533 -17.9838 -4.3070 -1.1607 7.3594 38.2821
#
#
#
# Elastic Compliance Matrix: (Units=1/GPa)
#
#
# Indices 1 2 3 4 5 6 
#
# 1 0.015468 -0.006779 -0.001667 0.007868 0.008383 -0.000481
# 2 -0.006779 0.017958 -0.005106 -0.027168 -0.016163 0.008276
# 3 -0.001667 -0.005106 0.019845 0.003753 -0.004961 0.000442
# 4 0.007868 -0.027168 0.003753 0.094186 0.042767 -0.015538
# 5 0.008383 -0.016163 -0.004961 0.042767 0.060152 -0.016107
# 6 -0.000481 0.008276 0.000442 -0.015538 -0.016107 0.032552
#
#
# Mechanical properties :
#
#
# Convention : Reuss Voigt Hill
#
# Bulk Modulus (GPa) = 38.21545 56.04820 47.13182
# Shear Modulus (GPa) = 18.11675 30.96453 24.54064
#
# Velocity S-wave (km/s) = 2.94952 3.85605 3.43284
# Velocity P-wave (km/s) = 5.47271 6.83666 6.19235
#
# Compressibility (1/GPa) = 0.02616743
#
# Stress axis : x y z
#
# Youngs Moduli (GPa) = 64.64906 55.68541 50.39029
#
# Poissons Ratio (x) = 0.37749 0.08400
# Poissons Ratio (y) = 0.43826 0.25729
# Poissons Ratio (z) = 0.10777 0.28432
#
# Static dielectric constant tensor:
#      x y z
#    x 4.397900 -0.441300 0.379290 
#    y -0.441300 4.236650 -0.017910 
#    z 0.379290 -0.017910 3.920930 
# 
# 
# High freq. dielectric constant tensor:
#      x y z
#    x 1.816870 -0.021150 0.012500 
#    y -0.021150 1.820250 0.024540 
#    z 0.012500 0.024540 1.799690 
# 
# From -- ./inp_files/185679.got.cif
#   From: 2010.06.25/outbox.cif.g09.slc.cpg/sg2_93_cif.got.tgz:185679.got - 2010.06.27 13:26:56.
