data_PCOD8003767
_publ_section_title
;
Structure prediction by ZEFSAII (Michael W. Deem and Ramdas Pophale) SiO2 
 PCOD8003767
Probable space group: P -1
;
_chemical_formula_sum "Si O2"
_cell_formula_units_Z 14
_cell_length_a 17.402431
_cell_length_b 8.982751
_cell_length_c 8.987805
_cell_angle_alpha 132.037419
_cell_angle_beta 60.014926
_cell_angle_gamma 139.363994
_cell_volume 679.476324
_symmetry_space_group_name_H-M "P -1"
_symmetry_group_IT_number 2
_symmetry_cell_setting 'triclinic'
loop_
_space_group_symop_operation_xyz
x,y,z
-x,-y,-z
loop_
_atom_site_type_symbol
_atom_site_label
_atom_site_fract_x
_atom_site_fract_y
_atom_site_fract_z
Si Si1 0.154746 0.352337 0.665952
Si Si2 0.903249 0.105721 0.768796
Si Si3 0.635118 0.324812 0.880687
Si Si4 0.250689 0.132956 0.965036
Si Si5 0.732841 0.746926 0.287624
Si Si6 0.627939 0.033093 0.117720
Si Si7 0.717146 0.050573 0.734825
O O1 0.162067 0.225251 0.721141
O O2 0.275228 0.653788 0.731036
O O3 0.044791 0.341489 0.783454
O O4 0.134414 0.176549 0.427789
O O5 0.846236 0.187479 0.768728
O O6 0.859409 0.071799 0.957297
O O7 0.717663 0.251900 0.769059
O O8 0.501570 0.068294 0.794186
O O9 0.694799 0.561487 0.859073
O O10 0.633213 0.443606 0.120421
O O11 0.212613 0.052170 0.773617
O O12 0.352888 0.124232 0.895124
O O13 0.674157 0.806238 0.506030
O O14 0.630433 0.954265 0.893351
#
# Coordination Sequence:
#
# PCOD8003767 Si02
#       7
#     2   2   2   2   2   2   2
#     4  10  20  39  61  88 111 153 193 244 275 343
#     4   9  21  40  61  83 118 146 200 236 287 332
#     4  10  21  39  57  86 123 148 187 238 283 346
#     4   9  21  38  55  84 120 153 182 241 283 340
#     4   9  21  38  56  87 120 147 193 228 294 334
#     4  11  20  37  61  85 117 150 196 230 289 337
#     4  10  20  37  61  86 111 159 189 234 282 342
#
# _framework density 20.604102999999999
#
# number of rings (size 3 to 8) (size 9 to 14) (size 15 to 20)
#    0.857    1.429    1.429    0.857    0.000    4.571 
#    5.143    1.429    0.000    6.000    0.000    0.000 
#    0.000    0.000    0.000    0.000    0.000    0.000 
#
# Total GULP energy -173456.214646 kJ/mol
# GULP energy per Si atom -12389.729618 kJ/mol
# Density = 2.055721 g / cm^3
# Si number density = 20.604103 Si / 1000 Ang^3
#
#
#
# Elastic Constant Matrix: (Units=GPa)
#
#
# Indices 1 2 3 4 5 6 
#
# 1 138.3208 46.5989 19.2180 1.8826 -11.6536 -20.9611
# 2 46.5989 67.9185 18.0767 10.8674 2.2555 -0.5905
# 3 19.2180 18.0767 55.1928 8.6432 2.0079 4.7227
# 4 1.8826 10.8674 8.6432 24.9372 -3.7306 2.4211
# 5 -11.6536 2.2555 2.0079 -3.7306 27.8312 1.5644
# 6 -20.9611 -0.5905 4.7227 2.4211 1.5644 30.1687
#
#
#
# Elastic Compliance Matrix: (Units=1/GPa)
#
#
# Indices 1 2 3 4 5 6 
#
# 1 0.012113 -0.008248 -0.003031 0.003844 0.006019 0.008109
# 2 -0.008248 0.022668 -0.002610 -0.008886 -0.006077 -0.003850
# 3 -0.003031 -0.002610 0.021514 -0.006089 -0.003152 -0.004873
# 4 0.003844 -0.008886 -0.006089 0.047241 0.009147 -0.000816
# 5 0.006019 -0.006077 -0.003152 0.009147 0.040300 0.001732
# 6 0.008109 -0.003850 -0.004873 -0.000816 0.001732 0.039444
#
#
# Mechanical properties :
#
#
# Convention : Reuss Voigt Hill
#
# Bulk Modulus (GPa) = 35.06828 47.69105 41.37967
# Shear Modulus (GPa) = 22.66933 28.42333 25.54633
#
# Velocity S-wave (km/s) = 3.32058 3.71819 3.52499
# Velocity P-wave (km/s) = 5.63548 6.45212 6.05758
#
# Compressibility (1/GPa) = 0.02851580
#
# Stress axis : x y z
#
# Youngs Moduli (GPa) = 82.55575 44.11574 46.48232
#
# Poissons Ratio (x) = 0.36389 0.14088
# Poissons Ratio (y) = 0.68096 0.12131
# Poissons Ratio (z) = 0.25022 0.11514
#
# Static dielectric constant tensor:
#      x y z
#    x 3.996080 -0.204740 -0.010220 
#    y -0.204740 3.221730 0.034100 
#    z -0.010220 0.034100 3.669680 
# 
# 
# High freq. dielectric constant tensor:
#      x y z
#    x 1.823990 -0.015370 -0.002990 
#    y -0.015370 1.764490 0.007220 
#    z -0.002990 0.007220 1.796380 
# 
# From -- ./inp_files/296719.got.cif
#   From: 2010.06.25/outbox.cif.g09.slc.cpg/sg2_149_cif.got.tgz:296719.got - 2010.06.27 13:26:56.
