data_PCOD8003598
_publ_section_title
;
Structure prediction by ZEFSAII (Michael W. Deem and Ramdas Pophale) SiO2 
 PCOD8003598
Probable space group: P -1
;
_chemical_formula_sum "Si O2"
_cell_formula_units_Z 16
_cell_length_a 12.183524
_cell_length_b 6.360138
_cell_length_c 24.108970
_cell_angle_alpha 50.342859
_cell_angle_beta 147.394018
_cell_angle_gamma 134.117698
_cell_volume 716.208729
_symmetry_space_group_name_H-M "P -1"
_symmetry_group_IT_number 2
_symmetry_cell_setting 'triclinic'
loop_
_space_group_symop_operation_xyz
x,y,z
-x,-y,-z
loop_
_atom_site_type_symbol
_atom_site_label
_atom_site_fract_x
_atom_site_fract_y
_atom_site_fract_z
Si Si1 0.107216 0.663830 0.816239
Si Si2 0.424130 0.809097 0.177270
Si Si3 0.327137 0.418673 0.299253
Si Si4 0.592984 0.686033 0.161474
Si Si5 0.190557 0.216932 0.004848
Si Si6 0.157629 0.689870 0.703071
Si Si7 0.713029 0.693462 0.503116
Si Si8 0.474239 0.930107 0.435687
O O1 0.119065 0.622291 0.763141
O O2 0.878884 0.698292 0.727577
O O3 0.310874 0.963183 0.871696
O O4 0.103471 0.363563 0.893893
O O5 0.270191 0.591063 0.195035
O O6 0.506672 0.636581 0.196155
O O7 0.300479 0.999445 0.062707
O O8 0.628517 0.018855 0.265100
O O9 0.547294 0.614124 0.393896
O O10 0.360481 0.144451 0.328320
O O11 0.380337 0.494383 0.067825
O O12 0.797446 0.580028 0.260923
O O13 0.000000 0.000000 0.000000
O O14 0.962921 0.763440 0.577904
O O15 0.690933 0.961395 0.485659
O O16 0.675656 0.415809 0.575783
O O17 0.500000 0.000000 0.500000
#
# Coordination Sequence:
#
# PCOD8003598 Si02
#       8
#     2   2   2   2   2   2   2   2
#     4  11  22  40  67  94 123 166 214 256 308 376
#     4  10  24  43  60  92 130 164 207 262 312 379
#     4  11  22  38  62  93 126 162 215 260 307 366
#     4  10  24  43  64  91 128 168 208 254 316 376
#     4  11  23  44  66  94 129 160 204 264 320 372
#     4  10  22  41  63  90 129 167 208 256 311 372
#     4  10  20  37  59  89 124 167 208 259 309 360
#     4   9  18  32  54  85 119 153 205 259 300 357
#
# _framework density 22.339856000000001
#
# number of rings (size 3 to 8) (size 9 to 14) (size 15 to 20)
#    0.000    1.750    1.250    3.375    0.000   11.500 
#    4.500    1.250    0.000    0.000    0.000    0.000 
#    0.000    0.000    0.000    0.000    0.000    0.000 
#
# Total GULP energy -198225.379752 kJ/mol
# GULP energy per Si atom -12389.086234 kJ/mol
# Density = 2.228901 g / cm^3
# Si number density = 22.339856 Si / 1000 Ang^3
#
#
#
# Elastic Constant Matrix: (Units=GPa)
#
#
# Indices 1 2 3 4 5 6 
#
# 1 107.3668 44.7832 31.4605 -18.6783 19.7005 -9.6805
# 2 44.7832 69.3557 34.8659 -15.2216 5.3792 -10.3862
# 3 31.4605 34.8659 97.3050 -7.6548 17.7548 -7.8066
# 4 -18.6783 -15.2216 -7.6548 31.2433 2.2203 10.2589
# 5 19.7005 5.3792 17.7548 2.2203 39.1241 -10.0043
# 6 -9.6805 -10.3862 -7.8066 10.2589 -10.0043 37.3852
#
#
#
# Elastic Compliance Matrix: (Units=1/GPa)
#
#
# Indices 1 2 3 4 5 6 
#
# 1 0.014878 -0.007806 -0.000394 0.006152 -0.007097 -0.001985
# 2 -0.007806 0.023561 -0.006086 0.003965 0.004060 0.003252
# 3 -0.000394 -0.006086 0.013561 0.000685 -0.005303 -0.000568
# 4 0.006152 0.003965 0.000685 0.042109 -0.009202 -0.011180
# 5 -0.007097 0.004060 -0.005303 -0.009202 0.034012 0.009810
# 6 -0.001985 0.003252 -0.000568 -0.011180 0.009810 0.032712
#
#
# Mechanical properties :
#
#
# Convention : Reuss Voigt Hill
#
# Bulk Modulus (GPa) = 42.68421 55.13852 48.91137
# Shear Modulus (GPa) = 25.35303 32.41173 28.88238
#
# Velocity S-wave (km/s) = 3.37245 3.81313 3.59954
# Velocity P-wave (km/s) = 5.85771 6.64243 6.26238
#
# Compressibility (1/GPa) = 0.02342787
#
# Stress axis : x y z
#
# Youngs Moduli (GPa) = 67.21127 42.44387 73.74016
#
# Poissons Ratio (x) = 0.33131 0.02905
# Poissons Ratio (y) = 0.52464 0.44881
# Poissons Ratio (z) = 0.02648 0.25833
#
# Static dielectric constant tensor:
#      x y z
#    x 3.966460 -0.039920 0.460600 
#    y -0.039920 4.279670 -0.286940 
#    z 0.460600 -0.286940 4.111710 
# 
# 
# High freq. dielectric constant tensor:
#      x y z
#    x 1.877800 -0.003880 0.023720 
#    y -0.003880 1.873730 -0.011250 
#    z 0.023720 -0.011250 1.874930 
# 
# From -- ./inp_files/313582.got.cif
#   From: 2010.06.25/outbox.cif.g09.slc.cpg/sg2_157_cif.got.tgz:313582.got - 2010.06.27 13:26:56.
