data_PCOD8003498
_publ_section_title
;
Structure prediction by ZEFSAII (Michael W. Deem and Ramdas Pophale) SiO2 
 PCOD8003498
Probable space group: P -1
;
_chemical_formula_sum "Si O2"
_cell_formula_units_Z 16
_cell_length_a 11.897835
_cell_length_b 9.437967
_cell_length_c 7.055359
_cell_angle_alpha 71.580917
_cell_angle_beta 98.649787
_cell_angle_gamma 90.368033
_cell_volume 742.406312
_symmetry_space_group_name_H-M "P -1"
_symmetry_group_IT_number 2
_symmetry_cell_setting 'triclinic'
loop_
_space_group_symop_operation_xyz
x,y,z
-x,-y,-z
loop_
_atom_site_type_symbol
_atom_site_label
_atom_site_fract_x
_atom_site_fract_y
_atom_site_fract_z
Si Si1 0.235120 0.807342 0.392280
Si Si2 0.621166 0.942919 0.820626
Si Si3 0.035420 0.827591 0.062988
Si Si4 0.679577 0.685881 0.683319
Si Si5 0.204382 0.713004 0.840595
Si Si6 0.888167 0.585914 0.006837
Si Si7 0.614018 0.362355 0.776085
Si Si8 0.581183 0.840488 0.252046
O O1 0.227662 0.803818 0.618338
O O2 0.326476 0.683368 0.389233
O O3 0.272275 0.971813 0.271565
O O4 0.112759 0.777767 0.282376
O O5 0.616149 0.782693 0.789236
O O6 0.503229 0.037891 0.716359
O O7 0.643115 0.918670 0.060653
O O8 0.099791 0.794462 0.893759
O O9 0.923019 0.726852 0.083820
O O10 0.000000 0.000000 0.000000
O O11 0.810553 0.644113 0.785545
O O12 0.604588 0.540742 0.707775
O O13 0.677177 0.779652 0.448040
O O14 0.180560 0.540821 0.847033
O O15 0.314972 0.713369 0.001254
O O16 0.000000 0.500000 0.000000
O O17 0.489267 0.298453 0.782871
#
# Coordination Sequence:
#
# PCOD8003498 Si02
#       8
#     2   2   2   2   2   2   2   2
#     4  10  21  39  59  81 116 159 193 235 298 352
#     4  10  23  39  58  88 121 154 198 243 288 353
#     4  10  20  37  58  86 117 147 197 248 288 349
#     4  11  21  37  62  88 116 154 197 244 296 350
#     4   9  20  38  60  83 116 156 190 239 297 344
#     4   9  20  40  60  86 119 150 194 245 290 347
#     4   9  21  38  58  87 117 147 197 243 280 351
#     4  10  22  40  60  85 120 161 194 238 296 348
#
# _framework density 21.551541
#
# number of rings (size 3 to 8) (size 9 to 14) (size 15 to 20)
#    0.000    2.250    0.000    2.250    0.000    9.500 
#    0.000    6.250    0.000    0.000    0.000    0.000 
#    0.000    0.000    0.000    0.000    0.000    0.000 
#
# Total GULP energy -198391.143945 kJ/mol
# GULP energy per Si atom -12399.446497 kJ/mol
# Density = 2.150249 g / cm^3
# Si number density = 21.551541 Si / 1000 Ang^3
#
#
#
# Elastic Constant Matrix: (Units=GPa)
#
#
# Indices 1 2 3 4 5 6 
#
# 1 67.7323 27.1046 50.3955 -7.3038 8.2780 3.2171
# 2 27.1046 141.2938 26.5066 -3.5574 -1.1666 -11.3049
# 3 50.3955 26.5066 146.4673 -8.1242 -3.3588 -12.8520
# 4 -7.3038 -3.5574 -8.1242 28.8325 -5.2228 2.0982
# 5 8.2780 -1.1666 -3.3588 -5.2228 28.5333 -3.0340
# 6 3.2171 -11.3049 -12.8520 2.0982 -3.0340 16.8700
#
#
#
# Elastic Compliance Matrix: (Units=1/GPa)
#
#
# Indices 1 2 3 4 5 6 
#
# 1 0.026423 -0.004661 -0.009908 0.002742 -0.010427 -0.017927
# 2 -0.004661 0.008453 0.000804 0.000005 0.002605 0.007634
# 3 -0.009908 0.000804 0.011323 0.000939 0.005684 0.011960
# 4 0.002742 0.000005 0.000939 0.036923 0.005716 -0.003369
# 5 -0.010427 0.002605 0.005684 0.005716 0.041468 0.014811
# 6 -0.017927 0.007634 0.011960 -0.003369 0.014811 0.080005
#
#
# Mechanical properties :
#
#
# Convention : Reuss Voigt Hill
#
# Bulk Modulus (GPa) = 53.56672 62.61187 58.08930
# Shear Modulus (GPa) = 20.97765 31.61294 26.29530
#
# Velocity S-wave (km/s) = 3.12327 3.83411 3.49680
# Velocity P-wave (km/s) = 6.15756 6.97967 6.58146
#
# Compressibility (1/GPa) = 0.01866831
#
# Stress axis : x y z
#
# Youngs Moduli (GPa) = 37.84628 118.29749 88.31726
#
# Poissons Ratio (x) = 0.55143 0.87503
# Poissons Ratio (y) = 0.17642 -0.07100
# Poissons Ratio (z) = 0.37497 -0.09510
#
# Static dielectric constant tensor:
#      x y z
#    x 3.811240 0.235790 0.172790 
#    y 0.235790 4.252400 -0.024160 
#    z 0.172790 -0.024160 3.709600 
# 
# 
# High freq. dielectric constant tensor:
#      x y z
#    x 1.828530 0.008260 0.016100 
#    y 0.008260 1.863590 -0.004810 
#    z 0.016100 -0.004810 1.831570 
# 
# From -- ./inp_files/89936.got.cif
#   From: 2010.06.25/outbox.cif.g09.slc.cpg/sg2_45_cif.got.tgz:89936.got - 2010.06.27 13:26:56.
