data_PCOD8003035
_publ_section_title
;
Structure prediction by ZEFSAII (Michael W. Deem and Ramdas Pophale) SiO2 
 PCOD8003035
Probable space group: P -1
;
_chemical_formula_sum "Si O2"
_cell_formula_units_Z 16
_cell_length_a 25.356147
_cell_length_b 9.244904
_cell_length_c 9.372428
_cell_angle_alpha 42.271055
_cell_angle_beta 27.813147
_cell_angle_gamma 39.185664
_cell_volume 636.576222
_symmetry_space_group_name_H-M "P -1"
_symmetry_group_IT_number 2
_symmetry_cell_setting 'triclinic'
loop_
_space_group_symop_operation_xyz
x,y,z
-x,-y,-z
loop_
_atom_site_type_symbol
_atom_site_label
_atom_site_fract_x
_atom_site_fract_y
_atom_site_fract_z
Si Si1 0.243923 0.578311 0.617954
Si Si2 0.046928 0.915163 0.290093
Si Si3 0.811897 0.925378 0.739813
Si Si4 0.604215 0.911698 0.430396
Si Si5 0.235553 0.252634 0.308237
Si Si6 0.001509 0.393422 0.920493
Si Si7 0.506276 0.801010 0.238056
Si Si8 0.713112 0.247337 0.314489
O O1 0.360242 0.366026 0.427495
O O2 0.268988 0.603181 0.706571
O O3 0.223596 0.807534 0.412577
O O4 0.125814 0.505366 0.936761
O O5 0.953903 0.801785 0.537149
O O6 0.190430 0.749223 0.044181
O O7 0.000000 0.000000 0.500000
O O8 0.032907 0.122063 0.063026
O O9 0.786519 0.778476 0.781618
O O10 0.726820 0.939308 0.066804
O O11 0.500000 0.000000 0.500000
O O12 0.561314 0.061281 0.563046
O O13 0.109867 0.438250 0.541979
O O14 0.268943 0.012116 0.489369
O O15 0.347287 0.347387 0.977208
O O16 0.000000 0.500000 0.000000
O O17 0.429268 0.646623 0.479733
O O18 0.500000 0.000000 0.000000
#
# Coordination Sequence:
#
# PCOD8003035 Si02
#       8
#     2   2   2   2   2   2   2   2
#     4  10  24  43  68 100 129 175 227 274 342 398
#     4  10  20  36  61  92 133 173 216 277 337 384
#     4  10  21  42  66  96 132 177 219 277 335 393
#     4  12  25  44  70 101 136 173 229 280 333 400
#     4   9  18  38  63  90 129 173 221 261 337 394
#     4  10  22  38  63  98 129 173 223 277 331 403
#     4  10  21  39  68  95 131 187 214 269 342 395
#     4   9  19  39  63  92 130 178 217 269 335 398
#
# _framework density 25.134463
#
# number of rings (size 3 to 8) (size 9 to 14) (size 15 to 20)
#    0.000    2.000    1.250    1.500    7.000    3.500 
#    2.250    1.875    0.000    0.000    0.000    0.000 
#    0.000    0.000    0.000    0.000    0.000    0.000 
#
# Total GULP energy -198332.284770 kJ/mol
# GULP energy per Si atom -12395.767798 kJ/mol
# Density = 2.507726 g / cm^3
# Si number density = 25.134463 Si / 1000 Ang^3
#
#
#
# Elastic Constant Matrix: (Units=GPa)
#
#
# Indices 1 2 3 4 5 6 
#
# 1 171.2556 32.0413 79.4592 27.3055 -38.9012 17.3256
# 2 32.0413 63.3696 35.2417 28.2231 -16.6885 2.5231
# 3 79.4592 35.2417 182.6352 21.5183 -26.2055 10.3013
# 4 27.3055 28.2231 21.5183 43.7434 5.4192 -3.9623
# 5 -38.9012 -16.6885 -26.2055 5.4192 54.7577 9.5204
# 6 17.3256 2.5231 10.3013 -3.9623 9.5204 34.5200
#
#
#
# Elastic Compliance Matrix: (Units=1/GPa)
#
#
# Indices 1 2 3 4 5 6 
#
# 1 0.011213 0.003208 -0.002293 -0.010071 0.010446 -0.009215
# 2 0.003208 0.029494 -0.001780 -0.022828 0.014383 -0.009822
# 3 -0.002293 -0.001780 0.007313 -0.001372 0.001732 -0.001537
# 4 -0.010071 -0.022828 -0.001372 0.049124 -0.022951 0.019100
# 5 0.010446 0.014383 0.001732 -0.022951 0.036562 -0.019529
# 6 -0.009215 -0.009822 -0.001537 0.019100 -0.019529 0.042348
#
#
# Mechanical properties :
#
#
# Convention : Reuss Voigt Hill
#
# Bulk Modulus (GPa) = 21.60188 78.97161 50.28675
# Shear Modulus (GPa) = 25.87813 44.63879 35.25846
#
# Velocity S-wave (km/s) = 3.21220 4.21883 3.74945
# Velocity P-wave (km/s) = 4.72978 7.43097 6.22857
#
# Compressibility (1/GPa) = 0.04629227
#
# Stress axis : x y z
#
# Youngs Moduli (GPa) = 89.17872 33.90527 136.74278
#
# Poissons Ratio (x) = -0.10877 0.31349
# Poissons Ratio (y) = -0.28610 0.24334
# Poissons Ratio (z) = 0.20445 0.06034
#
# Static dielectric constant tensor:
#      x y z
#    x 4.696380 -0.375260 -0.460420 
#    y -0.375260 4.582850 -0.092150 
#    z -0.460420 -0.092150 5.133990 
# 
# 
# High freq. dielectric constant tensor:
#      x y z
#    x 2.009340 -0.018660 -0.009580 
#    y -0.018660 2.010440 -0.011970 
#    z -0.009580 -0.011970 2.026300 
# 
# From -- ./inp_files/352013.got.cif
#   From: 2010.06.25/outbox.cif.g09.slc.cpg/sg2_177_cif.got.tgz:352013.got - 2010.06.27 13:26:56.
