data_PCOD8003305
_publ_section_title
;
Structure prediction by ZEFSAII (Michael W. Deem and Ramdas Pophale) SiO2 
 PCOD8003305
Probable space group: P -1
;
_chemical_formula_sum "Si O2"
_cell_formula_units_Z 16
_cell_length_a 13.734322
_cell_length_b 11.302868
_cell_length_c 9.122488
_cell_angle_alpha 84.204862
_cell_angle_beta 70.412051
_cell_angle_gamma 41.668261
_cell_volume 861.369632
_symmetry_space_group_name_H-M "P -1"
_symmetry_group_IT_number 2
_symmetry_cell_setting 'triclinic'
loop_
_space_group_symop_operation_xyz
x,y,z
-x,-y,-z
loop_
_atom_site_type_symbol
_atom_site_label
_atom_site_fract_x
_atom_site_fract_y
_atom_site_fract_z
Si Si1 0.977472 0.752273 0.834467
Si Si2 0.112353 0.135216 0.683339
Si Si3 0.675762 0.069996 0.136692
Si Si4 0.334457 0.661887 0.983000
Si Si5 0.007002 0.000506 0.176060
Si Si6 0.397119 0.180028 0.121758
Si Si7 0.189378 0.545641 0.015125
Si Si8 0.110440 0.304448 0.397551
O O1 0.045025 0.825554 0.759507
O O2 0.979902 0.668974 0.700834
O O3 0.097992 0.585185 0.909249
O O4 0.799021 0.923513 0.965502
O O5 0.145806 0.165890 0.507685
O O6 0.941689 0.325323 0.807721
O O7 0.257676 0.040551 0.730484
O O8 0.106894 0.996366 0.690341
O O9 0.656569 0.230122 0.140273
O O10 0.504457 0.165496 0.176608
O O11 0.500000 0.500000 0.000000
O O12 0.288074 0.581123 0.930610
O O13 0.191141 0.812813 0.151857
O O14 0.000000 0.000000 0.000000
O O15 0.308190 0.338489 0.027753
O O16 0.277626 0.214570 0.282024
O O17 0.500000 0.000000 0.000000
O O18 0.000000 0.500000 0.500000
#
# Coordination Sequence:
#
# PCOD8003305 Si02
#       8
#     2   2   2   2   2   2   2   2
#     4  10  20  38  62  89 117 156 203 253 296 363
#     4  10  20  38  61  87 123 155 193 251 308 360
#     4  10  19  36  62  89 116 151 199 252 296 356
#     4  10  16  28  58  93 117 139 185 252 307 347
#     4  10  16  33  62  93 114 143 201 247 299 373
#     4  12  24  38  59  87 117 160 217 247 286 356
#     4  10  19  36  63  89 113 154 204 247 297 364
#     4  12  26  40  57  85 127 167 207 246 299 349
#
# _framework density 18.575067000000001
#
# number of rings (size 3 to 8) (size 9 to 14) (size 15 to 20)
#    0.000    1.500    8.750    0.000    0.000    2.500 
#    0.000    0.000    0.000    0.000    0.000    7.000 
#    0.000    0.000    0.000    0.000    0.000    0.000 
#
# Total GULP energy -198319.382250 kJ/mol
# GULP energy per Si atom -12394.961391 kJ/mol
# Density = 1.853279 g / cm^3
# Si number density = 18.575067 Si / 1000 Ang^3
#
#
#
# Elastic Constant Matrix: (Units=GPa)
#
#
# Indices 1 2 3 4 5 6 
#
# 1 136.6460 59.5416 67.9550 -13.8900 -4.9396 -1.4759
# 2 59.5416 109.5008 38.9615 -9.3659 -2.3797 -13.1311
# 3 67.9550 38.9615 89.6890 -12.2688 -4.9319 0.9698
# 4 -13.8900 -9.3659 -12.2688 26.5516 3.2055 2.2238
# 5 -4.9396 -2.3797 -4.9319 3.2055 28.9749 -5.3371
# 6 -1.4759 -13.1311 0.9698 2.2238 -5.3371 32.5674
#
#
#
# Elastic Compliance Matrix: (Units=1/GPa)
#
#
# Indices 1 2 3 4 5 6 
#
# 1 0.013371 -0.004407 -0.007945 0.001835 0.000172 -0.001031
# 2 -0.004407 0.013026 -0.002232 0.000724 0.000817 0.005203
# 3 -0.007945 -0.002232 0.018723 0.003764 0.000877 -0.001931
# 4 0.001835 0.000724 0.003764 0.041391 -0.004164 -0.003246
# 5 0.000172 0.000817 0.000877 -0.004164 0.036428 0.006565
# 6 -0.001031 0.005203 -0.001931 -0.003246 0.006565 0.034112
#
#
# Mechanical properties :
#
#
# Convention : Reuss Voigt Hill
#
# Bulk Modulus (GPa) = 62.68571 74.30576 68.49574
# Shear Modulus (GPa) = 26.10457 28.91062 27.50760
#
# Velocity S-wave (km/s) = 3.75287 3.94943 3.85241
# Velocity P-wave (km/s) = 7.25253 7.80302 7.53281
#
# Compressibility (1/GPa) = 0.01595260
#
# Stress axis : x y z
#
# Youngs Moduli (GPa) = 74.78885 76.76721 53.41032
#
# Poissons Ratio (x) = 0.33828 0.42434
# Poissons Ratio (y) = 0.32957 0.11923
# Poissons Ratio (z) = 0.59419 0.17137
#
# Static dielectric constant tensor:
#      x y z
#    x 3.724180 -0.017950 -0.113420 
#    y -0.017950 3.595190 -0.196410 
#    z -0.113420 -0.196410 2.974400 
# 
# 
# High freq. dielectric constant tensor:
#      x y z
#    x 1.739480 -0.000480 -0.007470 
#    y -0.000480 1.731900 -0.019720 
#    z -0.007470 -0.019720 1.668370 
# 
# From -- ./inp_files/303023.got.cif
#   From: 2010.06.25/outbox.cif.g09.slc.cpg/sg2_152_cif.got.tgz:303023.got - 2010.06.27 13:26:56.
