data_PCOD8003174
_publ_section_title
;
Structure prediction by ZEFSAII (Michael W. Deem and Ramdas Pophale) SiO2 
 PCOD8003174
Probable space group: P -1
;
_chemical_formula_sum "Si O2"
_cell_formula_units_Z 16
_cell_length_a 10.164165
_cell_length_b 14.149684
_cell_length_c 13.875500
_cell_angle_alpha 68.191080
_cell_angle_beta 134.616365
_cell_angle_gamma 146.941227
_cell_volume 642.396932
_symmetry_space_group_name_H-M "P -1"
_symmetry_group_IT_number 2
_symmetry_cell_setting 'triclinic'
loop_
_space_group_symop_operation_xyz
x,y,z
-x,-y,-z
loop_
_atom_site_type_symbol
_atom_site_label
_atom_site_fract_x
_atom_site_fract_y
_atom_site_fract_z
Si Si1 0.356729 0.538317 0.212433
Si Si2 0.604033 0.292662 0.492286
Si Si3 0.662489 0.477777 0.287010
Si Si4 0.772608 0.799049 0.004355
Si Si5 0.123243 0.881724 0.845345
Si Si6 0.868205 0.110226 0.656865
Si Si7 0.341116 0.311430 0.496288
Si Si8 0.386704 0.711090 0.997119
O O1 0.698942 0.723270 0.395738
O O2 0.455120 0.646655 0.126088
O O3 0.224229 0.354280 0.195895
O O4 0.989868 0.409167 0.127144
O O5 0.513933 0.343530 0.353612
O O6 0.619333 0.356359 0.579637
O O7 0.979422 0.412359 0.613203
O O8 0.229784 0.041359 0.390687
O O9 0.798810 0.661473 0.312352
O O10 0.357650 0.337858 0.096877
O O11 0.397622 0.666420 0.913606
O O12 0.029771 0.859310 0.189848
O O13 0.000000 0.000000 0.000000
O O14 0.044239 0.873026 0.695509
O O15 0.228540 0.035621 0.897386
O O16 0.500000 0.000000 0.000000
O O17 0.500000 0.000000 0.500000
O O18 0.500000 0.500000 0.500000
#
# Coordination Sequence:
#
# PCOD8003174 Si02
#       8
#     2   2   2   2   2   2   2   2
#     4   9  20  40  60  88 118 158 209 249 308 369
#     4  10  20  40  63  91 128 166 206 271 321 374
#     4  10  22  39  64  89 126 168 213 261 320 379
#     4  12  23  40  65  95 127 168 213 260 322 388
#     4   9  19  36  59  86 123 158 199 252 306 368
#     4  10  22  41  61  89 129 167 216 262 315 380
#     4  10  20  36  63  91 124 159 207 255 315 379
#     4  10  21  39  63  85 122 161 199 259 309 363
#
# _framework density 24.906718999999999
#
# number of rings (size 3 to 8) (size 9 to 14) (size 15 to 20)
#    0.000    2.000    1.250    1.875    0.000    2.500 
#    2.250    2.500    8.250    0.000    0.000    0.000 
#    0.000    0.000    0.000    0.000    0.000    0.000 
#
# Total GULP energy -198261.374797 kJ/mol
# GULP energy per Si atom -12391.335925 kJ/mol
# Density = 2.485003 g / cm^3
# Si number density = 24.906719 Si / 1000 Ang^3
#
#
#
# Elastic Constant Matrix: (Units=GPa)
#
#
# Indices 1 2 3 4 5 6 
#
# 1 97.7405 49.8944 19.5296 6.1037 -13.9524 -14.4963
# 2 49.8944 167.8803 35.8912 10.4143 -7.0464 1.4192
# 3 19.5296 35.8912 103.5278 -3.3677 -12.7793 0.7550
# 4 6.1037 10.4143 -3.3677 37.8356 -7.2922 -3.0067
# 5 -13.9524 -7.0464 -12.7793 -7.2922 53.6448 -2.5723
# 6 -14.4963 1.4192 0.7550 -3.0067 -2.5723 46.4791
#
#
#
# Elastic Compliance Matrix: (Units=1/GPa)
#
#
# Indices 1 2 3 4 5 6 
#
# 1 0.013394 -0.003676 -0.000930 -0.000310 0.002950 0.004448
# 2 -0.003676 0.007597 -0.002091 -0.001958 -0.000795 -0.001515
# 3 -0.000930 -0.002091 0.010923 0.002144 0.002370 -0.000134
# 4 -0.000310 -0.001958 0.002144 0.028156 0.004095 0.001976
# 5 0.002950 -0.000795 0.002370 0.004095 0.020536 0.002307
# 6 0.004448 -0.001515 -0.000134 0.001976 0.002307 0.023206
#
#
# Mechanical properties :
#
#
# Convention : Reuss Voigt Hill
#
# Bulk Modulus (GPa) = 54.00039 64.41987 59.21013
# Shear Modulus (GPa) = 40.52475 45.18079 42.85277
#
# Velocity S-wave (km/s) = 4.03806 4.26373 4.15243
# Velocity P-wave (km/s) = 6.59313 7.08236 6.84212
#
# Compressibility (1/GPa) = 0.01851839
#
# Stress axis : x y z
#
# Youngs Moduli (GPa) = 74.66040 131.62754 91.54961
#
# Poissons Ratio (x) = 0.48391 0.08518
# Poissons Ratio (y) = 0.27448 0.19144
# Poissons Ratio (z) = 0.06947 0.27525
#
# Static dielectric constant tensor:
#      x y z
#    x 4.803490 -0.250120 -0.144690 
#    y -0.250120 5.443040 -0.045250 
#    z -0.144690 -0.045250 5.547000 
# 
# 
# High freq. dielectric constant tensor:
#      x y z
#    x 2.024260 -0.021010 0.018070 
#    y -0.021010 2.004720 -0.000490 
#    z 0.018070 -0.000490 1.998860 
# 
# From -- ./inp_files/521593.got.cif
#   From: 2010.06.25/outbox.cif.g09.slc.cpg/sg2_261_cif.got.tgz:521593.got - 2010.06.27 13:26:56.
