data_PCOD8003904
_publ_section_title
;
Structure prediction by ZEFSAII (Michael W. Deem and Ramdas Pophale) SiO2 
 PCOD8003904
Probable space group: P -1
;
_chemical_formula_sum "Si O2"
_cell_formula_units_Z 14
_cell_length_a 9.807537
_cell_length_b 9.051492
_cell_length_c 13.802850
_cell_angle_alpha 46.630108
_cell_angle_beta 51.016875
_cell_angle_gamma 68.161895
_cell_volume 688.474060
_symmetry_space_group_name_H-M "P -1"
_symmetry_group_IT_number 2
_symmetry_cell_setting 'triclinic'
loop_
_space_group_symop_operation_xyz
x,y,z
-x,-y,-z
loop_
_atom_site_type_symbol
_atom_site_label
_atom_site_fract_x
_atom_site_fract_y
_atom_site_fract_z
Si Si1 0.376181 0.946293 0.218629
Si Si2 0.750446 0.008900 0.955267
Si Si3 0.684049 0.405142 0.451785
Si Si4 0.976986 0.275699 0.068035
Si Si5 0.937335 0.355290 0.836927
Si Si6 0.170892 0.892914 0.600186
Si Si7 0.816137 0.768030 0.699296
O O1 0.309962 0.907614 0.157017
O O2 0.291685 0.745368 0.401638
O O3 0.319731 0.155167 0.196665
O O4 0.587416 0.966628 0.120296
O O5 0.898796 0.170737 0.862593
O O6 0.829729 0.795564 0.999432
O O7 0.500000 0.500000 0.500000
O O8 0.680616 0.259446 0.422715
O O9 0.852938 0.575228 0.297096
O O10 0.867014 0.119572 0.262463
O O11 0.885045 0.276984 0.004151
O O12 0.000000 0.500000 0.000000
O O13 0.802916 0.524998 0.796290
O O14 0.008133 0.812585 0.640532
O O15 0.216641 0.126516 0.438229
#
# Coordination Sequence:
#
# PCOD8003904 Si02
#       7
#     2   2   2   2   2   2   2
#     4  10  21  39  62  83 119 163 197 241 294 361
#     4  11  24  38  58  93 122 152 201 249 297 346
#     4  10  20  37  62  88 115 158 201 243 290 355
#     4  12  20  37  60  88 116 164 194 239 290 369
#     4  11  23  37  63  91 121 153 200 253 292 337
#     4   9  18  33  61  85 114 156 204 228 291 364
#     4   9  17  37  59  85 113 159 197 239 290 361
#
# _framework density 20.334826
#
# number of rings (size 3 to 8) (size 9 to 14) (size 15 to 20)
#    0.000    1.714    4.286    2.143    0.000    1.143 
#    0.000    0.000    0.000    2.571    0.000    0.000 
#    0.000    0.000    0.000    0.000    0.000    0.000 
#
# Total GULP energy -173514.890484 kJ/mol
# GULP energy per Si atom -12393.920749 kJ/mol
# Density = 2.028854 g / cm^3
# Si number density = 20.334826 Si / 1000 Ang^3
#
#
#
# Elastic Constant Matrix: (Units=GPa)
#
#
# Indices 1 2 3 4 5 6 
#
# 1 65.2668 52.7780 40.2878 1.5372 -0.4122 -7.2066
# 2 52.7780 128.8114 43.0103 11.4765 -1.0896 -27.5635
# 3 40.2878 43.0103 124.3152 15.8922 14.2113 -1.1055
# 4 1.5372 11.4765 15.8922 28.2253 -5.1289 -5.1342
# 5 -0.4122 -1.0896 14.2113 -5.1289 18.7420 1.7094
# 6 -7.2066 -27.5635 -1.1055 -5.1342 1.7094 34.2715
#
#
#
# Elastic Compliance Matrix: (Units=1/GPa)
#
#
# Indices 1 2 3 4 5 6 
#
# 1 0.027501 -0.009724 -0.007479 0.007846 0.007994 -0.001502
# 2 -0.009724 0.014409 -0.001392 -0.002886 0.000063 0.009064
# 3 -0.007479 -0.001392 0.013628 -0.009603 -0.012929 -0.003046
# 4 0.007846 -0.002886 -0.009603 0.046012 0.019427 0.004943
# 5 0.007994 0.000063 -0.012929 0.019427 0.068582 0.000804
# 6 -0.001502 0.009064 -0.003046 0.004943 0.000804 0.036755
#
#
# Mechanical properties :
#
#
# Convention : Reuss Voigt Hill
#
# Bulk Modulus (GPa) = 54.49599 65.61618 60.05608
# Shear Modulus (GPa) = 19.98465 28.40224 24.19344
#
# Velocity S-wave (km/s) = 3.13833 3.74134 3.45302
# Velocity P-wave (km/s) = 6.32374 7.14153 6.74504
#
# Compressibility (1/GPa) = 0.01834997
#
# Stress axis : x y z
#
# Youngs Moduli (GPa) = 36.36217 69.39971 73.37937
#
# Poissons Ratio (x) = 0.67483 0.54877
# Poissons Ratio (y) = 0.35358 0.10212
# Poissons Ratio (z) = 0.27194 0.09658
#
# Static dielectric constant tensor:
#      x y z
#    x 3.370140 -0.414000 0.236810 
#    y -0.414000 3.955610 0.037740 
#    z 0.236810 0.037740 4.074300 
# 
# 
# High freq. dielectric constant tensor:
#      x y z
#    x 1.751590 -0.029900 0.020070 
#    y -0.029900 1.806060 0.008810 
#    z 0.020070 0.008810 1.803680 
# 
# From -- ./inp_files/237762.got.cif
#   From: 2010.06.25/outbox.cif.g09.slc.cpg/sg2_119_cif.got.tgz:237762.got - 2010.06.27 13:26:56.
