data_PCOD8003031
_publ_section_title
;
Structure prediction by ZEFSAII (Michael W. Deem and Ramdas Pophale) SiO2 
 PCOD8003031
Probable space group: P -1
;
_chemical_formula_sum "Si O2"
_cell_formula_units_Z 16
_cell_length_a 9.797686
_cell_length_b 10.689865
_cell_length_c 11.688823
_cell_angle_alpha 51.387182
_cell_angle_beta 50.050528
_cell_angle_gamma 71.431751
_cell_volume 726.387449
_symmetry_space_group_name_H-M "P -1"
_symmetry_group_IT_number 2
_symmetry_cell_setting 'triclinic'
loop_
_space_group_symop_operation_xyz
x,y,z
-x,-y,-z
loop_
_atom_site_type_symbol
_atom_site_label
_atom_site_fract_x
_atom_site_fract_y
_atom_site_fract_z
Si Si1 0.631472 0.278717 0.505966
Si Si2 0.122499 0.795580 0.785556
Si Si3 0.640936 0.004263 0.821082
Si Si4 0.276934 0.405762 0.290042
Si Si5 0.970930 0.909894 0.443796
Si Si6 0.323782 0.625973 0.942029
Si Si7 0.614395 0.503227 0.581883
Si Si8 0.726144 0.673131 0.012955
O O1 0.780057 0.291374 0.318914
O O2 0.583474 0.096153 0.686099
O O3 0.711494 0.405975 0.489548
O O4 0.446135 0.331594 0.528851
O O5 0.221840 0.771485 0.866862
O O6 0.140646 0.986443 0.639026
O O7 0.912634 0.725359 0.949430
O O8 0.831041 0.099762 0.707870
O O9 0.500000 0.000000 0.000000
O O10 0.670611 0.820381 0.881280
O O11 0.124044 0.273307 0.396206
O O12 0.464407 0.333527 0.217056
O O13 0.249915 0.448392 0.413514
O O14 0.283493 0.578962 0.122914
O O15 0.000000 0.000000 0.500000
O O16 0.240368 0.466568 0.010545
O O17 0.433497 0.383290 0.780838
#
# Coordination Sequence:
#
# PCOD8003031 Si02
#       8
#     2   2   2   2   2   2   2   2
#     4  11  21  38  62  92 120 159 208 243 307 359
#     4  11  21  35  62 100 117 160 207 252 304 352
#     4  11  22  37  61  88 119 162 203 250 303 364
#     4  10  21  40  59  88 132 157 203 250 307 365
#     4  11  23  39  64  92 119 157 210 262 297 366
#     4  10  21  36  60  92 130 160 190 260 311 353
#     4  10  22  40  61  92 123 166 198 252 301 366
#     4  10  20  36  61  92 123 150 210 248 296 365
#
# _framework density 22.026810000000001
#
# number of rings (size 3 to 8) (size 9 to 14) (size 15 to 20)
#    0.000    1.500    5.000    1.875    0.000    0.500 
#    0.000    0.625    0.000    0.750    0.000    0.000 
#    0.000    0.000    0.000    0.000    0.000    0.000 
#
# Total GULP energy -198302.582597 kJ/mol
# GULP energy per Si atom -12393.911412 kJ/mol
# Density = 2.197668 g / cm^3
# Si number density = 22.026810 Si / 1000 Ang^3
#
#
#
# Elastic Constant Matrix: (Units=GPa)
#
#
# Indices 1 2 3 4 5 6 
#
# 1 98.0194 22.5347 46.8736 -4.1353 25.2208 -10.7397
# 2 22.5347 38.0834 23.0824 1.4298 10.8290 -10.2229
# 3 46.8736 23.0824 87.6007 -7.6788 3.4997 -7.2337
# 4 -4.1353 1.4298 -7.6788 30.7439 -10.1202 13.1286
# 5 25.2208 10.8290 3.4997 -10.1202 44.7575 -10.3177
# 6 -10.7397 -10.2229 -7.2337 13.1286 -10.3177 42.6830
#
#
#
# Elastic Compliance Matrix: (Units=1/GPa)
#
#
# Indices 1 2 3 4 5 6 
#
# 1 0.016929 -0.002004 -0.008354 -0.003134 -0.008835 0.001192
# 2 -0.002004 0.037530 -0.008724 -0.010269 -0.007675 0.008309
# 3 -0.008354 -0.008724 0.018381 0.006688 0.006535 -0.001554
# 4 -0.003134 -0.010269 0.006688 0.043212 0.010534 -0.012860
# 5 -0.008835 -0.007675 0.006535 0.010534 0.031369 0.001389
# 6 0.001192 0.008309 -0.001554 -0.012860 0.001389 0.029746
#
#
# Mechanical properties :
#
#
# Convention : Reuss Voigt Hill
#
# Bulk Modulus (GPa) = 28.83795 45.40945 37.12370
# Shear Modulus (GPa) = 22.03697 32.38438 27.21068
#
# Velocity S-wave (km/s) = 3.16644 3.83851 3.51856
# Velocity P-wave (km/s) = 5.14675 6.34869 5.77905
#
# Compressibility (1/GPa) = 0.03467653
#
# Stress axis : x y z
#
# Youngs Moduli (GPa) = 59.06858 26.64521 54.40406
#
# Poissons Ratio (x) = 0.05341 0.45448
# Poissons Ratio (y) = 0.11839 0.47462
# Poissons Ratio (z) = 0.49345 0.23245
#
# Static dielectric constant tensor:
#      x y z
#    x 4.091520 -0.359370 0.293880 
#    y -0.359370 3.896730 -0.132320 
#    z 0.293880 -0.132320 4.193090 
# 
# 
# High freq. dielectric constant tensor:
#      x y z
#    x 1.852830 -0.026670 0.016860 
#    y -0.026670 1.842650 -0.009550 
#    z 0.016860 -0.009550 1.871040 
# 
# From -- ./inp_files/391968.got.cif
#   From: 2010.06.25/outbox.cif.g09.slc.cpg/sg2_196_cif.got.tgz:391968.got - 2010.06.27 13:26:56.
