data_PCOD8003259
_publ_section_title
;
Structure prediction by ZEFSAII (Michael W. Deem and Ramdas Pophale) SiO2 
 PCOD8003259
Probable space group: P -1
;
_chemical_formula_sum "Si O2"
_cell_formula_units_Z 14
_cell_length_a 12.204990
_cell_length_b 9.597665
_cell_length_c 9.310854
_cell_angle_alpha 136.695820
_cell_angle_beta 120.689830
_cell_angle_gamma 73.670367
_cell_volume 635.710049
_symmetry_space_group_name_H-M "P -1"
_symmetry_group_IT_number 2
_symmetry_cell_setting 'triclinic'
loop_
_space_group_symop_operation_xyz
x,y,z
-x,-y,-z
loop_
_atom_site_type_symbol
_atom_site_label
_atom_site_fract_x
_atom_site_fract_y
_atom_site_fract_z
Si Si1 0.139985 0.481002 0.425211
Si Si2 0.079216 0.270145 0.522727
Si Si3 0.950264 0.128349 0.938611
Si Si4 0.300901 0.404788 0.980595
Si Si5 0.666572 0.171404 0.799009
Si Si6 0.368982 0.588445 0.458414
Si Si7 0.569260 0.972747 0.299121
O O1 0.152739 0.375218 0.509335
O O2 0.283796 0.551279 0.517084
O O3 0.065476 0.677036 0.533282
O O4 0.057287 0.328351 0.140122
O O5 0.158418 0.341014 0.772115
O O6 0.068571 0.020764 0.324409
O O7 0.818076 0.202015 0.957494
O O8 0.000000 0.000000 0.000000
O O9 0.384366 0.221548 0.890908
O O10 0.374132 0.607234 0.100022
O O11 0.286801 0.471192 0.185746
O O12 0.584664 0.079422 0.813311
O O13 0.640015 0.012865 0.529635
O O14 0.500000 0.500000 0.500000
O O15 0.401420 0.832548 0.639106
#
# Coordination Sequence:
#
# PCOD8003259 Si02
#       7
#     2   2   2   2   2   2   2
#     4  10  23  43  64  97 133 167 213 263 322 381
#     4  10  21  40  72  97 121 167 221 270 310 373
#     4  10  20  36  64  98 128 161 211 271 319 360
#     4  11  22  43  67  98 125 170 219 264 323 378
#     4  10  20  38  65  98 130 162 221 272 310 369
#     4  11  28  46  62  93 139 173 205 264 334 391
#     4  10  23  40  64  93 129 175 212 263 321 381
#
# _framework density 22.02262
#
# number of rings (size 3 to 8) (size 9 to 14) (size 15 to 20)
#    0.000    1.714    2.857    0.429    4.000    4.571 
#    0.000    1.429    0.000    0.000    0.000    0.000 
#    0.000    0.000    0.000    0.000    0.000    0.000 
#
# Total GULP energy -173588.054113 kJ/mol
# GULP energy per Si atom -12399.146722 kJ/mol
# Density = 2.197250 g / cm^3
# Si number density = 22.022620 Si / 1000 Ang^3
#
#
#
# Elastic Constant Matrix: (Units=GPa)
#
#
# Indices 1 2 3 4 5 6 
#
# 1 136.5874 55.6910 14.4960 13.3810 10.8720 0.9532
# 2 55.6910 88.4204 27.6062 15.6972 -3.0128 -10.6357
# 3 14.4960 27.6062 80.1473 7.9769 -5.4440 -5.0541
# 4 13.3810 15.6972 7.9769 40.3227 -9.3958 -4.4910
# 5 10.8720 -3.0128 -5.4440 -9.3958 31.6070 4.3415
# 6 0.9532 -10.6357 -5.0541 -4.4910 4.3415 28.8950
#
#
#
# Elastic Compliance Matrix: (Units=1/GPa)
#
#
# Indices 1 2 3 4 5 6 
#
# 1 0.010707 -0.006854 0.000178 -0.002280 -0.004640 -0.002502
# 2 -0.006854 0.018201 -0.004274 -0.002955 0.001728 0.005459
# 3 0.000178 -0.004274 0.014138 -0.000744 0.001673 0.000527
# 4 -0.002280 -0.002955 -0.000744 0.029123 0.008748 0.002070
# 5 -0.004640 0.001728 0.001673 0.008748 0.036710 -0.003074
# 6 -0.002502 0.005459 0.000527 0.002070 -0.003074 0.037576
#
#
# Mechanical properties :
#
#
# Convention : Reuss Voigt Hill
#
# Bulk Modulus (GPa) = 47.28818 55.63794 51.46306
# Shear Modulus (GPa) = 28.50603 33.98908 31.24756
#
# Velocity S-wave (km/s) = 3.60168 3.93284 3.77089
# Velocity P-wave (km/s) = 6.23019 6.77804 6.50988
#
# Compressibility (1/GPa) = 0.02114693
#
# Stress axis : x y z
#
# Youngs Moduli (GPa) = 93.39711 54.94276 70.73247
#
# Poissons Ratio (x) = 0.37656 -0.01260
# Poissons Ratio (y) = 0.64011 0.30230
# Poissons Ratio (z) = -0.01664 0.23482
#
# Static dielectric constant tensor:
#      x y z
#    x 3.717710 -0.223680 -0.178400 
#    y -0.223680 4.026080 0.489000 
#    z -0.178400 0.489000 4.816490 
# 
# 
# High freq. dielectric constant tensor:
#      x y z
#    x 1.848340 -0.021830 -0.000240 
#    y -0.021830 1.853480 0.015040 
#    z -0.000240 0.015040 1.880650 
# 
# From -- ./inp_files/188825.got.cif
#   From: 2010.06.25/outbox.cif.g09.slc.cpg/sg2_95_cif.got.tgz:188825.got - 2010.06.27 13:26:56.
