data_PCOD8003385
_publ_section_title
;
Structure prediction by ZEFSAII (Michael W. Deem and Ramdas Pophale) SiO2 
 PCOD8003385
Probable space group: P -1
;
_chemical_formula_sum "Si O2"
_cell_formula_units_Z 16
_cell_length_a 15.448410
_cell_length_b 15.420422
_cell_length_c 11.660728
_cell_angle_alpha 140.408072
_cell_angle_beta 27.325285
_cell_angle_gamma 134.590478
_cell_volume 811.224408
_symmetry_space_group_name_H-M "P -1"
_symmetry_group_IT_number 2
_symmetry_cell_setting 'triclinic'
loop_
_space_group_symop_operation_xyz
x,y,z
-x,-y,-z
loop_
_atom_site_type_symbol
_atom_site_label
_atom_site_fract_x
_atom_site_fract_y
_atom_site_fract_z
Si Si1 0.406202 0.504364 0.283089
Si Si2 0.411231 0.763583 0.688208
Si Si3 0.643958 0.793584 0.895861
Si Si4 0.298477 0.870982 0.528294
Si Si5 0.205500 0.570149 0.355296
Si Si6 0.183681 0.938317 0.973241
Si Si7 0.419942 0.865277 0.019031
Si Si8 0.778849 0.955896 0.406716
O O1 0.405034 0.608990 0.495867
O O2 0.306312 0.360150 0.293316
O O3 0.274560 0.558433 0.393078
O O4 0.626850 0.491468 0.979159
O O5 0.248419 0.846039 0.906370
O O6 0.611516 0.840598 0.500424
O O7 0.367383 0.756948 0.869802
O O8 0.500158 0.845436 0.212029
O O9 0.571199 0.800745 0.858537
O O10 0.818971 0.904143 0.820443
O O11 0.176693 0.727186 0.519998
O O12 0.319916 0.920628 0.685055
O O13 0.202988 0.988600 0.688135
O O14 0.000000 0.500000 0.500000
O O15 0.971130 0.886694 0.139472
O O16 0.246536 0.911283 0.347360
O O17 0.500000 0.000000 0.000000
#
# Coordination Sequence:
#
# PCOD8003385 Si02
#       8
#     2   2   2   2   2   2   2   2
#     4  10  23  38  58  86 114 160 186 226 296 337
#     4  11  22  40  60  83 120 149 196 241 275 347
#     4  10  21  38  60  84 117 153 191 233 290 344
#     4  10  20  37  55  90 115 151 189 235 290 335
#     4  10  22  37  57  82 126 153 184 231 287 352
#     4  12  21  35  62  86 115 150 192 240 284 340
#     4   9  18  41  59  83 115 150 191 246 284 324
#     4  10  23  35  59  90 112 151 194 240 290 329
#
# _framework density 19.723271
#
# number of rings (size 3 to 8) (size 9 to 14) (size 15 to 20)
#    0.000    1.750    5.000    0.750    3.500    1.000 
#    0.000    0.000    0.000    0.750    0.000    0.000 
#    0.000    0.000    0.000    0.000    0.000    0.000 
#
# Total GULP energy -198314.199468 kJ/mol
# GULP energy per Si atom -12394.637467 kJ/mol
# Density = 1.967838 g / cm^3
# Si number density = 19.723271 Si / 1000 Ang^3
#
#
#
# Elastic Constant Matrix: (Units=GPa)
#
#
# Indices 1 2 3 4 5 6 
#
# 1 85.5041 12.3565 25.4492 4.7546 9.5092 6.0768
# 2 12.3565 73.7069 14.7088 19.7302 -6.4169 7.5616
# 3 25.4492 14.7088 39.5757 12.1912 -0.5170 10.6522
# 4 4.7546 19.7302 12.1912 21.5195 11.8755 8.6447
# 5 9.5092 -6.4169 -0.5170 11.8755 41.7004 1.3986
# 6 6.0768 7.5616 10.6522 8.6447 1.3986 29.0333
#
#
#
# Elastic Compliance Matrix: (Units=1/GPa)
#
#
# Indices 1 2 3 4 5 6 
#
# 1 0.016257 -0.003980 -0.012460 0.011795 -0.007802 -0.000931
# 2 -0.003980 0.022283 0.002789 -0.028837 0.012517 0.001990
# 3 -0.012460 0.002789 0.042708 -0.028254 0.012046 -0.005955
# 4 0.011795 -0.028837 -0.028254 0.114990 -0.039657 -0.016920
# 5 -0.007802 0.012517 0.012046 -0.039657 0.038998 0.003883
# 6 -0.000931 0.001990 -0.005955 -0.016920 0.003883 0.041156
#
#
# Mechanical properties :
#
#
# Convention : Reuss Voigt Hill
#
# Bulk Modulus (GPa) = 18.53731 33.75731 26.14731
# Shear Modulus (GPa) = 15.54362 28.20213 21.87287
#
# Velocity S-wave (km/s) = 2.81033 3.78549 3.33376
# Velocity P-wave (km/s) = 4.46651 6.02156 5.30137
#
# Compressibility (1/GPa) = 0.05394526
#
# Stress axis : x y z
#
# Youngs Moduli (GPa) = 61.51216 44.87786 23.41508
#
# Poissons Ratio (x) = 0.17862 0.29175
# Poissons Ratio (y) = 0.24483 -0.06530
# Poissons Ratio (z) = 0.76642 -0.12516
#
# Static dielectric constant tensor:
#      x y z
#    x 3.883780 -0.061460 0.312590 
#    y -0.061460 3.614210 0.156200 
#    z 0.312590 0.156200 3.527230 
# 
# 
# High freq. dielectric constant tensor:
#      x y z
#    x 1.777830 -0.000240 0.006930 
#    y -0.000240 1.757700 0.012030 
#    z 0.006930 0.012030 1.749140 
# 
# From -- ./inp_files/417456.got.cif
#   From: 2010.06.25/outbox.cif.g09.slc.cpg/sg2_209_cif.got.tgz:417456.got - 2010.06.27 13:26:56.
