data_PCOD8003700
_publ_section_title
;
Structure prediction by ZEFSAII (Michael W. Deem and Ramdas Pophale) SiO2 
 PCOD8003700
Probable space group: P -1
;
_chemical_formula_sum "Si O2"
_cell_formula_units_Z 16
_cell_length_a 9.227043
_cell_length_b 5.877881
_cell_length_c 14.813721
_cell_angle_alpha 96.809101
_cell_angle_beta 79.231065
_cell_angle_gamma 112.036897
_cell_volume 730.580197
_symmetry_space_group_name_H-M "P -1"
_symmetry_group_IT_number 2
_symmetry_cell_setting 'triclinic'
loop_
_space_group_symop_operation_xyz
x,y,z
-x,-y,-z
loop_
_atom_site_type_symbol
_atom_site_label
_atom_site_fract_x
_atom_site_fract_y
_atom_site_fract_z
Si Si1 0.000662 0.466042 0.104963
Si Si2 0.446184 0.140046 0.437181
Si Si3 0.051284 0.143179 0.758280
Si Si4 0.271270 0.003026 0.855935
Si Si5 0.325933 0.357822 0.611213
Si Si6 0.779186 0.687840 0.809203
Si Si7 0.554602 0.218866 0.714515
Si Si8 0.415544 0.207240 0.021861
O O1 0.138200 0.367687 0.112840
O O2 0.040059 0.706981 0.172517
O O3 0.825061 0.288057 0.146856
O O4 0.000000 0.500000 0.000000
O O5 0.326782 0.253194 0.503893
O O6 0.604616 0.348053 0.388972
O O7 0.500000 0.000000 0.500000
O O8 0.366822 0.955720 0.354451
O O9 0.143596 0.264148 0.661503
O O10 0.184843 0.138235 0.811230
O O11 0.915109 0.880398 0.740569
O O12 0.450769 0.068173 0.803462
O O13 0.274450 0.104447 0.961413
O O14 0.439778 0.280064 0.660418
O O15 0.695322 0.457256 0.744023
O O16 0.652374 0.798237 0.869126
O O17 0.500000 0.500000 0.000000
O O18 0.500000 0.000000 0.000000
#
# Coordination Sequence:
#
# PCOD8003700 Si02
#       8
#     2   2   2   2   2   2   2   2
#     4  11  23  38  62  83 123 170 219 264 320 377
#     4   9  18  35  63  92 121 151 199 258 314 392
#     4  10  22  39  60  85 125 163 215 263 319 385
#     4  10  22  38  59  88 118 165 216 266 313 383
#     4   9  19  37  63  91 117 160 205 255 321 387
#     4  11  25  41  57  93 124 167 214 270 322 381
#     4  10  20  37  60  89 124 155 212 258 327 369
#     4  12  27  42  64  94 132 170 222 276 331 382
#
# _framework density 21.900404000000002
#
# number of rings (size 3 to 8) (size 9 to 14) (size 15 to 20)
#    0.000    1.750    1.250    2.250    5.250    5.000 
#    0.000    0.625    0.000    7.500    0.000    0.000 
#    0.000    0.000    0.000    0.000    0.000    0.000 
#
# Total GULP energy -198228.709719 kJ/mol
# GULP energy per Si atom -12389.294357 kJ/mol
# Density = 2.185056 g / cm^3
# Si number density = 21.900404 Si / 1000 Ang^3
#
#
#
# Elastic Constant Matrix: (Units=GPa)
#
#
# Indices 1 2 3 4 5 6 
#
# 1 58.5426 46.4409 34.6726 3.9470 -15.7134 17.1014
# 2 46.4409 140.4539 62.1387 13.7698 -15.4800 14.7991
# 3 34.6726 62.1387 121.0810 19.6414 -25.4016 17.2637
# 4 3.9470 13.7698 19.6414 47.0016 4.4532 3.9562
# 5 -15.7134 -15.4800 -25.4016 4.4532 26.2785 0.1292
# 6 17.1014 14.7991 17.2637 3.9562 0.1292 33.6005
#
#
#
# Elastic Compliance Matrix: (Units=1/GPa)
#
#
# Indices 1 2 3 4 5 6 
#
# 1 0.030019 -0.006934 -0.000348 -0.000629 0.013695 -0.012024
# 2 -0.006934 0.011002 -0.003881 -0.000967 -0.001256 0.000796
# 3 -0.000348 -0.003881 0.014653 -0.005735 0.012666 -0.005016
# 4 -0.000629 -0.000967 -0.005735 0.024958 -0.010723 0.000796
# 5 0.013695 -0.001256 0.012666 -0.010723 0.059622 -0.011891
# 6 -0.012024 0.000796 -0.005016 0.000796 -0.011891 0.038060
#
#
# Mechanical properties :
#
#
# Convention : Reuss Voigt Hill
#
# Bulk Modulus (GPa) = 29.98667 67.39796 48.69232
# Shear Modulus (GPa) = 23.61228 33.16448 28.38838
#
# Velocity S-wave (km/s) = 3.28711 3.89566 3.60425
# Velocity P-wave (km/s) = 5.30366 7.14678 6.29306
#
# Compressibility (1/GPa) = 0.03334815
#
# Stress axis : x y z
#
# Youngs Moduli (GPa) = 33.31233 90.89468 68.24556
#
# Poissons Ratio (x) = 0.63023 0.02377
# Poissons Ratio (y) = 0.23098 0.26485
# Poissons Ratio (z) = 0.01160 0.35274
#
# Static dielectric constant tensor:
#      x y z
#    x 3.745250 -0.013210 -0.272840 
#    y -0.013210 4.313920 0.075450 
#    z -0.272840 0.075450 4.411570 
# 
# 
# High freq. dielectric constant tensor:
#      x y z
#    x 1.827160 0.002250 -0.009180 
#    y 0.002250 1.879720 0.000590 
#    z -0.009180 0.000590 1.864410 
# 
# From -- ./inp_files/45732.got.cif
#   From: 2010.06.25/outbox.cif.g09.slc.cpg/sg2_23_cif.got.tgz:45732.got - 2010.06.27 13:26:56.
