data_PCOD8003039
_publ_section_title
;
Structure prediction by ZEFSAII (Michael W. Deem and Ramdas Pophale) SiO2 
 PCOD8003039
Probable space group: P -1
;
_chemical_formula_sum "Si O2"
_cell_formula_units_Z 16
_cell_length_a 14.422126
_cell_length_b 13.658869
_cell_length_c 18.258932
_cell_angle_alpha 44.114614
_cell_angle_beta 143.665852
_cell_angle_gamma 159.818671
_cell_volume 722.280249
_symmetry_space_group_name_H-M "P -1"
_symmetry_group_IT_number 2
_symmetry_cell_setting 'triclinic'
loop_
_space_group_symop_operation_xyz
x,y,z
-x,-y,-z
loop_
_atom_site_type_symbol
_atom_site_label
_atom_site_fract_x
_atom_site_fract_y
_atom_site_fract_z
Si Si1 0.097144 0.473246 0.935158
Si Si2 0.661249 0.701152 0.649394
Si Si3 0.574311 0.984088 0.189478
Si Si4 0.262770 0.894217 0.228672
Si Si5 0.787156 0.500827 0.430644
Si Si6 0.352662 0.066788 0.579815
Si Si7 0.903016 0.545984 0.321125
Si Si8 0.628572 0.796518 0.207435
O O1 0.808360 0.294004 0.900919
O O2 0.964019 0.259543 0.903596
O O3 0.248353 0.727713 0.855351
O O4 0.357215 0.592717 0.082530
O O5 0.565257 0.730001 0.640649
O O6 0.463210 0.400483 0.689288
O O7 0.566029 0.706638 0.509706
O O8 0.040370 0.970248 0.749498
O O9 0.658096 0.964672 0.180189
O O10 0.699542 0.995990 0.333337
O O11 0.077737 0.783558 0.245880
O O12 0.357347 0.803109 0.334545
O O13 0.582480 0.237792 0.243111
O O14 0.819873 0.567365 0.329920
O O15 0.030847 0.780728 0.484317
O O16 0.843995 0.378946 0.538961
#
# Coordination Sequence:
#
# PCOD8003039 Si02
#       8
#     2   2   2   2   2   2   2   2
#     4  11  22  43  67  87 121 154 209 267 298 336
#     4  12  24  40  59  88 133 166 193 241 301 386
#     4  11  24  41  67  90 118 155 211 268 290 345
#     4  10  20  36  61  94 114 151 196 267 299 342
#     4  10  21  38  58  90 126 161 191 247 299 368
#     4  10  22  38  62  90 128 160 194 245 319 349
#     4  10  21  33  64  92 119 148 208 242 305 355
#     4  12  26  41  62  90 119 172 207 238 303 364
#
# _framework density 22.152065
#
# number of rings (size 3 to 8) (size 9 to 14) (size 15 to 20)
#    0.000    1.250    2.500    4.500    3.500    2.500 
#    0.000    0.000    0.000    4.500    0.000    0.000 
#    0.000    0.000    0.000    0.000    0.000    0.000 
#
# Total GULP energy -198402.436416 kJ/mol
# GULP energy per Si atom -12400.152276 kJ/mol
# Density = 2.210165 g / cm^3
# Si number density = 22.152065 Si / 1000 Ang^3
#
#
#
# Elastic Constant Matrix: (Units=GPa)
#
#
# Indices 1 2 3 4 5 6 
#
# 1 91.2024 16.3969 30.6285 20.3741 -7.0658 33.6363
# 2 16.3969 88.5714 15.0193 9.5961 11.0085 22.2827
# 3 30.6285 15.0193 45.1061 12.5170 -12.6942 8.3006
# 4 20.3741 9.5961 12.5170 30.8682 -3.0524 2.8204
# 5 -7.0658 11.0085 -12.6942 -3.0524 24.0824 2.5385
# 6 33.6363 22.2827 8.3006 2.8204 2.5385 35.8806
#
#
#
# Elastic Compliance Matrix: (Units=1/GPa)
#
#
# Indices 1 2 3 4 5 6 
#
# 1 0.024503 0.003935 -0.010615 -0.010996 0.000736 -0.022146
# 2 0.003935 0.016314 -0.007535 -0.004564 -0.009690 -0.011033
# 3 -0.010615 -0.007535 0.037576 -0.004456 0.019051 0.004940
# 4 -0.010996 -0.004564 -0.004456 0.041958 0.000688 0.010826
# 5 0.000736 -0.009690 0.019051 0.000688 0.056630 -0.003140
# 6 -0.022146 -0.011033 0.004940 0.010826 -0.003140 0.053712
#
#
# Mechanical properties :
#
#
# Convention : Reuss Voigt Hill
#
# Bulk Modulus (GPa) = 20.01419 38.77436 29.39428
# Shear Modulus (GPa) = 18.13072 29.02191 23.57631
#
# Velocity S-wave (km/s) = 2.86399 3.62349 3.26589
# Velocity P-wave (km/s) = 4.47114 5.92013 5.24591
#
# Compressibility (1/GPa) = 0.04996454
#
# Stress axis : x y z
#
# Youngs Moduli (GPa) = 40.81116 61.29720 26.61300
#
# Poissons Ratio (x) = -0.24122 0.28249
# Poissons Ratio (y) = -0.16060 0.20052
# Poissons Ratio (z) = 0.43320 0.46184
#
# Static dielectric constant tensor:
#      x y z
#    x 3.934110 0.241450 -0.040180 
#    y 0.241450 4.018350 0.075880 
#    z -0.040180 0.075880 3.961990 
# 
# 
# High freq. dielectric constant tensor:
#      x y z
#    x 1.860550 0.022400 -0.011910 
#    y 0.022400 1.878440 0.009750 
#    z -0.011910 0.009750 1.851260 
# 
# From -- ./inp_files/573963.got.cif
#   From: 2010.06.25/outbox.cif.g09.slc.cpg/sg2_287_cif.got.tgz:573963.got - 2010.06.27 13:26:56.
