data_PCOD8003127
_publ_section_title
;
Structure prediction by ZEFSAII (Michael W. Deem and Ramdas Pophale) SiO2 
 PCOD8003127
Probable space group: P -1
;
_chemical_formula_sum "Si O2"
_cell_formula_units_Z 16
_cell_length_a 11.182724
_cell_length_b 19.332714
_cell_length_c 19.574713
_cell_angle_alpha 19.912287
_cell_angle_beta 149.529666
_cell_angle_gamma 148.953260
_cell_volume 704.023862
_symmetry_space_group_name_H-M "P -1"
_symmetry_group_IT_number 2
_symmetry_cell_setting 'triclinic'
loop_
_space_group_symop_operation_xyz
x,y,z
-x,-y,-z
loop_
_atom_site_type_symbol
_atom_site_label
_atom_site_fract_x
_atom_site_fract_y
_atom_site_fract_z
Si Si1 0.460284 0.771380 0.728605
Si Si2 0.500203 0.602226 0.511083
Si Si3 0.005901 0.691525 0.483838
Si Si4 0.554119 0.145127 0.524471
Si Si5 0.314087 0.440869 0.067927
Si Si6 0.288117 0.084592 0.786615
Si Si7 0.276295 0.002338 0.650947
Si Si8 0.797782 0.298094 0.990014
O O1 0.687889 0.718336 0.849817
O O2 0.199845 0.660108 0.665954
O O3 0.500097 0.019421 0.539799
O O4 0.452135 0.671216 0.893952
O O5 0.204954 0.525006 0.432479
O O6 0.607960 0.690383 0.408847
O O7 0.584359 0.785583 0.437833
O O8 0.590355 0.395888 0.766357
O O9 0.890824 0.879250 0.276247
O O10 0.149613 0.767589 0.411879
O O11 0.447449 0.349965 0.279610
O O12 0.436847 0.998802 0.665549
O O13 0.058950 0.464345 0.952475
O O14 0.153720 0.908167 0.830802
O O15 0.500000 0.000000 0.000000
O O16 0.272355 0.784339 0.890771
O O17 0.000000 0.000000 0.500000
#
# Coordination Sequence:
#
# PCOD8003127 Si02
#       8
#     2   2   2   2   2   2   2   2
#     4  10  22  37  63  97 130 158 205 259 329 378
#     4  11  26  42  63  99 127 168 216 255 319 379
#     4  11  22  42  66  95 133 165 202 266 323 384
#     4  11  23  44  63  90 131 169 213 264 309 369
#     4  10  20  36  62  97 122 163 205 259 320 379
#     4  11  22  38  65  98 131 162 199 254 327 384
#     4  11  26  45  64  90 125 174 224 263 306 369
#     4  11  22  40  66  92 129 163 214 264 314 373
#
# _framework density 22.726502
#
# number of rings (size 3 to 8) (size 9 to 14) (size 15 to 20)
#    0.000    1.250    2.500    4.125    5.250    2.000 
#    2.250    0.625    0.000    0.000    0.000    0.000 
#    0.000    0.000    0.000    0.000    0.000    0.000 
#
# Total GULP energy -198256.557624 kJ/mol
# GULP energy per Si atom -12391.034851 kJ/mol
# Density = 2.267478 g / cm^3
# Si number density = 22.726502 Si / 1000 Ang^3
#
#
#
# Elastic Constant Matrix: (Units=GPa)
#
#
# Indices 1 2 3 4 5 6 
#
# 1 130.8259 24.8554 32.7029 7.0576 -15.6546 33.6130
# 2 24.8554 94.3039 15.2669 1.5222 3.1509 12.3058
# 3 32.7029 15.2669 114.4517 8.3105 -18.6619 11.3553
# 4 7.0576 1.5222 8.3105 28.8966 1.3710 3.9342
# 5 -15.6546 3.1509 -18.6619 1.3710 36.9306 -6.9750
# 6 33.6130 12.3058 11.3553 3.9342 -6.9750 35.3805
#
#
#
# Elastic Compliance Matrix: (Units=1/GPa)
#
#
# Indices 1 2 3 4 5 6 
#
# 1 0.010918 -0.001540 -0.001588 -0.001049 0.002344 -0.008749
# 2 -0.001540 0.011682 -0.001360 0.000671 -0.002892 -0.002808
# 3 -0.001588 -0.001360 0.010357 -0.002731 0.004759 -0.000101
# 4 -0.001049 0.000671 -0.002731 0.036221 -0.003820 -0.003141
# 5 0.002344 -0.002892 0.004759 -0.003820 0.031603 0.003907
# 6 -0.008749 -0.002808 -0.000101 -0.003141 0.003907 0.038704
#
#
# Mechanical properties :
#
#
# Convention : Reuss Voigt Hill
#
# Bulk Modulus (GPa) = 41.69995 53.91466 47.80730
# Shear Modulus (GPa) = 31.95801 38.02530 34.99165
#
# Velocity S-wave (km/s) = 3.75400 4.09488 3.92814
# Velocity P-wave (km/s) = 6.09741 6.79206 6.45409
#
# Compressibility (1/GPa) = 0.02398085
#
# Stress axis : x y z
#
# Youngs Moduli (GPa) = 91.59060 85.59879 96.55614
#
# Poissons Ratio (x) = 0.13185 0.15332
# Poissons Ratio (y) = 0.14108 0.13131
# Poissons Ratio (z) = 0.14544 0.11641
#
# Static dielectric constant tensor:
#      x y z
#    x 4.267150 0.121210 -0.055810 
#    y 0.121210 4.031750 -0.220050 
#    z -0.055810 -0.220050 4.275780 
# 
# 
# High freq. dielectric constant tensor:
#      x y z
#    x 1.901760 0.018050 -0.007060 
#    y 0.018050 1.874960 -0.015860 
#    z -0.007060 -0.015860 1.903310 
# 
# From -- ./inp_files/596233.got.cif
#   From: 2010.06.25/outbox.cif.g09.slc.cpg/sg2_299_cif.got.tgz:596233.got - 2010.06.27 13:26:56.
