data_PCOD8003864
_publ_section_title
;
Structure prediction by ZEFSAII (Michael W. Deem and Ramdas Pophale) SiO2 
 PCOD8003864
Probable space group: P -1
;
_chemical_formula_sum "Si O2"
_cell_formula_units_Z 16
_cell_length_a 14.368083
_cell_length_b 8.038018
_cell_length_c 13.910608
_cell_angle_alpha 110.243658
_cell_angle_beta 27.256439
_cell_angle_gamma 115.192780
_cell_volume 663.736078
_symmetry_space_group_name_H-M "P -1"
_symmetry_group_IT_number 2
_symmetry_cell_setting 'triclinic'
loop_
_space_group_symop_operation_xyz
x,y,z
-x,-y,-z
loop_
_atom_site_type_symbol
_atom_site_label
_atom_site_fract_x
_atom_site_fract_y
_atom_site_fract_z
Si Si1 0.763776 0.476316 0.518202
Si Si2 0.202093 0.214616 0.300152
Si Si3 0.289616 0.894433 0.247640
Si Si4 0.134608 0.840346 0.928267
Si Si5 0.638837 0.397077 0.409212
Si Si6 0.472829 0.911378 0.284384
Si Si7 0.152374 0.491177 0.268882
Si Si8 0.733467 0.930099 0.330240
O O1 0.750303 0.659365 0.622617
O O2 0.739142 0.507757 0.433837
O O3 0.575874 0.308360 0.698315
O O4 0.993734 0.435020 0.312838
O O5 0.271349 0.337480 0.162248
O O6 0.951558 0.118822 0.502166
O O7 0.336274 0.059861 0.156059
O O8 0.439758 0.956627 0.213374
O O9 0.310145 0.696375 0.148506
O O10 0.286132 0.986573 0.889789
O O11 0.152201 0.910911 0.816033
O O12 0.190046 0.644352 0.830753
O O13 0.895292 0.805517 0.178537
O O14 0.500000 0.500000 0.500000
O O15 0.483758 0.195794 0.542448
O O16 0.310096 0.985031 0.512595
O O17 0.000000 0.500000 0.500000
#
# Coordination Sequence:
#
# PCOD8003864 Si02
#       8
#     2   2   2   2   2   2   2   2
#     4  10  16  29  47  76 108 131 177 223 260 323
#     4   9  16  25  44  78 109 129 173 224 267 318
#     4   9  16  26  45  77 106 132 174 215 268 329
#     4  10  21  36  53  76 105 141 186 225 263 318
#     4  11  22  35  54  80 110 147 177 222 274 316
#     4  11  16  32  56  76 102 139 179 220 270 324
#     4   8  14  27  42  72 112 130 165 233 261 307
#     4  10  21  36  53  76 105 141 186 225 263 318
#
# _framework density 24.105969000000002
#
# number of rings (size 3 to 8) (size 9 to 14) (size 15 to 20)
#    0.000    2.500    6.250    0.750    3.500    0.500 
#    0.000    0.000    0.000    0.000    0.000   24.500 
#    0.000    0.000    0.000    0.000    0.000    0.000 
#
# Total GULP energy -198319.562472 kJ/mol
# GULP energy per Si atom -12394.972654 kJ/mol
# Density = 2.405110 g / cm^3
# Si number density = 24.105969 Si / 1000 Ang^3
#
#
#
# Elastic Constant Matrix: (Units=GPa)
#
#
# Indices 1 2 3 4 5 6 
#
# 1 172.1186 44.9940 14.4900 4.1101 -11.7213 2.7547
# 2 44.9940 94.4329 4.1753 10.6955 -4.4094 -16.1067
# 3 14.4900 4.1753 50.3421 5.4798 -10.4371 3.2469
# 4 4.1101 10.6955 5.4798 26.6674 -10.3310 -9.3352
# 5 -11.7213 -4.4094 -10.4371 -10.3310 22.1557 3.4806
# 6 2.7547 -16.1067 3.2469 -9.3352 3.4806 48.3110
#
#
#
# Elastic Compliance Matrix: (Units=1/GPa)
#
#
# Indices 1 2 3 4 5 6 
#
# 1 0.007055 -0.003564 -0.001085 0.001348 0.003376 -0.001500
# 2 -0.003564 0.013360 -0.000292 -0.004074 -0.001896 0.004026
# 3 -0.001085 -0.000292 0.022534 -0.001479 0.009692 -0.002534
# 4 0.001348 -0.004074 -0.001479 0.049889 0.021406 0.006762
# 5 0.003376 -0.001896 0.009692 0.021406 0.061368 -0.001761
# 6 -0.001500 0.004026 -0.002534 0.006762 -0.001761 0.023731
#
#
# Mechanical properties :
#
#
# Convention : Reuss Voigt Hill
#
# Bulk Modulus (GPa) = 30.24091 49.35691 39.79891
# Shear Modulus (GPa) = 25.14567 36.30911 30.72739
#
# Velocity S-wave (km/s) = 3.23326 3.88523 3.57414
# Velocity P-wave (km/s) = 5.14887 6.37543 5.79469
#
# Compressibility (1/GPa) = 0.03306779
#
# Stress axis : x y z
#
# Youngs Moduli (GPa) = 141.74789 74.84816 44.37677
#
# Poissons Ratio (x) = 0.26678 0.04815
# Poissons Ratio (y) = 0.50524 0.01294
# Poissons Ratio (z) = 0.15379 0.02182
#
# Static dielectric constant tensor:
#      x y z
#    x 4.507620 -0.236710 -0.447160 
#    y -0.236710 5.141810 0.107640 
#    z -0.447160 0.107640 4.113020 
# 
# 
# High freq. dielectric constant tensor:
#      x y z
#    x 1.955710 -0.003850 -0.026420 
#    y -0.003850 1.960970 0.002880 
#    z -0.026420 0.002880 1.932020 
# 
# From -- ./inp_files/528782.got.cif
#   From: 2010.06.25/outbox.cif.g09.slc.cpg/sg2_265_cif.got.tgz:528782.got - 2010.06.27 13:26:56.
