data_PCOD8003063
_publ_section_title
;
Structure prediction by ZEFSAII (Michael W. Deem and Ramdas Pophale) SiO2 
 PCOD8003063
Probable space group: P -1
;
_chemical_formula_sum "Si O2"
_cell_formula_units_Z 16
_cell_length_a 8.897604
_cell_length_b 17.713487
_cell_length_c 9.291371
_cell_angle_alpha 40.029290
_cell_angle_beta 58.583066
_cell_angle_gamma 78.956554
_cell_volume 744.085308
_symmetry_space_group_name_H-M "P -1"
_symmetry_group_IT_number 2
_symmetry_cell_setting 'triclinic'
loop_
_space_group_symop_operation_xyz
x,y,z
-x,-y,-z
loop_
_atom_site_type_symbol
_atom_site_label
_atom_site_fract_x
_atom_site_fract_y
_atom_site_fract_z
Si Si1 0.206622 0.987927 0.603879
Si Si2 0.859521 0.027641 0.672925
Si Si3 0.535581 0.581423 0.506787
Si Si4 0.904742 0.290092 0.343093
Si Si5 0.216998 0.530260 0.307058
Si Si6 0.796150 0.497052 0.974547
Si Si7 0.514795 0.167706 0.870085
Si Si8 0.598756 0.181664 0.130799
O O1 0.179977 0.018036 0.406067
O O2 0.244492 0.859993 0.804499
O O3 0.385882 0.104336 0.412902
O O4 0.999350 0.980732 0.771151
O O5 0.954502 0.180748 0.400977
O O6 0.644185 0.956892 0.944451
O O7 0.500000 0.500000 0.500000
O O8 0.726129 0.574824 0.488194
O O9 0.575167 0.724551 0.232353
O O10 0.365829 0.529138 0.785620
O O11 0.693123 0.215521 0.609304
O O12 0.054406 0.357564 0.296388
O O13 0.909333 0.401919 0.070272
O O14 0.273458 0.520514 0.127994
O O15 0.000000 0.500000 0.500000
O O16 0.346748 0.670007 0.092748
O O17 0.589862 0.143377 0.023604
#
# Coordination Sequence:
#
# PCOD8003063 Si02
#       8
#     2   2   2   2   2   2   2   2
#     4   9  21  36  59  90 115 158 200 260 299 374
#     4  10  20  36  62  87 118 155 207 249 313 366
#     4  11  24  42  65  93 126 170 209 256 319 369
#     4  10  21  39  63  87 121 163 204 249 325 360
#     4  12  25  39  66  96 126 167 208 259 316 369
#     4  10  24  41  64  93 130 162 211 262 301 382
#     4  10  21  39  60  89 120 161 204 259 302 380
#     4  10  20  39  59  84 126 155 207 249 312 361
#
# _framework density 21.50291
#
# number of rings (size 3 to 8) (size 9 to 14) (size 15 to 20)
#    0.000    1.750    1.250    2.250    7.000    1.000 
#    0.000    0.625    0.000    0.000    0.000    0.000 
#    0.000    0.000    0.000    0.000    0.000    0.000 
#
# Total GULP energy -198239.919956 kJ/mol
# GULP energy per Si atom -12389.994997 kJ/mol
# Density = 2.145397 g / cm^3
# Si number density = 21.502910 Si / 1000 Ang^3
#
#
#
# Elastic Constant Matrix: (Units=GPa)
#
#
# Indices 1 2 3 4 5 6 
#
# 1 139.4560 28.8648 28.2305 -4.3909 5.0733 -10.6043
# 2 28.8648 71.1379 19.2732 -7.2452 -5.9179 6.2001
# 3 28.2305 19.2732 68.1227 -10.7017 -7.8975 1.0725
# 4 -4.3909 -7.2452 -10.7017 39.5846 5.5677 -2.9339
# 5 5.0733 -5.9179 -7.8975 5.5677 37.7090 -2.7113
# 6 -10.6043 6.2001 1.0725 -2.9339 -2.7113 31.4038
#
#
#
# Elastic Compliance Matrix: (Units=1/GPa)
#
#
# Indices 1 2 3 4 5 6 
#
# 1 0.008796 -0.003222 -0.003011 0.000127 -0.002084 0.003541
# 2 -0.003222 0.016806 -0.002915 0.001356 0.001972 -0.004010
# 3 -0.003011 -0.002915 0.017659 0.003436 0.003106 -0.000455
# 4 0.000127 0.001356 0.003436 0.027009 -0.002934 0.001928
# 5 -0.002084 0.001972 0.003106 -0.002934 0.028262 0.000967
# 6 0.003541 -0.004010 -0.000455 0.001928 0.000967 0.034110
#
#
# Mechanical properties :
#
#
# Convention : Reuss Voigt Hill
#
# Bulk Modulus (GPa) = 40.05562 47.93930 43.99746
# Shear Modulus (GPa) = 31.39528 35.22935 33.31231
#
# Velocity S-wave (km/s) = 3.82520 4.05205 3.94026
# Velocity P-wave (km/s) = 6.17884 6.65093 6.41922
#
# Compressibility (1/GPa) = 0.02496529
#
# Stress axis : x y z
#
# Youngs Moduli (GPa) = 113.68374 59.50246 56.62925
#
# Poissons Ratio (x) = 0.19175 0.17050
# Poissons Ratio (y) = 0.36634 0.16505
# Poissons Ratio (z) = 0.34229 0.17342
#
# Static dielectric constant tensor:
#      x y z
#    x 4.235010 -0.121260 -0.133930 
#    y -0.121260 3.853680 -0.342540 
#    z -0.133930 -0.342540 4.129210 
# 
# 
# High freq. dielectric constant tensor:
#      x y z
#    x 1.856570 -0.004930 -0.007220 
#    y -0.004930 1.828960 -0.016510 
#    z -0.007220 -0.016510 1.839300 
# 
# From -- ./inp_files/207601.got.cif
#   From: 2010.06.25/outbox.cif.g09.slc.cpg/sg2_104_cif.got.tgz:207601.got - 2010.06.27 13:26:56.
