data_PCOD8003129
_publ_section_title
;
Structure prediction by ZEFSAII (Michael W. Deem and Ramdas Pophale) SiO2 
 PCOD8003129
Probable space group: P -1
;
_chemical_formula_sum "Si O2"
_cell_formula_units_Z 16
_cell_length_a 11.039750
_cell_length_b 18.568496
_cell_length_c 8.074372
_cell_angle_alpha 43.761448
_cell_angle_beta 138.097341
_cell_angle_gamma 135.299052
_cell_volume 708.773520
_symmetry_space_group_name_H-M "P -1"
_symmetry_group_IT_number 2
_symmetry_cell_setting 'triclinic'
loop_
_space_group_symop_operation_xyz
x,y,z
-x,-y,-z
loop_
_atom_site_type_symbol
_atom_site_label
_atom_site_fract_x
_atom_site_fract_y
_atom_site_fract_z
Si Si1 0.790673 0.976943 0.244971
Si Si2 0.520532 0.749640 0.432129
Si Si3 0.848858 0.217217 0.930748
Si Si4 0.176247 0.294873 0.389341
Si Si5 0.163180 0.112923 0.905088
Si Si6 0.584670 0.695258 0.949374
Si Si7 0.896072 0.605279 0.333980
Si Si8 0.810259 0.486939 0.096327
O O1 0.633163 0.882931 0.351082
O O2 0.758222 0.928114 0.107323
O O3 0.735420 0.086089 0.998093
O O4 0.000000 0.000000 0.500000
O O5 0.291032 0.728550 0.210227
O O6 0.605055 0.698504 0.451325
O O7 0.545815 0.691861 0.721650
O O8 0.927043 0.280378 0.732486
O O9 0.032828 0.225733 0.214460
O O10 0.101559 0.218127 0.606416
O O11 0.172843 0.420002 0.183634
O O12 0.330495 0.176225 0.106436
O O13 0.000000 0.000000 0.000000
O O14 0.737452 0.633336 0.234199
O O15 0.383054 0.622494 0.957640
O O16 0.794994 0.534307 0.185594
O O17 0.992452 0.539752 0.661645
#
# Coordination Sequence:
#
# PCOD8003129 Si02
#       8
#     2   2   2   2   2   2   2   2
#     4  11  20  41  64  85 122 161 210 260 301 363
#     4  11  21  35  63  95 119 159 207 254 307 361
#     4  11  19  36  65  90 121 155 212 255 301 359
#     4  10  23  41  63  91 124 163 205 257 302 365
#     4  11  24  41  65  89 125 170 200 251 326 367
#     4  12  22  38  63  95 129 164 199 255 316 368
#     4  10  20  36  62  98 123 159 206 257 301 363
#     4  10  21  37  64  91 127 161 211 248 306 361
#
# _framework density 22.574207999999999
#
# number of rings (size 3 to 8) (size 9 to 14) (size 15 to 20)
#    0.000    1.250    6.250    2.250    0.000    0.500 
#    0.000    3.750    0.000    0.000    0.000    0.000 
#    0.000    0.000    0.000    0.000    0.000    0.000 
#
# Total GULP energy -198228.831146 kJ/mol
# GULP energy per Si atom -12389.301947 kJ/mol
# Density = 2.252283 g / cm^3
# Si number density = 22.574208 Si / 1000 Ang^3
#
#
#
# Elastic Constant Matrix: (Units=GPa)
#
#
# Indices 1 2 3 4 5 6 
#
# 1 40.8069 6.3815 31.4286 5.2377 12.1203 5.6055
# 2 6.3815 105.0738 24.2541 -26.2967 -0.5083 14.7941
# 3 31.4286 24.2541 96.7501 -27.2281 2.4175 14.6910
# 4 5.2377 -26.2967 -27.2281 34.3623 11.6684 -7.0574
# 5 12.1203 -0.5083 2.4175 11.6684 35.9747 -6.1232
# 6 5.6055 14.7941 14.6910 -7.0574 -6.1232 32.5784
#
#
#
# Elastic Compliance Matrix: (Units=1/GPa)
#
#
# Indices 1 2 3 4 5 6 
#
# 1 0.046436 -0.003747 -0.020254 -0.024365 -0.007074 -0.003763
# 2 -0.003747 0.012948 0.002232 0.012579 -0.003495 -0.004174
# 3 -0.020254 0.002232 0.023707 0.023890 -0.003104 -0.003628
# 4 -0.024365 0.012579 0.023890 0.066259 -0.014834 -0.000727
# 5 -0.007074 -0.003495 -0.003104 -0.014834 0.036487 0.007848
# 6 -0.003763 -0.004174 -0.003628 -0.000727 0.007848 0.036191
#
#
# Mechanical properties :
#
#
# Convention : Reuss Voigt Hill
#
# Bulk Modulus (GPa) = 25.28204 40.75101 33.01653
# Shear Modulus (GPa) = 17.93707 32.62085 25.27896
#
# Velocity S-wave (km/s) = 2.82189 3.80550 3.35000
# Velocity P-wave (km/s) = 4.67346 6.11558 5.44250
#
# Compressibility (1/GPa) = 0.03955376
#
# Stress axis : x y z
#
# Youngs Moduli (GPa) = 21.53492 77.23092 42.18108
#
# Poissons Ratio (x) = 0.28941 0.85434
# Poissons Ratio (y) = 0.08070 -0.09417
# Poissons Ratio (z) = 0.43617 -0.17241
#
# Static dielectric constant tensor:
#      x y z
#    x 3.731310 0.210750 -0.040530 
#    y 0.210750 4.344010 -0.375200 
#    z -0.040530 -0.375200 4.309090 
# 
# 
# High freq. dielectric constant tensor:
#      x y z
#    x 1.853610 0.011870 0.004350 
#    y 0.011870 1.896760 -0.022580 
#    z 0.004350 -0.022580 1.890790 
# 
# From -- ./inp_files/282811.got.cif
#   From: 2010.06.25/outbox.cif.g09.slc.cpg/sg2_142_cif.got.tgz:282811.got - 2010.06.27 13:26:56.
