data_PCOD8003917
_publ_section_title
;
Structure prediction by ZEFSAII (Michael W. Deem and Ramdas Pophale) SiO2 
 PCOD8003917
Probable space group: P -1
;
_chemical_formula_sum "Si O2"
_cell_formula_units_Z 14
_cell_length_a 8.610103
_cell_length_b 9.376323
_cell_length_c 8.582013
_cell_angle_alpha 92.784340
_cell_angle_beta 93.535783
_cell_angle_gamma 80.093535
_cell_volume 680.697947
_symmetry_space_group_name_H-M "P -1"
_symmetry_group_IT_number 2
_symmetry_cell_setting 'triclinic'
loop_
_space_group_symop_operation_xyz
x,y,z
-x,-y,-z
loop_
_atom_site_type_symbol
_atom_site_label
_atom_site_fract_x
_atom_site_fract_y
_atom_site_fract_z
Si Si1 0.982835 0.654171 0.586760
Si Si2 0.904192 0.122790 0.621229
Si Si3 0.040888 0.645954 0.942959
Si Si4 0.145832 0.070083 0.904406
Si Si5 0.731073 0.195641 0.903249
Si Si6 0.465129 0.072690 0.762988
Si Si7 0.705596 0.881966 0.561151
O O1 0.798011 0.722456 0.597184
O O2 0.000000 0.500000 0.500000
O O3 0.070905 0.761216 0.499786
O O4 0.057288 0.636236 0.759707
O O5 0.765445 0.205821 0.722994
O O6 0.053992 0.063301 0.736648
O O7 0.838771 0.984482 0.534418
O O8 0.220153 0.662615 0.007125
O O9 0.000000 0.500000 0.000000
O O10 0.907085 0.775591 0.005799
O O11 0.330468 0.034960 0.864876
O O12 0.141160 0.938616 0.020031
O O13 0.547822 0.178868 0.887355
O O14 0.397014 0.140235 0.598458
O O15 0.599219 0.936756 0.709579
#
# Coordination Sequence:
#
# PCOD8003917 Si02
#       7
#     2   2   2   2   2   2   2
#     4  12  23  38  64  88 117 157 204 250 294 348
#     4  10  20  37  62  89 117 155 209 250 287 344
#     4  11  24  40  62  88 119 155 205 250 294 354
#     4  11  20  38  63  91 122 155 199 250 299 345
#     4  10  21  38  59  92 120 156 196 250 298 351
#     4  10  21  36  62  91 130 152 195 246 304 358
#     4  10  21  37  62  95 120 154 202 249 294 348
#
# _framework density 20.567122999999999
#
# number of rings (size 3 to 8) (size 9 to 14) (size 15 to 20)
#    0.000    1.429    1.429    6.857    2.000    0.000 
#    0.000    0.714    0.000   12.000    0.000    0.000 
#    0.000    0.000    0.000    0.000    0.000    0.000 
#
# Total GULP energy -173450.868899 kJ/mol
# GULP energy per Si atom -12389.347779 kJ/mol
# Density = 2.052031 g / cm^3
# Si number density = 20.567123 Si / 1000 Ang^3
#
#
#
# Elastic Constant Matrix: (Units=GPa)
#
#
# Indices 1 2 3 4 5 6 
#
# 1 90.8460 46.6757 32.9890 6.2549 14.2794 4.7764
# 2 46.6757 103.3453 49.1492 10.8599 -1.5374 3.9308
# 3 32.9890 49.1492 135.3959 4.3586 4.7608 14.6513
# 4 6.2549 10.8599 4.3586 34.7411 7.5409 -4.3544
# 5 14.2794 -1.5374 4.7608 7.5409 45.9476 7.8839
# 6 4.7764 3.9308 14.6513 -4.3544 7.8839 16.3734
#
#
#
# Elastic Compliance Matrix: (Units=1/GPa)
#
#
# Indices 1 2 3 4 5 6 
#
# 1 0.015605 -0.006589 -0.001348 0.000661 -0.005196 0.000913
# 2 -0.006589 0.014928 -0.003682 -0.004002 0.003802 -0.001262
# 3 -0.001348 -0.003682 0.009958 -0.001092 0.000875 -0.008345
# 4 0.000661 -0.004002 -0.001092 0.033691 -0.008276 0.014690
# 5 -0.005196 0.003802 0.000875 -0.008276 0.027450 -0.015598
# 6 0.000913 -0.001262 -0.008345 0.014690 -0.015598 0.079996
#
#
# Mechanical properties :
#
#
# Convention : Reuss Voigt Hill
#
# Bulk Modulus (GPa) = 57.95535 65.24611 61.60073
# Shear Modulus (GPa) = 23.73976 32.79731 28.26854
#
# Velocity S-wave (km/s) = 3.40112 3.99764 3.71138
# Velocity P-wave (km/s) = 6.60782 7.28701 6.95571
#
# Compressibility (1/GPa) = 0.01725466
#
# Stress axis : x y z
#
# Youngs Moduli (GPa) = 64.08032 66.98734 100.42010
#
# Poissons Ratio (x) = 0.44135 0.13536
# Poissons Ratio (y) = 0.42220 0.36974
# Poissons Ratio (z) = 0.08638 0.24665
#
# Static dielectric constant tensor:
#      x y z
#    x 3.889980 0.035900 -0.000880 
#    y 0.035900 3.501770 0.125680 
#    z -0.000880 0.125680 3.966470 
# 
# 
# High freq. dielectric constant tensor:
#      x y z
#    x 1.812890 0.008160 -0.001750 
#    y 0.008160 1.763860 0.007650 
#    z -0.001750 0.007650 1.831690 
# 
# From -- ./inp_files/154020.got.cif
#   From: 2010.06.25/outbox.cif.g09.slc.cpg/sg2_78_cif.got.tgz:154020.got - 2010.06.27 13:26:56.
