data_PCOD8003196
_publ_section_title
;
Structure prediction by ZEFSAII (Michael W. Deem and Ramdas Pophale) SiO2 
 PCOD8003196
Probable space group: P -1
;
_chemical_formula_sum "Si O2"
_cell_formula_units_Z 16
_cell_length_a 14.708810
_cell_length_b 9.959606
_cell_length_c 11.891369
_cell_angle_alpha 112.917909
_cell_angle_beta 31.116118
_cell_angle_gamma 100.245464
_cell_volume 783.660046
_symmetry_space_group_name_H-M "P -1"
_symmetry_group_IT_number 2
_symmetry_cell_setting 'triclinic'
loop_
_space_group_symop_operation_xyz
x,y,z
-x,-y,-z
loop_
_atom_site_type_symbol
_atom_site_label
_atom_site_fract_x
_atom_site_fract_y
_atom_site_fract_z
Si Si1 0.531450 0.650560 0.850171
Si Si2 0.943766 0.687469 0.857649
Si Si3 0.925115 0.600038 0.504116
Si Si4 0.351962 0.687694 0.448386
Si Si5 0.492258 0.890436 0.780282
Si Si6 0.090262 0.118731 0.264983
Si Si7 0.431426 0.169094 0.577183
Si Si8 0.303827 0.870268 0.335919
O O1 0.706537 0.628852 0.738050
O O2 0.519586 0.485326 0.773835
O O3 0.547450 0.741084 0.750479
O O4 0.354376 0.740824 0.142710
O O5 0.878925 0.788591 0.846734
O O6 0.972464 0.505658 0.744724
O O7 0.137651 0.701872 0.702712
O O8 0.785190 0.747389 0.137831
O O9 0.953932 0.765969 0.542032
O O10 0.000000 0.500000 0.500000
O O11 0.436786 0.738296 0.485843
O O12 0.369891 0.797003 0.363434
O O13 0.557055 0.833285 0.568972
O O14 0.600732 0.001818 0.748748
O O15 0.271715 0.974410 0.047985
O O16 0.919698 0.054013 0.405724
O O17 0.500000 0.000000 0.500000
#
# Coordination Sequence:
#
# PCOD8003196 Si02
#       8
#     2   2   2   2   2   2   2   2
#     4  11  24  42  64  95 138 162 205 274 322 372
#     4   9  20  38  61  97 120 159 216 273 299 361
#     4   9  19  37  63  90 127 159 203 262 314 370
#     4  10  23  41  65  96 119 166 224 261 307 373
#     4  12  25  43  59  97 138 170 205 262 323 375
#     4  10  20  36  63  95 128 164 208 259 320 373
#     4  12  23  40  68  89 127 175 216 253 311 385
#     4  11  22  39  68  94 126 167 212 262 320 381
#
# _framework density 20.417014999999999
#
# number of rings (size 3 to 8) (size 9 to 14) (size 15 to 20)
#    0.000    1.500    3.750    1.500    3.500    2.500 
#    0.000    2.500    0.000    0.000    0.000    0.000 
#    0.000    0.000    0.000    0.000    0.000    0.000 
#
# Total GULP energy -198408.857957 kJ/mol
# GULP energy per Si atom -12400.553622 kJ/mol
# Density = 2.037055 g / cm^3
# Si number density = 20.417015 Si / 1000 Ang^3
#
#
#
# Elastic Constant Matrix: (Units=GPa)
#
#
# Indices 1 2 3 4 5 6 
#
# 1 81.2001 24.5877 41.4204 -0.0115 -4.8284 11.5077
# 2 24.5877 44.6201 16.6185 1.1242 -13.7951 7.4339
# 3 41.4204 16.6185 118.0949 1.4676 -3.2292 4.8334
# 4 -0.0115 1.1242 1.4676 17.8799 4.4732 5.4438
# 5 -4.8284 -13.7951 -3.2292 4.4732 26.7283 -0.2252
# 6 11.5077 7.4339 4.8334 5.4438 -0.2252 31.6704
#
#
#
# Elastic Compliance Matrix: (Units=1/GPa)
#
#
# Indices 1 2 3 4 5 6 
#
# 1 0.017761 -0.007864 -0.005033 0.002723 -0.001951 -0.004321
# 2 -0.007864 0.032966 -0.001223 -0.004902 0.016235 -0.003736
# 3 -0.005033 -0.001223 0.010385 -0.000961 -0.000119 0.000695
# 4 0.002723 -0.004902 -0.000961 0.062721 -0.012740 -0.010564
# 5 -0.001951 0.016235 -0.000119 -0.012740 0.047553 -0.000556
# 6 -0.004321 -0.003736 0.000695 -0.010564 -0.000556 0.035728
#
#
# Mechanical properties :
#
#
# Convention : Reuss Voigt Hill
#
# Bulk Modulus (GPa) = 30.42165 45.46315 37.94240
# Shear Modulus (GPa) = 20.29947 26.00828 23.15387
#
# Velocity S-wave (km/s) = 3.15658 3.57298 3.37122
# Velocity P-wave (km/s) = 5.31205 6.27194 5.81184
#
# Compressibility (1/GPa) = 0.03287133
#
# Stress axis : x y z
#
# Youngs Moduli (GPa) = 56.30400 30.33470 96.28929
#
# Poissons Ratio (x) = 0.23856 0.48463
# Poissons Ratio (y) = 0.44278 0.11776
# Poissons Ratio (z) = 0.28338 0.03710
#
# Static dielectric constant tensor:
#      x y z
#    x 3.728920 0.195510 -0.006730 
#    y 0.195510 3.653490 0.259160 
#    z -0.006730 0.259160 3.789240 
# 
# 
# High freq. dielectric constant tensor:
#      x y z
#    x 1.797500 0.014860 -0.011450 
#    y 0.014860 1.782780 0.013520 
#    z -0.011450 0.013520 1.801600 
# 
# From -- ./inp_files/273468.got.cif
#   From: 2010.06.25/outbox.cif.g09.slc.cpg/sg2_137_cif.got.tgz:273468.got - 2010.06.27 13:26:56.
