data_PCOD8003139
_publ_section_title
;
Structure prediction by ZEFSAII (Michael W. Deem and Ramdas Pophale) SiO2 
 PCOD8003139
Probable space group: P -1
;
_chemical_formula_sum "Si O2"
_cell_formula_units_Z 16
_cell_length_a 11.850456
_cell_length_b 9.255194
_cell_length_c 13.216981
_cell_angle_alpha 83.660524
_cell_angle_beta 104.041705
_cell_angle_gamma 142.153758
_cell_volume 854.766157
_symmetry_space_group_name_H-M "P -1"
_symmetry_group_IT_number 2
_symmetry_cell_setting 'triclinic'
loop_
_space_group_symop_operation_xyz
x,y,z
-x,-y,-z
loop_
_atom_site_type_symbol
_atom_site_label
_atom_site_fract_x
_atom_site_fract_y
_atom_site_fract_z
Si Si1 0.679786 0.171448 0.718331
Si Si2 0.652364 0.959530 0.392806
Si Si3 0.914144 0.758434 0.277948
Si Si4 0.524702 0.091185 0.107517
Si Si5 0.893541 0.408252 0.281956
Si Si6 0.568062 0.465079 0.106647
Si Si7 0.679542 0.878641 0.626283
Si Si8 0.399553 0.395650 0.685168
O O1 0.544490 0.147575 0.629393
O O2 0.899964 0.432585 0.729647
O O3 0.625135 0.126053 0.828664
O O4 0.627778 0.959871 0.682883
O O5 0.721447 0.975130 0.515421
O O6 0.609409 0.783609 0.322205
O O7 0.824807 0.226717 0.365812
O O8 0.905046 0.579218 0.320289
O O9 0.799657 0.678305 0.153589
O O10 0.815043 0.752559 0.346642
O O11 0.133759 0.019444 0.297469
O O12 0.739320 0.260429 0.170596
O O13 0.483601 0.222497 0.086615
O O14 0.500000 0.000000 0.000000
O O15 0.492556 0.461251 0.195814
O O16 0.500000 0.500000 0.000000
O O17 0.512986 0.594694 0.607667
#
# Coordination Sequence:
#
# PCOD8003139 Si02
#       8
#     2   2   2   2   2   2   2   2
#     4  10  21  39  58  84 118 149 191 240 279 339
#     4  11  23  33  58  91 114 155 190 234 282 332
#     4   8  20  37  59  78 113 150 188 233 287 330
#     4  10  20  36  63  84 111 150 188 239 293 328
#     4   9  20  39  56  83 120 146 194 237 275 342
#     4   9  19  38  59  80 110 150 182 232 292 334
#     4  11  20  39  60  80 117 157 194 228 284 341
#     4  10  21  38  55  82 121 147 190 235 285 338
#
# _framework density 18.718568999999999
#
# number of rings (size 3 to 8) (size 9 to 14) (size 15 to 20)
#    0.750    1.500    1.250    1.500    3.500    5.000 
#    0.000    0.625    0.000    0.000    0.000    0.000 
#    0.000    0.000    0.000    0.000    0.000    0.000 
#
# Total GULP energy -198285.757706 kJ/mol
# GULP energy per Si atom -12392.859857 kJ/mol
# Density = 1.867596 g / cm^3
# Si number density = 18.718569 Si / 1000 Ang^3
#
#
#
# Elastic Constant Matrix: (Units=GPa)
#
#
# Indices 1 2 3 4 5 6 
#
# 1 105.3380 53.0512 27.8171 4.3676 10.5445 14.3998
# 2 53.0512 65.0213 13.2438 -5.7497 2.4253 10.3417
# 3 27.8171 13.2438 83.8662 -7.7213 1.0481 1.2601
# 4 4.3676 -5.7497 -7.7213 22.0933 -2.4433 0.6279
# 5 10.5445 2.4253 1.0481 -2.4433 30.6093 5.1685
# 6 14.3998 10.3417 1.2601 0.6279 5.1685 31.6603
#
#
#
# Elastic Compliance Matrix: (Units=1/GPa)
#
#
# Indices 1 2 3 4 5 6 
#
# 1 0.020076 -0.015630 -0.005032 -0.010370 -0.005884 -0.002659
# 2 -0.015630 0.029229 0.001658 0.011878 0.004548 -0.003483
# 3 -0.005032 0.001658 0.013891 0.006424 0.001500 0.000822
# 4 -0.010370 0.011878 0.006424 0.053463 0.006951 -0.001614
# 5 -0.005884 0.004548 0.001500 0.006951 0.035655 -0.004828
# 6 -0.002659 -0.003483 0.000822 -0.001614 -0.004828 0.034720
#
#
# Mechanical properties :
#
#
# Convention : Reuss Voigt Hill
#
# Bulk Modulus (GPa) = 39.70178 49.16109 44.43144
# Shear Modulus (GPa) = 21.41878 27.54680 24.48279
#
# Velocity S-wave (km/s) = 3.38635 3.84034 3.62047
# Velocity P-wave (km/s) = 6.04530 6.78120 6.42380
#
# Compressibility (1/GPa) = 0.02518779
#
# Stress axis : x y z
#
# Youngs Moduli (GPa) = 49.81001 34.21238 71.98731
#
# Poissons Ratio (x) = 0.53474 0.36224
# Poissons Ratio (y) = 0.77853 -0.11932
# Poissons Ratio (z) = 0.25065 -0.05671
#
# Static dielectric constant tensor:
#      x y z
#    x 3.494430 0.054930 0.086840 
#    y 0.054930 3.374240 0.057430 
#    z 0.086840 0.057430 3.211250 
# 
# 
# High freq. dielectric constant tensor:
#      x y z
#    x 1.730990 -0.002070 0.004570 
#    y -0.002070 1.719100 0.001980 
#    z 0.004570 0.001980 1.711270 
# 
# From -- ./inp_files/514303.got.cif
#   From: 2010.06.25/outbox.cif.g09.slc.cpg/sg2_258_cif.got.tgz:514303.got - 2010.06.27 13:26:56.
