data_PCOD8003624
_publ_section_title
;
Structure prediction by ZEFSAII (Michael W. Deem and Ramdas Pophale) SiO2 
 PCOD8003624
Probable space group: P -1
;
_chemical_formula_sum "Si O2"
_cell_formula_units_Z 14
_cell_length_a 16.406299
_cell_length_b 7.710555
_cell_length_c 7.135791
_cell_angle_alpha 61.189726
_cell_angle_beta 125.834298
_cell_angle_gamma 110.741777
_cell_volume 637.933157
_symmetry_space_group_name_H-M "P -1"
_symmetry_group_IT_number 2
_symmetry_cell_setting 'triclinic'
loop_
_space_group_symop_operation_xyz
x,y,z
-x,-y,-z
loop_
_atom_site_type_symbol
_atom_site_label
_atom_site_fract_x
_atom_site_fract_y
_atom_site_fract_z
Si Si1 0.684304 0.520825 0.932474
Si Si2 0.683703 0.911134 0.545603
Si Si3 0.531145 0.630288 0.251282
Si Si4 0.892610 0.527560 0.103854
Si Si5 0.890775 0.883877 0.646419
Si Si6 0.390853 0.679342 0.718104
Si Si7 0.958722 0.761879 0.427181
O O1 0.700369 0.761463 0.816066
O O2 0.572870 0.444684 0.733406
O O3 0.774255 0.438708 0.973523
O O4 0.690632 0.451494 0.192168
O O5 0.596908 0.809795 0.345420
O O6 0.786366 0.956973 0.541155
O O7 0.650373 0.110251 0.490013
O O8 0.594253 0.440723 0.391411
O O9 0.496783 0.712732 0.959087
O O10 0.964244 0.352672 0.281914
O O11 0.897794 0.621013 0.270858
O O12 0.921420 0.690365 0.898458
O O13 0.881262 0.838828 0.433956
O O14 0.980544 0.060422 0.701408
#
# Coordination Sequence:
#
# PCOD8003624 Si02
#       7
#     2   2   2   2   2   2   2
#     4   9  20  35  55  83 113 139 190 231 264 345
#     4  11  20  36  59  79 114 152 176 231 288 318
#     4   9  20  37  54  83 114 143 188 227 267 343
#     4  10  20  37  60  81 111 149 184 231 287 327
#     4  10  22  36  56  86 113 139 195 231 269 355
#     4   9  20  36  53  79 115 145 186 228 266 334
#     4  10  21  37  59  80 111 151 179 236 289 323
#
# _framework density 21.945874
#
# number of rings (size 3 to 8) (size 9 to 14) (size 15 to 20)
#    0.857    1.429    0.000    2.571    2.000    0.571 
#    0.000    0.000   18.857    0.000    0.000    0.000 
#    0.000    0.000    0.000    0.000    0.000    0.000 
#
# Total GULP energy -173494.557985 kJ/mol
# GULP energy per Si atom -12392.468427 kJ/mol
# Density = 2.189592 g / cm^3
# Si number density = 21.945874 Si / 1000 Ang^3
#
#
#
# Elastic Constant Matrix: (Units=GPa)
#
#
# Indices 1 2 3 4 5 6 
#
# 1 84.1520 29.7831 21.2667 -3.8881 6.2743 11.5817
# 2 29.7831 52.2555 15.1071 -10.4156 -1.8393 2.6538
# 3 21.2667 15.1071 55.4054 -20.4510 2.6843 10.0195
# 4 -3.8881 -10.4156 -20.4510 28.6401 0.2059 -1.3487
# 5 6.2743 -1.8393 2.6843 0.2059 25.4027 -4.0721
# 6 11.5817 2.6538 10.0195 -1.3487 -4.0721 33.1383
#
#
#
# Elastic Compliance Matrix: (Units=1/GPa)
#
#
# Indices 1 2 3 4 5 6 
#
# 1 0.017157 -0.009287 -0.004638 -0.004543 -0.005131 -0.004666
# 2 -0.009287 0.026387 -0.001634 0.007252 0.004719 0.002502
# 3 -0.004638 -0.001634 0.028585 0.018904 -0.003191 -0.006514
# 4 -0.004543 0.007252 0.018904 0.050312 -0.001209 -0.002810
# 5 -0.005131 0.004719 -0.003191 -0.001209 0.042533 0.007558
# 6 -0.004666 0.002502 -0.006514 -0.002810 0.007558 0.034391
#
#
# Mechanical properties :
#
#
# Convention : Reuss Voigt Hill
#
# Bulk Modulus (GPa) = 24.38382 36.01404 30.19893
# Shear Modulus (GPa) = 20.47902 25.81329 23.14616
#
# Velocity S-wave (km/s) = 3.05808 3.43333 3.25113
# Velocity P-wave (km/s) = 4.85841 5.67125 5.28049
#
# Compressibility (1/GPa) = 0.04101081
#
# Stress axis : x y z
#
# Youngs Moduli (GPa) = 58.28547 37.89758 34.98380
#
# Poissons Ratio (x) = 0.35195 0.16224
# Poissons Ratio (y) = 0.54129 0.05717
# Poissons Ratio (z) = 0.27031 0.06193
#
# Static dielectric constant tensor:
#      x y z
#    x 3.928060 0.149900 0.095220 
#    y 0.149900 3.601930 -0.171630 
#    z 0.095220 -0.171630 3.815480 
# 
# 
# High freq. dielectric constant tensor:
#      x y z
#    x 1.869330 0.012710 0.003390 
#    y 0.012710 1.838210 -0.014220 
#    z 0.003390 -0.014220 1.856290 
# 
# From -- ./inp_files/327214.got.cif
#   From: 2010.06.25/outbox.cif.g09.slc.cpg/sg2_164_cif.got.tgz:327214.got - 2010.06.27 13:26:56.
