data_PCOD8003239
_publ_section_title
;
Structure prediction by ZEFSAII (Michael W. Deem and Ramdas Pophale) SiO2 
 PCOD8003239
Probable space group: P -1
;
_chemical_formula_sum "Si O2"
_cell_formula_units_Z 16
_cell_length_a 15.761756
_cell_length_b 8.474078
_cell_length_c 15.833736
_cell_angle_alpha 92.771529
_cell_angle_beta 36.502235
_cell_angle_gamma 120.180570
_cell_volume 785.232716
_symmetry_space_group_name_H-M "P -1"
_symmetry_group_IT_number 2
_symmetry_cell_setting 'triclinic'
loop_
_space_group_symop_operation_xyz
x,y,z
-x,-y,-z
loop_
_atom_site_type_symbol
_atom_site_label
_atom_site_fract_x
_atom_site_fract_y
_atom_site_fract_z
Si Si1 0.222375 0.104490 0.351474
Si Si2 0.373272 0.307719 0.976486
Si Si3 0.458095 0.550130 0.620663
Si Si4 0.883379 0.949289 0.378198
Si Si5 0.588064 0.789531 0.238487
Si Si6 0.696889 0.044385 0.858733
Si Si7 0.022128 0.367447 0.921463
Si Si8 0.900396 0.588127 0.335190
O O1 0.428283 0.395187 0.167412
O O2 0.211970 0.065846 0.458246
O O3 0.226039 0.939292 0.296751
O O4 0.000000 0.000000 0.500000
O O5 0.387116 0.209569 0.880940
O O6 0.387321 0.192914 0.037947
O O7 0.145015 0.222250 0.157965
O O8 0.500000 0.500000 0.500000
O O9 0.695254 0.849308 0.459095
O O10 0.408800 0.382188 0.729201
O O11 0.249821 0.486430 0.777538
O O12 0.893005 0.768616 0.358537
O O13 0.356765 0.689638 0.442006
O O14 0.803819 0.071062 0.108403
O O15 0.903677 0.304405 0.753981
O O16 0.500000 0.000000 0.000000
O O17 0.041800 0.418023 0.806474
O O18 0.000000 0.500000 0.000000
#
# Coordination Sequence:
#
# PCOD8003239 Si02
#       8
#     2   2   2   2   2   2   2   2
#     4  12  21  39  67  95 121 166 218 254 304 371
#     4  11  20  40  68  92 123 172 208 260 317 359
#     4  11  20  41  66  92 120 164 215 255 304 375
#     4  10  20  36  64  92 126 154 217 263 296 361
#     4  11  20  41  70  87 124 172 209 258 316 366
#     4  11  24  41  66  93 134 166 205 260 319 380
#     4  12  25  40  65  94 129 166 204 261 321 380
#     4  10  20  43  60  87 131 164 203 256 325 359
#
# _framework density 20.376123
#
# number of rings (size 3 to 8) (size 9 to 14) (size 15 to 20)
#    0.000    1.000   10.000    0.750    0.000    1.500 
#    0.000    3.750    0.000    0.000    0.000    0.000 
#    0.000    0.000    0.000    0.000    0.000    0.000 
#
# Total GULP energy -198288.843900 kJ/mol
# GULP energy per Si atom -12393.052744 kJ/mol
# Density = 2.032975 g / cm^3
# Si number density = 20.376123 Si / 1000 Ang^3
#
#
#
# Elastic Constant Matrix: (Units=GPa)
#
#
# Indices 1 2 3 4 5 6 
#
# 1 102.5875 46.4385 66.2574 9.4077 -33.5859 30.0810
# 2 46.4385 91.2316 57.1723 22.6737 -13.8064 25.0405
# 3 66.2574 57.1723 162.6961 2.5634 -32.7436 16.4921
# 4 9.4077 22.6737 2.5634 46.9319 12.8743 3.3728
# 5 -33.5859 -13.8064 -32.7436 12.8743 50.8900 2.9070
# 6 30.0810 25.0405 16.4921 3.3728 2.9070 30.4691
#
#
#
# Elastic Compliance Matrix: (Units=1/GPa)
#
#
# Indices 1 2 3 4 5 6 
#
# 1 0.026740 0.001726 -0.004955 -0.009201 0.018736 -0.025905
# 2 0.001726 0.021664 -0.004939 -0.011476 0.007673 -0.016297
# 3 -0.004955 -0.004939 0.009688 0.002381 0.000829 0.003364
# 4 -0.009201 -0.011476 0.002381 0.032031 -0.016630 0.015268
# 5 0.018736 0.007673 0.000829 -0.016630 0.040395 -0.027265
# 6 -0.025905 -0.016297 0.003364 0.015268 -0.027265 0.070879
#
#
# Mechanical properties :
#
#
# Convention : Reuss Voigt Hill
#
# Bulk Modulus (GPa) = 23.94786 77.36130 50.65458
# Shear Modulus (GPa) = 21.58424 38.10133 29.84279
#
# Velocity S-wave (km/s) = 3.25821 4.32893 3.83116
# Velocity P-wave (km/s) = 5.09244 7.93947 6.66964
#
# Compressibility (1/GPa) = 0.04175738
#
# Stress axis : x y z
#
# Youngs Moduli (GPa) = 37.39699 46.16001 103.21910
#
# Poissons Ratio (x) = -0.07968 0.51144
# Poissons Ratio (y) = -0.06456 0.50977
# Poissons Ratio (z) = 0.18530 0.22797
#
# Static dielectric constant tensor:
#      x y z
#    x 4.199380 0.906500 0.293810 
#    y 0.906500 3.791270 0.168590 
#    z 0.293810 0.168590 4.841890 
# 
# 
# High freq. dielectric constant tensor:
#      x y z
#    x 1.783680 0.044810 -0.012200 
#    y 0.044810 1.776550 0.004300 
#    z -0.012200 0.004300 1.820870 
# 
# From -- ./inp_files/528590.got.cif
#   From: 2010.06.25/outbox.cif.g09.slc.cpg/sg2_265_cif.got.tgz:528590.got - 2010.06.27 13:26:56.
