data_PCOD8003023
_publ_section_title
;
Structure prediction by ZEFSAII (Michael W. Deem and Ramdas Pophale) SiO2 
 PCOD8003023
Probable space group: P -1
;
_chemical_formula_sum "Si O2"
_cell_formula_units_Z 14
_cell_length_a 12.489895
_cell_length_b 18.805138
_cell_length_c 10.815948
_cell_angle_alpha 38.548812
_cell_angle_beta 124.006575
_cell_angle_gamma 150.552394
_cell_volume 714.212363
_symmetry_space_group_name_H-M "P -1"
_symmetry_group_IT_number 2
_symmetry_cell_setting 'triclinic'
loop_
_space_group_symop_operation_xyz
x,y,z
-x,-y,-z
loop_
_atom_site_type_symbol
_atom_site_label
_atom_site_fract_x
_atom_site_fract_y
_atom_site_fract_z
Si Si1 0.309552 0.035821 0.832770
Si Si2 0.314639 0.161555 0.027916
Si Si3 0.814548 0.591624 0.716221
Si Si4 0.226213 0.822567 0.841441
Si Si5 0.826942 0.448221 0.686225
Si Si6 0.885939 0.892183 0.272943
Si Si7 0.731996 0.117389 0.735439
O O1 0.590506 0.270813 0.691217
O O2 0.152933 0.031489 0.763459
O O3 0.228988 0.928583 0.795258
O O4 0.260752 0.904800 0.084117
O O5 0.592087 0.381945 0.939119
O O6 0.263712 0.203579 0.819212
O O7 0.247844 0.981766 0.198337
O O8 0.163880 0.089634 0.146888
O O9 0.794514 0.526601 0.654729
O O10 0.803627 0.719614 0.527218
O O11 0.055118 0.727059 0.749058
O O12 0.484260 0.996033 0.711046
O O13 0.133676 0.639907 0.095860
O O14 0.947511 0.361876 0.513081
#
# Coordination Sequence:
#
# PCOD8003023 Si02
#       7
#     2   2   2   2   2   2   2
#     4  10  23  41  59  85 121 155 190 239 283 349
#     4  10  20  36  61  92 112 142 197 254 280 327
#     4  12  22  37  61  91 116 153 189 242 294 337
#     4  11  25  39  55  88 129 151 184 236 296 351
#     4  11  21  38  65  87 111 154 202 237 284 335
#     4  10  21  37  61  85 117 148 199 236 287 336
#     4  10  20  38  64  87 112 150 201 241 283 333
#
# _framework density 19.602011999999998
#
# number of rings (size 3 to 8) (size 9 to 14) (size 15 to 20)
#    0.000    1.429    5.714    2.571    0.000    4.571 
#    0.000    0.714    0.000    0.000    0.000    0.000 
#    0.000    0.000    0.000    0.000    0.000    0.000 
#
# Total GULP energy -173658.997668 kJ/mol
# GULP energy per Si atom -12404.214119 kJ/mol
# Density = 1.955740 g / cm^3
# Si number density = 19.602012 Si / 1000 Ang^3
#
#
#
# Elastic Constant Matrix: (Units=GPa)
#
#
# Indices 1 2 3 4 5 6 
#
# 1 85.0850 28.9124 32.3431 -14.6658 3.8168 18.7480
# 2 28.9124 55.0500 21.4148 -15.8284 -10.9198 12.0629
# 3 32.3431 21.4148 74.3195 -24.0910 -9.4176 9.9652
# 4 -14.6658 -15.8284 -24.0910 24.6755 16.0468 -7.3876
# 5 3.8168 -10.9198 -9.4176 16.0468 25.9371 -9.5949
# 6 18.7480 12.0629 9.9652 -7.3876 -9.5949 23.0169
#
#
#
# Elastic Compliance Matrix: (Units=1/GPa)
#
#
# Indices 1 2 3 4 5 6 
#
# 1 0.023772 -0.007077 -0.003442 0.016932 -0.025340 -0.019293
# 2 -0.007077 0.026022 -0.001251 0.006040 0.006871 -0.002530
# 3 -0.003442 -0.001251 0.021926 0.022258 -0.006407 -0.001561
# 4 0.016932 0.006040 0.022258 0.116795 -0.071054 -0.018727
# 5 -0.025340 0.006871 -0.006407 -0.071054 0.101329 0.039248
# 6 -0.019293 -0.002530 -0.001561 -0.018727 0.039248 0.071513
#
#
# Mechanical properties :
#
#
# Convention : Reuss Voigt Hill
#
# Bulk Modulus (GPa) = 20.75473 42.19946 31.47709
# Shear Modulus (GPa) = 12.47015 23.51153 17.99084
#
# Velocity S-wave (km/s) = 2.52497 3.46706 3.03282
# Velocity P-wave (km/s) = 4.37169 6.13206 5.32512
#
# Compressibility (1/GPa) = 0.04818179
#
# Stress axis : x y z
#
# Youngs Moduli (GPa) = 42.06561 38.42844 45.60762
#
# Poissons Ratio (x) = 0.27195 0.15697
# Poissons Ratio (y) = 0.29769 0.05705
# Poissons Ratio (z) = 0.14478 0.04807
#
# Static dielectric constant tensor:
#      x y z
#    x 3.654480 0.235450 0.058570 
#    y 0.235450 3.429340 -0.204940 
#    z 0.058570 -0.204940 3.509150 
# 
# 
# High freq. dielectric constant tensor:
#      x y z
#    x 1.771670 0.018320 0.008390 
#    y 0.018320 1.744600 -0.016180 
#    z 0.008390 -0.016180 1.758130 
# 
# From -- ./inp_files/435495.got.cif
#   From: 2010.06.25/outbox.cif.g09.slc.cpg/sg2_218_cif.got.tgz:435495.got - 2010.06.27 13:26:56.
