data_PCOD8003122
_publ_section_title
;
Structure prediction by ZEFSAII (Michael W. Deem and Ramdas Pophale) SiO2 
 PCOD8003122
Probable space group: P -1
;
_chemical_formula_sum "Si O2"
_cell_formula_units_Z 16
_cell_length_a 9.293571
_cell_length_b 19.974478
_cell_length_c 7.491350
_cell_angle_alpha 86.226896
_cell_angle_beta 123.435202
_cell_angle_gamma 135.452807
_cell_volume 675.366695
_symmetry_space_group_name_H-M "P -1"
_symmetry_group_IT_number 2
_symmetry_cell_setting 'triclinic'
loop_
_space_group_symop_operation_xyz
x,y,z
-x,-y,-z
loop_
_atom_site_type_symbol
_atom_site_label
_atom_site_fract_x
_atom_site_fract_y
_atom_site_fract_z
Si Si1 0.594269 0.151033 0.182709
Si Si2 0.789046 0.637381 0.303047
Si Si3 0.662199 0.463485 0.697554
Si Si4 0.330886 0.678277 0.147395
Si Si5 0.460153 0.261078 0.107529
Si Si6 0.858374 0.023915 0.830378
Si Si7 0.674563 0.912640 0.363281
Si Si8 0.453329 0.571366 0.761242
O O1 0.570745 0.220402 0.226701
O O2 0.386602 0.035087 0.176994
O O3 0.933569 0.238719 0.436095
O O4 0.515136 0.117198 0.926242
O O5 0.493790 0.559057 0.228732
O O6 0.806982 0.561113 0.322234
O O7 0.744370 0.652041 0.069733
O O8 0.676482 0.387229 0.716468
O O9 0.484691 0.428911 0.403247
O O10 0.997619 0.597303 0.888657
O O11 0.509763 0.794380 0.345891
O O12 0.517738 0.718867 0.091744
O O13 0.642809 0.380194 0.302599
O O14 0.120550 0.160818 0.963245
O O15 0.695375 0.967961 0.536683
O O16 0.000000 0.000000 0.000000
O O17 0.000000 0.000000 0.500000
#
# Coordination Sequence:
#
# PCOD8003122 Si02
#       8
#     2   2   2   2   2   2   2   2
#     4  10  23  38  66  96 124 164 208 260 307 370
#     4  11  25  45  59  93 134 161 208 258 310 378
#     4  11  24  42  64  91 128 164 210 253 310 376
#     4  10  22  39  65  99 121 158 213 263 299 370
#     4  10  20  41  62  95 123 158 212 260 295 367
#     4  10  20  36  62  95 124 156 209 260 302 363
#     4  11  19  36  64  93 127 161 202 260 317 350
#     4  11  24  40  67  86 128 174 197 253 321 362
#
# _framework density 23.690832
#
# number of rings (size 3 to 8) (size 9 to 14) (size 15 to 20)
#    0.000    1.500    5.000    1.875    3.500    5.000 
#    0.000    0.625    0.000    3.750    0.000    0.000 
#    0.000    0.000    0.000    0.000    0.000    0.000 
#
# Total GULP energy -198267.927491 kJ/mol
# GULP energy per Si atom -12391.745468 kJ/mol
# Density = 2.363691 g / cm^3
# Si number density = 23.690832 Si / 1000 Ang^3
#
#
#
# Elastic Constant Matrix: (Units=GPa)
#
#
# Indices 1 2 3 4 5 6 
#
# 1 36.6096 20.8225 14.0004 -0.8025 -8.7746 4.6575
# 2 20.8225 101.4684 38.5486 12.5558 6.9809 18.4720
# 3 14.0004 38.5486 146.3450 -3.6954 -5.3063 22.2423
# 4 -0.8025 12.5558 -3.6954 33.1179 9.1658 -2.0303
# 5 -8.7746 6.9809 -5.3063 9.1658 26.6812 2.9289
# 6 4.6575 18.4720 22.2423 -2.0303 2.9289 24.8962
#
#
#
# Elastic Compliance Matrix: (Units=1/GPa)
#
#
# Indices 1 2 3 4 5 6 
#
# 1 0.035434 -0.007580 -0.000572 -0.000300 0.013861 -0.002150
# 2 -0.007580 0.014535 -0.002282 -0.005246 -0.004150 -0.007268
# 3 -0.000572 -0.002282 0.008517 0.000735 0.002514 -0.006045
# 4 -0.000300 -0.005246 0.000735 0.035985 -0.011777 0.007612
# 5 0.013861 -0.004150 0.002514 -0.011777 0.048596 -0.008438
# 6 -0.002150 -0.007268 -0.006045 0.007612 -0.008438 0.052975
#
#
# Mechanical properties :
#
#
# Convention : Reuss Voigt Hill
#
# Bulk Modulus (GPa) = 26.58121 47.90735 37.24428
# Shear Modulus (GPa) = 21.79125 31.00915 26.40020
#
# Velocity S-wave (km/s) = 3.03614 3.62181 3.34183
# Velocity P-wave (km/s) = 4.85132 6.14458 5.53584
#
# Compressibility (1/GPa) = 0.03762056
#
# Stress axis : x y z
#
# Youngs Moduli (GPa) = 28.22141 68.79791 117.40599
#
# Poissons Ratio (x) = 0.52146 0.06711
# Poissons Ratio (y) = 0.21391 0.26792
# Poissons Ratio (z) = 0.01613 0.15699
#
# Static dielectric constant tensor:
#      x y z
#    x 3.887130 0.108090 -0.151690 
#    y 0.108090 4.822670 0.126510 
#    z -0.151690 0.126510 4.270290 
# 
# 
# High freq. dielectric constant tensor:
#      x y z
#    x 1.893050 0.011820 -0.015440 
#    y 0.011820 1.955290 0.001880 
#    z -0.015440 0.001880 1.934310 
# 
# From -- ./inp_files/284823.got.cif
#   From: 2010.06.25/outbox.cif.g09.slc.cpg/sg2_143_cif.got.tgz:284823.got - 2010.06.27 13:26:56.
