data_PCOD8003317
_publ_section_title
;
Structure prediction by ZEFSAII (Michael W. Deem and Ramdas Pophale) SiO2 
 PCOD8003317
Probable space group: P -1
;
_chemical_formula_sum "Si O2"
_cell_formula_units_Z 16
_cell_length_a 18.166525
_cell_length_b 16.630214
_cell_length_c 5.344691
_cell_angle_alpha 102.960702
_cell_angle_beta 85.008363
_cell_angle_gamma 150.176248
_cell_volume 763.069006
_symmetry_space_group_name_H-M "P -1"
_symmetry_group_IT_number 2
_symmetry_cell_setting 'triclinic'
loop_
_space_group_symop_operation_xyz
x,y,z
-x,-y,-z
loop_
_atom_site_type_symbol
_atom_site_label
_atom_site_fract_x
_atom_site_fract_y
_atom_site_fract_z
Si Si1 0.218061 0.079696 0.509215
Si Si2 0.836419 0.410952 0.874890
Si Si3 0.004906 0.238073 0.372687
Si Si4 0.892594 0.973220 0.999491
Si Si5 0.846164 0.224974 0.124533
Si Si6 0.655804 0.104269 0.494405
Si Si7 0.391042 0.097606 0.362323
Si Si8 0.270462 0.603884 0.607326
O O1 0.076391 0.876912 0.433817
O O2 0.222682 0.139582 0.804439
O O3 0.369793 0.172275 0.502970
O O4 0.199182 0.119055 0.298796
O O5 0.774519 0.255412 0.774520
O O6 0.753793 0.371517 0.629693
O O7 0.019284 0.594943 0.934898
O O8 0.784820 0.399102 0.140506
O O9 0.180814 0.429297 0.506668
O O10 0.927444 0.248980 0.329347
O O11 0.991588 0.154395 0.103599
O O12 0.000000 0.000000 0.000000
O O13 0.737665 0.189294 0.258590
O O14 0.744926 0.061736 0.889647
O O15 0.500000 0.000000 0.500000
O O16 0.619995 0.972811 0.445114
O O17 0.554431 0.246843 0.291170
#
# Coordination Sequence:
#
# PCOD8003317 Si02
#       8
#     2   2   2   2   2   2   2   2
#     4  10  20  37  62  93 119 161 198 243 296 370
#     4  11  26  42  59  87 120 161 218 261 313 351
#     4   9  21  39  63  89 121 155 208 237 306 359
#     4  10  20  36  66  98 122 148 195 250 297 355
#     4  11  23  41  62  86 119 166 211 263 305 365
#     4  12  24  40  58  88 123 165 209 269 319 351
#     4  12  23  39  64  85 127 163 212 252 312 362
#     4  11  25  40  62  88 123 165 204 259 303 366
#
# _framework density 20.967960999999999
#
# number of rings (size 3 to 8) (size 9 to 14) (size 15 to 20)
#    0.750    0.500    3.750    2.250    5.250    1.500 
#    0.000    0.000    0.000    1.500    0.000    0.000 
#    0.000    0.000    0.000    0.000    0.000    0.000 
#
# Total GULP energy -198260.593126 kJ/mol
# GULP energy per Si atom -12391.287070 kJ/mol
# Density = 2.092024 g / cm^3
# Si number density = 20.967961 Si / 1000 Ang^3
#
#
#
# Elastic Constant Matrix: (Units=GPa)
#
#
# Indices 1 2 3 4 5 6 
#
# 1 81.9881 26.3940 12.8490 -15.0990 -4.6688 25.6357
# 2 26.3940 100.5801 23.3835 -6.7727 -2.7351 33.7751
# 3 12.8490 23.3835 94.6022 -22.4205 -0.7895 14.3393
# 4 -15.0990 -6.7727 -22.4205 33.5752 3.7032 -2.5518
# 5 -4.6688 -2.7351 -0.7895 3.7032 33.1434 -5.0008
# 6 25.6357 33.7751 14.3393 -2.5518 -5.0008 32.3576
#
#
#
# Elastic Compliance Matrix: (Units=1/GPa)
#
#
# Indices 1 2 3 4 5 6 
#
# 1 0.017901 0.000424 0.001636 0.008165 -0.000548 -0.014790
# 2 0.000424 0.015597 -0.001110 0.001506 -0.001293 -0.016205
# 3 0.001636 -0.001110 0.013698 0.009385 -0.001442 -0.005690
# 4 0.008165 0.001506 0.009385 0.039773 -0.004416 -0.009746
# 5 -0.000548 -0.001293 -0.001442 -0.004416 0.031495 0.006942
# 6 -0.014790 -0.016205 -0.005690 -0.009746 0.006942 0.062364
#
#
# Mechanical properties :
#
#
# Convention : Reuss Voigt Hill
#
# Bulk Modulus (GPa) = 20.36871 44.71372 32.54121
# Shear Modulus (GPa) = 25.60255 34.11818 29.86037
#
# Velocity S-wave (km/s) = 3.49812 4.03818 3.77781
# Velocity P-wave (km/s) = 5.10402 6.56610 5.88068
#
# Compressibility (1/GPa) = 0.04909491
#
# Stress axis : x y z
#
# Youngs Moduli (GPa) = 55.86241 64.11365 73.00591
#
# Poissons Ratio (x) = -0.02716 -0.11946
# Poissons Ratio (y) = -0.02366 0.08106
# Poissons Ratio (z) = -0.09140 0.07119
#
# Static dielectric constant tensor:
#      x y z
#    x 3.627170 0.069100 0.031160 
#    y 0.069100 3.898670 -0.031570 
#    z 0.031160 -0.031570 3.828330 
# 
# 
# High freq. dielectric constant tensor:
#      x y z
#    x 1.807760 0.012990 0.003710 
#    y 0.012990 1.808030 -0.016620 
#    z 0.003710 -0.016620 1.822850 
# 
# From -- ./inp_files/111669.got.cif
#   From: 2010.06.25/outbox.cif.g09.slc.cpg/sg2_56_cif.got.tgz:111669.got - 2010.06.27 13:26:56.
