data_PCOD8003991
_publ_section_title
;
Structure prediction by ZEFSAII (Michael W. Deem and Ramdas Pophale) SiO2 
 PCOD8003991
Probable space group: P -1
;
_chemical_formula_sum "Si O2"
_cell_formula_units_Z 14
_cell_length_a 19.042620
_cell_length_b 8.675782
_cell_length_c 14.045637
_cell_angle_alpha 35.753272
_cell_angle_beta 26.770529
_cell_angle_gamma 40.212454
_cell_volume 603.920235
_symmetry_space_group_name_H-M "P -1"
_symmetry_group_IT_number 2
_symmetry_cell_setting 'triclinic'
loop_
_space_group_symop_operation_xyz
x,y,z
-x,-y,-z
loop_
_atom_site_type_symbol
_atom_site_label
_atom_site_fract_x
_atom_site_fract_y
_atom_site_fract_z
Si Si1 0.227280 0.830395 0.742542
Si Si2 0.669665 0.661841 0.023471
Si Si3 0.745386 0.687221 0.406922
Si Si4 0.052637 0.372910 0.169573
Si Si5 0.258436 0.089452 0.911191
Si Si6 0.575394 0.468136 0.044340
Si Si7 0.527241 0.021036 0.756720
O O1 0.345956 0.627268 0.766557
O O2 0.305666 0.900523 0.513258
O O3 0.180696 0.100953 0.723176
O O4 0.080287 0.683446 0.963093
O O5 0.658209 0.640300 0.935239
O O6 0.523042 0.879121 0.126701
O O7 0.837599 0.747561 0.813250
O O8 0.729739 0.786553 0.268256
O O9 0.575771 0.645643 0.673282
O O10 0.866284 0.405428 0.403689
O O11 0.095060 0.198009 0.109942
O O12 0.397937 0.176587 0.763156
O O13 0.286832 0.767297 0.034558
O O14 0.529170 0.697220 0.904107
#
# Coordination Sequence:
#
# PCOD8003991 Si02
#       7
#     2   2   2   2   2   2   2
#     4  10  20  37  63  80 120 150 201 232 287 343
#     4   9  21  40  61  87 111 160 197 239 281 353
#     4  12  22  38  63  91 116 152 196 249 291 340
#     4   9  23  39  64  84 118 154 200 236 296 345
#     4  11  21  39  60  89 116 155 196 245 282 347
#     4  12  23  36  64  90 119 148 201 246 288 341
#     4  11  22  37  59  92 118 154 193 244 292 341
#
# _framework density 23.181868999999999
#
# number of rings (size 3 to 8) (size 9 to 14) (size 15 to 20)
#    0.857    0.571    2.857    3.429    2.000    0.000 
#    0.000    2.857    3.143    1.714    0.000    0.000 
#    0.000    0.000    0.000    0.000    0.000    0.000 
#
# Total GULP energy -173492.674772 kJ/mol
# GULP energy per Si atom -12392.333912 kJ/mol
# Density = 2.312911 g / cm^3
# Si number density = 23.181869 Si / 1000 Ang^3
#
#
#
# Elastic Constant Matrix: (Units=GPa)
#
#
# Indices 1 2 3 4 5 6 
#
# 1 50.4883 12.5966 0.8185 13.3207 0.3324 7.6957
# 2 12.5966 138.3702 26.1509 30.0418 0.4975 3.6362
# 3 0.8185 26.1509 18.8751 8.1095 0.4444 -8.7048
# 4 13.3207 30.0418 8.1095 27.3159 -0.4771 6.5431
# 5 0.3324 0.4975 0.4444 -0.4771 11.4370 -0.6590
# 6 7.6957 3.6362 -8.7048 6.5431 -0.6590 29.4413
#
#
#
# Elastic Compliance Matrix: (Units=1/GPa)
#
#
# Indices 1 2 3 4 5 6 
#
# 1 0.023224 -0.000084 0.002801 -0.011437 -0.001414 -0.002722
# 2 -0.000084 0.011829 -0.015136 -0.007462 -0.000481 -0.004267
# 3 0.002801 -0.015136 0.100402 -0.023170 -0.002221 0.035922
# 4 -0.011437 -0.007462 -0.023170 0.061275 0.003163 -0.016487
# 5 -0.001414 -0.000481 -0.002221 0.003163 0.087776 0.001034
# 6 -0.002722 -0.004267 0.035922 -0.016487 0.001034 0.049512
#
#
# Mechanical properties :
#
#
# Convention : Reuss Voigt Hill
#
# Bulk Modulus (GPa) = 9.04014 31.87398 20.45706
# Shear Modulus (GPa) = 12.63493 24.85001 18.74247
#
# Velocity S-wave (km/s) = 2.33713 3.27763 2.84649
# Velocity P-wave (km/s) = 3.34530 5.30124 4.43251
#
# Compressibility (1/GPa) = 0.11061770
#
# Stress axis : x y z
#
# Youngs Moduli (GPa) = 43.05926 84.53812 9.95994
#
# Poissons Ratio (x) = 0.00708 -0.02790
# Poissons Ratio (y) = 0.00361 0.15075
# Poissons Ratio (z) = -0.12060 1.27954
#
# Static dielectric constant tensor:
#      x y z
#    x 4.067520 0.167710 0.121960 
#    y 0.167710 4.382900 0.114460 
#    z 0.121960 0.114460 3.600300 
# 
# 
# High freq. dielectric constant tensor:
#      x y z
#    x 1.911930 0.013330 0.011660 
#    y 0.013330 1.936580 0.009510 
#    z 0.011660 0.009510 1.869870 
# 
# From -- ./inp_files/198991.got.cif
#   From: 2010.06.25/outbox.cif.g09.slc.cpg/sg2_100_cif.got.tgz:198991.got - 2010.06.27 13:26:56.
