data_PCOD8003102
_publ_section_title
;
Structure prediction by ZEFSAII (Michael W. Deem and Ramdas Pophale) SiO2 
 PCOD8003102
Probable space group: P -1
;
_chemical_formula_sum "Si O2"
_cell_formula_units_Z 16
_cell_length_a 24.996562
_cell_length_b 19.024622
_cell_length_c 8.647761
_cell_angle_alpha 147.186996
_cell_angle_beta 34.907466
_cell_angle_gamma 159.008224
_cell_volume 784.939455
_symmetry_space_group_name_H-M "P -1"
_symmetry_group_IT_number 2
_symmetry_cell_setting 'triclinic'
loop_
_space_group_symop_operation_xyz
x,y,z
-x,-y,-z
loop_
_atom_site_type_symbol
_atom_site_label
_atom_site_fract_x
_atom_site_fract_y
_atom_site_fract_z
Si Si1 0.955345 0.957257 0.206416
Si Si2 0.743367 0.819893 0.015897
Si Si3 0.063608 0.475499 0.176048
Si Si4 0.508161 0.515596 0.761842
Si Si5 0.168221 0.897168 0.195737
Si Si6 0.510872 0.303235 0.121231
Si Si7 0.818380 0.543144 0.867274
Si Si8 0.105133 0.758187 0.430735
O O1 0.857189 0.976889 0.506293
O O2 0.851012 0.728790 0.095923
O O3 0.000000 0.000000 0.000000
O O4 0.115267 0.124977 0.228884
O O5 0.628880 0.641520 0.084329
O O6 0.801029 0.027034 0.306945
O O7 0.663118 0.732484 0.877862
O O8 0.158415 0.467481 0.025141
O O9 0.162165 0.677209 0.201020
O O10 0.000000 0.500000 0.500000
O O11 0.925319 0.260085 0.015110
O O12 0.529747 0.399399 0.417054
O O13 0.458066 0.566925 0.853105
O O14 0.115458 0.775003 0.254083
O O15 0.344896 0.058292 0.049289
O O16 0.638638 0.329190 0.861245
O O17 0.925697 0.573665 0.558893
#
# Coordination Sequence:
#
# PCOD8003102 Si02
#       8
#     2   2   2   2   2   2   2   2
#     4  11  19  35  64  96 124 155 207 251 311 372
#     4  10  20  36  62  92 124 168 201 250 310 374
#     4  10  25  44  64  89 122 166 221 258 293 355
#     4  10  21  35  57  90 139 160 188 253 324 381
#     4  12  23  39  69  92 125 167 201 258 313 368
#     4  11  22  37  57  97 129 156 195 253 326 371
#     4  10  22  40  63  91 131 154 202 261 307 368
#     4  10  21  44  65  85 121 170 218 245 294 370
#
# _framework density 20.383738000000001
#
# number of rings (size 3 to 8) (size 9 to 14) (size 15 to 20)
#    0.000    1.500    3.750    2.625    7.000    0.500 
#    0.000    3.125    0.000    0.000    0.000    0.000 
#    0.000    0.000    0.000    0.000    0.000    0.000 
#
# Total GULP energy -198335.721824 kJ/mol
# GULP energy per Si atom -12395.982614 kJ/mol
# Density = 2.033734 g / cm^3
# Si number density = 20.383738 Si / 1000 Ang^3
#
#
#
# Elastic Constant Matrix: (Units=GPa)
#
#
# Indices 1 2 3 4 5 6 
#
# 1 134.9350 54.6188 32.0568 3.0583 -12.8931 -0.0238
# 2 54.6188 99.3813 21.2346 -10.8564 -17.1141 17.8258
# 3 32.0568 21.2346 38.8307 4.6152 1.8786 0.7603
# 4 3.0583 -10.8564 4.6152 24.7889 3.9575 -2.0840
# 5 -12.8931 -17.1141 1.8786 3.9575 26.2429 7.2672
# 6 -0.0238 17.8258 0.7603 -2.0840 7.2672 40.0245
#
#
#
# Elastic Compliance Matrix: (Units=1/GPa)
#
#
# Indices 1 2 3 4 5 6 
#
# 1 0.011260 -0.004940 -0.006444 -0.002641 0.002698 0.001702
# 2 -0.004940 0.019240 -0.007748 0.007640 0.012367 -0.010272
# 3 -0.006444 -0.007748 0.036621 -0.007303 -0.010946 0.004358
# 4 -0.002641 0.007640 -0.007303 0.045748 -0.002576 -0.000416
# 5 0.002698 0.012367 -0.010946 -0.002576 0.052828 -0.015024
# 6 0.001702 -0.010272 0.004358 -0.000416 -0.015024 0.032184
#
#
# Mechanical properties :
#
#
# Convention : Reuss Voigt Hill
#
# Bulk Modulus (GPa) = 34.65392 54.32970 44.49181
# Shear Modulus (GPa) = 20.34468 29.22705 24.78587
#
# Velocity S-wave (km/s) = 3.16267 3.79072 3.49085
# Velocity P-wave (km/s) = 5.51129 6.77279 6.17434
#
# Compressibility (1/GPa) = 0.02885677
#
# Stress axis : x y z
#
# Youngs Moduli (GPa) = 88.81345 51.97591 27.30640
#
# Poissons Ratio (x) = 0.25679 0.17595
# Poissons Ratio (y) = 0.43878 0.21157
# Poissons Ratio (z) = 0.57228 0.40270
#
# Static dielectric constant tensor:
#      x y z
#    x 4.440520 -0.084790 -0.155010 
#    y -0.084790 3.925880 0.122910 
#    z -0.155010 0.122910 3.737780 
# 
# 
# High freq. dielectric constant tensor:
#      x y z
#    x 1.818300 -0.004350 0.004430 
#    y -0.004350 1.797090 -0.004010 
#    z 0.004430 -0.004010 1.766170 
# 
# From -- ./inp_files/357756.got.cif
#   From: 2010.06.25/outbox.cif.g09.slc.cpg/sg2_179_cif.got.tgz:357756.got - 2010.06.27 13:26:56.
