data_PCOD8003908
_publ_section_title
;
Structure prediction by ZEFSAII (Michael W. Deem and Ramdas Pophale) SiO2 
 PCOD8003908
Probable space group: P -1
;
_chemical_formula_sum "Si O2"
_cell_formula_units_Z 16
_cell_length_a 14.297087
_cell_length_b 16.487934
_cell_length_c 11.572716
_cell_angle_alpha 111.116267
_cell_angle_beta 33.963180
_cell_angle_gamma 136.361669
_cell_volume 823.146474
_symmetry_space_group_name_H-M "P -1"
_symmetry_group_IT_number 2
_symmetry_cell_setting 'triclinic'
loop_
_space_group_symop_operation_xyz
x,y,z
-x,-y,-z
loop_
_atom_site_type_symbol
_atom_site_label
_atom_site_fract_x
_atom_site_fract_y
_atom_site_fract_z
Si Si1 0.344049 0.834748 0.764734
Si Si2 0.246790 0.124431 0.954889
Si Si3 0.287789 0.362267 0.730805
Si Si4 0.383351 0.881753 0.403496
Si Si5 0.659018 0.048460 0.743086
Si Si6 0.707278 0.709776 0.843135
Si Si7 0.246116 0.399906 0.047101
Si Si8 0.640070 0.799446 0.371655
O O1 0.359806 0.741535 0.656672
O O2 0.534397 0.984836 0.569441
O O3 0.473655 0.892584 0.792334
O O4 0.023590 0.736727 0.040259
O O5 0.349868 0.217186 0.013050
O O6 0.359196 0.073986 0.808474
O O7 0.355517 0.221814 0.779676
O O8 0.900923 0.974060 0.229495
O O9 0.500000 0.500000 0.500000
O O10 0.341064 0.281532 0.616941
O O11 0.363164 0.416602 0.813607
O O12 0.347763 0.870258 0.293714
O O13 0.094954 0.722634 0.679251
O O14 0.998728 0.167511 0.471741
O O15 0.500000 0.000000 0.000000
O O16 0.733963 0.663706 0.907237
O O17 0.434287 0.564396 0.972095
#
# Coordination Sequence:
#
# PCOD8003908 Si02
#       8
#     2   2   2   2   2   2   2   2
#     4  10  22  40  62  91 123 159 214 254 306 370
#     4  11  19  35  63  96 120 150 213 264 304 364
#     4  12  26  41  61  91 131 168 205 252 321 373
#     4   9  20  36  60  92 119 157 206 261 306 357
#     4   9  19  37  59  84 116 165 205 248 308 362
#     4  10  20  37  62  88 119 159 211 247 310 369
#     4  10  21  39  57  86 124 166 200 253 310 366
#     4  11  21  37  64  93 123 160 204 263 312 363
#
# _framework density 19.437609999999999
#
# number of rings (size 3 to 8) (size 9 to 14) (size 15 to 20)
#    0.750    1.000    3.750    0.750    3.500    2.000 
#    0.000    1.875    0.000    0.000    0.000    0.000 
#    0.000    0.000    0.000    0.000    0.000    0.000 
#
# Total GULP energy -198259.340181 kJ/mol
# GULP energy per Si atom -12391.208761 kJ/mol
# Density = 1.939337 g / cm^3
# Si number density = 19.437610 Si / 1000 Ang^3
#
#
#
# Elastic Constant Matrix: (Units=GPa)
#
#
# Indices 1 2 3 4 5 6 
#
# 1 38.9688 26.6073 42.7912 -2.8665 -2.4308 -10.5872
# 2 26.6073 102.1027 63.4561 7.7701 -5.6506 -0.3689
# 3 42.7912 63.4561 118.7311 -1.1290 2.8031 -6.7915
# 4 -2.8665 7.7701 -1.1290 27.5247 -1.5625 -6.9368
# 5 -2.4308 -5.6506 2.8031 -1.5625 40.1184 3.3209
# 6 -10.5872 -0.3689 -6.7915 -6.9368 3.3209 32.7246
#
#
#
# Elastic Compliance Matrix: (Units=1/GPa)
#
#
# Indices 1 2 3 4 5 6 
#
# 1 0.049640 -0.004341 -0.014696 0.009655 0.002579 0.014746
# 2 -0.004341 0.016160 -0.007444 -0.006269 0.002650 -0.004365
# 3 -0.014696 -0.007444 0.017743 0.000962 -0.003088 -0.000639
# 4 0.009655 -0.006269 0.000962 0.042230 0.000272 0.012177
# 5 0.002579 0.002650 -0.003088 0.000272 0.025876 -0.002345
# 6 0.014746 -0.004365 -0.000639 0.012177 -0.002345 0.037966
#
#
# Mechanical properties :
#
#
# Convention : Reuss Voigt Hill
#
# Bulk Modulus (GPa) = 32.70040 58.39020 45.54530
# Shear Modulus (GPa) = 19.78076 28.53674 24.15875
#
# Velocity S-wave (km/s) = 3.19353 3.83576 3.52928
# Velocity P-wave (km/s) = 5.51887 7.05141 6.33168
#
# Compressibility (1/GPa) = 0.03058066
#
# Stress axis : x y z
#
# Youngs Moduli (GPa) = 20.14485 61.88266 56.36104
#
# Poissons Ratio (x) = 0.26865 0.82828
# Poissons Ratio (y) = 0.08746 0.41954
# Poissons Ratio (z) = 0.29605 0.46064
#
# Static dielectric constant tensor:
#      x y z
#    x 3.426880 0.162570 -0.120400 
#    y 0.162570 3.502060 -0.159280 
#    z -0.120400 -0.159280 3.533460 
# 
# 
# High freq. dielectric constant tensor:
#      x y z
#    x 1.743140 0.008730 -0.008920 
#    y 0.008730 1.740870 0.005820 
#    z -0.008920 0.005820 1.751970 
# 
# From -- ./inp_files/454823.got.cif
#   From: 2010.06.25/outbox.cif.g09.slc.cpg/sg2_228_cif.got.tgz:454823.got - 2010.06.27 13:26:56.
