data_PCOD8003684
_publ_section_title
;
Structure prediction by ZEFSAII (Michael W. Deem and Ramdas Pophale) SiO2 
 PCOD8003684
Probable space group: P -1
;
_chemical_formula_sum "Si O2"
_cell_formula_units_Z 16
_cell_length_a 8.782895
_cell_length_b 15.751357
_cell_length_c 12.098948
_cell_angle_alpha 51.002127
_cell_angle_beta 141.394870
_cell_angle_gamma 107.853775
_cell_volume 750.135157
_symmetry_space_group_name_H-M "P -1"
_symmetry_group_IT_number 2
_symmetry_cell_setting 'triclinic'
loop_
_space_group_symop_operation_xyz
x,y,z
-x,-y,-z
loop_
_atom_site_type_symbol
_atom_site_label
_atom_site_fract_x
_atom_site_fract_y
_atom_site_fract_z
Si Si1 0.745729 0.974267 0.406056
Si Si2 0.477625 0.644186 0.549823
Si Si3 0.995636 0.584337 0.327801
Si Si4 0.488568 0.201926 0.186656
Si Si5 0.270197 0.214910 0.287086
Si Si6 0.233907 0.624683 0.039389
Si Si7 0.018596 0.224487 0.443799
Si Si8 0.681440 0.632714 0.429546
O O1 0.776399 0.897018 0.597139
O O2 0.733254 0.893042 0.361324
O O3 0.506773 0.100258 0.189440
O O4 0.000000 0.000000 0.500000
O O5 0.519355 0.749351 0.553245
O O6 0.673998 0.515629 0.809671
O O7 0.529950 0.653908 0.442021
O O8 0.175841 0.660450 0.388484
O O9 0.000000 0.500000 0.500000
O O10 0.114157 0.503185 0.353467
O O11 0.693138 0.670530 0.068118
O O12 0.364931 0.176789 0.248630
O O13 0.781076 0.197031 0.386511
O O14 0.995001 0.328605 0.036233
O O15 0.475715 0.659554 0.189119
O O16 0.108969 0.688447 0.802652
O O17 0.148624 0.285359 0.554628
#
# Coordination Sequence:
#
# PCOD8003684 Si02
#       8
#     2   2   2   2   2   2   2   2
#     4   9  20  41  64  86 121 161 210 259 301 369
#     4  11  21  37  59  90 127 161 209 249 301 376
#     4  11  25  40  59  94 131 163 198 260 313 370
#     4  11  22  38  63  88 126 166 201 256 323 354
#     4  11  21  36  64  94 121 160 213 253 309 370
#     4  10  20  37  60  88 124 163 201 254 305 369
#     4  10  22  39  63  90 118 164 211 253 297 381
#     4  11  21  38  62  87 126 162 207 247 309 361
#
# _framework density 21.329488999999999
#
# number of rings (size 3 to 8) (size 9 to 14) (size 15 to 20)
#    0.000    1.500    2.500    5.250    3.500    0.500 
#    0.000    0.625    5.500    7.500    0.000    0.000 
#    0.000    0.000    0.000    0.000    0.000    0.000 
#
# Total GULP energy -198284.746231 kJ/mol
# GULP energy per Si atom -12392.796639 kJ/mol
# Density = 2.128094 g / cm^3
# Si number density = 21.329489 Si / 1000 Ang^3
#
#
#
# Elastic Constant Matrix: (Units=GPa)
#
#
# Indices 1 2 3 4 5 6 
#
# 1 106.4305 23.2796 24.6654 -5.2188 7.3405 7.5844
# 2 23.2796 106.3104 37.1923 4.2531 10.4298 9.7125
# 3 24.6654 37.1923 44.1201 3.0751 13.4474 -2.0399
# 4 -5.2188 4.2531 3.0751 23.5930 0.9995 6.0016
# 5 7.3405 10.4298 13.4474 0.9995 32.0581 -5.4245
# 6 7.5844 9.7125 -2.0399 6.0016 -5.4245 35.2253
#
#
#
# Elastic Compliance Matrix: (Units=1/GPa)
#
#
# Indices 1 2 3 4 5 6 
#
# 1 0.011469 0.000083 -0.006784 0.004377 -0.000573 -0.003719
# 2 0.000083 0.014042 -0.012012 0.000259 -0.000349 -0.004683
# 3 -0.006784 -0.012012 0.040400 -0.005831 -0.010198 0.006535
# 4 0.004377 0.000259 -0.005831 0.046568 -0.001708 -0.009548
# 5 -0.000573 -0.000349 -0.010198 -0.001708 0.036712 0.005574
# 6 -0.003719 -0.004683 0.006535 -0.009548 0.005574 0.033344
#
#
# Mechanical properties :
#
#
# Convention : Reuss Voigt Hill
#
# Bulk Modulus (GPa) = 35.10477 47.45953 41.28215
# Shear Modulus (GPa) = 21.79053 29.62353 25.70703
#
# Velocity S-wave (km/s) = 3.19974 3.73078 3.47541
# Velocity P-wave (km/s) = 5.49046 6.39196 5.95829
#
# Compressibility (1/GPa) = 0.02848616
#
# Stress axis : x y z
#
# Youngs Moduli (GPa) = 87.19138 71.21329 24.75225
#
# Poissons Ratio (x) = -0.00589 0.16791
# Poissons Ratio (y) = -0.00721 0.29732
# Poissons Ratio (z) = 0.59149 0.85539
#
# Static dielectric constant tensor:
#      x y z
#    x 4.070660 -0.013440 0.355320 
#    y -0.013440 4.234110 -0.210710 
#    z 0.355320 -0.210710 3.678400 
# 
# 
# High freq. dielectric constant tensor:
#      x y z
#    x 1.854240 0.003350 0.013740 
#    y 0.003350 1.837710 -0.009820 
#    z 0.013740 -0.009820 1.799890 
# 
# From -- ./inp_files/398842.got.cif
#   From: 2010.06.25/outbox.cif.g09.slc.cpg/sg2_200_cif.got.tgz:398842.got - 2010.06.27 13:26:56.
