data_PCOD8003548
_publ_section_title
;
Structure prediction by ZEFSAII (Michael W. Deem and Ramdas Pophale) SiO2 
 PCOD8003548
Probable space group: P -1
;
_chemical_formula_sum "Si O2"
_cell_formula_units_Z 16
_cell_length_a 16.053764
_cell_length_b 7.954660
_cell_length_c 6.372748
_cell_angle_alpha 79.585025
_cell_angle_beta 97.492398
_cell_angle_gamma 110.419900
_cell_volume 748.105627
_symmetry_space_group_name_H-M "P -1"
_symmetry_group_IT_number 2
_symmetry_cell_setting 'triclinic'
loop_
_space_group_symop_operation_xyz
x,y,z
-x,-y,-z
loop_
_atom_site_type_symbol
_atom_site_label
_atom_site_fract_x
_atom_site_fract_y
_atom_site_fract_z
Si Si1 0.295083 0.322549 0.775796
Si Si2 0.533166 0.759971 0.138641
Si Si3 0.619745 0.378470 0.600390
Si Si4 0.739249 0.390521 0.016200
Si Si5 0.919116 0.316103 0.028841
Si Si6 0.034100 0.910884 0.224344
Si Si7 0.416035 0.861083 0.739637
Si Si8 0.118865 0.039102 0.630246
O O1 0.380805 0.282757 0.905202
O O2 0.333539 0.445184 0.559464
O O3 0.256123 0.416551 0.924309
O O4 0.219208 0.138915 0.718709
O O5 0.461596 0.601377 0.287789
O O6 0.561475 0.927065 0.271507
O O7 0.485739 0.792500 0.906062
O O8 0.582272 0.195156 0.489572
O O9 0.695001 0.355785 0.782008
O O10 0.835994 0.380633 0.022929
O O11 0.684121 0.233349 0.189630
O O12 0.919215 0.167008 0.241096
O O13 0.923488 0.233512 0.818402
O O14 0.000000 0.500000 0.000000
O O15 0.943910 0.841583 0.350911
O O16 0.113101 0.034471 0.375013
O O17 0.000000 0.000000 0.000000
#
# Coordination Sequence:
#
# PCOD8003548 Si02
#       8
#     2   2   2   2   2   2   2   2
#     4  11  23  37  58  85 118 152 192 238 290 346
#     4  10  20  37  59  84 114 152 195 241 288 343
#     4  10  22  37  57  84 116 153 194 240 289 346
#     4  10  23  39  56  86 120 152 194 240 286 343
#     4  11  23  39  62  88 117 153 194 239 291 348
#     4   9  21  41  64  89 118 150 192 237 288 350
#     4   9  20  39  60  82 114 153 195 241 291 343
#     4  10  22  41  63  88 117 153 193 240 293 346
#
# _framework density 21.387353999999998
#
# number of rings (size 3 to 8) (size 9 to 14) (size 15 to 20)
#    0.000    2.000    0.000    2.250    0.000   14.000 
#    0.000    0.000    0.000    0.000    0.000    0.000 
#    0.000    0.000    0.000    0.000    0.000    0.000 
#
# Total GULP energy -198229.588132 kJ/mol
# GULP energy per Si atom -12389.349258 kJ/mol
# Density = 2.133868 g / cm^3
# Si number density = 21.387354 Si / 1000 Ang^3
#
#
#
# Elastic Constant Matrix: (Units=GPa)
#
#
# Indices 1 2 3 4 5 6 
#
# 1 184.8406 49.1683 41.2921 15.6146 -2.7528 -13.6005
# 2 49.1683 92.9524 48.2092 11.6994 -5.5206 1.4387
# 3 41.2921 48.2092 99.2244 27.6956 2.5492 -11.1797
# 4 15.6146 11.6994 27.6956 30.0134 0.8631 -0.4469
# 5 -2.7528 -5.5206 2.5492 0.8631 20.1444 7.8262
# 6 -13.6005 1.4387 -11.1797 -0.4469 7.8262 30.5810
#
#
#
# Elastic Compliance Matrix: (Units=1/GPa)
#
#
# Indices 1 2 3 4 5 6 
#
# 1 0.006736 -0.003309 -0.000264 -0.001888 -0.001164 0.003325
# 2 -0.003309 0.017401 -0.008944 0.002840 0.008296 -0.007642
# 3 -0.000264 -0.008944 0.019775 -0.014253 -0.008022 0.009377
# 4 -0.001888 0.002840 -0.014253 0.046175 0.002760 -0.006216
# 5 -0.001164 0.008296 -0.008022 0.002760 0.060105 -0.019182
# 6 0.003325 -0.007642 0.009377 -0.006216 -0.019182 0.042785
#
#
# Mechanical properties :
#
#
# Convention : Reuss Voigt Hill
#
# Bulk Modulus (GPa) = 52.97312 72.70629 62.83970
# Shear Modulus (GPa) = 22.29125 32.03761 27.16443
#
# Velocity S-wave (km/s) = 3.23191 3.87456 3.56774
# Velocity P-wave (km/s) = 6.22489 7.35426 6.81301
#
# Compressibility (1/GPa) = 0.01887750
#
# Stress axis : x y z
#
# Youngs Moduli (GPa) = 148.45327 57.46793 50.57004
#
# Poissons Ratio (x) = 0.19018 0.01334
# Poissons Ratio (y) = 0.49128 0.45230
# Poissons Ratio (z) = 0.03916 0.51399
#
# Static dielectric constant tensor:
#      x y z
#    x 4.069580 -0.055390 -0.217210 
#    y -0.055390 3.877580 0.244760 
#    z -0.217210 0.244760 4.006530 
# 
# 
# High freq. dielectric constant tensor:
#      x y z
#    x 1.848510 0.004670 -0.007920 
#    y 0.004670 1.825900 0.016050 
#    z -0.007920 0.016050 1.842400 
# 
# From -- ./inp_files/90169.got.cif
#   From: 2010.06.25/outbox.cif.g09.slc.cpg/sg2_46_cif.got.tgz:90169.got - 2010.06.27 13:26:56.
