data_PCOD8003828
_publ_section_title
;
Structure prediction by ZEFSAII (Michael W. Deem and Ramdas Pophale) SiO2 
 PCOD8003828
Probable space group: P -1
;
_chemical_formula_sum "Si O2"
_cell_formula_units_Z 14
_cell_length_a 10.053426
_cell_length_b 9.309352
_cell_length_c 14.193666
_cell_angle_alpha 134.408154
_cell_angle_beta 141.790590
_cell_angle_gamma 55.307087
_cell_volume 586.412328
_symmetry_space_group_name_H-M "P -1"
_symmetry_group_IT_number 2
_symmetry_cell_setting 'triclinic'
loop_
_space_group_symop_operation_xyz
x,y,z
-x,-y,-z
loop_
_atom_site_type_symbol
_atom_site_label
_atom_site_fract_x
_atom_site_fract_y
_atom_site_fract_z
Si Si1 0.751603 0.754386 0.604731
Si Si2 0.977930 0.926210 0.318519
Si Si3 0.319022 0.146464 0.721648
Si Si4 0.505895 0.633423 0.244473
Si Si5 0.715107 0.338242 0.350101
Si Si6 0.057496 0.829287 0.113851
Si Si7 0.617092 0.802902 0.756781
O O1 0.589721 0.791130 0.442293
O O2 0.864863 0.529333 0.545869
O O3 0.616766 0.742051 0.619688
O O4 0.913782 0.934063 0.782526
O O5 0.856181 0.137380 0.316648
O O6 0.195417 0.976545 0.516141
O O7 0.830165 0.792751 0.243478
O O8 0.026736 0.795183 0.192842
O O9 0.374541 0.335625 0.774921
O O10 0.542497 0.039076 0.831699
O O11 0.566202 0.403213 0.205561
O O12 0.251974 0.684469 0.117179
O O13 0.555912 0.323319 0.342732
O O14 0.850413 0.762560 0.912697
#
# Coordination Sequence:
#
# PCOD8003828 Si02
#       7
#     2   2   2   2   2   2   2
#     4  10  20  37  61  91 115 159 199 254 279 363
#     4  10  21  40  63  90 118 161 203 249 295 363
#     4  10  20  37  63  85 119 158 208 240 288 362
#     4  10  21  38  65  89 117 159 206 250 288 359
#     4   9  23  38  63  85 129 153 203 244 311 343
#     4  12  22  36  67  92 121 155 206 245 304 353
#     4  11  22  38  61  93 123 156 199 254 297 356
#
# _framework density 23.873985999999999
#
# number of rings (size 3 to 8) (size 9 to 14) (size 15 to 20)
#    0.857    0.857    2.857    2.143    0.000    5.143 
#    0.000    0.000    3.143    2.571    0.000    0.000 
#    0.000    0.000    0.000    0.000    0.000    0.000 
#
# Total GULP energy -173470.712986 kJ/mol
# GULP energy per Si atom -12390.765213 kJ/mol
# Density = 2.381965 g / cm^3
# Si number density = 23.873986 Si / 1000 Ang^3
#
#
#
# Elastic Constant Matrix: (Units=GPa)
#
#
# Indices 1 2 3 4 5 6 
#
# 1 113.8302 34.3399 -4.4152 -10.7306 6.5304 26.1270
# 2 34.3399 78.4366 4.5425 -11.8146 3.9309 21.4844
# 3 -4.4152 4.5425 49.7301 -17.9933 6.2336 -12.5090
# 4 -10.7306 -11.8146 -17.9933 17.2273 -6.0529 -4.7402
# 5 6.5304 3.9309 6.2336 -6.0529 16.3927 -9.2076
# 6 26.1270 21.4844 -12.5090 -4.7402 -9.2076 33.7376
#
#
#
# Elastic Compliance Matrix: (Units=1/GPa)
#
#
# Indices 1 2 3 4 5 6 
#
# 1 0.012695 -0.001679 -0.001422 -0.002699 -0.012450 -0.013066
# 2 -0.001679 0.018317 -0.005092 -0.002094 -0.011347 -0.015643
# 3 -0.001422 -0.005092 0.056606 0.080124 0.035904 0.046389
# 4 -0.002699 -0.002094 0.080124 0.193791 0.090431 0.085040
# 5 -0.012450 -0.011347 0.035904 0.090431 0.132879 0.079150
# 6 -0.013066 -0.015643 0.046389 0.085040 0.079150 0.100471
#
#
# Mechanical properties :
#
#
# Convention : Reuss Voigt Hill
#
# Bulk Modulus (GPa) = 14.03887 34.54792 24.29339
# Shear Modulus (GPa) = 9.01079 27.30682 18.15880
#
# Velocity S-wave (km/s) = 1.94487 3.38567 2.76091
# Velocity P-wave (km/s) = 3.30704 5.45766 4.51234
#
# Compressibility (1/GPa) = 0.07123081
#
# Stress axis : x y z
#
# Youngs Moduli (GPa) = 78.76888 54.59307 17.66598
#
# Poissons Ratio (x) = 0.09168 0.02512
# Poissons Ratio (y) = 0.13228 0.08996
# Poissons Ratio (z) = 0.11202 0.27801
#
# Static dielectric constant tensor:
#      x y z
#    x 4.332340 0.387920 0.076150 
#    y 0.387920 4.126950 -0.279990 
#    z 0.076150 -0.279990 3.863460 
# 
# 
# High freq. dielectric constant tensor:
#      x y z
#    x 1.955990 0.024530 0.009030 
#    y 0.024530 1.935440 -0.019470 
#    z 0.009030 -0.019470 1.913230 
# 
# From -- ./inp_files/461620.got.cif
#   From: 2010.06.25/outbox.cif.g09.slc.cpg/sg2_231_cif.got.tgz:461620.got - 2010.06.27 13:26:56.
