data_PCOD8003813
_publ_section_title
;
Structure prediction by ZEFSAII (Michael W. Deem and Ramdas Pophale) SiO2 
 PCOD8003813
Probable space group: P -1
;
_chemical_formula_sum "Si O2"
_cell_formula_units_Z 14
_cell_length_a 14.112154
_cell_length_b 9.932297
_cell_length_c 12.475070
_cell_angle_alpha 130.558853
_cell_angle_beta 148.811300
_cell_angle_gamma 61.159775
_cell_volume 675.718462
_symmetry_space_group_name_H-M "P -1"
_symmetry_group_IT_number 2
_symmetry_cell_setting 'triclinic'
loop_
_space_group_symop_operation_xyz
x,y,z
-x,-y,-z
loop_
_atom_site_type_symbol
_atom_site_label
_atom_site_fract_x
_atom_site_fract_y
_atom_site_fract_z
Si Si1 0.698713 0.512438 0.646509
Si Si2 0.491400 0.383066 0.180309
Si Si3 0.196589 0.975405 0.225636
Si Si4 0.810539 0.151772 0.607435
Si Si5 0.553293 0.110337 0.923146
Si Si6 0.200228 0.167201 0.950167
Si Si7 0.449205 0.749287 0.242189
O O1 0.500000 0.500000 0.500000
O O2 0.667599 0.477617 0.471602
O O3 0.803198 0.362716 0.720399
O O4 0.807148 0.711961 0.885559
O O5 0.417438 0.535626 0.119817
O O6 0.568362 0.246599 0.106441
O O7 0.320587 0.277063 0.029869
O O8 0.167852 0.929148 0.297622
O O9 0.270291 0.815571 0.152521
O O10 0.358594 0.154065 0.464123
O O11 0.000000 0.000000 0.000000
O O12 0.982719 0.119509 0.682309
O O13 0.624661 0.049494 0.316137
O O14 0.542826 0.217765 0.859594
O O15 0.732860 0.016344 0.048902
#
# Coordination Sequence:
#
# PCOD8003813 Si02
#       7
#     2   2   2   2   2   2   2
#     4  10  20  37  61  89 122 152 199 253 300 349
#     4  11  23  41  63  89 127 165 198 249 307 362
#     4  10  21  38  64  93 119 156 203 254 304 355
#     4  11  22  38  64  93 123 158 203 255 305 356
#     4  11  23  43  61  88 126 163 205 248 300 365
#     4  11  23  39  66  90 122 159 206 254 300 359
#     4  10  23  39  63  87 124 159 203 248 303 361
#
# _framework density 20.718688
#
# number of rings (size 3 to 8) (size 9 to 14) (size 15 to 20)
#    0.000    1.429    2.857    3.857    6.000    0.571 
#    0.000    0.000    0.000    5.143    0.000    0.000 
#    0.000    0.000    0.000    0.000    0.000    0.000 
#
# Total GULP energy -173602.650750 kJ/mol
# GULP energy per Si atom -12400.189339 kJ/mol
# Density = 2.067153 g / cm^3
# Si number density = 20.718688 Si / 1000 Ang^3
#
#
#
# Elastic Constant Matrix: (Units=GPa)
#
#
# Indices 1 2 3 4 5 6 
#
# 1 71.6290 51.1941 40.4297 -0.7225 -3.3462 -15.1726
# 2 51.1941 140.0711 42.4982 -6.2904 -5.5232 -22.9404
# 3 40.4297 42.4982 51.1015 -7.3598 -1.5897 -25.1599
# 4 -0.7225 -6.2904 -7.3598 31.1158 -15.8476 2.7251
# 5 -3.3462 -5.5232 -1.5897 -15.8476 36.0156 -0.1226
# 6 -15.1726 -22.9404 -25.1599 2.7251 -0.1226 37.6879
#
#
#
# Elastic Compliance Matrix: (Units=1/GPa)
#
#
# Indices 1 2 3 4 5 6 
#
# 1 0.028873 -0.005042 -0.022572 -0.006059 -0.001774 -0.006082
# 2 -0.005042 0.010509 -0.003465 0.001969 0.001863 0.001917
# 3 -0.022572 -0.003465 0.054035 0.012077 0.005152 0.024020
# 4 -0.006059 0.001969 0.012077 0.045212 0.020179 0.003618
# 5 -0.001774 0.001863 0.005152 0.020179 0.037002 0.002521
# 6 -0.006082 0.001917 0.024020 0.003618 0.002521 0.041034
#
#
# Mechanical properties :
#
#
# Convention : Reuss Voigt Hill
#
# Bulk Modulus (GPa) = 31.99176 59.00508 45.49842
# Shear Modulus (GPa) = 17.28649 29.54248 23.41448
#
# Velocity S-wave (km/s) = 2.89163 3.78019 3.36536
# Velocity P-wave (km/s) = 5.15977 6.89885 6.09169
#
# Compressibility (1/GPa) = 0.03125805
#
# Stress axis : x y z
#
# Youngs Moduli (GPa) = 34.63485 95.15289 18.50663
#
# Poissons Ratio (x) = 0.47979 0.41773
# Poissons Ratio (y) = 0.17464 0.06413
# Poissons Ratio (z) = 0.78177 0.32973
#
# Static dielectric constant tensor:
#      x y z
#    x 3.707570 -0.056080 -0.056330 
#    y -0.056080 3.699210 -0.087890 
#    z -0.056330 -0.087890 3.722420 
# 
# 
# High freq. dielectric constant tensor:
#      x y z
#    x 1.807820 -0.004440 0.000750 
#    y -0.004440 1.822270 -0.005690 
#    z 0.000750 -0.005690 1.797840 
# 
# From -- ./inp_files/183777.got.cif
#   From: 2010.06.25/outbox.cif.g09.slc.cpg/sg2_92_cif.got.tgz:183777.got - 2010.06.27 13:26:56.
