data_PCOD8003705
_publ_section_title
;
Structure prediction by ZEFSAII (Michael W. Deem and Ramdas Pophale) SiO2 
 PCOD8003705
Probable space group: P -1
;
_chemical_formula_sum "Si O2"
_cell_formula_units_Z 12
_cell_length_a 8.070926
_cell_length_b 7.888048
_cell_length_c 13.495179
_cell_angle_alpha 108.683166
_cell_angle_beta 117.758187
_cell_angle_gamma 37.373936
_cell_volume 459.517156
_symmetry_space_group_name_H-M "P -1"
_symmetry_group_IT_number 2
_symmetry_cell_setting 'triclinic'
loop_
_space_group_symop_operation_xyz
x,y,z
-x,-y,-z
loop_
_atom_site_type_symbol
_atom_site_label
_atom_site_fract_x
_atom_site_fract_y
_atom_site_fract_z
Si Si1 0.167057 0.560609 0.551975
Si Si2 0.602765 0.127940 0.431338
Si Si3 0.402402 0.378961 0.217108
Si Si4 0.348346 0.048384 0.066956
Si Si5 0.536937 0.152944 0.738214
Si Si6 0.941711 0.990916 0.155597
O O1 0.392233 0.394744 0.493190
O O2 0.342659 0.452370 0.685824
O O3 0.000000 0.500000 0.500000
O O4 0.928572 0.891642 0.526627
O O5 0.600273 0.228170 0.343272
O O6 0.488387 0.007488 0.364935
O O7 0.148034 0.709827 0.226030
O O8 0.230831 0.317424 0.136393
O O9 0.627248 0.259106 0.168068
O O10 0.561716 0.804568 0.166347
O O11 0.500000 0.000000 0.000000
O O12 0.103244 0.082196 0.975542
O O13 0.881109 0.955394 0.801393
#
# Coordination Sequence:
#
# PCOD8003705 Si02
#       6
#     2   2   2   2   2   2
#     4  10  20  37  60  90 117 154 199 240 287 349
#     4  10  21  40  63  86 117 160 200 234 285 356
#     4  10  22  40  62  86 121 160 194 234 292 356
#     4   9  20  41  63  86 117 159 198 237 293 359
#     4  10  21  37  62  90 119 152 196 250 293 338
#     4  11  22  39  59  92 121 151 195 247 293 340
#
# _framework density 26.114367000000001
#
# number of rings (size 3 to 8) (size 9 to 14) (size 15 to 20)
#    0.000    2.000    0.000    4.000    0.000    5.333 
#    0.000   22.500    0.000    0.000    0.000    0.000 
#    0.000    0.000    0.000    0.000    0.000    0.000 
#
# Total GULP energy -148695.883902 kJ/mol
# GULP energy per Si atom -12391.323658 kJ/mol
# Density = 2.605493 g / cm^3
# Si number density = 26.114367 Si / 1000 Ang^3
#
#
#
# Elastic Constant Matrix: (Units=GPa)
#
#
# Indices 1 2 3 4 5 6 
#
# 1 51.2725 7.0498 54.7107 0.3639 -15.1851 -14.5898
# 2 7.0498 86.8940 9.8421 -7.2542 -8.4910 -18.4165
# 3 54.7107 9.8421 129.2064 -11.8041 -5.0743 -6.8350
# 4 0.3639 -7.2542 -11.8041 28.8544 4.1793 -2.1740
# 5 -15.1851 -8.4910 -5.0743 4.1793 51.3785 -4.7139
# 6 -14.5898 -18.4165 -6.8350 -2.1740 -4.7139 27.4392
#
#
#
# Elastic Compliance Matrix: (Units=1/GPa)
#
#
# Indices 1 2 3 4 5 6 
#
# 1 0.059443 0.005876 -0.024003 -0.009546 0.019903 0.032234
# 2 0.005876 0.014932 -0.002436 0.002990 0.004971 0.013630
# 3 -0.024003 -0.002436 0.017905 0.007272 -0.007294 -0.010615
# 4 -0.009546 0.002990 0.007272 0.039264 -0.004707 0.001045
# 5 0.019903 0.004971 -0.007294 -0.004707 0.027337 0.016426
# 6 0.032234 0.013630 -0.010615 0.001045 0.016426 0.062992
#
#
# Mechanical properties :
#
#
# Convention : Reuss Voigt Hill
#
# Bulk Modulus (GPa) = 19.54905 45.61977 32.58441
# Shear Modulus (GPa) = 17.85380 34.58577 26.21978
#
# Velocity S-wave (km/s) = 2.61756 3.64317 3.17209
# Velocity P-wave (km/s) = 4.07893 5.93330 5.09126
#
# Compressibility (1/GPa) = 0.05115339
#
# Stress axis : x y z
#
# Youngs Moduli (GPa) = 16.82271 66.97183 55.84911
#
# Poissons Ratio (x) = -0.39351 1.34057
# Poissons Ratio (y) = -0.09885 0.13605
# Poissons Ratio (z) = 0.40380 0.16314
#
# Static dielectric constant tensor:
#      x y z
#    x 4.914550 0.353160 0.007780 
#    y 0.353160 4.531490 -0.396970 
#    z 0.007780 -0.396970 6.111020 
# 
# 
# High freq. dielectric constant tensor:
#      x y z
#    x 2.049910 0.018390 0.009870 
#    y 0.018390 2.010850 -0.003150 
#    z 0.009870 -0.003150 2.068610 
# 
# From -- ./inp_files/25290.got.cif
#   From: 2010.06.25/outbox.cif.g09.slc.cpg/sg2_13_cif.got.tgz:25290.got - 2010.06.27 13:26:56.
