data_PCOD8003977
_publ_section_title
;
Structure prediction by ZEFSAII (Michael W. Deem and Ramdas Pophale) SiO2 
 PCOD8003977
Probable space group: P -1
;
_chemical_formula_sum "Si O2"
_cell_formula_units_Z 16
_cell_length_a 8.955597
_cell_length_b 10.959223
_cell_length_c 16.558952
_cell_angle_alpha 56.771888
_cell_angle_beta 148.519232
_cell_angle_gamma 113.481980
_cell_volume 701.057808
_symmetry_space_group_name_H-M "P -1"
_symmetry_group_IT_number 2
_symmetry_cell_setting 'triclinic'
loop_
_space_group_symop_operation_xyz
x,y,z
-x,-y,-z
loop_
_atom_site_type_symbol
_atom_site_label
_atom_site_fract_x
_atom_site_fract_y
_atom_site_fract_z
Si Si1 0.065624 0.130289 0.088926
Si Si2 0.233488 0.599663 0.381243
Si Si3 0.629812 0.149056 0.747502
Si Si4 0.012879 0.329643 0.428565
Si Si5 0.798650 0.040072 0.155466
Si Si6 0.495162 0.324539 0.968392
Si Si7 0.021377 0.283564 0.630438
Si Si8 0.611077 0.641521 0.913702
O O1 0.164631 0.289335 0.064177
O O2 0.324505 0.008020 0.218863
O O3 0.007235 0.099234 0.165171
O O4 0.757939 0.126218 0.904567
O O5 0.500000 0.500000 0.500000
O O6 0.171721 0.745704 0.244936
O O7 0.993562 0.488508 0.315752
O O8 0.265063 0.654313 0.469616
O O9 0.289744 0.213969 0.569824
O O10 0.027213 0.366776 0.517575
O O11 0.714725 0.275586 0.287108
O O12 0.974578 0.889173 0.328740
O O13 0.734338 0.175775 0.139714
O O14 0.500000 0.000000 0.000000
O O15 0.319994 0.335014 0.968606
O O16 0.290409 0.303052 0.805700
O O17 0.651621 0.467186 0.975053
#
# Coordination Sequence:
#
# PCOD8003977 Si02
#       8
#     2   2   2   2   2   2   2   2
#     4  11  23  40  66  98 130 175 219 274 320 399
#     4  10  20  37  62  94 129 164 217 269 319 378
#     4  10  22  40  66  96 131 171 227 265 320 395
#     4  11  24  41  67 100 130 175 212 276 331 389
#     4  10  22  40  67  94 124 169 226 274 312 378
#     4  10  23  42  66  95 130 179 215 265 332 397
#     4  11  20  41  70  93 125 172 229 266 314 392
#     4  11  25  41  67  95 141 169 213 274 340 390
#
# _framework density 22.822654
#
# number of rings (size 3 to 8) (size 9 to 14) (size 15 to 20)
#    0.000    1.500    2.500    2.625    8.750    1.000 
#    0.000    3.125    0.000    0.000    0.000    0.000 
#    0.000    0.000    0.000    0.000    0.000    0.000 
#
# Total GULP energy -198228.763271 kJ/mol
# GULP energy per Si atom -12389.297704 kJ/mol
# Density = 2.277071 g / cm^3
# Si number density = 22.822654 Si / 1000 Ang^3
#
#
#
# Elastic Constant Matrix: (Units=GPa)
#
#
# Indices 1 2 3 4 5 6 
#
# 1 100.2803 31.7863 15.9490 1.3295 -0.3785 2.9045
# 2 31.7863 114.8239 14.6452 -17.9681 13.6031 -2.6644
# 3 15.9490 14.6452 63.0306 -6.7064 5.5803 -13.3865
# 4 1.3295 -17.9681 -6.7064 27.7946 -6.1964 6.1712
# 5 -0.3785 13.6031 5.5803 -6.1964 35.4970 -3.3193
# 6 2.9045 -2.6644 -13.3865 6.1712 -3.3193 35.7722
#
#
#
# Elastic Compliance Matrix: (Units=1/GPa)
#
#
# Indices 1 2 3 4 5 6 
#
# 1 0.011630 -0.003484 -0.002906 -0.002855 0.001260 -0.001682
# 2 -0.003484 0.011173 -0.000872 0.006634 -0.003084 -0.000642
# 3 -0.002906 -0.000872 0.018583 0.002237 -0.001612 0.006590
# 4 -0.002855 0.006634 0.002237 0.043072 0.004081 -0.005489
# 5 0.001260 -0.003084 -0.001612 0.004081 0.030443 0.001186
# 6 -0.001682 -0.000642 0.006590 -0.005489 0.001186 0.031566
#
#
# Mechanical properties :
#
#
# Convention : Reuss Voigt Hill
#
# Bulk Modulus (GPa) = 37.22583 44.76621 40.99602
# Shear Modulus (GPa) = 29.42120 34.19639 31.80880
#
# Velocity S-wave (km/s) = 3.59433 3.87506 3.73733
# Velocity P-wave (km/s) = 5.79413 6.29911 6.05189
#
# Compressibility (1/GPa) = 0.02686306
#
# Stress axis : x y z
#
# Youngs Moduli (GPa) = 85.98572 89.49928 53.81150
#
# Poissons Ratio (x) = 0.31181 0.15636
# Poissons Ratio (y) = 0.29957 0.04692
# Poissons Ratio (z) = 0.24986 0.07804
#
# Static dielectric constant tensor:
#      x y z
#    x 4.514500 0.033600 0.180840 
#    y 0.033600 4.503100 -0.659470 
#    z 0.180840 -0.659470 3.999610 
# 
# 
# High freq. dielectric constant tensor:
#      x y z
#    x 1.905440 0.007700 0.003990 
#    y 0.007700 1.904830 -0.036210 
#    z 0.003990 -0.036210 1.877110 
# 
# From -- ./inp_files/559112.got.cif
#   From: 2010.06.25/outbox.cif.g09.slc.cpg/sg2_280_cif.got.tgz:559112.got - 2010.06.27 13:26:56.
