data_PCOD8003252
_publ_section_title
;
Structure prediction by ZEFSAII (Michael W. Deem and Ramdas Pophale) SiO2 
 PCOD8003252
Probable space group: P -1
;
_chemical_formula_sum "Si O2"
_cell_formula_units_Z 16
_cell_length_a 14.650944
_cell_length_b 8.688824
_cell_length_c 11.870641
_cell_angle_alpha 75.146811
_cell_angle_beta 147.588015
_cell_angle_gamma 92.065101
_cell_volume 733.925145
_symmetry_space_group_name_H-M "P -1"
_symmetry_group_IT_number 2
_symmetry_cell_setting 'triclinic'
loop_
_space_group_symop_operation_xyz
x,y,z
-x,-y,-z
loop_
_atom_site_type_symbol
_atom_site_label
_atom_site_fract_x
_atom_site_fract_y
_atom_site_fract_z
Si Si1 0.203104 0.543889 0.298999
Si Si2 0.198091 0.428385 0.077403
Si Si3 0.807013 0.091912 0.830974
Si Si4 0.487240 0.858326 0.653889
Si Si5 0.736413 0.989995 0.014027
Si Si6 0.377833 0.569860 0.692288
Si Si7 0.742378 0.312055 0.082189
Si Si8 0.955204 0.332920 0.504401
O O1 0.255913 0.417631 0.271342
O O2 0.234774 0.709541 0.254779
O O3 0.338669 0.476353 0.556892
O O4 0.005191 0.571839 0.137813
O O5 0.322400 0.258660 0.179083
O O6 0.216371 0.592104 0.002335
O O7 0.651796 0.043031 0.609233
O O8 0.826426 0.033968 0.989753
O O9 0.000000 0.000000 0.000000
O O10 0.389082 0.752341 0.641418
O O11 0.539826 0.980074 0.774885
O O12 0.870755 0.811120 0.234934
O O13 0.706804 0.140487 0.044564
O O14 0.220566 0.608273 0.611046
O O15 0.572584 0.435228 0.956584
O O16 0.912194 0.262834 0.353524
O O17 0.000000 0.500000 0.500000
#
# Coordination Sequence:
#
# PCOD8003252 Si02
#       8
#     2   2   2   2   2   2   2   2
#     4  10  20  36  64  95 129 167 213 259 314 389
#     4  10  20  39  64  96 128 171 215 254 317 390
#     4  11  22  38  61  95 134 173 206 266 326 383
#     4  10  22  39  66  91 132 169 211 251 331 391
#     4  12  24  42  62  98 130 169 217 269 324 376
#     4  10  22  42  67  92 123 167 220 261 321 388
#     4  11  24  41  66  98 131 169 218 274 318 365
#     4  12  25  47  71  88 126 174 223 264 324 388
#
# _framework density 21.800588999999999
#
# number of rings (size 3 to 8) (size 9 to 14) (size 15 to 20)
#    0.000    1.250    1.250    6.375    1.750    1.500 
#    2.250    3.750    0.000    0.000    0.000    0.000 
#    0.000    0.000    0.000    0.000    0.000    0.000 
#
# Total GULP energy -198369.220463 kJ/mol
# GULP energy per Si atom -12398.076279 kJ/mol
# Density = 2.175097 g / cm^3
# Si number density = 21.800589 Si / 1000 Ang^3
#
#
#
# Elastic Constant Matrix: (Units=GPa)
#
#
# Indices 1 2 3 4 5 6 
#
# 1 81.9844 16.6899 2.4280 3.5479 7.0171 1.3533
# 2 16.6899 94.6632 29.9311 22.7161 -12.5253 -0.4851
# 3 2.4280 29.9311 79.1288 8.5659 -9.6992 -8.2212
# 4 3.5479 22.7161 8.5659 40.6863 4.9424 -5.2404
# 5 7.0171 -12.5253 -9.6992 4.9424 27.5343 7.6584
# 6 1.3533 -0.4851 -8.2212 -5.2404 7.6584 21.4720
#
#
#
# Elastic Compliance Matrix: (Units=1/GPa)
#
#
# Indices 1 2 3 4 5 6 
#
# 1 0.013303 -0.003563 0.000229 0.001677 -0.005678 0.001603
# 2 -0.003563 0.016419 -0.004459 -0.010171 0.010692 -0.007408
# 3 0.000229 -0.004459 0.015096 -0.000310 0.001923 0.004903
# 4 0.001677 -0.010171 -0.000310 0.033659 -0.014835 0.013052
# 5 -0.005678 0.010692 0.001923 -0.014835 0.051738 -0.020738
# 6 0.001603 -0.007408 0.004903 0.013052 -0.020738 0.058763
#
#
# Mechanical properties :
#
#
# Convention : Reuss Voigt Hill
#
# Bulk Modulus (GPa) = 34.21086 39.31937 36.76512
# Shear Modulus (GPa) = 23.33065 31.72034 27.52550
#
# Velocity S-wave (km/s) = 3.27492 3.81861 3.55717
# Velocity P-wave (km/s) = 5.47967 6.12515 5.81138
#
# Compressibility (1/GPa) = 0.02923048
#
# Stress axis : x y z
#
# Youngs Moduli (GPa) = 75.17124 60.90328 66.24202
#
# Poissons Ratio (x) = 0.21701 -0.01515
# Poissons Ratio (y) = 0.26785 0.29540
# Poissons Ratio (z) = -0.01719 0.27160
#
# Static dielectric constant tensor:
#      x y z
#    x 3.869740 0.126850 -0.138080 
#    y 0.126850 3.879770 0.231280 
#    z -0.138080 0.231280 4.191320 
# 
# 
# High freq. dielectric constant tensor:
#      x y z
#    x 1.854980 0.009340 -0.003860 
#    y 0.009340 1.853610 0.018560 
#    z -0.003860 0.018560 1.869390 
# 
# From -- ./inp_files/400003.got.cif
#   From: 2010.06.25/outbox.cif.g09.slc.cpg/sg2_201_cif.got.tgz:400003.got - 2010.06.27 13:26:56.
