data_PCOD8003625
_publ_section_title
;
Structure prediction by ZEFSAII (Michael W. Deem and Ramdas Pophale) SiO2 
 PCOD8003625
Probable space group: P -1
;
_chemical_formula_sum "Si O2"
_cell_formula_units_Z 16
_cell_length_a 14.104952
_cell_length_b 16.550365
_cell_length_c 13.845173
_cell_angle_alpha 49.044008
_cell_angle_beta 159.332012
_cell_angle_gamma 134.000112
_cell_volume 820.396406
_symmetry_space_group_name_H-M "P -1"
_symmetry_group_IT_number 2
_symmetry_cell_setting 'triclinic'
loop_
_space_group_symop_operation_xyz
x,y,z
-x,-y,-z
loop_
_atom_site_type_symbol
_atom_site_label
_atom_site_fract_x
_atom_site_fract_y
_atom_site_fract_z
Si Si1 0.465187 0.691807 0.508561
Si Si2 0.965095 0.856215 0.528749
Si Si3 0.458582 0.160817 0.713547
Si Si4 0.300675 0.022755 0.157383
Si Si5 0.421365 0.055622 0.035972
Si Si6 0.313124 0.118430 0.291240
Si Si7 0.878421 0.567736 0.960942
Si Si8 0.082595 0.658608 0.879520
O O1 0.609348 0.785923 0.491863
O O2 0.543367 0.753211 0.638293
O O3 0.133034 0.644468 0.208683
O O4 0.592643 0.588085 0.709639
O O5 0.297934 0.898635 0.795598
O O6 0.902989 0.722313 0.595347
O O7 0.844654 0.904812 0.471928
O O8 0.809879 0.887489 0.264212
O O9 0.650304 0.079394 0.938476
O O10 0.623893 0.255324 0.872405
O O11 0.447740 0.085318 0.151469
O O12 0.282226 0.115315 0.147281
O O13 0.484119 0.950654 0.430050
O O14 0.990817 0.938211 0.904892
O O15 0.853465 0.436968 0.050999
O O16 0.901502 0.601129 0.844306
#
# Coordination Sequence:
#
# PCOD8003625 Si02
#       8
#     2   2   2   2   2   2   2   2
#     4  11  21  35  59  84 107 147 176 234 278 336
#     4  12  24  37  52  79 114 157 189 222 258 328
#     4  11  23  36  55  79 119 151 189 219 264 330
#     4  10  21  37  57  84 111 149 176 229 270 337
#     4  12  25  35  55  81 116 153 189 213 270 331
#     4  10  20  37  60  82 114 138 184 225 287 324
#     4  10  23  36  57  78 110 141 194 229 284 313
#     4  10  23  38  53  78 110 152 186 237 265 316
#
# _framework density 19.502766000000001
#
# number of rings (size 3 to 8) (size 9 to 14) (size 15 to 20)
#    0.000    1.250    3.750    2.250    5.250    1.500 
#    0.000    0.000    0.000    0.000    0.000    5.250 
#    0.000    0.000    0.000    0.000    0.000    0.000 
#
# Total GULP energy -198331.351610 kJ/mol
# GULP energy per Si atom -12395.709476 kJ/mol
# Density = 1.945838 g / cm^3
# Si number density = 19.502766 Si / 1000 Ang^3
#
#
#
# Elastic Constant Matrix: (Units=GPa)
#
#
# Indices 1 2 3 4 5 6 
#
# 1 61.6714 32.9014 5.1292 -0.9013 -3.6885 -12.3179
# 2 32.9014 86.3031 33.5250 -14.4732 -12.4132 -22.5848
# 3 5.1292 33.5250 90.4465 -14.1488 -1.2512 -3.5856
# 4 -0.9013 -14.4732 -14.1488 35.3694 0.3320 3.8262
# 5 -3.6885 -12.4132 -1.2512 0.3320 26.8507 2.8368
# 6 -12.3179 -22.5848 -3.5856 3.8262 2.8368 22.3005
#
#
#
# Elastic Compliance Matrix: (Units=1/GPa)
#
#
# Indices 1 2 3 4 5 6 
#
# 1 0.021196 -0.008191 0.001575 -0.002632 -0.001221 0.004272
# 2 -0.008191 0.023547 -0.006743 0.004880 0.007651 0.016428
# 3 0.001575 -0.006743 0.013788 0.003254 -0.001869 -0.004062
# 4 -0.002632 0.004880 0.003254 0.031666 0.001830 -0.001654
# 5 -0.001221 0.007651 -0.001869 0.001830 0.040362 0.001325
# 6 0.004272 0.016428 -0.004062 -0.001654 0.001325 0.063301
#
#
# Mechanical properties :
#
#
# Convention : Reuss Voigt Hill
#
# Bulk Modulus (GPa) = 31.43415 42.39247 36.91331
# Shear Modulus (GPa) = 21.62776 28.02847 24.82812
#
# Velocity S-wave (km/s) = 3.33372 3.79509 3.57186
# Velocity P-wave (km/s) = 5.56516 6.40215 5.99827
#
# Compressibility (1/GPa) = 0.03181254
#
# Stress axis : x y z
#
# Youngs Moduli (GPa) = 47.17900 42.46810 72.52497
#
# Poissons Ratio (x) = 0.34787 -0.11422
# Poissons Ratio (y) = 0.38646 0.48903
# Poissons Ratio (z) = -0.07430 0.28636
#
# Static dielectric constant tensor:
#      x y z
#    x 3.642680 -0.151640 -0.005900 
#    y -0.151640 3.617970 -0.202680 
#    z -0.005900 -0.202680 3.637720 
# 
# 
# High freq. dielectric constant tensor:
#      x y z
#    x 1.726850 -0.009740 0.009170 
#    y -0.009740 1.739350 -0.008970 
#    z 0.009170 -0.008970 1.780860 
# 
# From -- ./inp_files/74636.got.cif
#   From: 2010.06.25/outbox.cif.g09.slc.cpg/sg2_38_cif.got.tgz:74636.got - 2010.06.27 13:26:56.
