data_PCOD8003807
_publ_section_title
;
Structure prediction by ZEFSAII (Michael W. Deem and Ramdas Pophale) SiO2 
 PCOD8003807
Probable space group: P -1
;
_chemical_formula_sum "Si O2"
_cell_formula_units_Z 14
_cell_length_a 9.265629
_cell_length_b 12.087912
_cell_length_c 9.661346
_cell_angle_alpha 65.719811
_cell_angle_beta 116.676606
_cell_angle_gamma 136.800451
_cell_volume 655.628859
_symmetry_space_group_name_H-M "P -1"
_symmetry_group_IT_number 2
_symmetry_cell_setting 'triclinic'
loop_
_space_group_symop_operation_xyz
x,y,z
-x,-y,-z
loop_
_atom_site_type_symbol
_atom_site_label
_atom_site_fract_x
_atom_site_fract_y
_atom_site_fract_z
Si Si1 0.402823 0.418527 0.352446
Si Si2 0.272356 0.844312 0.540053
Si Si3 0.939678 0.099148 0.357403
Si Si4 0.592904 0.692033 0.071069
Si Si5 0.671487 0.988257 0.031703
Si Si6 0.478927 0.257340 0.264497
Si Si7 0.096755 0.887557 0.208240
O O1 0.500000 0.500000 0.500000
O O2 0.464832 0.549298 0.199256
O O3 0.480791 0.325840 0.378577
O O4 0.146138 0.288548 0.327207
O O5 0.222434 0.904568 0.616847
O O6 0.306661 0.720907 0.660864
O O7 0.096906 0.775686 0.376220
O O8 0.500000 0.000000 0.500000
O O9 0.827713 0.020662 0.203547
O O10 0.000000 0.000000 0.500000
O O11 0.536086 0.803976 0.018436
O O12 0.852166 0.809207 0.129167
O O13 0.505687 0.630740 0.906878
O O14 0.500000 0.000000 0.000000
O O15 0.814247 0.112399 0.901866
O O16 0.249512 0.071416 0.241712
#
# Coordination Sequence:
#
# PCOD8003807 Si02
#       7
#     2   2   2   2   2   2   2
#     4  12  25  39  60  92 124 162 206 256 306 357
#     4  10  20  37  61  89 117 154 200 249 299 356
#     4  12  23  41  66  92 123 161 204 254 305 363
#     4  11  22  40  61  88 123 161 203 247 301 369
#     4  11  22  39  65  96 122 155 204 258 305 356
#     4  10  21  40  62  86 120 162 204 249 301 363
#     4  10  20  38  64  89 116 159 205 245 298 366
#
# _framework density 21.353545
#
# number of rings (size 3 to 8) (size 9 to 14) (size 15 to 20)
#    0.000    1.143    0.000   10.714    0.000    1.143 
#    0.000    7.143    0.000    0.000    0.000    0.000 
#    0.000    0.000    0.000    0.000    0.000    0.000 
#
# Total GULP energy -173563.933925 kJ/mol
# GULP energy per Si atom -12397.423852 kJ/mol
# Density = 2.130494 g / cm^3
# Si number density = 21.353545 Si / 1000 Ang^3
#
#
#
# Elastic Constant Matrix: (Units=GPa)
#
#
# Indices 1 2 3 4 5 6 
#
# 1 131.8737 39.2417 39.2746 -1.0480 -8.0437 -14.8812
# 2 39.2417 56.2176 34.9712 -8.0507 -9.1990 6.5768
# 3 39.2746 34.9712 160.3544 7.2964 -2.7339 -10.6886
# 4 -1.0480 -8.0507 7.2964 36.6686 -3.4691 -11.5577
# 5 -8.0437 -9.1990 -2.7339 -3.4691 42.1072 -2.9645
# 6 -14.8812 6.5768 -10.6886 -11.5577 -2.9645 20.1263
#
#
#
# Elastic Compliance Matrix: (Units=1/GPa)
#
#
# Indices 1 2 3 4 5 6 
#
# 1 0.012039 -0.009303 -0.000109 0.002777 0.001453 0.013692
# 2 -0.009303 0.030851 -0.005704 0.002241 0.003497 -0.018187
# 3 -0.000109 -0.005704 0.007901 -0.001236 -0.000490 0.005198
# 4 0.002777 0.002241 -0.001236 0.035482 0.005400 0.021836
# 5 0.001453 0.003497 -0.000490 0.005400 0.025665 0.006553
# 6 0.013692 -0.018187 0.005198 0.021836 0.006553 0.082018
#
#
# Mechanical properties :
#
#
# Convention : Reuss Voigt Hill
#
# Bulk Modulus (GPa) = 48.63854 63.93563 56.28708
# Shear Modulus (GPa) = 21.64110 35.44431 28.54271
#
# Velocity S-wave (km/s) = 3.18695 4.07858 3.66002
# Velocity P-wave (km/s) = 6.03071 7.22400 6.65416
#
# Compressibility (1/GPa) = 0.02055983
#
# Stress axis : x y z
#
# Youngs Moduli (GPa) = 83.06027 32.41396 126.56231
#
# Poissons Ratio (x) = 0.30154 0.01377
# Poissons Ratio (y) = 0.77268 0.72196
# Poissons Ratio (z) = 0.00904 0.18490
#
# Static dielectric constant tensor:
#      x y z
#    x 4.237660 -0.175210 0.229130 
#    y -0.175210 3.628120 -0.258380 
#    z 0.229130 -0.258380 4.013540 
# 
# 
# High freq. dielectric constant tensor:
#      x y z
#    x 1.847090 -0.006930 -0.006600 
#    y -0.006930 1.806020 0.002970 
#    z -0.006600 0.002970 1.865100 
# 
# From -- ./inp_files/176767.got.cif
#   From: 2010.06.25/outbox.cif.g09.slc.cpg/sg2_89_cif.got.tgz:176767.got - 2010.06.27 13:26:56.
