data_PCOD8003533
_publ_section_title
;
Structure prediction by ZEFSAII (Michael W. Deem and Ramdas Pophale) SiO2 
 PCOD8003533
Probable space group: P -1
;
_chemical_formula_sum "Si O2"
_cell_formula_units_Z 16
_cell_length_a 33.047396
_cell_length_b 26.756241
_cell_length_c 5.218773
_cell_angle_alpha 100.523778
_cell_angle_beta 107.767354
_cell_angle_gamma 12.661847
_cell_volume 803.620829
_symmetry_space_group_name_H-M "P -1"
_symmetry_group_IT_number 2
_symmetry_cell_setting 'triclinic'
loop_
_space_group_symop_operation_xyz
x,y,z
-x,-y,-z
loop_
_atom_site_type_symbol
_atom_site_label
_atom_site_fract_x
_atom_site_fract_y
_atom_site_fract_z
Si Si1 0.804123 0.343097 0.355821
Si Si2 0.799134 0.053994 0.164132
Si Si3 0.266351 0.625299 0.257113
Si Si4 0.851608 0.781027 0.770857
Si Si5 0.185086 0.231572 0.802240
Si Si6 0.452489 0.614856 0.508842
Si Si7 0.654712 0.118985 0.799759
Si Si8 0.264472 0.248634 0.847780
O O1 0.871476 0.224954 0.607315
O O2 0.537636 0.672114 0.168595
O O3 0.865839 0.242579 0.116392
O O4 0.946610 0.227090 0.542313
O O5 0.630408 0.269360 0.265023
O O6 0.724693 0.165893 0.855593
O O7 0.809938 0.980301 0.097017
O O8 0.308420 0.636240 0.317743
O O9 0.519701 0.301161 0.464386
O O10 0.720094 0.912026 0.392659
O O11 0.124621 0.449838 0.960851
O O12 0.814841 0.884499 0.807983
O O13 0.749905 0.873689 0.911819
O O14 0.305567 0.145389 0.962933
O O15 0.905035 0.564165 0.547488
O O16 0.500000 0.500000 0.500000
O O17 0.500000 0.000000 0.000000
#
# Coordination Sequence:
#
# PCOD8003533 Si02
#       8
#     2   2   2   2   2   2   2   2
#     4  10  20  37  59  82 112 151 186 231 291 334
#     4  11  22  39  60  85 115 154 188 238 288 335
#     4   9  19  38  58  78 118 149 182 235 293 322
#     4  10  20  37  60  80 113 149 189 230 281 338
#     4   9  21  37  54  82 112 146 186 227 285 327
#     4  11  21  39  62  85 116 154 191 233 284 342
#     4   9  22  37  62  79 120 146 195 231 294 331
#     4   9  20  38  58  81 115 150 183 235 281 329
#
# _framework density 19.909886
#
# number of rings (size 3 to 8) (size 9 to 14) (size 15 to 20)
#    1.500    0.750    1.250    1.500    1.750    0.500 
#    2.250    3.750    0.000    0.000    0.000    0.000 
#    0.000    0.000    0.000    0.000    0.000    0.000 
#
# Total GULP energy -198219.063480 kJ/mol
# GULP energy per Si atom -12388.691467 kJ/mol
# Density = 1.986457 g / cm^3
# Si number density = 19.909886 Si / 1000 Ang^3
#
#
#
# Elastic Constant Matrix: (Units=GPa)
#
#
# Indices 1 2 3 4 5 6 
#
# 1 131.8618 45.4184 46.2033 10.5490 27.4479 3.2714
# 2 45.4184 41.7216 26.4976 16.4849 9.5990 -4.0808
# 3 46.2033 26.4976 100.9598 17.2225 14.1466 -12.8568
# 4 10.5490 16.4849 17.2225 34.9035 -14.7566 10.5677
# 5 27.4479 9.5990 14.1466 -14.7566 41.5150 3.2452
# 6 3.2714 -4.0808 -12.8568 10.5677 3.2452 35.6768
#
#
#
# Elastic Compliance Matrix: (Units=1/GPa)
#
#
# Indices 1 2 3 4 5 6 
#
# 1 0.014526 -0.015909 -0.004106 0.006314 -0.001787 -0.006339
# 2 -0.015909 0.065268 0.005325 -0.047670 -0.025464 0.027280
# 3 -0.004106 0.005325 0.017143 -0.019133 -0.012249 0.013945
# 4 0.006314 -0.047670 -0.019133 0.093600 0.050172 -0.045215
# 5 -0.001787 -0.025464 -0.012249 0.050172 0.055279 -0.027053
# 6 -0.006339 0.027280 0.013945 -0.045215 -0.027053 0.052610
#
#
# Mechanical properties :
#
#
# Convention : Reuss Voigt Hill
#
# Bulk Modulus (GPa) = 14.80271 56.75352 35.77812
# Shear Modulus (GPa) = 14.27244 32.84733 23.55988
#
# Velocity S-wave (km/s) = 2.68031 4.06618 3.44368
# Velocity P-wave (km/s) = 4.12671 7.11422 5.81558
#
# Compressibility (1/GPa) = 0.06755520
#
# Stress axis : x y z
#
# Youngs Moduli (GPa) = 68.84050 15.32152 58.33401
#
# Poissons Ratio (x) = 0.24375 0.23954
# Poissons Ratio (y) = 1.09519 -0.31061
# Poissons Ratio (z) = 0.28268 -0.08158
#
# Static dielectric constant tensor:
#      x y z
#    x 3.563440 -0.158690 0.075810 
#    y -0.158690 3.247380 0.208500 
#    z 0.075810 0.208500 3.550970 
# 
# 
# High freq. dielectric constant tensor:
#      x y z
#    x 1.778720 -0.016230 0.009400 
#    y -0.016230 1.741080 0.022680 
#    z 0.009400 0.022680 1.772670 
# 
# From -- ./inp_files/125023.got.cif
#   From: 2010.06.25/outbox.cif.g09.slc.cpg/sg2_63_cif.got.tgz:125023.got - 2010.06.27 13:26:56.
