data_PCOD8003225
_publ_section_title
;
Structure prediction by ZEFSAII (Michael W. Deem and Ramdas Pophale) SiO2 
 PCOD8003225
Probable space group: P -1
;
_chemical_formula_sum "Si O2"
_cell_formula_units_Z 16
_cell_length_a 16.592811
_cell_length_b 9.258262
_cell_length_c 12.983385
_cell_angle_alpha 91.979167
_cell_angle_beta 155.881008
_cell_angle_gamma 97.322741
_cell_volume 750.286025
_symmetry_space_group_name_H-M "P -1"
_symmetry_group_IT_number 2
_symmetry_cell_setting 'triclinic'
loop_
_space_group_symop_operation_xyz
x,y,z
-x,-y,-z
loop_
_atom_site_type_symbol
_atom_site_label
_atom_site_fract_x
_atom_site_fract_y
_atom_site_fract_z
Si Si1 0.123927 0.732202 0.995110
Si Si2 0.718313 0.616123 0.661125
Si Si3 0.721940 0.781462 0.019889
Si Si4 0.991135 0.132664 0.337189
Si Si5 0.556609 0.682585 0.049911
Si Si6 0.275510 0.529650 0.035631
Si Si7 0.479818 0.728136 0.534547
Si Si8 0.186969 0.665969 0.742018
O O1 0.096954 0.842839 0.876492
O O2 0.121243 0.572301 0.935292
O O3 0.936960 0.701143 0.858258
O O4 0.352650 0.818374 0.325338
O O5 0.693439 0.730429 0.724739
O O6 0.702634 0.450362 0.684943
O O7 0.516299 0.572834 0.351139
O O8 0.553612 0.792390 0.737112
O O9 0.595254 0.724540 0.976561
O O10 0.828780 0.657565 0.111430
O O11 0.915293 0.948001 0.263007
O O12 0.902560 0.202305 0.331074
O O13 0.247067 0.214452 0.644948
O O14 0.500000 0.500000 0.000000
O O15 0.350483 0.721851 0.838814
O O16 0.317804 0.638867 0.988731
O O17 0.000000 0.500000 0.500000
#
# Coordination Sequence:
#
# PCOD8003225 Si02
#       8
#     2   2   2   2   2   2   2   2
#     4  10  20  36  64  90 118 162 210 244 292 363
#     4   9  17  35  58  90 116 157 210 252 282 354
#     4  11  23  41  61  90 134 161 193 258 315 356
#     4  11  25  41  62  94 128 158 198 258 312 357
#     4  12  23  42  68  89 115 166 209 249 302 369
#     4   9  19  35  59  86 121 156 202 249 295 353
#     4   9  20  35  57  89 125 157 199 251 303 345
#     4  11  21  38  63  93 114 154 210 253 298 360
#
# _framework density 21.325201
#
# number of rings (size 3 to 8) (size 9 to 14) (size 15 to 20)
#    0.000    1.750    2.500    2.250    1.750    1.000 
#    0.000    5.625    0.000    0.000    0.000    0.000 
#    0.000    0.000    0.000    0.000    0.000    0.000 
#
# Total GULP energy -198304.729739 kJ/mol
# GULP energy per Si atom -12394.045609 kJ/mol
# Density = 2.127666 g / cm^3
# Si number density = 21.325201 Si / 1000 Ang^3
#
#
#
# Elastic Constant Matrix: (Units=GPa)
#
#
# Indices 1 2 3 4 5 6 
#
# 1 136.3500 34.4898 48.0396 0.9728 12.8659 12.7765
# 2 34.4898 75.2723 33.8101 17.8832 6.6016 -1.2916
# 3 48.0396 33.8101 84.5932 7.1101 2.7652 3.9166
# 4 0.9728 17.8832 7.1101 24.7039 1.4885 1.1451
# 5 12.8659 6.6016 2.7652 1.4885 39.4606 -4.8540
# 6 12.7765 -1.2916 3.9166 1.1451 -4.8540 20.0759
#
#
#
# Elastic Compliance Matrix: (Units=1/GPa)
#
#
# Indices 1 2 3 4 5 6 
#
# 1 0.010906 -0.003727 -0.004589 0.004155 -0.003679 -0.007412
# 2 -0.003727 0.020725 -0.005251 -0.013548 -0.000717 0.005329
# 3 -0.004589 -0.005251 0.016572 -0.000846 0.001207 -0.000310
# 4 0.004155 -0.013548 -0.000846 0.050783 -0.001765 -0.006674
# 5 -0.003679 -0.000717 0.001207 -0.001765 0.027734 0.008866
# 6 -0.007412 0.005329 -0.000310 -0.006674 0.008866 0.057455
#
#
# Mechanical properties :
#
#
# Convention : Reuss Voigt Hill
#
# Bulk Modulus (GPa) = 47.46683 58.76605 53.11644
# Shear Modulus (GPa) = 22.90081 28.83981 25.87031
#
# Velocity S-wave (km/s) = 3.28057 3.68146 3.48678
# Velocity P-wave (km/s) = 6.05446 6.75928 6.41655
#
# Compressibility (1/GPa) = 0.02106734
#
# Stress axis : x y z
#
# Youngs Moduli (GPa) = 91.69390 48.25153 60.34155
#
# Poissons Ratio (x) = 0.17985 0.27693
# Poissons Ratio (y) = 0.34177 0.31686
# Poissons Ratio (z) = 0.42082 0.25337
#
# Static dielectric constant tensor:
#      x y z
#    x 5.847840 2.017930 -0.621000 
#    y 2.017930 6.147890 -0.687020 
#    z -0.621000 -0.687020 3.934460 
# 
# 
# High freq. dielectric constant tensor:
#      x y z
#    x 1.844770 0.003530 -0.018330 
#    y 0.003530 1.814070 -0.021340 
#    z -0.018330 -0.021340 1.833100 
# 
# From -- ./inp_files/447579.got.cif
#   From: 2010.06.25/outbox.cif.g09.slc.cpg/sg2_224_cif.got.tgz:447579.got - 2010.06.27 13:26:56.
