data_PCOD8003960
_publ_section_title
;
Structure prediction by ZEFSAII (Michael W. Deem and Ramdas Pophale) SiO2 
 PCOD8003960
Probable space group: P -1
;
_chemical_formula_sum "Si O2"
_cell_formula_units_Z 14
_cell_length_a 9.668129
_cell_length_b 12.160557
_cell_length_c 10.746470
_cell_angle_alpha 60.604485
_cell_angle_beta 121.493583
_cell_angle_gamma 141.344743
_cell_volume 664.751728
_symmetry_space_group_name_H-M "P -1"
_symmetry_group_IT_number 2
_symmetry_cell_setting 'triclinic'
loop_
_space_group_symop_operation_xyz
x,y,z
-x,-y,-z
loop_
_atom_site_type_symbol
_atom_site_label
_atom_site_fract_x
_atom_site_fract_y
_atom_site_fract_z
Si Si1 0.338134 0.869649 0.888617
Si Si2 0.264751 0.159785 0.260126
Si Si3 0.069253 0.303467 0.045394
Si Si4 0.863002 0.292003 0.554554
Si Si5 0.526266 0.310660 0.070226
Si Si6 0.062527 0.187220 0.854110
Si Si7 0.369817 0.007228 0.580819
O O1 0.460789 0.819760 0.909932
O O2 0.095484 0.711906 0.929447
O O3 0.307116 0.965361 0.720040
O O4 0.500000 0.000000 0.000000
O O5 0.196868 0.264477 0.207777
O O6 0.504242 0.288673 0.223454
O O7 0.269029 0.078408 0.431110
O O8 0.087888 0.012518 0.153360
O O9 0.236130 0.495608 0.957067
O O10 0.954130 0.173867 0.942539
O O11 0.645817 0.168335 0.614380
O O12 0.000000 0.500000 0.500000
O O13 0.048198 0.291679 0.688206
O O14 0.748223 0.182478 0.430984
O O15 0.326179 0.289426 0.932617
#
# Coordination Sequence:
#
# PCOD8003960 Si02
#       7
#     2   2   2   2   2   2   2
#     4  12  24  43  61  84 128 169 204 244 313 382
#     4  10  20  40  65  88 122 156 209 259 302 360
#     4  11  23  36  62  91 124 165 197 253 306 366
#     4  10  21  36  65  93 126 155 206 263 309 358
#     4  11  22  37  62  91 123 154 209 260 298 361
#     4  10  20  37  62  93 114 161 207 251 308 356
#     4  10  23  40  60  94 125 163 205 258 311 366
#
# _framework density 21.060493999999998
#
# number of rings (size 3 to 8) (size 9 to 14) (size 15 to 20)
#    0.000    1.429    0.000    9.000    6.000    0.571 
#    2.571    0.000    0.000    2.571    0.000    0.000 
#    0.000    0.000    0.000    0.000    0.000    0.000 
#
# Total GULP energy -173485.206072 kJ/mol
# GULP energy per Si atom -12391.800434 kJ/mol
# Density = 2.101256 g / cm^3
# Si number density = 21.060494 Si / 1000 Ang^3
#
#
#
# Elastic Constant Matrix: (Units=GPa)
#
#
# Indices 1 2 3 4 5 6 
#
# 1 83.0218 11.1186 26.2223 -0.5423 -3.5795 13.2554
# 2 11.1186 100.9336 36.6235 -19.7812 -5.4689 9.8532
# 3 26.2223 36.6235 112.2937 -4.7463 -11.7028 0.8709
# 4 -0.5423 -19.7812 -4.7463 26.3584 -0.1887 1.8135
# 5 -3.5795 -5.4689 -11.7028 -0.1887 29.5011 -9.8470
# 6 13.2554 9.8532 0.8709 1.8135 -9.8470 28.8522
#
#
#
# Elastic Compliance Matrix: (Units=1/GPa)
#
#
# Indices 1 2 3 4 5 6 
#
# 1 0.014202 0.000430 -0.003595 0.000454 -0.002054 -0.007293
# 2 0.000430 0.013887 -0.004256 0.010054 -0.000919 -0.005757
# 3 -0.003595 -0.004256 0.011541 -0.001465 0.004847 0.004503
# 4 0.000454 0.010054 -0.001465 0.045684 -0.000597 -0.006673
# 5 -0.002054 -0.000919 0.004847 -0.000597 0.040380 0.014930
# 6 -0.007293 -0.005757 0.004503 -0.006673 0.014930 0.045355
#
#
# Mechanical properties :
#
#
# Convention : Reuss Voigt Hill
#
# Bulk Modulus (GPa) = 40.34242 49.35310 44.84776
# Shear Modulus (GPa) = 25.75300 31.76132 28.75716
#
# Velocity S-wave (km/s) = 3.50066 3.88764 3.69922
# Velocity P-wave (km/s) = 5.96126 6.60579 6.29178
#
# Compressibility (1/GPa) = 0.02478780
#
# Stress axis : x y z
#
# Youngs Moduli (GPa) = 70.41441 72.01051 86.64888
#
# Poissons Ratio (x) = -0.03093 0.31148
# Poissons Ratio (y) = -0.03025 0.36874
# Poissons Ratio (z) = 0.25312 0.30644
#
# Static dielectric constant tensor:
#      x y z
#    x 5.224260 0.061140 -0.104830 
#    y 0.061140 3.817300 -0.098530 
#    z -0.104830 -0.098530 3.944220 
# 
# 
# High freq. dielectric constant tensor:
#      x y z
#    x 1.802990 0.003790 0.018120 
#    y 0.003790 1.825090 -0.009920 
#    z 0.018120 -0.009920 1.837030 
# 
# From -- ./inp_files/389546.got.cif
#   From: 2010.06.25/outbox.cif.g09.slc.cpg/sg2_195_cif.got.tgz:389546.got - 2010.06.27 13:26:56.
