data_PCOD8003086
_publ_section_title
;
Structure prediction by ZEFSAII (Michael W. Deem and Ramdas Pophale) SiO2 
 PCOD8003086
Probable space group: P -1
;
_chemical_formula_sum "Si O2"
_cell_formula_units_Z 16
_cell_length_a 17.063457
_cell_length_b 8.821775
_cell_length_c 8.468427
_cell_angle_alpha 82.141411
_cell_angle_beta 142.058430
_cell_angle_gamma 87.577703
_cell_volume 752.486193
_symmetry_space_group_name_H-M "P -1"
_symmetry_group_IT_number 2
_symmetry_cell_setting 'triclinic'
loop_
_space_group_symop_operation_xyz
x,y,z
-x,-y,-z
loop_
_atom_site_type_symbol
_atom_site_label
_atom_site_fract_x
_atom_site_fract_y
_atom_site_fract_z
Si Si1 0.634244 0.059232 0.009917
Si Si2 0.550666 0.762011 0.866871
Si Si3 0.442071 0.687221 0.395545
Si Si4 0.295994 0.762313 0.628404
Si Si5 0.035908 0.626779 0.695715
Si Si6 0.195646 0.501181 0.689160
Si Si7 0.103222 0.078683 0.733671
Si Si8 0.165120 0.818201 0.091437
O O1 0.690543 0.089214 0.265880
O O2 0.753803 0.969051 0.106608
O O3 0.556305 0.225822 0.783305
O O4 0.538356 0.940189 0.885047
O O5 0.530086 0.760005 0.646025
O O6 0.438094 0.692426 0.782890
O O7 0.693898 0.656480 0.149054
O O8 0.500000 0.500000 0.500000
O O9 0.294712 0.725209 0.219852
O O10 0.249021 0.642128 0.683629
O O11 0.183458 0.813840 0.308965
O O12 0.169542 0.532651 0.832440
O O13 0.939497 0.516070 0.607887
O O14 0.955979 0.734986 0.407791
O O15 0.058938 0.724354 0.873019
O O16 0.000000 0.000000 0.500000
O O17 0.120534 0.005163 0.949041
#
# Coordination Sequence:
#
# PCOD8003086 Si02
#       8
#     2   2   2   2   2   2   2   2
#     4  11  21  38  60  87 121 158 202 240 292 354
#     4  11  22  39  60  89 121 156 199 243 298 355
#     4  10  20  36  62  90 118 152 200 248 293 349
#     4  11  23  38  58  87 126 161 190 239 305 363
#     4  10  20  39  64  89 113 152 209 251 289 346
#     4  11  22  38  64  88 118 157 199 247 302 349
#     4   9  17  36  62  84 113 153 199 250 286 335
#     4   9  20  36  59  87 121 153 197 243 299 352
#
# _framework density 21.262848999999999
#
# number of rings (size 3 to 8) (size 9 to 14) (size 15 to 20)
#    0.000    1.750    1.250    4.875    0.000    1.500 
#    0.000    5.625    5.500    0.000    0.000    0.000 
#    0.000    0.000    0.000    0.000    0.000    0.000 
#
# Total GULP energy -198259.299735 kJ/mol
# GULP energy per Si atom -12391.206233 kJ/mol
# Density = 2.121445 g / cm^3
# Si number density = 21.262849 Si / 1000 Ang^3
#
#
#
# Elastic Constant Matrix: (Units=GPa)
#
#
# Indices 1 2 3 4 5 6 
#
# 1 63.3799 26.8602 27.6964 12.1421 -1.0164 13.9783
# 2 26.8602 115.7093 47.5731 17.3251 -7.8982 0.7465
# 3 27.6964 47.5731 90.5441 19.8453 -12.1234 0.0507
# 4 12.1421 17.3251 19.8453 37.3331 -13.3540 2.0665
# 5 -1.0164 -7.8982 -12.1234 -13.3540 31.1998 10.7847
# 6 13.9783 0.7465 0.0507 2.0665 10.7847 28.9443
#
#
#
# Elastic Compliance Matrix: (Units=1/GPa)
#
#
# Indices 1 2 3 4 5 6 
#
# 1 0.021728 -0.002659 -0.004581 -0.002521 0.000820 -0.010542
# 2 -0.002659 0.011530 -0.004832 -0.002135 -0.000409 0.001300
# 3 -0.004581 -0.004832 0.016222 -0.004033 0.002649 0.001610
# 4 -0.002521 -0.002135 -0.004033 0.036933 0.016170 -0.007382
# 5 0.000820 -0.000409 0.002649 0.016170 0.046440 -0.018848
# 6 -0.010542 0.001300 0.001610 -0.007382 -0.018848 0.047154
#
#
# Mechanical properties :
#
#
# Convention : Reuss Voigt Hill
#
# Bulk Modulus (GPa) = 39.47020 52.65472 46.06246
# Shear Modulus (GPa) = 23.51892 30.66235 27.09063
#
# Velocity S-wave (km/s) = 3.32942 3.80157 3.57330
# Velocity P-wave (km/s) = 5.77783 6.63978 6.22375
#
# Compressibility (1/GPa) = 0.02533557
#
# Stress axis : x y z
#
# Youngs Moduli (GPa) = 46.02426 86.73307 61.64478
#
# Poissons Ratio (x) = 0.23061 0.28240
# Poissons Ratio (y) = 0.12237 0.29786
# Poissons Ratio (z) = 0.21084 0.41909
#
# Static dielectric constant tensor:
#      x y z
#    x 3.679460 0.174440 0.011230 
#    y 0.174440 4.034310 -0.117780 
#    z 0.011230 -0.117780 4.131660 
# 
# 
# High freq. dielectric constant tensor:
#      x y z
#    x 1.813500 0.007370 0.013490 
#    y 0.007370 1.837830 0.011360 
#    z 0.013490 0.011360 1.831330 
# 
# From -- ./inp_files/328780.got.cif
#   From: 2010.06.25/outbox.cif.g09.slc.cpg/sg2_165_cif.got.tgz:328780.got - 2010.06.27 13:26:56.
