data_PCOD8003345
_publ_section_title
;
Structure prediction by ZEFSAII (Michael W. Deem and Ramdas Pophale) SiO2 
 PCOD8003345
Probable space group: P -1
;
_chemical_formula_sum "Si O2"
_cell_formula_units_Z 16
_cell_length_a 8.329778
_cell_length_b 11.783932
_cell_length_c 13.447303
_cell_angle_alpha 111.371073
_cell_angle_beta 144.235019
_cell_angle_gamma 79.783428
_cell_volume 701.236469
_symmetry_space_group_name_H-M "P -1"
_symmetry_group_IT_number 2
_symmetry_cell_setting 'triclinic'
loop_
_space_group_symop_operation_xyz
x,y,z
-x,-y,-z
loop_
_atom_site_type_symbol
_atom_site_label
_atom_site_fract_x
_atom_site_fract_y
_atom_site_fract_z
Si Si1 0.120479 0.256126 0.979264
Si Si2 0.916609 0.226286 0.086244
Si Si3 0.324677 0.055801 0.544424
Si Si4 0.581374 0.623241 0.518150
Si Si5 0.095045 0.003829 0.201418
Si Si6 0.372255 0.277653 0.776490
Si Si7 0.661945 0.481520 0.839514
Si Si8 0.139274 0.770735 0.365502
O O1 0.993919 0.276828 0.030049
O O2 0.384354 0.374417 0.133051
O O3 0.896884 0.260635 0.779884
O O4 0.173644 0.114115 0.952470
O O5 0.088487 0.320754 0.283851
O O6 0.987943 0.090570 0.095387
O O7 0.589147 0.224399 0.939345
O O8 0.236145 0.079690 0.393787
O O9 0.236894 0.166789 0.596465
O O10 0.658303 0.064530 0.735246
O O11 0.164450 0.916559 0.450469
O O12 0.500000 0.500000 0.500000
O O13 0.516223 0.595780 0.362120
O O14 0.421342 0.724489 0.519696
O O15 0.538488 0.407181 0.852459
O O16 0.123202 0.306957 0.728580
O O17 0.000000 0.500000 0.000000
#
# Coordination Sequence:
#
# PCOD8003345 Si02
#       8
#     2   2   2   2   2   2   2   2
#     4  11  22  40  63  95 129 174 215 264 318 383
#     4  12  22  39  67  99 125 166 221 274 311 376
#     4  10  20  41  65  97 131 170 215 266 325 383
#     4  12  23  42  68  97 124 167 223 268 311 377
#     4  10  20  36  70  99 122 164 233 268 302 380
#     4  12  25  41  66  99 133 173 209 265 336 386
#     4  12  21  43  67  93 128 170 219 262 313 393
#     4  11  25  43  65  94 135 173 212 265 332 388
#
# _framework density 22.816839000000002
#
# number of rings (size 3 to 8) (size 9 to 14) (size 15 to 20)
#    0.000    0.750    6.250    1.500    1.750    0.500 
#    0.000    5.625    0.000    0.000    0.000    0.000 
#    0.000    0.000    0.000    0.000    0.000    0.000 
#
# Total GULP energy -198249.972691 kJ/mol
# GULP energy per Si atom -12390.623293 kJ/mol
# Density = 2.276491 g / cm^3
# Si number density = 22.816839 Si / 1000 Ang^3
#
#
#
# Elastic Constant Matrix: (Units=GPa)
#
#
# Indices 1 2 3 4 5 6 
#
# 1 56.2758 31.2351 33.5372 -10.4035 3.0121 17.2123
# 2 31.2351 106.9476 22.5600 20.9043 0.6730 20.5454
# 3 33.5372 22.5600 93.2940 17.3074 -7.2842 -2.1169
# 4 -10.4035 20.9043 17.3074 39.4947 -1.8244 -2.0033
# 5 3.0121 0.6730 -7.2842 -1.8244 22.4312 6.5780
# 6 17.2123 20.5454 -2.1169 -2.0033 6.5780 28.2913
#
#
#
# Elastic Compliance Matrix: (Units=1/GPa)
#
#
# Indices 1 2 3 4 5 6 
#
# 1 0.045666 -0.010495 -0.019272 0.024867 -0.004544 -0.018786
# 2 -0.010495 0.015456 0.002350 -0.012169 0.002510 -0.006109
# 3 -0.019272 0.002350 0.020396 -0.014545 0.005231 0.009299
# 4 0.024867 -0.012169 -0.014545 0.044365 -0.003054 -0.003528
# 5 -0.004544 0.002510 0.005231 -0.003054 0.049622 -0.010421
# 6 -0.018786 -0.006109 0.009299 -0.003528 -0.010421 0.054081
#
#
# Mechanical properties :
#
#
# Convention : Reuss Voigt Hill
#
# Bulk Modulus (GPa) = 37.47525 47.90911 42.69218
# Shear Modulus (GPa) = 17.04649 29.32245 23.18447
#
# Velocity S-wave (km/s) = 2.73628 3.58875 3.19111
# Velocity P-wave (km/s) = 5.14228 6.18183 5.68586
#
# Compressibility (1/GPa) = 0.02668428
#
# Stress axis : x y z
#
# Youngs Moduli (GPa) = 21.89812 64.69934 49.02846
#
# Poissons Ratio (x) = 0.67900 0.94489
# Poissons Ratio (y) = 0.22981 -0.11522
# Poissons Ratio (z) = 0.42203 -0.15204
#
# Static dielectric constant tensor:
#      x y z
#    x 3.680910 0.177100 -0.312760 
#    y 0.177100 4.554210 0.378100 
#    z -0.312760 0.378100 4.452390 
# 
# 
# High freq. dielectric constant tensor:
#      x y z
#    x 1.851270 0.022160 -0.028940 
#    y 0.022160 1.919660 0.025580 
#    z -0.028940 0.025580 1.902980 
# 
# From -- ./inp_files/500642.got.cif
#   From: 2010.06.25/outbox.cif.g09.slc.cpg/sg2_251_cif.got.tgz:500642.got - 2010.06.27 13:26:56.
