data_PCOD8003346
_publ_section_title
;
Structure prediction by ZEFSAII (Michael W. Deem and Ramdas Pophale) SiO2 
 PCOD8003346
Probable space group: P -1
;
_chemical_formula_sum "Si O2"
_cell_formula_units_Z 16
_cell_length_a 11.541860
_cell_length_b 14.734023
_cell_length_c 9.072685
_cell_angle_alpha 98.150684
_cell_angle_beta 71.399810
_cell_angle_gamma 148.864992
_cell_volume 728.470241
_symmetry_space_group_name_H-M "P -1"
_symmetry_group_IT_number 2
_symmetry_cell_setting 'triclinic'
loop_
_space_group_symop_operation_xyz
x,y,z
-x,-y,-z
loop_
_atom_site_type_symbol
_atom_site_label
_atom_site_fract_x
_atom_site_fract_y
_atom_site_fract_z
Si Si1 0.284085 0.880814 0.399042
Si Si2 0.759689 0.206627 0.914888
Si Si3 0.547717 0.760863 0.342187
Si Si4 0.286123 0.736704 0.598036
Si Si5 0.008816 0.174280 0.291581
Si Si6 0.258391 0.610064 0.147951
Si Si7 0.150584 0.366317 0.985300
Si Si8 0.494684 0.511069 0.331137
O O1 0.148169 0.771297 0.276178
O O2 0.345670 0.824173 0.437644
O O3 0.109230 0.820716 0.566911
O O4 0.535543 0.099882 0.316327
O O5 0.742457 0.305912 0.945596
O O6 0.928124 0.279891 0.991955
O O7 0.500000 0.000000 0.000000
O O8 0.371505 0.686663 0.526250
O O9 0.466407 0.753981 0.219422
O O10 0.512383 0.629821 0.316940
O O11 0.828415 0.969830 0.309985
O O12 0.007276 0.566527 0.711152
O O13 0.257282 0.310691 0.307576
O O14 0.064310 0.241692 0.118788
O O15 0.323213 0.557450 0.025561
O O16 0.275620 0.389822 0.811444
O O17 0.500000 0.500000 0.500000
#
# Coordination Sequence:
#
# PCOD8003346 Si02
#       8
#     2   2   2   2   2   2   2   2
#     4  10  20  39  67  97 141 177 223 289 340 407
#     4  12  26  42  64 107 147 181 227 284 350 409
#     4  11  24  42  75 104 134 187 231 278 348 412
#     4  10  20  36  71 101 134 176 233 276 344 411
#     4  11  24  47  72 103 136 180 241 284 340 411
#     4  12  23  41  70 102 140 185 227 284 346 416
#     4  12  26  45  69 102 141 182 230 289 341 412
#     4  12  28  50  72  97 140 183 234 289 346 409
#
# _framework density 21.963836000000001
#
# number of rings (size 3 to 8) (size 9 to 14) (size 15 to 20)
#    0.000    0.750    3.750    3.375    5.250    1.000 
#    4.500    0.000    0.000    0.000    0.000    0.000 
#    0.000    0.000    0.000    0.000    0.000    0.000 
#
# Total GULP energy -198391.764449 kJ/mol
# GULP energy per Si atom -12399.485278 kJ/mol
# Density = 2.191385 g / cm^3
# Si number density = 21.963836 Si / 1000 Ang^3
#
#
#
# Elastic Constant Matrix: (Units=GPa)
#
#
# Indices 1 2 3 4 5 6 
#
# 1 86.5713 30.4978 20.3139 -2.6697 1.1440 -2.1071
# 2 30.4978 104.5200 16.6052 -1.0957 1.3044 -4.0666
# 3 20.3139 16.6052 89.2619 2.9722 -3.6730 -11.6777
# 4 -2.6697 -1.0957 2.9722 31.1236 2.9641 1.2737
# 5 1.1440 1.3044 -3.6730 2.9641 38.2478 14.5216
# 6 -2.1071 -4.0666 -11.6777 1.2737 14.5216 27.6233
#
#
#
# Elastic Compliance Matrix: (Units=1/GPa)
#
#
# Indices 1 2 3 4 5 6 
#
# 1 0.013416 -0.003509 -0.002512 0.001328 -0.000489 -0.000359
# 2 -0.003509 0.010829 -0.001086 0.000214 -0.000888 0.001324
# 3 -0.002512 -0.001086 0.012714 -0.001633 -0.000595 0.005412
# 4 0.001328 0.000214 -0.001633 0.032672 -0.002439 -0.000782
# 5 -0.000489 -0.000888 -0.000595 -0.002439 0.033032 -0.017672
# 6 -0.000359 0.001324 0.005412 -0.000782 -0.017672 0.047983
#
#
# Mechanical properties :
#
#
# Convention : Reuss Voigt Hill
#
# Bulk Modulus (GPa) = 43.96664 46.13188 45.04926
# Shear Modulus (GPa) = 28.99544 33.59469 31.29506
#
# Velocity S-wave (km/s) = 3.63732 3.91518 3.77881
# Velocity P-wave (km/s) = 6.14014 6.44107 6.29240
#
# Compressibility (1/GPa) = 0.02274452
#
# Stress axis : x y z
#
# Youngs Moduli (GPa) = 74.54052 92.34475 78.65045
#
# Poissons Ratio (x) = 0.32408 0.19753
# Poissons Ratio (y) = 0.26160 0.08543
# Poissons Ratio (z) = 0.18721 0.10031
#
# Static dielectric constant tensor:
#      x y z
#    x 3.876940 0.040100 -0.045280 
#    y 0.040100 4.399500 0.397580 
#    z -0.045280 0.397580 3.966470 
# 
# 
# High freq. dielectric constant tensor:
#      x y z
#    x 1.851580 -0.001150 -0.003180 
#    y -0.001150 1.877060 0.014470 
#    z -0.003180 0.014470 1.864560 
# 
# From -- ./inp_files/273362.got.cif
#   From: 2010.06.25/outbox.cif.g09.slc.cpg/sg2_137_cif.got.tgz:273362.got - 2010.06.27 13:26:56.
