data_PCOD8003580
_publ_section_title
;
Structure prediction by ZEFSAII (Michael W. Deem and Ramdas Pophale) SiO2 
 PCOD8003580
Probable space group: P -1
;
_chemical_formula_sum "Si O2"
_cell_formula_units_Z 14
_cell_length_a 10.048789
_cell_length_b 6.292464
_cell_length_c 21.619058
_cell_angle_alpha 53.226958
_cell_angle_beta 38.414376
_cell_angle_gamma 45.794023
_cell_volume 604.652551
_symmetry_space_group_name_H-M "P -1"
_symmetry_group_IT_number 2
_symmetry_cell_setting 'triclinic'
loop_
_space_group_symop_operation_xyz
x,y,z
-x,-y,-z
loop_
_atom_site_type_symbol
_atom_site_label
_atom_site_fract_x
_atom_site_fract_y
_atom_site_fract_z
Si Si1 0.973585 0.889417 0.938217
Si Si2 0.108294 0.221121 0.434251
Si Si3 0.841958 0.186112 0.249051
Si Si4 0.217215 0.537344 0.232464
Si Si5 0.373375 0.218863 0.451681
Si Si6 0.168829 0.434470 0.132151
Si Si7 0.648894 0.663110 0.045852
O O1 0.120072 0.745352 0.846812
O O2 0.138818 0.679400 0.969118
O O3 0.934630 0.218638 0.906686
O O4 0.720949 0.871114 0.027222
O O5 0.237157 0.283905 0.317275
O O6 0.309652 0.073244 0.440493
O O7 0.883627 0.529460 0.479076
O O8 0.000000 0.000000 0.500000
O O9 0.557911 0.341207 0.340647
O O10 0.956567 0.337939 0.227094
O O11 0.955079 0.825842 0.279974
O O12 0.284329 0.378945 0.168139
O O13 0.400520 0.674188 0.157190
O O14 0.500000 0.000000 0.500000
O O15 0.361548 0.245620 0.039992
#
# Coordination Sequence:
#
# PCOD8003580 Si02
#       7
#     2   2   2   2   2   2   2
#     4   9  20  38  59  88 124 165 214 260 319 383
#     4  11  27  45  70 103 128 171 228 274 330 395
#     4  10  22  40  62  90 126 173 207 262 330 385
#     4  11  23  39  60  91 130 164 215 267 326 385
#     4  11  24  46  70  93 134 171 217 276 333 390
#     4  10  22  36  61  92 123 167 214 257 323 386
#     4  10  20  37  59  87 127 165 207 266 317 383
#
# _framework density 23.153790999999998
#
# number of rings (size 3 to 8) (size 9 to 14) (size 15 to 20)
#    0.000    1.714    1.429    1.714    2.000   10.286 
#    0.000    0.000    0.000    0.000    0.000    0.000 
#    0.000    0.000    0.000    0.000    0.000    0.000 
#
# Total GULP energy -173555.017974 kJ/mol
# GULP energy per Si atom -12396.786998 kJ/mol
# Density = 2.310109 g / cm^3
# Si number density = 23.153791 Si / 1000 Ang^3
#
#
#
# Elastic Constant Matrix: (Units=GPa)
#
#
# Indices 1 2 3 4 5 6 
#
# 1 145.3759 21.9782 55.2760 -13.5000 2.0537 -3.5892
# 2 21.9782 33.5329 3.7688 -13.5331 2.7664 7.5615
# 3 55.2760 3.7688 133.7760 -16.3335 -11.5883 6.2696
# 4 -13.5000 -13.5331 -16.3335 36.5966 -0.7768 -3.7599
# 5 2.0537 2.7664 -11.5883 -0.7768 40.8204 -5.0978
# 6 -3.5892 7.5615 6.2696 -3.7599 -5.0978 35.1537
#
#
#
# Elastic Compliance Matrix: (Units=1/GPa)
#
#
# Indices 1 2 3 4 5 6 
#
# 1 0.009408 -0.006474 -0.003961 -0.000411 -0.000805 0.002899
# 2 -0.006474 0.041345 0.003366 0.013421 -0.002398 -0.009067
# 3 -0.003961 0.003366 0.009827 0.004011 0.002578 -0.002078
# 4 -0.000411 0.013421 0.004011 0.033958 0.000911 0.000120
# 5 -0.000805 -0.002398 0.002578 0.000911 0.025928 0.003831
# 6 0.002899 -0.009067 -0.002078 0.000120 0.003831 0.031632
#
#
# Mechanical properties :
#
#
# Convention : Reuss Voigt Hill
#
# Bulk Modulus (GPa) = 21.53173 52.74790 37.13982
# Shear Modulus (GPa) = 27.51520 37.95826 32.73673
#
# Velocity S-wave (km/s) = 3.45101 4.05334 3.76424
# Velocity P-wave (km/s) = 5.01985 6.68858 5.91337
#
# Compressibility (1/GPa) = 0.04644308
#
# Stress axis : x y z
#
# Youngs Moduli (GPa) = 106.28861 24.18667 101.75658
#
# Poissons Ratio (x) = 0.15659 0.40304
# Poissons Ratio (y) = 0.68814 -0.34253
# Poissons Ratio (z) = 0.42099 -0.08142
#
# Static dielectric constant tensor:
#      x y z
#    x 4.528040 0.002150 0.035150 
#    y 0.002150 3.819060 -0.051910 
#    z 0.035150 -0.051910 4.271470 
# 
# 
# High freq. dielectric constant tensor:
#      x y z
#    x 1.929750 -0.000200 -0.001950 
#    y -0.000200 1.899850 -0.007720 
#    z -0.001950 -0.007720 1.916450 
# 
# From -- ./inp_files/585511.got.cif
#   From: 2010.06.25/outbox.cif.g09.slc.cpg/sg2_293_cif.got.tgz:585511.got - 2010.06.27 13:26:56.
