data_PCOD8003083
_publ_section_title
;
Structure prediction by ZEFSAII (Michael W. Deem and Ramdas Pophale) SiO2 
 PCOD8003083
Probable space group: P -1
;
_chemical_formula_sum "Si O2"
_cell_formula_units_Z 16
_cell_length_a 15.238289
_cell_length_b 11.411948
_cell_length_c 8.405320
_cell_angle_alpha 42.562778
_cell_angle_beta 127.571614
_cell_angle_gamma 128.346819
_cell_volume 742.527237
_symmetry_space_group_name_H-M "P -1"
_symmetry_group_IT_number 2
_symmetry_cell_setting 'triclinic'
loop_
_space_group_symop_operation_xyz
x,y,z
-x,-y,-z
loop_
_atom_site_type_symbol
_atom_site_label
_atom_site_fract_x
_atom_site_fract_y
_atom_site_fract_z
Si Si1 0.779251 0.689861 0.190933
Si Si2 0.467023 0.433406 0.854316
Si Si3 0.827214 0.413607 0.010219
Si Si4 0.697756 0.041083 0.391287
Si Si5 0.921857 0.460928 0.714455
Si Si6 0.467023 0.033616 0.254105
Si Si7 0.302244 0.343327 0.224303
Si Si8 0.220749 0.910609 0.208599
O O1 0.671112 0.593553 0.289010
O O2 0.884972 0.615807 0.424678
O O3 0.740249 0.634355 0.022929
O O4 0.819339 0.909670 0.035793
O O5 0.555168 0.578679 0.688514
O O6 0.500000 0.500000 0.000000
O O7 0.491185 0.245592 0.038775
O O8 0.752135 0.203869 0.166553
O O9 0.938663 0.469335 0.194170
O O10 0.865625 0.432812 0.852856
O O11 0.752135 0.548266 0.822157
O O12 0.555168 0.976488 0.290705
O O13 0.740249 0.105895 0.551387
O O14 0.737195 0.868598 0.554958
O O15 0.884972 0.269164 0.771319
O O16 0.500000 0.000000 0.500000
O O17 0.328888 0.922440 0.194998
#
# Coordination Sequence:
#
# PCOD8003083 Si02
#       8
#     2   2   2   2   2   2   2   2
#     4   9  20  36  60  92 115 146 191 239 292 345
#     4   9  16  29  55  90 121 144 180 229 289 352
#     4  11  25  43  55  83 113 161 208 233 288 343
#     4  10  20  36  62  90 117 148 190 243 292 344
#     4  11  25  41  61  75 117 165 198 241 284 347
#     4   9  16  29  55  90 121 144 180 229 289 352
#     4  10  20  36  62  90 117 148 190 243 292 344
#     4   9  20  36  60  92 115 146 191 239 292 345
#
# _framework density 21.548031999999999
#
# number of rings (size 3 to 8) (size 9 to 14) (size 15 to 20)
#    0.000    2.250    1.250    3.000    7.000    4.000 
#    0.000    6.250    0.000    0.000    0.000    0.000 
#    0.000    0.000    0.000    0.000    0.000    0.000 
#
# Total GULP energy -198312.020825 kJ/mol
# GULP energy per Si atom -12394.501302 kJ/mol
# Density = 2.149899 g / cm^3
# Si number density = 21.548032 Si / 1000 Ang^3
#
#
#
# Elastic Constant Matrix: (Units=GPa)
#
#
# Indices 1 2 3 4 5 6 
#
# 1 58.5913 -2.8605 1.3647 -18.2109 1.9978 -1.4567
# 2 -2.8605 37.1401 15.5237 -18.3668 4.2027 -6.1830
# 3 1.3647 15.5237 50.5703 -22.3709 3.7291 -7.0513
# 4 -18.2109 -18.3668 -22.3709 27.3577 -0.7022 1.3486
# 5 1.9978 4.2027 3.7291 -0.7022 20.7279 -5.7493
# 6 -1.4567 -6.1830 -7.0513 1.3486 -5.7493 21.2566
#
#
#
# Elastic Compliance Matrix: (Units=1/GPa)
#
#
# Indices 1 2 3 4 5 6 
#
# 1 0.034274 0.023545 0.016410 0.051398 -0.006629 0.009587
# 2 0.023545 0.059328 0.012920 0.065009 -0.009883 0.016359
# 3 0.016410 0.012920 0.040727 0.052083 -0.006031 0.013457
# 4 0.051398 0.065009 0.052083 0.155342 -0.015094 0.025771
# 5 -0.006629 -0.009883 -0.006031 -0.015094 0.054323 0.010321
# 6 0.009587 0.016359 0.013457 0.025771 0.010321 0.058080
#
#
# Mechanical properties :
#
#
# Convention : Reuss Voigt Hill
#
# Bulk Modulus (GPa) = 4.16527 19.37304 11.76915
# Shear Modulus (GPa) = 13.28548 22.68670 17.98609
#
# Velocity S-wave (km/s) = 2.48574 3.24827 2.89225
# Velocity P-wave (km/s) = 3.18995 4.80401 4.07764
#
# Compressibility (1/GPa) = 0.24008056
#
# Stress axis : x y z
#
# Youngs Moduli (GPa) = 29.17633 16.85536 24.55394
#
# Poissons Ratio (x) = -0.39686 -0.40294
# Poissons Ratio (y) = -0.68695 -0.31725
# Poissons Ratio (z) = -0.47880 -0.21778
#
# Static dielectric constant tensor:
#      x y z
#    x 4.033010 0.181860 0.304090 
#    y 0.181860 4.062970 -0.401280 
#    z 0.304090 -0.401280 3.989210 
# 
# 
# High freq. dielectric constant tensor:
#      x y z
#    x 1.842850 0.008470 0.012060 
#    y 0.008470 1.834630 -0.021830 
#    z 0.012060 -0.021830 1.832740 
# 
# From -- ./inp_files/306382.got.cif
#   From: 2010.06.25/outbox.cif.g09.slc.cpg/sg2_154_cif.got.tgz:306382.got - 2010.06.27 13:26:56.
