data_PCOD8003500
_publ_section_title
;
Structure prediction by ZEFSAII (Michael W. Deem and Ramdas Pophale) SiO2 
 PCOD8003500
Probable space group: P -1
;
_chemical_formula_sum "Si O2"
_cell_formula_units_Z 14
_cell_length_a 17.097001
_cell_length_b 7.361512
_cell_length_c 11.457459
_cell_angle_alpha 46.733208
_cell_angle_beta 54.475720
_cell_angle_gamma 43.051556
_cell_volume 707.428679
_symmetry_space_group_name_H-M "P -1"
_symmetry_group_IT_number 2
_symmetry_cell_setting 'triclinic'
loop_
_space_group_symop_operation_xyz
x,y,z
-x,-y,-z
loop_
_atom_site_type_symbol
_atom_site_label
_atom_site_fract_x
_atom_site_fract_y
_atom_site_fract_z
Si Si1 0.027826 0.986294 0.118179
Si Si2 0.128648 0.914383 0.412185
Si Si3 0.233064 0.897078 0.094924
Si Si4 0.382094 0.289780 0.112946
Si Si5 0.360153 0.216264 0.896662
Si Si6 0.806917 0.232629 0.336179
Si Si7 0.167663 0.301190 0.348280
O O1 0.123862 0.063639 0.025116
O O2 0.081602 0.659085 0.275290
O O3 0.910048 0.225114 0.182219
O O4 0.000000 0.000000 0.000000
O O5 0.128260 0.213562 0.303474
O O6 0.190006 0.786520 0.290495
O O7 0.200446 0.677474 0.559962
O O8 0.000000 0.000000 0.500000
O O9 0.342449 0.608690 0.063803
O O10 0.271069 0.114836 0.007424
O O11 0.301550 0.186905 0.275350
O O12 0.514026 0.047989 0.142198
O O13 0.367745 0.318307 0.973784
O O14 0.314641 0.511441 0.727699
O O15 0.833864 0.893001 0.455691
#
# Coordination Sequence:
#
# PCOD8003500 Si02
#       7
#     2   2   2   2   2   2   2
#     4  11  22  36  61  92 119 156 202 250 304 365
#     4  10  20  37  58  86 120 161 193 241 307 357
#     4  11  21  40  62  87 123 157 202 247 304 360
#     4  10  22  40  65  86 121 161 204 252 300 348
#     4  11  22  40  62  92 120 159 204 251 301 355
#     4  10  21  35  59  86 122 156 201 243 305 357
#     4   9  20  38  56  83 120 157 196 245 294 356
#
# _framework density 19.78998
#
# number of rings (size 3 to 8) (size 9 to 14) (size 15 to 20)
#    0.857    0.857    2.857    2.571    0.000    2.286 
#    0.000    3.571    0.000    0.000    0.000    0.000 
#    0.000    0.000    0.000    0.000    0.000    0.000 
#
# Total GULP energy -173432.672344 kJ/mol
# GULP energy per Si atom -12388.048025 kJ/mol
# Density = 1.974494 g / cm^3
# Si number density = 19.789980 Si / 1000 Ang^3
#
#
#
# Elastic Constant Matrix: (Units=GPa)
#
#
# Indices 1 2 3 4 5 6 
#
# 1 92.8096 28.1404 32.9824 -4.3904 8.1637 -12.8068
# 2 28.1404 82.0995 33.9430 1.8553 12.7269 -9.9173
# 3 32.9824 33.9430 74.6119 -4.3575 13.4701 -11.7642
# 4 -4.3904 1.8553 -4.3575 33.9832 -0.4222 3.9911
# 5 8.1637 12.7269 13.4701 -0.4222 35.9780 -0.7275
# 6 -12.8068 -9.9173 -11.7642 3.9911 -0.7275 35.4708
#
#
#
# Elastic Compliance Matrix: (Units=1/GPa)
#
#
# Indices 1 2 3 4 5 6 
#
# 1 0.013504 -0.002487 -0.004268 0.001017 -0.000521 0.002640
# 2 -0.002487 0.016053 -0.005470 -0.002167 -0.003052 0.001957
# 3 -0.004268 -0.005470 0.019105 0.001795 -0.004168 0.002978
# 4 0.001017 -0.002167 0.001795 0.030266 0.000157 -0.003046
# 5 -0.000521 -0.003052 -0.004168 0.000157 0.030518 -0.001815
# 6 0.002640 0.001957 0.002978 -0.003046 -0.001815 0.030986
#
#
# Mechanical properties :
#
#
# Convention : Reuss Voigt Hill
#
# Bulk Modulus (GPa) = 41.30531 48.85029 45.07780
# Shear Modulus (GPa) = 28.90946 31.38341 30.14644
#
# Velocity S-wave (km/s) = 3.82620 3.98656 3.90721
# Velocity P-wave (km/s) = 6.35900 6.77703 6.57134
#
# Compressibility (1/GPa) = 0.02420996
#
# Stress axis : x y z
#
# Youngs Moduli (GPa) = 74.05264 62.29344 52.34205
#
# Poissons Ratio (x) = 0.15494 0.22341
# Poissons Ratio (y) = 0.18419 0.28633
# Poissons Ratio (z) = 0.31608 0.34077
#
# Static dielectric constant tensor:
#      x y z
#    x 3.754910 -0.073260 0.028590 
#    y -0.073260 3.584550 0.089430 
#    z 0.028590 0.089430 3.447780 
# 
# 
# High freq. dielectric constant tensor:
#      x y z
#    x 1.779660 -0.003350 -0.000280 
#    y -0.003350 1.760030 0.010800 
#    z -0.000280 0.010800 1.756020 
# 
# From -- ./inp_files/460289.got.cif
#   From: 2010.06.25/outbox.cif.g09.slc.cpg/sg2_231_cif.got.tgz:460289.got - 2010.06.27 13:26:56.
