data_PCOD8003623
_publ_section_title
;
Structure prediction by ZEFSAII (Michael W. Deem and Ramdas Pophale) SiO2 
 PCOD8003623
Probable space group: P -1
;
_chemical_formula_sum "Si O2"
_cell_formula_units_Z 10
_cell_length_a 12.061667
_cell_length_b 8.972539
_cell_length_c 12.194427
_cell_angle_alpha 51.377633
_cell_angle_beta 145.341157
_cell_angle_gamma 104.135615
_cell_volume 466.469126
_symmetry_space_group_name_H-M "P -1"
_symmetry_group_IT_number 2
_symmetry_cell_setting 'triclinic'
loop_
_space_group_symop_operation_xyz
x,y,z
-x,-y,-z
loop_
_atom_site_type_symbol
_atom_site_label
_atom_site_fract_x
_atom_site_fract_y
_atom_site_fract_z
Si Si1 0.252099 0.247574 0.215991
Si Si2 0.986387 0.760860 0.766371
Si Si3 0.572999 0.883176 0.230775
Si Si4 0.848850 0.026142 0.036319
Si Si5 0.809947 0.341626 0.682915
O O1 0.190772 0.252401 0.290667
O O2 0.500000 0.000000 0.500000
O O3 0.233362 0.488144 0.068138
O O4 0.058275 0.261799 0.975822
O O5 0.805339 0.876547 0.460148
O O6 0.070969 0.910819 0.815812
O O7 0.625718 0.624584 0.385628
O O8 0.337252 0.032881 0.052022
O O9 0.500000 0.000000 0.000000
O O10 0.707929 0.240432 0.731044
O O11 0.105612 0.794445 0.303091
#
# Coordination Sequence:
#
# PCOD8003623 Si02
#       5
#     2   2   2   2   2
#     4   9  16  31  55  81 110 138 174 230 277 313
#     4   9  20  34  52  81 107 140 186 219 265 328
#     4  11  23  38  55  79 116 152 178 218 274 327
#     4  10  20  37  60  81 109 140 183 236 270 312
#     4   9  20  36  58  86 108 139 186 228 273 323
#
# _framework density 21.437646000000001
#
# number of rings (size 3 to 8) (size 9 to 14) (size 15 to 20)
#    0.000    2.400    0.000    3.000    0.000    6.400 
#    0.000    1.000    0.000    0.000    0.000    0.000 
#    0.000    0.000    0.000    0.000    0.000    0.000 
#
# Total GULP energy -123902.064906 kJ/mol
# GULP energy per Si atom -12390.206491 kJ/mol
# Density = 2.138885 g / cm^3
# Si number density = 21.437646 Si / 1000 Ang^3
#
#
#
# Elastic Constant Matrix: (Units=GPa)
#
#
# Indices 1 2 3 4 5 6 
#
# 1 82.2164 10.3816 36.4052 -4.8875 -3.3355 -6.6420
# 2 10.3816 65.5956 17.9266 1.0171 -2.3517 -21.6081
# 3 36.4052 17.9266 85.3678 5.9321 -9.3537 -18.1966
# 4 -4.8875 1.0171 5.9321 20.6350 -8.1591 2.0006
# 5 -3.3355 -2.3517 -9.3537 -8.1591 28.6856 -1.7489
# 6 -6.6420 -21.6081 -18.1966 2.0006 -1.7489 24.7647
#
#
#
# Elastic Compliance Matrix: (Units=1/GPa)
#
#
# Indices 1 2 3 4 5 6 
#
# 1 0.015838 -0.001538 -0.007427 0.006651 0.001001 -0.003018
# 2 -0.001538 0.021860 0.000657 -0.002625 0.002271 0.019516
# 3 -0.007427 0.000657 0.018416 -0.006731 0.004070 0.012944
# 4 0.006651 -0.002625 -0.006731 0.058727 0.014508 -0.009172
# 5 0.001001 0.002271 0.004070 0.014508 0.041042 0.006967
# 6 -0.003018 0.019516 0.012944 -0.009172 0.006967 0.067343
#
#
# Mechanical properties :
#
#
# Convention : Reuss Voigt Hill
#
# Bulk Modulus (GPa) = 25.31838 40.28962 32.80400
# Shear Modulus (GPa) = 19.76222 26.04816 22.90519
#
# Velocity S-wave (km/s) = 3.03949 3.48956 3.27227
# Velocity P-wave (km/s) = 4.91466 5.92205 5.44172
#
# Compressibility (1/GPa) = 0.03949700
#
# Stress axis : x y z
#
# Youngs Moduli (GPa) = 63.13911 45.74608 54.30024
#
# Poissons Ratio (x) = 0.07037 0.40328
# Poissons Ratio (y) = 0.09713 -0.03566
# Poissons Ratio (z) = 0.46893 -0.03004
#
# Static dielectric constant tensor:
#      x y z
#    x 3.135460 -0.145410 -0.392550 
#    y -0.145410 4.152830 -0.093140 
#    z -0.392550 -0.093140 3.386350 
# 
# 
# High freq. dielectric constant tensor:
#      x y z
#    x 1.810190 -0.018480 0.021710 
#    y -0.018480 1.848860 0.008240 
#    z 0.021710 0.008240 1.827950 
# 
# From -- ./inp_files/18151.got.cif
#   From: 2010.06.25/outbox.cif.g09.slc.cpg/sg2_10_cif.got.tgz:18151.got - 2010.06.27 13:26:56.
