data_PCOD8003025
_publ_section_title
;
Structure prediction by ZEFSAII (Michael W. Deem and Ramdas Pophale) SiO2 
 PCOD8003025
Probable space group: P -1
;
_chemical_formula_sum "Si O2"
_cell_formula_units_Z 16
_cell_length_a 17.622298
_cell_length_b 5.136416
_cell_length_c 11.728751
_cell_angle_alpha 113.159570
_cell_angle_beta 120.247035
_cell_angle_gamma 70.625081
_cell_volume 831.176673
_symmetry_space_group_name_H-M "P -1"
_symmetry_group_IT_number 2
_symmetry_cell_setting 'triclinic'
loop_
_space_group_symop_operation_xyz
x,y,z
-x,-y,-z
loop_
_atom_site_type_symbol
_atom_site_label
_atom_site_fract_x
_atom_site_fract_y
_atom_site_fract_z
Si Si1 0.854283 0.362824 0.715452
Si Si2 0.450335 0.991321 0.161412
Si Si3 0.654889 0.844662 0.275768
Si Si4 0.360438 0.447031 0.013100
Si Si5 0.082812 0.078539 0.143049
Si Si6 0.596676 0.890425 0.605581
Si Si7 0.740362 0.282036 0.812150
Si Si8 0.705188 0.450153 0.450145
O O1 0.924945 0.579618 0.797580
O O2 0.774759 0.463371 0.765663
O O3 0.805630 0.351349 0.555628
O O4 0.911008 0.058129 0.747373
O O5 0.552045 0.845579 0.226737
O O6 0.414295 0.169517 0.278314
O O7 0.396360 0.733124 0.053573
O O8 0.439238 0.208261 0.083370
O O9 0.682569 0.679678 0.150654
O O10 0.711308 0.674618 0.391391
O O11 0.670929 0.168872 0.331293
O O12 0.285008 0.511724 0.063934
O O13 0.175570 0.958541 0.127372
O O14 0.000000 0.000000 0.000000
O O15 0.638694 0.598739 0.523374
O O16 0.500000 0.000000 0.500000
O O17 0.658972 0.132896 0.679027
#
# Coordination Sequence:
#
# PCOD8003025 Si02
#       8
#     2   2   2   2   2   2   2   2
#     4  10  20  37  58  84 121 136 174 234 287 343
#     4  11  23  37  54  74 106 152 198 250 278 310
#     4  12  24  36  54  75 109 155 204 231 267 336
#     4  11  23  39  53  75 108 153 197 240 277 313
#     4  10  20  36  61  92 115 139 174 226 301 353
#     4  11  21  37  56  83 118 154 192 235 283 336
#     4   9  22  36  59  84 117 148 185 237 284 328
#     4  12  22  38  52  83 111 148 185 233 283 329
#
# _framework density 19.249821000000001
#
# number of rings (size 3 to 8) (size 9 to 14) (size 15 to 20)
#    0.750    0.500    2.500    4.875    3.500    1.500 
#    0.000    0.000    0.000    0.000    0.000    5.250 
#    0.000    0.000    0.000    0.000    0.000    0.000 
#
# Total GULP energy -198356.228292 kJ/mol
# GULP energy per Si atom -12397.264268 kJ/mol
# Density = 1.920601 g / cm^3
# Si number density = 19.249821 Si / 1000 Ang^3
#
#
#
# Elastic Constant Matrix: (Units=GPa)
#
#
# Indices 1 2 3 4 5 6 
#
# 1 33.0317 16.2891 31.0405 5.6171 5.7975 7.9140
# 2 16.2891 87.6303 30.6066 2.3012 -2.8924 13.4264
# 3 31.0405 30.6066 106.3212 4.8279 -0.2033 -3.6595
# 4 5.6171 2.3012 4.8279 44.1035 -2.7517 -1.0078
# 5 5.7975 -2.8924 -0.2033 -2.7517 34.0593 0.5098
# 6 7.9140 13.4264 -3.6595 -1.0078 0.5098 19.2756
#
#
#
# Elastic Compliance Matrix: (Units=1/GPa)
#
#
# Indices 1 2 3 4 5 6 
#
# 1 0.054855 -0.000766 -0.016392 -0.006328 -0.009635 -0.025176
# 2 -0.000766 0.014819 -0.004399 -0.000350 0.001497 -0.010901
# 3 -0.016392 -0.004399 0.015856 0.001024 0.002403 0.012794
# 4 -0.006328 -0.000350 0.001024 0.023663 0.002903 0.004197
# 5 -0.009635 0.001497 0.002403 0.002903 0.031336 0.002692
# 6 -0.025176 -0.010901 0.012794 0.004197 0.002692 0.072386
#
#
# Mechanical properties :
#
#
# Convention : Reuss Voigt Hill
#
# Bulk Modulus (GPa) = 23.57582 42.53953 33.05767
# Shear Modulus (GPa) = 18.50709 29.42416 23.96563
#
# Velocity S-wave (km/s) = 3.10404 3.91390 3.53225
# Velocity P-wave (km/s) = 5.01205 6.52468 5.81773
#
# Compressibility (1/GPa) = 0.04241634
#
# Stress axis : x y z
#
# Youngs Moduli (GPa) = 18.23003 67.48039 63.06814
#
# Poissons Ratio (x) = 0.05168 1.03381
# Poissons Ratio (y) = 0.01396 0.27743
# Poissons Ratio (z) = 0.29883 0.29684
#
# Static dielectric constant tensor:
#      x y z
#    x 3.234770 0.111310 -0.125960 
#    y 0.111310 3.525910 -0.049770 
#    z -0.125960 -0.049770 3.536980 
# 
# 
# High freq. dielectric constant tensor:
#      x y z
#    x 1.704360 0.019900 -0.000940 
#    y 0.019900 1.759140 -0.003890 
#    z -0.000940 -0.003890 1.749500 
# 
# From -- ./inp_files/468477.got.cif
#   From: 2010.06.25/outbox.cif.g09.slc.cpg/sg2_235_cif.got.tgz:468477.got - 2010.06.27 13:26:56.
