data_PCOD8003530
_publ_section_title
;
Structure prediction by ZEFSAII (Michael W. Deem and Ramdas Pophale) SiO2 
 PCOD8003530
Probable space group: P -1
;
_chemical_formula_sum "Si O2"
_cell_formula_units_Z 14
_cell_length_a 19.664236
_cell_length_b 8.041840
_cell_length_c 19.900086
_cell_angle_alpha 127.697152
_cell_angle_beta 165.445473
_cell_angle_gamma 52.788250
_cell_volume 624.428064
_symmetry_space_group_name_H-M "P -1"
_symmetry_group_IT_number 2
_symmetry_cell_setting 'triclinic'
loop_
_space_group_symop_operation_xyz
x,y,z
-x,-y,-z
loop_
_atom_site_type_symbol
_atom_site_label
_atom_site_fract_x
_atom_site_fract_y
_atom_site_fract_z
Si Si1 0.323415 0.531136 0.905314
Si Si2 0.298641 0.788543 0.613584
Si Si3 0.209089 0.716738 0.656209
Si Si4 0.761461 0.613168 0.757633
Si Si5 0.743775 0.658389 0.595895
Si Si6 0.800324 0.037093 0.156695
Si Si7 0.805227 0.072889 0.892768
O O1 0.231471 0.778668 0.884204
O O2 0.061476 0.398961 0.616478
O O3 0.500000 0.500000 0.000000
O O4 0.525775 0.450692 0.138685
O O5 0.192670 0.840624 0.600835
O O6 0.290558 0.541308 0.532891
O O7 0.100272 0.927652 0.409271
O O8 0.598132 0.856782 0.903416
O O9 0.259734 0.876058 0.804292
O O10 0.500000 0.500000 0.500000
O O11 0.805402 0.585040 0.712970
O O12 0.735035 0.862245 0.813817
O O13 0.000000 0.500000 0.000000
O O14 0.471814 0.810896 0.370263
O O15 0.007654 0.772688 0.847799
O O16 0.000000 0.000000 0.000000
#
# Coordination Sequence:
#
# PCOD8003530 Si02
#       7
#     2   2   2   2   2   2   2
#     4  10  20  37  59  82 110 149 202 258 296 343
#     4  12  24  38  58  87 122 156 196 253 295 340
#     4  11  21  38  60  85 113 159 211 246 288 358
#     4  11  21  38  65  93 113 144 192 240 281 345
#     4  11  23  41  59  88 124 158 192 236 299 355
#     4  11  21  38  59  84 116 160 202 246 298 345
#     4  10  20  40  65  85 115 158 191 227 286 364
#
# _framework density 22.420517
#
# number of rings (size 3 to 8) (size 9 to 14) (size 15 to 20)
#    0.000    1.143    0.000   11.143    0.000    0.000 
#    0.000    8.571    0.000    0.000    0.000    0.000 
#    0.000    0.000    0.000    0.000    0.000    0.000 
#
# Total GULP energy -173580.229711 kJ/mol
# GULP energy per Si atom -12398.587837 kJ/mol
# Density = 2.236949 g / cm^3
# Si number density = 22.420517 Si / 1000 Ang^3
#
#
#
# Elastic Constant Matrix: (Units=GPa)
#
#
# Indices 1 2 3 4 5 6 
#
# 1 18.6372 11.8186 21.8182 -0.1215 -0.7951 5.7764
# 2 11.8186 125.7141 68.6971 2.5016 -5.0002 18.2194
# 3 21.8182 68.6971 186.2275 2.3944 -3.5712 17.1990
# 4 -0.1215 2.5016 2.3944 64.6544 8.7228 -1.7853
# 5 -0.7951 -5.0002 -3.5712 8.7228 21.2500 2.2768
# 6 5.7764 18.2194 17.1990 -1.7853 2.2768 26.7058
#
#
#
# Elastic Compliance Matrix: (Units=1/GPa)
#
#
# Indices 1 2 3 4 5 6 
#
# 1 0.064707 -0.001245 -0.006217 -0.000147 0.002144 -0.009336
# 2 -0.001245 0.010749 -0.003269 -0.000825 0.002835 -0.005255
# 3 -0.006217 -0.003269 0.007434 -0.000262 0.000491 -0.001272
# 4 -0.000147 -0.000825 -0.000262 0.016563 -0.007310 0.002494
# 5 0.002144 0.002835 0.000491 -0.007310 0.051705 -0.007611
# 6 -0.009336 -0.005255 -0.001272 0.002494 -0.007611 0.044685
#
#
# Mechanical properties :
#
#
# Convention : Reuss Voigt Hill
#
# Bulk Modulus (GPa) = 16.27882 59.47184 37.87533
# Shear Modulus (GPa) = 21.02781 37.73836 29.38309
#
# Velocity S-wave (km/s) = 3.06581 4.10714 3.62407
# Velocity P-wave (km/s) = 4.45070 7.00533 5.86870
#
# Compressibility (1/GPa) = 0.06142953
#
# Stress axis : x y z
#
# Youngs Moduli (GPa) = 15.45418 93.03444 134.51219
#
# Poissons Ratio (x) = 0.11582 0.83621
# Poissons Ratio (y) = 0.01924 0.43971
# Poissons Ratio (z) = 0.09607 0.30412
#
# Static dielectric constant tensor:
#      x y z
#    x 3.629910 0.392190 -0.195940 
#    y 0.392190 4.870300 -0.149690 
#    z -0.195940 -0.149690 4.819080 
# 
# 
# High freq. dielectric constant tensor:
#      x y z
#    x 1.833430 0.018990 -0.001350 
#    y 0.018990 1.901430 -0.000740 
#    z -0.001350 -0.000740 1.913640 
# 
# From -- ./inp_files/226406.got.cif
#   From: 2010.06.25/outbox.cif.g09.slc.cpg/sg2_114_cif.got.tgz:226406.got - 2010.06.27 13:26:56.
