data_PCOD8003974
_publ_section_title
;
Structure prediction by ZEFSAII (Michael W. Deem and Ramdas Pophale) SiO2 
 PCOD8003974
Probable space group: P -1
;
_chemical_formula_sum "Si O2"
_cell_formula_units_Z 16
_cell_length_a 8.332789
_cell_length_b 8.556559
_cell_length_c 10.723089
_cell_angle_alpha 90.209958
_cell_angle_beta 62.776633
_cell_angle_gamma 87.370543
_cell_volume 678.888879
_symmetry_space_group_name_H-M "P -1"
_symmetry_group_IT_number 2
_symmetry_cell_setting 'triclinic'
loop_
_space_group_symop_operation_xyz
x,y,z
-x,-y,-z
loop_
_atom_site_type_symbol
_atom_site_label
_atom_site_fract_x
_atom_site_fract_y
_atom_site_fract_z
Si Si1 0.258929 0.487760 0.683290
Si Si2 0.694755 0.936153 0.578324
Si Si3 0.959723 0.771785 0.317206
Si Si4 0.485254 0.900329 0.881100
Si Si5 0.666870 0.340374 0.895226
Si Si6 0.433000 0.754358 0.496141
Si Si7 0.711723 0.592946 0.061045
Si Si8 0.164969 0.094186 0.897312
O O1 0.105072 0.406003 0.656706
O O2 0.280359 0.659767 0.621121
O O3 0.441999 0.375103 0.621077
O O4 0.209332 0.503536 0.847654
O O5 0.895846 0.871225 0.462425
O O6 0.670946 0.894641 0.734205
O O7 0.549102 0.841153 0.555774
O O8 0.665394 0.122162 0.563774
O O9 0.858595 0.853906 0.236043
O O10 0.177058 0.770239 0.226428
O O11 0.342106 0.980013 0.836168
O O12 0.420511 0.733819 0.949259
O O13 0.500000 0.000000 0.000000
O O14 0.507712 0.377029 0.853040
O O15 0.756965 0.495499 0.917920
O O16 0.807679 0.757926 0.020737
O O17 0.000000 0.000000 0.000000
#
# Coordination Sequence:
#
# PCOD8003974 Si02
#       8
#     2   2   2   2   2   2   2   2
#     4   9  18  34  62  92 123 162 212 265 314 373
#     4  10  20  37  62  94 126 164 215 264 321 387
#     4  10  22  40  61  94 132 162 214 277 314 370
#     4  12  23  40  68  93 130 175 212 259 327 393
#     4  11  23  41  62  94 133 175 212 259 322 393
#     4   9  17  34  62  92 124 164 207 263 325 374
#     4  10  22  39  63  91 131 174 213 253 325 396
#     4  11  21  39  65 100 131 162 217 276 315 375
#
# _framework density 23.567920000000001
#
# number of rings (size 3 to 8) (size 9 to 14) (size 15 to 20)
#    0.000    1.750    2.500    3.750    0.000    2.000 
#    4.500    0.625    0.000   15.750    0.000    0.000 
#    0.000    0.000    0.000    0.000    0.000    0.000 
#
# Total GULP energy -198353.665655 kJ/mol
# GULP energy per Si atom -12397.104103 kJ/mol
# Density = 2.351428 g / cm^3
# Si number density = 23.567920 Si / 1000 Ang^3
#
#
#
# Elastic Constant Matrix: (Units=GPa)
#
#
# Indices 1 2 3 4 5 6 
#
# 1 43.7111 13.4995 23.4923 8.6437 -1.7523 2.8718
# 2 13.4995 101.0480 39.3506 -14.2338 -7.1902 16.2198
# 3 23.4923 39.3506 140.3403 5.2079 -13.5355 0.3833
# 4 8.6437 -14.2338 5.2079 36.4408 0.5240 -6.7416
# 5 -1.7523 -7.1902 -13.5355 0.5240 28.7994 6.3572
# 6 2.8718 16.2198 0.3833 -6.7416 6.3572 35.9499
#
#
#
# Elastic Compliance Matrix: (Units=1/GPa)
#
#
# Indices 1 2 3 4 5 6 
#
# 1 0.027299 -0.003029 -0.003443 -0.007569 -0.000094 -0.002180
# 2 -0.003029 0.013311 -0.003149 0.005366 0.002710 -0.005203
# 3 -0.003443 -0.003149 0.008938 -0.001594 0.003066 0.000759
# 4 -0.007569 0.005366 -0.001594 0.032422 -0.001462 0.004539
# 5 -0.000094 0.002710 0.003066 -0.001462 0.038709 -0.008367
# 6 -0.002180 -0.005203 0.000759 0.004539 -0.008367 0.032661
#
#
# Mechanical properties :
#
#
# Convention : Reuss Voigt Hill
#
# Bulk Modulus (GPa) = 32.99632 48.64270 40.81951
# Shear Modulus (GPa) = 27.36984 34.15514 30.76249
#
# Velocity S-wave (km/s) = 3.41151 3.81099 3.61677
# Velocity P-wave (km/s) = 5.43588 6.32843 5.89906
#
# Compressibility (1/GPa) = 0.03030641
#
# Stress axis : x y z
#
# Youngs Moduli (GPa) = 36.63088 75.12512 111.88714
#
# Poissons Ratio (x) = 0.22758 0.38519
# Poissons Ratio (y) = 0.11097 0.35231
# Poissons Ratio (z) = 0.12611 0.23656
#
# Static dielectric constant tensor:
#      x y z
#    x 3.928970 0.032340 -0.110350 
#    y 0.032340 3.818110 0.020880 
#    z -0.110350 0.020880 4.232190 
# 
# 
# High freq. dielectric constant tensor:
#      x y z
#    x 1.909620 0.015090 -0.002130 
#    y 0.015090 1.936510 0.001130 
#    z -0.002130 0.001130 1.924360 
# 
# From -- ./inp_files/379020.got.cif
#   From: 2010.06.25/outbox.cif.g09.slc.cpg/sg2_190_cif.got.tgz:379020.got - 2010.06.27 13:26:56.
