data_PCOD8003576
_publ_section_title
;
Structure prediction by ZEFSAII (Michael W. Deem and Ramdas Pophale) SiO2 
 PCOD8003576
Probable space group: P -1
;
_chemical_formula_sum "Si O2"
_cell_formula_units_Z 16
_cell_length_a 9.288908
_cell_length_b 17.939100
_cell_length_c 21.002518
_cell_angle_alpha 161.319113
_cell_angle_beta 41.103252
_cell_angle_gamma 138.562923
_cell_volume 726.176435
_symmetry_space_group_name_H-M "P -1"
_symmetry_group_IT_number 2
_symmetry_cell_setting 'triclinic'
loop_
_space_group_symop_operation_xyz
x,y,z
-x,-y,-z
loop_
_atom_site_type_symbol
_atom_site_label
_atom_site_fract_x
_atom_site_fract_y
_atom_site_fract_z
Si Si1 0.641450 0.136130 0.120041
Si Si2 0.431816 0.101075 0.823329
Si Si3 0.826848 0.298754 0.480598
Si Si4 0.474585 0.270715 0.411881
Si Si5 0.046209 0.723914 0.210850
Si Si6 0.897172 0.531687 0.775677
Si Si7 0.259448 0.334841 0.283322
Si Si8 0.004990 0.214567 0.582893
O O1 0.503208 0.259630 0.317258
O O2 0.862478 0.308781 0.162473
O O3 0.500000 0.000000 0.000000
O O4 0.709209 0.916469 0.957687
O O5 0.690297 0.197669 0.805673
O O6 0.339256 0.952840 0.670927
O O7 0.398304 0.915862 0.744088
O O8 0.296207 0.316332 0.050010
O O9 0.913065 0.358738 0.571042
O O10 0.704650 0.506550 0.663581
O O11 0.020695 0.290533 0.359251
O O12 0.566492 0.542415 0.621504
O O13 0.217618 0.225902 0.476638
O O14 0.946016 0.660088 0.263041
O O15 0.922982 0.933053 0.393557
O O16 0.000000 0.500000 0.000000
O O17 0.838376 0.355687 0.713812
#
# Coordination Sequence:
#
# PCOD8003576 Si02
#       8
#     2   2   2   2   2   2   2   2
#     4  12  25  35  58  93 137 178 217 250 306 374
#     4  10  23  41  67  95 123 164 217 267 318 377
#     4  10  21  37  61  89 131 171 209 257 303 369
#     4  10  22  41  62  91 133 179 213 254 306 377
#     4  10  24  50  74  91 119 164 215 268 331 394
#     4  12  24  38  63  98 135 165 209 265 320 367
#     4  10  20  37  59  86 130 179 216 244 298 370
#     4  10  25  43  67  96 127 164 213 266 325 384
#
# _framework density 22.033214999999998
#
# number of rings (size 3 to 8) (size 9 to 14) (size 15 to 20)
#    0.000    1.500    2.500    1.500    1.750   11.500 
#    0.000    1.250    0.000    0.000    0.000    0.000 
#    0.000    0.000    0.000    0.000    0.000    0.000 
#
# Total GULP energy -198280.528470 kJ/mol
# GULP energy per Si atom -12392.533029 kJ/mol
# Density = 2.198307 g / cm^3
# Si number density = 22.033215 Si / 1000 Ang^3
#
#
#
# Elastic Constant Matrix: (Units=GPa)
#
#
# Indices 1 2 3 4 5 6 
#
# 1 79.4839 20.5868 38.9030 9.8110 20.3813 -6.0795
# 2 20.5868 59.0784 26.6647 2.2418 6.3883 -3.5640
# 3 38.9030 26.6647 120.9795 11.3183 11.6676 -17.3626
# 4 9.8110 2.2418 11.3183 29.3880 3.5589 2.4575
# 5 20.3813 6.3883 11.6676 3.5589 36.5390 4.0322
# 6 -6.0795 -3.5640 -17.3626 2.4575 4.0322 38.4208
#
#
#
# Elastic Compliance Matrix: (Units=1/GPa)
#
#
# Indices 1 2 3 4 5 6 
#
# 1 0.017907 -0.003488 -0.003599 -0.003509 -0.008104 0.001959
# 2 -0.003488 0.019627 -0.003282 0.001012 -0.000511 -0.000225
# 3 -0.003599 -0.003282 0.011198 -0.003094 -0.001191 0.004509
# 4 -0.003509 0.001012 -0.003094 0.036704 -0.000347 -0.004171
# 5 -0.008104 -0.000511 -0.001191 -0.000347 0.032977 -0.005307
# 6 0.001959 -0.000225 0.004509 -0.004171 -0.005307 0.029178
#
#
# Mechanical properties :
#
#
# Convention : Reuss Voigt Hill
#
# Bulk Modulus (GPa) = 35.72170 47.98340 41.85255
# Shear Modulus (GPa) = 28.14377 32.42872 30.28624
#
# Velocity S-wave (km/s) = 3.57786 3.84058 3.71154
# Velocity P-wave (km/s) = 5.77200 6.44141 6.11587
#
# Compressibility (1/GPa) = 0.02799419
#
# Stress axis : x y z
#
# Youngs Moduli (GPa) = 55.84486 50.95088 89.30275
#
# Poissons Ratio (x) = 0.17772 0.32136
# Poissons Ratio (y) = 0.19480 0.29308
# Poissons Ratio (z) = 0.20096 0.16722
#
# Static dielectric constant tensor:
#      x y z
#    x 4.074530 -0.179480 -0.285500 
#    y -0.179480 3.865290 0.284100 
#    z -0.285500 0.284100 4.491490 
# 
# 
# High freq. dielectric constant tensor:
#      x y z
#    x 1.865790 -0.006880 -0.006070 
#    y -0.006880 1.844500 0.008250 
#    z -0.006070 0.008250 1.884900 
# 
# From -- ./inp_files/94317.got.cif
#   From: 2010.06.25/outbox.cif.g09.slc.cpg/sg2_48_cif.got.tgz:94317.got - 2010.06.27 13:26:56.
