data_PCOD8003706
_publ_section_title
;
Structure prediction by ZEFSAII (Michael W. Deem and Ramdas Pophale) SiO2 
 PCOD8003706
Probable space group: P -1
;
_chemical_formula_sum "Si O2"
_cell_formula_units_Z 14
_cell_length_a 6.686627
_cell_length_b 10.913477
_cell_length_c 25.036136
_cell_angle_alpha 22.187746
_cell_angle_beta 108.427102
_cell_angle_gamma 106.586265
_cell_volume 654.442157
_symmetry_space_group_name_H-M "P -1"
_symmetry_group_IT_number 2
_symmetry_cell_setting 'triclinic'
loop_
_space_group_symop_operation_xyz
x,y,z
-x,-y,-z
loop_
_atom_site_type_symbol
_atom_site_label
_atom_site_fract_x
_atom_site_fract_y
_atom_site_fract_z
Si Si1 0.354739 0.656161 0.006681
Si Si2 0.947309 0.733847 0.249754
Si Si3 0.358296 0.098696 0.151076
Si Si4 0.937936 0.129791 0.568343
Si Si5 0.541632 0.790953 0.715892
Si Si6 0.882390 0.265124 0.347004
Si Si7 0.357958 0.204280 0.623418
O O1 0.581992 0.754988 0.960874
O O2 0.196302 0.959920 0.871299
O O3 0.269778 0.372741 0.074471
O O4 0.369424 0.546756 0.114559
O O5 0.885930 0.429014 0.404052
O O6 0.926010 0.620693 0.231523
O O7 0.189183 0.820375 0.243778
O O8 0.575268 0.923904 0.260836
O O9 0.105193 0.257746 0.575248
O O10 0.724068 0.038175 0.616699
O O11 0.019900 0.803598 0.675794
O O12 0.374805 0.757729 0.666597
O O13 0.407326 0.921373 0.700842
O O14 0.000000 0.000000 0.500000
O O15 0.500000 0.500000 0.500000
#
# Coordination Sequence:
#
# PCOD8003706 Si02
#       7
#     2   2   2   2   2   2   2
#     4  10  24  40  59  86 124 165 195 241 305 360
#     4  11  22  37  64  90 115 161 205 242 301 360
#     4  10  22  41  60  85 128 158 198 250 294 357
#     4  10  22  39  64  91 120 156 199 256 301 345
#     4  10  23  41  60  88 125 156 200 249 299 358
#     4   9  22  41  61  90 121 155 201 254 301 346
#     4  10  20  37  60  90 120 153 201 246 297 349
#
# _framework density 21.392267
#
# number of rings (size 3 to 8) (size 9 to 14) (size 15 to 20)
#    0.000    2.000    1.429    0.429    2.000   11.429 
#    0.000    1.429    0.000    0.000    0.000    0.000 
#    0.000    0.000    0.000    0.000    0.000    0.000 
#
# Total GULP energy -173446.093573 kJ/mol
# GULP energy per Si atom -12389.006684 kJ/mol
# Density = 2.134358 g / cm^3
# Si number density = 21.392267 Si / 1000 Ang^3
#
#
#
# Elastic Constant Matrix: (Units=GPa)
#
#
# Indices 1 2 3 4 5 6 
#
# 1 86.3356 52.0583 36.5552 13.0412 -7.8032 25.4127
# 2 52.0583 95.9959 43.5666 0.0615 -0.6605 31.4707
# 3 36.5552 43.5666 107.6915 9.2370 -7.8259 12.2745
# 4 13.0412 0.0615 9.2370 23.0727 -3.9137 3.9836
# 5 -7.8032 -0.6605 -7.8259 -3.9137 35.3164 0.1896
# 6 25.4127 31.4707 12.2745 3.9836 0.1896 28.9344
#
#
#
# Elastic Compliance Matrix: (Units=1/GPa)
#
#
# Indices 1 2 3 4 5 6 
#
# 1 0.021277 -0.007998 -0.002069 -0.009294 0.003105 -0.007851
# 2 -0.007998 0.022641 -0.005457 0.009259 -0.001438 -0.016552
# 3 -0.002069 -0.005457 0.012312 -0.003984 0.001711 0.003066
# 4 -0.009294 0.009259 -0.003984 0.051956 0.003034 -0.007390
# 5 0.003105 -0.001438 0.001711 0.003034 0.029704 -0.002502
# 6 -0.007851 -0.016552 0.003066 -0.007390 -0.002502 0.059192
#
#
# Mechanical properties :
#
#
# Convention : Reuss Voigt Hill
#
# Bulk Modulus (GPa) = 39.70998 61.59815 50.65407
# Shear Modulus (GPa) = 21.13949 27.98755 24.56352
#
# Velocity S-wave (km/s) = 3.14695 3.62097 3.39225
# Velocity P-wave (km/s) = 5.63981 6.80728 6.25086
#
# Compressibility (1/GPa) = 0.02518258
#
# Stress axis : x y z
#
# Youngs Moduli (GPa) = 46.99904 44.16670 81.22048
#
# Poissons Ratio (x) = 0.35326 0.16804
# Poissons Ratio (y) = 0.37592 0.44320
# Poissons Ratio (z) = 0.09724 0.24101
#
# Static dielectric constant tensor:
#      x y z
#    x 4.000540 0.228300 0.400300 
#    y 0.228300 4.439810 0.160620 
#    z 0.400300 0.160620 4.100230 
# 
# 
# High freq. dielectric constant tensor:
#      x y z
#    x 1.829430 0.006860 0.009490 
#    y 0.006860 1.836690 -0.001760 
#    z 0.009490 -0.001760 1.836790 
# 
# From -- ./inp_files/28314.got.cif
#   From: 2010.06.25/outbox.cif.g09.slc.cpg/sg2_15_cif.got.tgz:28314.got - 2010.06.27 13:26:56.
