data_PCOD8003322
_publ_section_title
;
Structure prediction by ZEFSAII (Michael W. Deem and Ramdas Pophale) SiO2 
 PCOD8003322
Probable space group: P -1
;
_chemical_formula_sum "Si O2"
_cell_formula_units_Z 16
_cell_length_a 11.363407
_cell_length_b 9.070437
_cell_length_c 18.282591
_cell_angle_alpha 54.548900
_cell_angle_beta 29.496748
_cell_angle_gamma 57.860382
_cell_volume 754.088567
_symmetry_space_group_name_H-M "P -1"
_symmetry_group_IT_number 2
_symmetry_cell_setting 'triclinic'
loop_
_space_group_symop_operation_xyz
x,y,z
-x,-y,-z
loop_
_atom_site_type_symbol
_atom_site_label
_atom_site_fract_x
_atom_site_fract_y
_atom_site_fract_z
Si Si1 0.183611 0.275769 0.407485
Si Si2 0.773717 0.029496 0.425632
Si Si3 0.072992 0.959501 0.054914
Si Si4 0.795184 0.660978 0.058842
Si Si5 0.544068 0.701183 0.894808
Si Si6 0.710745 0.852369 0.908354
Si Si7 0.308086 0.526573 0.397924
Si Si8 0.684533 0.780433 0.413879
O O1 0.288706 0.309535 0.262374
O O2 0.312613 0.398586 0.360979
O O3 0.897961 0.316219 0.548104
O O4 0.221058 0.064706 0.470378
O O5 0.583459 0.204360 0.481038
O O6 0.033608 0.067255 0.245444
O O7 0.673203 0.890447 0.463237
O O8 0.109512 0.150168 0.019372
O O9 0.869168 0.852533 0.235434
O O10 0.306539 0.824186 0.969960
O O11 0.000000 0.000000 0.000000
O O12 0.564516 0.610736 0.244281
O O13 0.709759 0.685297 0.013796
O O14 0.000000 0.500000 0.000000
O O15 0.685823 0.788048 0.858279
O O16 0.500000 0.500000 0.000000
O O17 0.500000 0.000000 0.000000
O O18 0.253092 0.425588 0.533569
#
# Coordination Sequence:
#
# PCOD8003322 Si02
#       8
#     2   2   2   2   2   2   2   2
#     4  10  22  40  67  97 133 174 221 281 345 402
#     4  10  20  36  67  91 125 176 223 270 331 404
#     4  12  27  46  68 101 141 181 226 287 341 409
#     4  12  26  44  72 101 136 180 234 279 339 407
#     4  12  26  44  70 100 139 181 227 285 349 404
#     4  12  23  44  69 101 137 177 231 287 337 404
#     4  10  22  42  69  97 132 175 229 279 334 410
#     4  10  20  41  64  92 131 175 224 264 336 405
#
# _framework density 21.217666999999999
#
# number of rings (size 3 to 8) (size 9 to 14) (size 15 to 20)
#    0.000    1.000    2.500    3.750    7.000    2.500 
#    2.250    0.625    0.000    0.000    0.000    0.000 
#    0.000    0.000    0.000    0.000    0.000    0.000 
#
# Total GULP energy -198383.169281 kJ/mol
# GULP energy per Si atom -12398.948080 kJ/mol
# Density = 2.116937 g / cm^3
# Si number density = 21.217667 Si / 1000 Ang^3
#
#
#
# Elastic Constant Matrix: (Units=GPa)
#
#
# Indices 1 2 3 4 5 6 
#
# 1 112.2565 53.2843 56.9998 -0.2186 11.1397 -27.9887
# 2 53.2843 97.1915 30.4971 -2.1678 -0.1268 -21.5692
# 3 56.9998 30.4971 145.0264 -9.4337 3.9389 -5.9005
# 4 -0.2186 -2.1678 -9.4337 33.1787 -8.7375 5.6316
# 5 11.1397 -0.1268 3.9389 -8.7375 49.9136 1.5680
# 6 -27.9887 -21.5692 -5.9005 5.6316 1.5680 32.0547
#
#
#
# Elastic Compliance Matrix: (Units=1/GPa)
#
#
# Indices 1 2 3 4 5 6 
#
# 1 0.017768 -0.005469 -0.005549 -0.005113 -0.004812 0.011946
# 2 -0.005469 0.014595 -0.000743 0.000206 0.001201 0.004814
# 3 -0.005549 -0.000743 0.009257 0.003619 0.001276 -0.004340
# 4 -0.005113 0.000206 0.003619 0.034780 0.007262 -0.010125
# 5 -0.004812 0.001201 0.001276 0.007262 0.022456 -0.005533
# 6 0.011946 0.004814 -0.004340 -0.010125 -0.005533 0.046117
#
#
# Mechanical properties :
#
#
# Convention : Reuss Voigt Hill
#
# Bulk Modulus (GPa) = 55.25711 70.67074 62.96392
# Shear Modulus (GPa) = 28.64879 37.27561 32.96220
#
# Velocity S-wave (km/s) = 3.67854 4.19599 3.94576
# Velocity P-wave (km/s) = 6.64392 7.54022 7.10622
#
# Compressibility (1/GPa) = 0.01809722
#
# Stress axis : x y z
#
# Youngs Moduli (GPa) = 56.28157 68.51718 108.02937
#
# Poissons Ratio (x) = 0.37472 0.59947
# Poissons Ratio (y) = 0.30780 0.08027
# Poissons Ratio (z) = 0.31231 0.05091
#
# Static dielectric constant tensor:
#      x y z
#    x 3.855420 -0.377280 -0.209740 
#    y -0.377280 4.019730 -0.090340 
#    z -0.209740 -0.090340 3.431510 
# 
# 
# High freq. dielectric constant tensor:
#      x y z
#    x 1.837270 -0.031910 0.002000 
#    y -0.031910 1.826790 -0.005140 
#    z 0.002000 -0.005140 1.845020 
# 
# From -- ./inp_files/559821.got.cif
#   From: 2010.06.25/outbox.cif.g09.slc.cpg/sg2_280_cif.got.tgz:559821.got - 2010.06.27 13:26:56.
