data_PCOD8003978
_publ_section_title
;
Structure prediction by ZEFSAII (Michael W. Deem and Ramdas Pophale) SiO2 
 PCOD8003978
Probable space group: P -1
;
_chemical_formula_sum "Si O2"
_cell_formula_units_Z 16
_cell_length_a 12.586974
_cell_length_b 25.233499
_cell_length_c 6.797311
_cell_angle_alpha 135.357946
_cell_angle_beta 58.891236
_cell_angle_gamma 148.663223
_cell_volume 764.068908
_symmetry_space_group_name_H-M "P -1"
_symmetry_group_IT_number 2
_symmetry_cell_setting 'triclinic'
loop_
_space_group_symop_operation_xyz
x,y,z
-x,-y,-z
loop_
_atom_site_type_symbol
_atom_site_label
_atom_site_fract_x
_atom_site_fract_y
_atom_site_fract_z
Si Si1 0.077712 0.343917 0.968967
Si Si2 0.229867 0.583674 0.451222
Si Si3 0.874954 0.769271 0.614424
Si Si4 0.759047 0.363064 0.836251
Si Si5 0.431022 0.243366 0.102925
Si Si6 0.251380 0.994524 0.572602
Si Si7 0.931671 0.189777 0.080104
Si Si8 0.702559 0.172904 0.571005
O O1 0.210221 0.343477 0.729992
O O2 0.857585 0.243511 0.795451
O O3 0.219856 0.488134 0.199894
O O4 0.031807 0.301176 0.129137
O O5 0.299812 0.660910 0.395174
O O6 0.416563 0.704537 0.727520
O O7 0.000000 0.500000 0.500000
O O8 0.710044 0.754806 0.706343
O O9 0.101007 0.903140 0.659433
O O10 0.893566 0.757922 0.798243
O O11 0.714396 0.260242 0.694023
O O12 0.599133 0.345135 0.039374
O O13 0.000000 0.500000 0.000000
O O14 0.284031 0.100287 0.810846
O O15 0.462130 0.047908 0.547556
O O16 0.155596 0.922032 0.262431
O O17 0.754144 0.139412 0.258267
#
# Coordination Sequence:
#
# PCOD8003978 Si02
#       8
#     2   2   2   2   2   2   2   2
#     4  10  22  39  61  90 127 157 202 247 297 367
#     4  12  22  39  67  91 123 157 194 251 313 352
#     4  10  24  43  59  85 124 164 206 245 294 358
#     4  11  21  38  63  93 121 149 198 247 300 364
#     4  11  25  40  63  91 121 160 200 249 302 359
#     4  10  22  40  61  90 121 154 209 251 295 358
#     4  10  22  37  63  86 124 163 202 245 305 345
#     4  10  20  37  62  95 123 152 196 254 307 353
#
# _framework density 20.940521
#
# number of rings (size 3 to 8) (size 9 to 14) (size 15 to 20)
#    0.000    1.500    2.500    2.250    0.000   10.500 
#    0.000    1.250    0.000    0.000    0.000    0.000 
#    0.000    0.000    0.000    0.000    0.000    0.000 
#
# Total GULP energy -198306.193442 kJ/mol
# GULP energy per Si atom -12394.137090 kJ/mol
# Density = 2.089286 g / cm^3
# Si number density = 20.940521 Si / 1000 Ang^3
#
#
#
# Elastic Constant Matrix: (Units=GPa)
#
#
# Indices 1 2 3 4 5 6 
#
# 1 96.8762 35.2778 32.9729 -20.3775 -2.1447 2.1745
# 2 35.2778 77.3775 29.5584 -15.0815 4.9997 -2.7682
# 3 32.9729 29.5584 94.1020 -13.4833 3.2277 -1.2245
# 4 -20.3775 -15.0815 -13.4833 36.5516 -11.6250 -0.8291
# 5 -2.1447 4.9997 3.2277 -11.6250 47.7368 -8.8148
# 6 2.1745 -2.7682 -1.2245 -0.8291 -8.8148 24.6600
#
#
#
# Elastic Compliance Matrix: (Units=1/GPa)
#
#
# Indices 1 2 3 4 5 6 
#
# 1 0.014214 -0.004450 -0.002844 0.005841 0.002576 -0.000777
# 2 -0.004450 0.016923 -0.003258 0.003151 -0.000612 0.002017
# 3 -0.002844 -0.003258 0.012917 0.001810 -0.000119 0.000545
# 4 0.005841 0.003151 0.001810 0.035646 0.009313 0.004456
# 5 0.002576 -0.000612 -0.000119 0.009313 0.025060 0.008969
# 6 -0.000777 0.002017 0.000545 0.004456 0.008969 0.044229
#
#
# Mechanical properties :
#
#
# Convention : Reuss Voigt Hill
#
# Bulk Modulus (GPa) = 43.57248 51.55267 47.56257
# Shear Modulus (GPa) = 28.13053 33.15946 30.64499
#
# Velocity S-wave (km/s) = 3.66916 3.98365 3.82963
# Velocity P-wave (km/s) = 6.22922 6.76988 6.50517
#
# Compressibility (1/GPa) = 0.02295026
#
# Stress axis : x y z
#
# Youngs Moduli (GPa) = 70.35329 59.09218 77.41635
#
# Poissons Ratio (x) = 0.26294 0.22020
# Poissons Ratio (y) = 0.31305 0.25220
# Poissons Ratio (z) = 0.20011 0.19250
#
# Static dielectric constant tensor:
#      x y z
#    x 3.876260 -0.098920 -0.107160 
#    y -0.098920 3.394120 -0.109200 
#    z -0.107160 -0.109200 3.996660 
# 
# 
# High freq. dielectric constant tensor:
#      x y z
#    x 1.821770 -0.008240 -0.004300 
#    y -0.008240 1.813820 -0.011700 
#    z -0.004300 -0.011700 1.831060 
# 
# From -- ./inp_files/84514.got.cif
#   From: 2010.06.25/outbox.cif.g09.slc.cpg/sg2_43_cif.got.tgz:84514.got - 2010.06.27 13:26:56.
