data_PCOD8003690
_publ_section_title
;
Structure prediction by ZEFSAII (Michael W. Deem and Ramdas Pophale) SiO2 
 PCOD8003690
Probable space group: P -1
;
_chemical_formula_sum "Si O2"
_cell_formula_units_Z 16
_cell_length_a 6.912333
_cell_length_b 14.686721
_cell_length_c 11.961437
_cell_angle_alpha 47.399112
_cell_angle_beta 82.284079
_cell_angle_gamma 102.031155
_cell_volume 807.738548
_symmetry_space_group_name_H-M "P -1"
_symmetry_group_IT_number 2
_symmetry_cell_setting 'triclinic'
loop_
_space_group_symop_operation_xyz
x,y,z
-x,-y,-z
loop_
_atom_site_type_symbol
_atom_site_label
_atom_site_fract_x
_atom_site_fract_y
_atom_site_fract_z
Si Si1 0.882996 0.820646 0.369108
Si Si2 0.353075 0.580384 0.934412
Si Si3 0.069021 0.613173 0.492526
Si Si4 0.302744 0.140715 0.261111
Si Si5 0.522713 0.849348 0.233809
Si Si6 0.317845 0.052208 0.093923
Si Si7 0.937839 0.430971 0.223347
Si Si8 0.953882 0.151267 0.426307
O O1 0.663047 0.821747 0.341994
O O2 0.893196 0.676676 0.462267
O O3 0.898487 0.845267 0.480840
O O4 0.079249 0.937978 0.194279
O O5 0.487256 0.742306 0.799234
O O6 0.239041 0.539724 0.856712
O O7 0.500000 0.500000 0.000000
O O8 0.175884 0.531575 0.085574
O O9 0.296832 0.724885 0.348503
O O10 0.086450 0.544474 0.665242
O O11 0.000000 0.500000 0.500000
O O12 0.331531 0.148183 0.118624
O O13 0.091218 0.164079 0.292830
O O14 0.260943 0.989814 0.435310
O O15 0.489633 0.985572 0.152261
O O16 0.632565 0.859753 0.095833
O O17 0.883091 0.273627 0.334855
#
# Coordination Sequence:
#
# PCOD8003690 Si02
#       8
#     2   2   2   2   2   2   2   2
#     4   9  19  38  60  83 116 151 185 240 294 341
#     4  11  23  41  62  85 120 161 188 238 301 354
#     4  10  23  39  57  86 115 149 203 242 271 345
#     4  10  20  37  60  89 118 148 196 242 284 346
#     4  10  20  37  61  80 116 159 185 232 306 329
#     4   9  20  38  55  87 118 144 192 239 282 352
#     4  10  23  42  60  84 121 157 196 237 298 349
#     4   9  19  39  60  88 120 147 193 247 287 349
#
# _framework density 19.808389999999999
#
# number of rings (size 3 to 8) (size 9 to 14) (size 15 to 20)
#    0.000    2.250    1.250    1.125    3.500    1.000 
#    9.000    0.000    0.000    0.000    0.000    0.000 
#    0.000    0.000    0.000    0.000    0.000    0.000 
#
# Total GULP energy -198397.431863 kJ/mol
# GULP energy per Si atom -12399.839491 kJ/mol
# Density = 1.976331 g / cm^3
# Si number density = 19.808390 Si / 1000 Ang^3
#
#
#
# Elastic Constant Matrix: (Units=GPa)
#
#
# Indices 1 2 3 4 5 6 
#
# 1 87.6114 41.4945 28.0842 2.0313 11.9106 6.5838
# 2 41.4945 121.5440 51.1065 9.3858 -6.7755 -2.9299
# 3 28.0842 51.1065 100.4767 10.3352 -5.8078 3.8946
# 4 2.0313 9.3858 10.3352 41.1139 1.5414 -9.9659
# 5 11.9106 -6.7755 -5.8078 1.5414 28.8042 2.5150
# 6 6.5838 -2.9299 3.8946 -9.9659 2.5150 20.3218
#
#
#
# Elastic Compliance Matrix: (Units=1/GPa)
#
#
# Indices 1 2 3 4 5 6 
#
# 1 0.015904 -0.005076 -0.002158 0.000133 -0.007825 -0.004437
# 2 -0.005076 0.012272 -0.004673 -0.000665 0.003772 0.003516
# 3 -0.002158 -0.004673 0.013659 -0.003519 0.003146 -0.004708
# 4 0.000133 -0.000665 -0.003519 0.029213 -0.003823 0.015335
# 5 -0.007825 0.003772 0.003146 -0.003823 0.040059 -0.004357
# 6 -0.004437 0.003516 -0.004708 0.015335 -0.004357 0.060114
#
#
# Mechanical properties :
#
#
# Convention : Reuss Voigt Hill
#
# Bulk Modulus (GPa) = 55.48883 61.22252 58.35567
# Shear Modulus (GPa) = 24.87064 30.64445 27.75755
#
# Velocity S-wave (km/s) = 3.54723 3.93752 3.74746
# Velocity P-wave (km/s) = 6.69707 7.18655 6.94612
#
# Compressibility (1/GPa) = 0.01802164
#
# Stress axis : x y z
#
# Youngs Moduli (GPa) = 62.87834 81.48937 73.21288
#
# Poissons Ratio (x) = 0.41362 0.15796
# Poissons Ratio (y) = 0.31915 0.34212
# Poissons Ratio (z) = 0.13566 0.38080
#
# Static dielectric constant tensor:
#      x y z
#    x 3.421460 -0.056470 -0.110100 
#    y -0.056470 3.576600 -0.010930 
#    z -0.110100 -0.010930 3.884700 
# 
# 
# High freq. dielectric constant tensor:
#      x y z
#    x 1.756870 -0.003170 -0.013020 
#    y -0.003170 1.764270 0.003660 
#    z -0.013020 0.003660 1.783480 
# 
# From -- ./inp_files/70341.got.cif
#   From: 2010.06.25/outbox.cif.g09.slc.cpg/sg2_36_cif.got.tgz:70341.got - 2010.06.27 13:26:56.
