data_PCOD8003835
_publ_section_title
;
Structure prediction by ZEFSAII (Michael W. Deem and Ramdas Pophale) SiO2 
 PCOD8003835
Probable space group: P -1
;
_chemical_formula_sum "Si O2"
_cell_formula_units_Z 16
_cell_length_a 18.779372
_cell_length_b 9.472796
_cell_length_c 5.092809
_cell_angle_alpha 83.134188
_cell_angle_beta 123.730854
_cell_angle_gamma 89.992191
_cell_volume 745.624985
_symmetry_space_group_name_H-M "P -1"
_symmetry_group_IT_number 2
_symmetry_cell_setting 'triclinic'
loop_
_space_group_symop_operation_xyz
x,y,z
-x,-y,-z
loop_
_atom_site_type_symbol
_atom_site_label
_atom_site_fract_x
_atom_site_fract_y
_atom_site_fract_z
Si Si1 0.093818 0.028057 0.093607
Si Si2 0.099616 0.470013 0.254079
Si Si3 0.197065 0.741056 0.285512
Si Si4 0.423851 0.147522 0.027341
Si Si5 0.702073 0.214937 0.001184
Si Si6 0.860915 0.710424 0.122757
Si Si7 0.756616 0.901613 0.219955
Si Si8 0.515022 0.181746 0.708511
O O1 0.157177 0.081514 0.437816
O O2 0.135261 0.884170 0.074718
O O3 0.079047 0.157368 0.824733
O O4 0.000000 0.000000 0.000000
O O5 0.141243 0.618449 0.300895
O O6 0.103326 0.404038 0.566446
O O7 0.147953 0.366644 0.159443
O O8 0.000000 0.500000 0.000000
O O9 0.264897 0.767389 0.642562
O O10 0.249060 0.694603 0.135472
O O11 0.445824 0.220452 0.330679
O O12 0.461385 0.984965 0.163592
O O13 0.321339 0.156230 0.758212
O O14 0.469455 0.234526 0.874234
O O15 0.721067 0.051035 0.984127
O O16 0.600508 0.260205 0.794004
O O17 0.772895 0.789171 0.038732
#
# Coordination Sequence:
#
# PCOD8003835 Si02
#       8
#     2   2   2   2   2   2   2   2
#     4  11  24  42  65  93 127 164 209 257 316 368
#     4  12  27  45  63  89 124 166 218 261 304 366
#     4  11  23  40  62  91 124 168 201 264 307 364
#     4   9  18  29  52  85 128 155 196 239 316 361
#     4  10  20  37  61  91 129 156 210 250 316 368
#     4  12  24  44  65  89 123 167 209 257 313 363
#     4  10  22  37  61  94 126 163 205 261 305 372
#     4   9  17  30  52  86 122 164 185 248 307 375
#
# _framework density 21.458507999999998
#
# number of rings (size 3 to 8) (size 9 to 14) (size 15 to 20)
#    0.000    1.500    2.500    2.625    1.750    5.500 
#    0.000    0.000    0.000    0.000    0.000   17.500 
#    0.000    0.000    0.000    0.000    0.000    0.000 
#
# Total GULP energy -198284.512389 kJ/mol
# GULP energy per Si atom -12392.782024 kJ/mol
# Density = 2.140967 g / cm^3
# Si number density = 21.458508 Si / 1000 Ang^3
#
#
#
# Elastic Constant Matrix: (Units=GPa)
#
#
# Indices 1 2 3 4 5 6 
#
# 1 153.4751 22.1691 50.8296 9.4719 -0.8907 25.8899
# 2 22.1691 77.0842 7.7689 -1.6165 -1.1330 13.9549
# 3 50.8296 7.7689 80.5449 9.7826 -2.9520 14.0135
# 4 9.4719 -1.6165 9.7826 15.8356 10.0112 -9.8381
# 5 -0.8907 -1.1330 -2.9520 10.0112 42.0995 3.9817
# 6 25.8899 13.9549 14.0135 -9.8381 3.9817 36.8596
#
#
#
# Elastic Compliance Matrix: (Units=1/GPa)
#
#
# Indices 1 2 3 4 5 6 
#
# 1 0.009989 -0.001118 -0.002964 -0.012340 0.003775 -0.009167
# 2 -0.001118 0.014249 0.000817 -0.003181 0.001737 -0.005957
# 3 -0.002964 0.000817 0.019531 -0.023195 0.008047 -0.012713
# 4 -0.012340 -0.003181 -0.023195 0.152372 -0.044273 0.064142
# 5 0.003775 0.001737 0.008047 -0.044273 0.037071 -0.022190
# 6 -0.009167 -0.005957 -0.012713 0.064142 -0.022190 0.060175
#
#
# Mechanical properties :
#
#
# Convention : Reuss Voigt Hill
#
# Bulk Modulus (GPa) = 26.85246 52.51549 39.68398
# Shear Modulus (GPa) = 16.00880 34.31471 25.16176
#
# Velocity S-wave (km/s) = 2.73433 4.00324 3.42801
# Velocity P-wave (km/s) = 4.74442 6.77451 5.84823
#
# Compressibility (1/GPa) = 0.03724053
#
# Stress axis : x y z
#
# Youngs Moduli (GPa) = 100.11391 70.17969 51.20114
#
# Poissons Ratio (x) = 0.07844 0.15174
# Poissons Ratio (y) = 0.11189 -0.04185
# Poissons Ratio (z) = 0.29671 -0.05736
#
# Static dielectric constant tensor:
#      x y z
#    x 4.150420 0.055310 -0.178670 
#    y 0.055310 3.678830 -0.003300 
#    z -0.178670 -0.003300 3.805090 
# 
# 
# High freq. dielectric constant tensor:
#      x y z
#    x 1.861080 0.011930 -0.011680 
#    y 0.011930 1.805700 0.002080 
#    z -0.011680 0.002080 1.833260 
# 
# From -- ./inp_files/105063.got.cif
#   From: 2010.06.25/outbox.cif.g09.slc.cpg/sg2_53_cif.got.tgz:105063.got - 2010.06.27 13:26:56.
