data_PCOD8003926
_publ_section_title
;
Structure prediction by ZEFSAII (Michael W. Deem and Ramdas Pophale) SiO2 
 PCOD8003926
Probable space group: P -1
;
_chemical_formula_sum "Si O2"
_cell_formula_units_Z 14
_cell_length_a 11.878182
_cell_length_b 11.145584
_cell_length_c 10.732951
_cell_angle_alpha 122.285410
_cell_angle_beta 96.390343
_cell_angle_gamma 129.923564
_cell_volume 657.539483
_symmetry_space_group_name_H-M "P -1"
_symmetry_group_IT_number 2
_symmetry_cell_setting 'triclinic'
loop_
_space_group_symop_operation_xyz
x,y,z
-x,-y,-z
loop_
_atom_site_type_symbol
_atom_site_label
_atom_site_fract_x
_atom_site_fract_y
_atom_site_fract_z
Si Si1 0.378581 0.380939 0.229357
Si Si2 0.486505 0.951447 0.263296
Si Si3 0.202307 0.120245 0.321381
Si Si4 0.115258 0.723798 0.046525
Si Si5 0.715486 0.393529 0.707224
Si Si6 0.841426 0.825815 0.270781
Si Si7 0.568383 0.751075 0.070659
O O1 0.233180 0.184462 0.215657
O O2 0.618048 0.623061 0.431615
O O3 0.318479 0.474002 0.227523
O O4 0.348976 0.231808 0.036604
O O5 0.314968 0.844369 0.092594
O O6 0.390992 0.774562 0.274222
O O7 0.606928 0.960704 0.199879
O O8 0.635086 0.232289 0.483665
O O9 0.200984 0.950997 0.256439
O O10 0.979378 0.950341 0.233699
O O11 0.000000 0.500000 0.000000
O O12 0.960134 0.614339 0.859579
O O13 0.698822 0.817147 0.236937
O O14 0.678647 0.527163 0.098585
O O15 0.000000 0.000000 0.500000
#
# Coordination Sequence:
#
# PCOD8003926 Si02
#       7
#     2   2   2   2   2   2   2
#     4  11  23  42  66  95 129 171 217 256 325 377
#     4  10  21  36  58  92 128 157 209 260 314 375
#     4  11  23  41  68  92 129 173 215 265 309 388
#     4  10  20  37  62  90 119 165 212 256 312 369
#     4  10  20  37  63  87 123 169 208 258 310 385
#     4  11  22  38  62  94 129 162 213 269 316 368
#     4  11  23  39  63  98 127 167 207 270 321 372
#
# _framework density 21.291497
#
# number of rings (size 3 to 8) (size 9 to 14) (size 15 to 20)
#    0.000    1.429    2.857    4.286    0.000    3.429 
#    0.000    0.714    0.000    1.714    0.000    0.000 
#    0.000    0.000    0.000    0.000    0.000    0.000 
#
# Total GULP energy -173536.606286 kJ/mol
# GULP energy per Si atom -12395.471878 kJ/mol
# Density = 2.124304 g / cm^3
# Si number density = 21.291497 Si / 1000 Ang^3
#
#
#
# Elastic Constant Matrix: (Units=GPa)
#
#
# Indices 1 2 3 4 5 6 
#
# 1 155.3519 26.2426 66.0628 -10.5778 -5.1081 9.0463
# 2 26.2426 61.5767 28.8443 0.5381 3.4769 11.0731
# 3 66.0628 28.8443 107.1416 -15.3520 0.9458 9.5917
# 4 -10.5778 0.5381 -15.3520 23.6061 -2.5646 -1.1106
# 5 -5.1081 3.4769 0.9458 -2.5646 44.8598 -0.8314
# 6 9.0463 11.0731 9.5917 -1.1106 -0.8314 21.1158
#
#
#
# Elastic Compliance Matrix: (Units=1/GPa)
#
#
# Indices 1 2 3 4 5 6 
#
# 1 0.008923 -0.001444 -0.004926 0.000932 0.001272 -0.000729
# 2 -0.001444 0.020684 -0.004577 -0.004722 -0.002098 -0.008480
# 3 -0.004926 -0.004577 0.014835 0.007445 -0.000127 -0.001842
# 4 0.000932 -0.004722 0.007445 0.048128 0.003092 0.001348
# 5 0.001272 -0.002098 -0.000127 0.003092 0.022810 0.001674
# 6 -0.000729 -0.008480 -0.001842 0.001348 0.001674 0.053091
#
#
# Mechanical properties :
#
#
# Convention : Reuss Voigt Hill
#
# Bulk Modulus (GPa) = 44.34773 62.92995 53.63884
# Shear Modulus (GPa) = 25.26768 31.44438 28.35603
#
# Velocity S-wave (km/s) = 3.44866 3.84715 3.65334
# Velocity P-wave (km/s) = 6.06067 7.02529 6.56073
#
# Compressibility (1/GPa) = 0.02254907
#
# Stress axis : x y z
#
# Youngs Moduli (GPa) = 112.06587 48.34643 67.40606
#
# Poissons Ratio (x) = 0.06984 0.33202
# Poissons Ratio (y) = 0.16188 0.30850
# Poissons Ratio (z) = 0.55199 0.22127
#
# Static dielectric constant tensor:
#      x y z
#    x 4.171960 -0.008290 0.184970 
#    y -0.008290 3.534850 0.078870 
#    z 0.184970 0.078870 4.119090 
# 
# 
# High freq. dielectric constant tensor:
#      x y z
#    x 1.848580 -0.004620 0.012480 
#    y -0.004620 1.791030 0.004920 
#    z 0.012480 0.004920 1.846660 
# 
# From -- ./inp_files/416475.got.cif
#   From: 2010.06.25/outbox.cif.g09.slc.cpg/sg2_209_cif.got.tgz:416475.got - 2010.06.27 13:26:56.
