data_PCOD8003269
_publ_section_title
;
Structure prediction by ZEFSAII (Michael W. Deem and Ramdas Pophale) SiO2 
 PCOD8003269
Probable space group: P -1
;
_chemical_formula_sum "Si O2"
_cell_formula_units_Z 14
_cell_length_a 16.664543
_cell_length_b 5.661953
_cell_length_c 11.874727
_cell_angle_alpha 103.220171
_cell_angle_beta 139.577971
_cell_angle_gamma 70.986553
_cell_volume 686.520964
_symmetry_space_group_name_H-M "P -1"
_symmetry_group_IT_number 2
_symmetry_cell_setting 'triclinic'
loop_
_space_group_symop_operation_xyz
x,y,z
-x,-y,-z
loop_
_atom_site_type_symbol
_atom_site_label
_atom_site_fract_x
_atom_site_fract_y
_atom_site_fract_z
Si Si1 0.219044 0.533462 0.939582
Si Si2 0.604856 0.916662 0.844568
Si Si3 0.948954 0.611124 0.576688
Si Si4 0.370551 0.671244 0.922860
Si Si5 0.801473 0.196001 0.453106
Si Si6 0.607692 0.328604 0.452454
Si Si7 0.386279 0.779255 0.306585
O O1 0.276366 0.535797 0.874737
O O2 0.067055 0.623903 0.785248
O O3 0.277729 0.688469 0.110714
O O4 0.257226 0.246487 0.988738
O O5 0.606289 0.960253 0.715413
O O6 0.490924 0.787994 0.736476
O O7 0.576656 0.165973 0.912419
O O8 0.879643 0.406289 0.532444
O O9 0.000000 0.500000 0.500000
O O10 0.873314 0.903915 0.517458
O O11 0.294046 0.818817 0.752651
O O12 0.500000 0.500000 0.000000
O O13 0.729358 0.309803 0.502136
O O14 0.530271 0.607685 0.430673
O O15 0.655774 0.183093 0.604522
#
# Coordination Sequence:
#
# PCOD8003269 Si02
#       7
#     2   2   2   2   2   2   2
#     4  10  22  39  62  90 120 169 219 256 320 389
#     4  10  20  36  65  89 124 166 208 263 326 396
#     4  12  26  45  66  91 131 183 218 264 318 387
#     4  11  23  37  61  96 129 159 205 274 327 388
#     4  12  27  42  67  97 133 169 222 267 320 383
#     4  10  22  40  62  98 127 166 211 273 327 391
#     4   9  20  40  67  92 128 164 213 265 338 383
#
# _framework density 20.392678
#
# number of rings (size 3 to 8) (size 9 to 14) (size 15 to 20)
#    0.000    1.429    1.429    4.286    8.000    1.143 
#    0.000    1.429    0.000    0.000    0.000    0.000 
#    0.000    0.000    0.000    0.000    0.000    0.000 
#
# Total GULP energy -173453.820522 kJ/mol
# GULP energy per Si atom -12389.558609 kJ/mol
# Density = 2.034626 g / cm^3
# Si number density = 20.392678 Si / 1000 Ang^3
#
#
#
# Elastic Constant Matrix: (Units=GPa)
#
#
# Indices 1 2 3 4 5 6 
#
# 1 146.9942 48.8100 50.1238 -11.2699 -4.5711 5.2018
# 2 48.8100 103.5189 34.8161 -20.0370 5.7781 17.5098
# 3 50.1238 34.8161 107.6841 -20.9813 3.7978 -1.5039
# 4 -11.2699 -20.0370 -20.9813 33.5282 4.9652 -2.4774
# 5 -4.5711 5.7781 3.7978 4.9652 32.2161 2.0178
# 6 5.2018 17.5098 -1.5039 -2.4774 2.0178 24.8890
#
#
#
# Elastic Compliance Matrix: (Units=1/GPa)
#
#
# Indices 1 2 3 4 5 6 
#
# 1 0.009150 -0.003608 -0.003507 -0.001660 0.002612 0.000037
# 2 -0.003608 0.014942 -0.001920 0.006354 -0.003383 -0.008967
# 3 -0.003507 -0.001920 0.012960 0.006493 -0.002917 0.003749
# 4 -0.001660 0.006354 0.006493 0.038383 -0.008103 0.000746
# 5 0.002612 -0.003383 -0.002917 -0.008103 0.033729 -0.001883
# 6 0.000037 -0.008967 0.003749 0.000746 -0.001883 0.046933
#
#
# Mechanical properties :
#
#
# Convention : Reuss Voigt Hill
#
# Bulk Modulus (GPa) = 52.68054 69.52187 61.10121
# Shear Modulus (GPa) = 27.70176 33.08981 30.39578
#
# Velocity S-wave (km/s) = 3.68967 4.03256 3.86492
# Velocity P-wave (km/s) = 6.63632 7.47313 7.06712
#
# Compressibility (1/GPa) = 0.01898234
#
# Stress axis : x y z
#
# Youngs Moduli (GPa) = 109.29381 66.92384 77.16064
#
# Poissons Ratio (x) = 0.24145 0.27063
# Poissons Ratio (y) = 0.39431 0.14812
# Poissons Ratio (z) = 0.38334 0.12847
#
# Static dielectric constant tensor:
#      x y z
#    x 3.897210 0.232460 -0.155520 
#    y 0.232460 3.926680 -0.116650 
#    z -0.155520 -0.116650 3.943520 
# 
# 
# High freq. dielectric constant tensor:
#      x y z
#    x 1.789630 0.016550 -0.015910 
#    y 0.016550 1.797440 -0.002890 
#    z -0.015910 -0.002890 1.807090 
# 
# From -- ./inp_files/26738.got.cif
#   From: 2010.06.25/outbox.cif.g09.slc.cpg/sg2_14_cif.got.tgz:26738.got - 2010.06.27 13:26:56.
