data_PCOD8003546
_publ_section_title
;
Structure prediction by ZEFSAII (Michael W. Deem and Ramdas Pophale) SiO2 
 PCOD8003546
Probable space group: P -1
;
_chemical_formula_sum "Si O2"
_cell_formula_units_Z 16
_cell_length_a 22.262448
_cell_length_b 6.981473
_cell_length_c 17.368383
_cell_angle_alpha 89.951588
_cell_angle_beta 21.300650
_cell_angle_gamma 102.902490
_cell_volume 771.820213
_symmetry_space_group_name_H-M "P -1"
_symmetry_group_IT_number 2
_symmetry_cell_setting 'triclinic'
loop_
_space_group_symop_operation_xyz
x,y,z
-x,-y,-z
loop_
_atom_site_type_symbol
_atom_site_label
_atom_site_fract_x
_atom_site_fract_y
_atom_site_fract_z
Si Si1 0.270365 0.546156 0.237654
Si Si2 0.987849 0.702118 0.600472
Si Si3 0.735493 0.803921 0.649494
Si Si4 0.629554 0.041262 0.495199
Si Si5 0.096467 0.941970 0.708131
Si Si6 0.771685 0.880512 0.200397
Si Si7 0.261994 0.507534 0.952209
Si Si8 0.450078 0.600215 0.452792
O O1 0.174263 0.682288 0.371308
O O2 0.272225 0.420685 0.313072
O O3 0.132031 0.347807 0.336203
O O4 0.509224 0.743985 0.924540
O O5 0.094736 0.974305 0.498554
O O6 0.818470 0.511821 0.865723
O O7 0.811624 0.865176 0.470750
O O8 0.775708 0.068859 0.250773
O O9 0.393885 0.786932 0.766803
O O10 0.716047 0.035921 0.474389
O O11 0.632997 0.273014 0.492339
O O12 0.990704 0.016190 0.893779
O O13 0.931033 0.664638 0.875816
O O14 0.579954 0.767336 0.370823
O O15 0.741216 0.667435 0.288723
O O16 0.408158 0.422341 0.775359
#
# Coordination Sequence:
#
# PCOD8003546 Si02
#       8
#     2   2   2   2   2   2   2   2
#     4  10  21  37  61  84 107 145 187 220 276 337
#     4  10  20  37  59  84 111 144 184 227 269 326
#     4  10  21  39  56  81 117 144 176 231 278 319
#     4  11  20  36  60  81 109 151 184 222 274 318
#     4  10  21  37  56  82 114 144 184 228 269 326
#     4   9  19  36  54  80 113 144 183 228 269 321
#     4   9  21  38  54  82 117 143 180 229 270 320
#     4   9  19  36  57  80 111 147 184 225 271 321
#
# _framework density 20.730215999999999
#
# number of rings (size 3 to 8) (size 9 to 14) (size 15 to 20)
#    0.000    2.250    0.000    3.000    0.000    3.500 
#    0.000   17.500    0.000    0.000    0.000    0.000 
#    0.000    0.000    0.000    0.000    0.000    0.000 
#
# Total GULP energy -198429.441406 kJ/mol
# GULP energy per Si atom -12401.840088 kJ/mol
# Density = 2.068303 g / cm^3
# Si number density = 20.730216 Si / 1000 Ang^3
#
#
#
# Elastic Constant Matrix: (Units=GPa)
#
#
# Indices 1 2 3 4 5 6 
#
# 1 74.8434 5.7044 31.3459 5.3670 1.5236 -7.8220
# 2 5.7044 49.3548 17.7949 2.0751 4.0584 -8.7559
# 3 31.3459 17.7949 115.0452 -0.5776 17.5842 -4.8094
# 4 5.3670 2.0751 -0.5776 19.6756 0.5907 1.8721
# 5 1.5236 4.0584 17.5842 0.5907 17.7189 -0.5736
# 6 -7.8220 -8.7559 -4.8094 1.8721 -0.5736 21.0808
#
#
#
# Elastic Compliance Matrix: (Units=1/GPa)
#
#
# Indices 1 2 3 4 5 6 
#
# 1 0.016269 0.000849 -0.004903 -0.005337 0.003639 0.005844
# 2 0.000849 0.023305 -0.003176 -0.003636 -0.001829 0.009543
# 3 -0.004903 -0.003176 0.012184 0.002445 -0.011053 -0.000876
# 4 -0.005337 -0.003636 0.002445 0.053571 -0.003173 -0.007776
# 5 0.003639 -0.001829 -0.011053 -0.003173 0.067623 0.000191
# 6 0.005844 0.009543 -0.000876 -0.007776 0.000191 0.054064
#
#
# Mechanical properties :
#
#
# Convention : Reuss Voigt Hill
#
# Bulk Modulus (GPa) = 26.81024 38.77041 32.79033
# Shear Modulus (GPa) = 19.69210 23.98826 21.84018
#
# Velocity S-wave (km/s) = 3.08543 3.40540 3.24935
# Velocity P-wave (km/s) = 5.06499 5.84853 5.47081
#
# Compressibility (1/GPa) = 0.03729918
#
# Stress axis : x y z
#
# Youngs Moduli (GPa) = 61.46536 42.90987 82.07260
#
# Poissons Ratio (x) = -0.03644 0.40240
# Poissons Ratio (y) = -0.05220 0.26065
# Poissons Ratio (z) = 0.30136 0.13628
#
# Static dielectric constant tensor:
#      x y z
#    x 3.706380 0.126210 0.029470 
#    y 0.126210 3.438310 0.006870 
#    z 0.029470 0.006870 3.875670 
# 
# 
# High freq. dielectric constant tensor:
#      x y z
#    x 1.812090 0.008850 -0.000520 
#    y 0.008850 1.789190 0.000520 
#    z -0.000520 0.000520 1.819170 
# 
# From -- ./inp_files/225212.got.cif
#   From: 2010.06.25/outbox.cif.g09.slc.cpg/sg2_113_cif.got.tgz:225212.got - 2010.06.27 13:26:56.
