data_PCOD8003287
_publ_section_title
;
Structure prediction by ZEFSAII (Michael W. Deem and Ramdas Pophale) SiO2 
 PCOD8003287
Probable space group: P -1
;
_chemical_formula_sum "Si O2"
_cell_formula_units_Z 14
_cell_length_a 9.653289
_cell_length_b 11.646940
_cell_length_c 9.073527
_cell_angle_alpha 80.163561
_cell_angle_beta 131.157680
_cell_angle_gamma 112.301305
_cell_volume 706.045637
_symmetry_space_group_name_H-M "P -1"
_symmetry_group_IT_number 2
_symmetry_cell_setting 'triclinic'
loop_
_space_group_symop_operation_xyz
x,y,z
-x,-y,-z
loop_
_atom_site_type_symbol
_atom_site_label
_atom_site_fract_x
_atom_site_fract_y
_atom_site_fract_z
Si Si1 0.216002 0.099800 0.431401
Si Si2 0.037227 0.106008 0.880093
Si Si3 0.560496 0.828671 0.737089
Si Si4 0.490163 0.958494 0.168570
Si Si5 0.801845 0.649241 0.677441
Si Si6 0.368409 0.606849 0.487313
Si Si7 0.847591 0.259999 0.886444
O O1 0.357784 0.128461 0.380353
O O2 0.335037 0.091820 0.662272
O O3 0.135733 0.212550 0.379872
O O4 0.035365 0.967559 0.308575
O O5 0.921381 0.198649 0.813611
O O6 0.272153 0.182863 0.031406
O O7 0.000000 0.000000 0.000000
O O8 0.384411 0.692149 0.626104
O O9 0.471576 0.925531 0.719511
O O10 0.279349 0.851287 0.070781
O O11 0.500000 0.000000 0.000000
O O12 0.590935 0.614077 0.615540
O O13 0.775863 0.538569 0.563219
O O14 0.965510 0.649517 0.911597
O O15 0.283312 0.662493 0.278697
#
# Coordination Sequence:
#
# PCOD8003287 Si02
#       7
#     2   2   2   2   2   2   2
#     4  10  17  34  54  77 109 138 175 227 266 310
#     4  10  16  28  58  79 100 141 176 219 280 313
#     4  10  17  35  54  79 110 136 177 226 268 317
#     4  12  23  33  53  83 112 147 180 217 272 327
#     4  10  19  32  52  87 109 135 180 224 273 314
#     4  10  20  31  56  84 109 137 176 228 270 316
#     4  12  18  34  53  80 116 140 173 227 271 314
#
# _framework density 19.828745000000001
#
# number of rings (size 3 to 8) (size 9 to 14) (size 15 to 20)
#    0.000    1.429   10.000    1.714    0.000    0.000 
#    0.000    2.857    0.000    1.714    0.000    0.000 
#    0.000    0.000    0.000    0.000    0.000    0.000 
#
# Total GULP energy -173463.597593 kJ/mol
# GULP energy per Si atom -12390.256971 kJ/mol
# Density = 1.978361 g / cm^3
# Si number density = 19.828745 Si / 1000 Ang^3
#
#
#
# Elastic Constant Matrix: (Units=GPa)
#
#
# Indices 1 2 3 4 5 6 
#
# 1 19.6924 24.9684 22.2626 -1.4514 4.2355 -1.5881
# 2 24.9684 121.2585 63.0493 37.6058 -2.5097 -11.6231
# 3 22.2626 63.0493 144.1044 20.1734 17.8384 3.2986
# 4 -1.4514 37.6058 20.1734 36.8547 2.2041 -0.6177
# 5 4.2355 -2.5097 17.8384 2.2041 22.9942 0.1017
# 6 -1.5881 -11.6231 3.2986 -0.6177 0.1017 10.3334
#
#
#
# Elastic Compliance Matrix: (Units=1/GPa)
#
#
# Indices 1 2 3 4 5 6 
#
# 1 0.109209 -0.037653 -0.003050 0.045592 -0.026134 -0.021613
# 2 -0.037653 0.033128 -0.007307 -0.031900 0.019137 0.031713
# 3 -0.003050 -0.007307 0.011903 0.001183 -0.009529 -0.012323
# 4 0.045592 -0.031900 0.001183 0.061517 -0.018582 -0.025392
# 5 -0.026134 0.019137 -0.009529 -0.018582 0.059482 0.018855
# 6 -0.021613 0.031713 -0.012323 -0.025392 0.018855 0.131354
#
#
# Mechanical properties :
#
#
# Convention : Reuss Voigt Hill
#
# Bulk Modulus (GPa) = 17.17603 56.17954 36.67778
# Shear Modulus (GPa) = 9.57819 25.68813 17.63316
#
# Velocity S-wave (km/s) = 2.20021 3.60321 2.98530
# Velocity P-wave (km/s) = 3.89045 6.76053 5.51545
#
# Compressibility (1/GPa) = 0.05822069
#
# Stress axis : x y z
#
# Youngs Moduli (GPa) = 9.15678 30.18588 84.00944
#
# Poissons Ratio (x) = 1.13660 0.25623
# Poissons Ratio (y) = 0.34478 0.61382
# Poissons Ratio (z) = 0.02793 0.22055
#
# Static dielectric constant tensor:
#      x y z
#    x 3.015000 -0.267140 0.405570 
#    y -0.267140 4.257780 0.604250 
#    z 0.405570 0.604250 4.159400 
# 
# 
# High freq. dielectric constant tensor:
#      x y z
#    x 1.696360 -0.033050 0.039140 
#    y -0.033050 1.774480 0.022140 
#    z 0.039140 0.022140 1.790690 
# 
# From -- ./inp_files/171677.got.cif
#   From: 2010.06.25/outbox.cif.g09.slc.cpg/sg2_86_cif.got.tgz:171677.got - 2010.06.27 13:26:56.
