data_PCOD8003732
_publ_section_title
;
Structure prediction by ZEFSAII (Michael W. Deem and Ramdas Pophale) SiO2 
 PCOD8003732
Probable space group: P -1
;
_chemical_formula_sum "Si O2"
_cell_formula_units_Z 16
_cell_length_a 5.138536
_cell_length_b 10.602867
_cell_length_c 16.898572
_cell_angle_alpha 119.949357
_cell_angle_beta 87.322033
_cell_angle_gamma 87.602045
_cell_volume 794.613205
_symmetry_space_group_name_H-M "P -1"
_symmetry_group_IT_number 2
_symmetry_cell_setting 'triclinic'
loop_
_space_group_symop_operation_xyz
x,y,z
-x,-y,-z
loop_
_atom_site_type_symbol
_atom_site_label
_atom_site_fract_x
_atom_site_fract_y
_atom_site_fract_z
Si Si1 0.705646 0.001303 0.217463
Si Si2 0.776153 0.188619 0.835860
Si Si3 0.265356 0.923744 0.940066
Si Si4 0.511696 0.704590 0.621125
Si Si5 0.742280 0.502414 0.676284
Si Si6 0.275381 0.425620 0.571852
Si Si7 0.207513 0.515510 0.147147
Si Si8 0.271306 0.646641 0.949387
O O1 0.720961 0.066335 0.150511
O O2 0.620218 0.133110 0.318732
O O3 0.500438 0.879213 0.186669
O O4 0.988969 0.934117 0.219738
O O5 0.787968 0.310378 0.805833
O O6 0.810786 0.260408 0.943328
O O7 0.281134 0.753156 0.907398
O O8 0.500000 0.000000 0.000000
O O9 0.000000 0.000000 0.000000
O O10 0.698194 0.658631 0.679840
O O11 0.290299 0.586447 0.581177
O O12 0.679917 0.696737 0.535198
O O13 0.499066 0.405308 0.630407
O O14 0.764710 0.533664 0.778124
O O15 0.999742 0.410914 0.612402
O O16 0.446262 0.438313 0.069196
O O17 0.939562 0.469316 0.099535
#
# Coordination Sequence:
#
# PCOD8003732 Si02
#       8
#     2   2   2   2   2   2   2   2
#     4  12  24  39  62  88 125 160 194 244 306 369
#     4  12  26  43  56  86 124 167 206 245 288 344
#     4  12  22  40  59  87 126 151 188 249 309 350
#     4   9  22  36  65  92 120 150 191 239 316 363
#     4  10  20  37  60  93 117 146 194 255 296 341
#     4   9  20  37  62  94 121 144 187 249 309 357
#     4  12  25  40  65  84 117 164 216 249 276 349
#     4  12  23  42  63  85 116 164 210 251 296 331
#
# _framework density 20.135580000000001
#
# number of rings (size 3 to 8) (size 9 to 14) (size 15 to 20)
#    0.750    0.250    2.500    4.875    3.500    0.000 
#    0.000    0.000    0.000    4.500    0.000    0.000 
#    0.000    0.000    0.000    0.000    0.000    0.000 
#
# Total GULP energy -198431.750366 kJ/mol
# GULP energy per Si atom -12401.984398 kJ/mol
# Density = 2.008975 g / cm^3
# Si number density = 20.135580 Si / 1000 Ang^3
#
#
#
# Elastic Constant Matrix: (Units=GPa)
#
#
# Indices 1 2 3 4 5 6 
#
# 1 108.3217 13.2445 14.8631 -0.8345 -20.7963 2.1768
# 2 13.2445 61.8713 11.4018 11.8730 -9.0910 2.3721
# 3 14.8631 11.4018 92.4002 7.2989 -21.0428 -4.6619
# 4 -0.8345 11.8730 7.2989 17.4681 -3.4055 -1.8376
# 5 -20.7963 -9.0910 -21.0428 -3.4055 28.8734 3.6174
# 6 2.1768 2.3721 -4.6619 -1.8376 3.6174 27.1923
#
#
#
# Elastic Compliance Matrix: (Units=1/GPa)
#
#
# Indices 1 2 3 4 5 6 
#
# 1 0.011027 -0.001718 -0.000087 0.003105 0.007903 -0.001589
# 2 -0.001718 0.019726 -0.000500 -0.012922 0.003461 -0.003003
# 3 -0.000087 -0.000500 0.013241 -0.003362 0.008919 0.000907
# 4 0.003105 -0.012922 -0.003362 0.068692 0.003254 0.004511
# 5 0.007903 0.003461 0.008919 0.003254 0.049015 -0.005706
# 6 -0.001589 -0.003003 0.000907 0.004511 -0.005706 0.038384
#
#
# Mechanical properties :
#
#
# Convention : Reuss Voigt Hill
#
# Bulk Modulus (GPa) = 25.39225 37.95690 31.67457
# Shear Modulus (GPa) = 22.95441 29.57902 26.26671
#
# Velocity S-wave (km/s) = 3.38004 3.83690 3.61569
# Velocity P-wave (km/s) = 5.27929 6.20650 5.76158
#
# Compressibility (1/GPa) = 0.03938210
#
# Stress axis : x y z
#
# Youngs Moduli (GPa) = 90.68723 50.69487 75.52379
#
# Poissons Ratio (x) = 0.08709 0.00660
# Poissons Ratio (y) = 0.15580 0.03779
# Poissons Ratio (z) = 0.00793 0.02537
#
# Static dielectric constant tensor:
#      x y z
#    x 3.757970 -0.011220 -0.096020 
#    y -0.011220 3.589960 -0.078680 
#    z -0.096020 -0.078680 3.520280 
# 
# 
# High freq. dielectric constant tensor:
#      x y z
#    x 1.802190 0.000270 -0.009680 
#    y 0.000270 1.761060 -0.004190 
#    z -0.009680 -0.004190 1.777340 
# 
# From -- ./inp_files/547462.got.cif
#   From: 2010.06.25/outbox.cif.g09.slc.cpg/sg2_274_cif.got.tgz:547462.got - 2010.06.27 13:26:56.
