data_PCOD8003872
_publ_section_title
;
Structure prediction by ZEFSAII (Michael W. Deem and Ramdas Pophale) SiO2 
 PCOD8003872
Probable space group: P -1
;
_chemical_formula_sum "Si O2"
_cell_formula_units_Z 14
_cell_length_a 10.035363
_cell_length_b 11.738364
_cell_length_c 15.342158
_cell_angle_alpha 114.660261
_cell_angle_beta 147.639949
_cell_angle_gamma 50.144802
_cell_volume 707.911401
_symmetry_space_group_name_H-M "P -1"
_symmetry_group_IT_number 2
_symmetry_cell_setting 'triclinic'
loop_
_space_group_symop_operation_xyz
x,y,z
-x,-y,-z
loop_
_atom_site_type_symbol
_atom_site_label
_atom_site_fract_x
_atom_site_fract_y
_atom_site_fract_z
Si Si1 0.590208 0.477315 0.687481
Si Si2 0.896204 0.811549 0.011416
Si Si3 0.845091 0.089750 0.148431
Si Si4 0.623681 0.219581 0.244611
Si Si5 0.066359 0.205418 0.167685
Si Si6 0.270372 0.947349 0.488802
Si Si7 0.300799 0.393530 0.371076
O O1 0.439251 0.616253 0.718220
O O2 0.319263 0.473061 0.493772
O O3 0.766716 0.501101 0.716511
O O4 0.839550 0.316574 0.820329
O O5 0.618573 0.794551 0.841900
O O6 0.041558 0.789084 0.988883
O O7 0.755134 0.982587 0.024430
O O8 0.588625 0.205763 0.116339
O O9 0.848790 0.192236 0.107370
O O10 0.178843 0.981890 0.346451
O O11 0.973719 0.080249 0.424183
O O12 0.039539 0.362863 0.226538
O O13 0.428285 0.054812 0.329496
O O14 0.363800 0.775920 0.510449
#
# Coordination Sequence:
#
# PCOD8003872 Si02
#       7
#     2   2   2   2   2   2   2
#     4  11  20  37  56  85 112 150 181 228 279 336
#     4  12  21  36  59  84 115 148 185 225 279 332
#     4  10  21  38  58  82 114 145 189 228 276 325
#     4  10  21  34  59  86 115 139 186 237 275 314
#     4  10  20  37  62  82 107 152 189 225 273 333
#     4   8  19  37  57  80 109 144 187 233 264 320
#     4   9  20  36  61  79 108 147 192 220 275 332
#
# _framework density 19.776485999999998
#
# number of rings (size 3 to 8) (size 9 to 14) (size 15 to 20)
#    1.714    0.286    2.857    1.714    0.000    2.286 
#    0.000    2.857    0.000    0.000    0.000    0.000 
#    0.000    0.000    0.000    0.000    0.000    0.000 
#
# Total GULP energy -173469.288565 kJ/mol
# GULP energy per Si atom -12390.663469 kJ/mol
# Density = 1.973147 g / cm^3
# Si number density = 19.776486 Si / 1000 Ang^3
#
#
#
# Elastic Constant Matrix: (Units=GPa)
#
#
# Indices 1 2 3 4 5 6 
#
# 1 77.8824 34.1650 14.6319 1.1753 -16.2162 10.8994
# 2 34.1650 100.6380 20.3902 33.8321 -10.6799 -2.7133
# 3 14.6319 20.3902 43.2711 12.6314 -16.5060 0.3955
# 4 1.1753 33.8321 12.6314 30.0056 -1.5289 -11.0840
# 5 -16.2162 -10.6799 -16.5060 -1.5289 22.7289 -1.3071
# 6 10.8994 -2.7133 0.3955 -11.0840 -1.3071 26.4992
#
#
#
# Elastic Compliance Matrix: (Units=1/GPa)
#
#
# Indices 1 2 3 4 5 6 
#
# 1 0.019001 -0.007735 -0.001311 0.007084 0.009149 -0.005173
# 2 -0.007735 0.021275 0.001674 -0.026220 0.003616 -0.005454
# 3 -0.001311 0.001674 0.038311 -0.019057 0.026014 -0.006549
# 4 0.007084 -0.026220 -0.019057 0.080065 -0.014139 0.027478
# 5 0.009149 0.003616 0.026014 -0.014139 0.069805 -0.006252
# 6 -0.005173 -0.005454 -0.006549 0.027478 -0.006252 0.050589
#
#
# Mechanical properties :
#
#
# Convention : Reuss Voigt Hill
#
# Bulk Modulus (GPa) = 15.66376 40.01840 27.84108
# Shear Modulus (GPa) = 15.86938 26.02038 20.94488
#
# Velocity S-wave (km/s) = 2.83580 3.63122 3.25788
# Velocity P-wave (km/s) = 4.31972 6.15307 5.31603
#
# Compressibility (1/GPa) = 0.06384162
#
# Stress axis : x y z
#
# Youngs Moduli (GPa) = 52.62743 47.00437 26.10220
#
# Poissons Ratio (x) = 0.36359 0.03422
# Poissons Ratio (y) = 0.40709 -0.04368
# Poissons Ratio (z) = 0.06900 -0.07866
#
# Static dielectric constant tensor:
#      x y z
#    x 3.240920 0.052560 -0.244640 
#    y 0.052560 3.498590 0.150570 
#    z -0.244640 0.150570 3.377760 
# 
# 
# High freq. dielectric constant tensor:
#      x y z
#    x 1.746510 0.009930 -0.029060 
#    y 0.009930 1.764560 0.014430 
#    z -0.029060 0.014430 1.756920 
# 
# From -- ./inp_files/568130.got.cif
#   From: 2010.06.25/outbox.cif.g09.slc.cpg/sg2_285_cif.got.tgz:568130.got - 2010.06.27 13:26:56.
