data_PCOD8003156
_publ_section_title
;
Structure prediction by ZEFSAII (Michael W. Deem and Ramdas Pophale) SiO2 
 PCOD8003156
Probable space group: P -1
;
_chemical_formula_sum "Si O2"
_cell_formula_units_Z 16
_cell_length_a 12.184556
_cell_length_b 7.574186
_cell_length_c 8.083214
_cell_angle_alpha 107.096940
_cell_angle_beta 69.804237
_cell_angle_gamma 89.412472
_cell_volume 663.968359
_symmetry_space_group_name_H-M "P -1"
_symmetry_group_IT_number 2
_symmetry_cell_setting 'triclinic'
loop_
_space_group_symop_operation_xyz
x,y,z
-x,-y,-z
loop_
_atom_site_type_symbol
_atom_site_label
_atom_site_fract_x
_atom_site_fract_y
_atom_site_fract_z
Si Si1 0.607414 0.749032 0.003903
Si Si2 0.022516 0.826037 0.816189
Si Si3 0.369682 0.661494 0.150991
Si Si4 0.819033 0.750329 0.680020
Si Si5 0.642481 0.841382 0.367644
Si Si6 0.431858 0.664722 0.482648
Si Si7 0.788021 0.479578 0.349876
Si Si8 0.809322 0.062829 0.522669
O O1 0.650727 0.533095 0.974684
O O2 0.683756 0.810089 0.826348
O O3 0.467100 0.770992 0.033763
O O4 0.637069 0.867203 0.180680
O O5 0.096439 0.646838 0.819608
O O6 0.901674 0.754589 0.798835
O O7 0.088722 0.883404 0.632813
O O8 0.000000 0.000000 0.000000
O O9 0.436275 0.605746 0.273258
O O10 0.242125 0.779553 0.275671
O O11 0.823891 0.549254 0.533582
O O12 0.859998 0.886660 0.556310
O O13 0.510045 0.837006 0.511675
O O14 0.732201 0.653786 0.316745
O O15 0.693902 0.021498 0.464453
O O16 0.500000 0.500000 0.500000
O O17 0.297802 0.681960 0.623000
#
# Coordination Sequence:
#
# PCOD8003156 Si02
#       8
#     2   2   2   2   2   2   2   2
#     4  10  20  38  60  91 125 156 203 246 301 360
#     4  12  25  42  62  89 123 159 209 265 300 343
#     4  10  20  36  63  88 125 161 195 252 302 363
#     4  11  23  41  64  86 121 169 204 246 299 368
#     4   9  21  36  62  92 121 156 196 251 304 364
#     4   9  16  33  60  89 115 151 197 236 291 363
#     4  10  20  41  64  86 116 165 208 241 303 371
#     4  11  23  42  60  90 124 160 207 248 308 363
#
# _framework density 24.097532000000001
#
# number of rings (size 3 to 8) (size 9 to 14) (size 15 to 20)
#    0.000    1.750    2.500    1.500    0.000    3.500 
#    2.250    6.875    0.000    0.000    0.000    0.000 
#    0.000    0.000    0.000    0.000    0.000    0.000 
#
# Total GULP energy -198242.127755 kJ/mol
# GULP energy per Si atom -12390.132985 kJ/mol
# Density = 2.404269 g / cm^3
# Si number density = 24.097532 Si / 1000 Ang^3
#
#
#
# Elastic Constant Matrix: (Units=GPa)
#
#
# Indices 1 2 3 4 5 6 
#
# 1 78.7734 2.5929 12.4810 6.6619 -3.9224 11.8351
# 2 2.5929 55.5064 7.1438 -2.2782 -8.1501 10.5782
# 3 12.4810 7.1438 88.5228 12.4779 -22.0641 -0.5772
# 4 6.6619 -2.2782 12.4779 38.4648 6.8428 -3.1412
# 5 -3.9224 -8.1501 -22.0641 6.8428 38.2724 0.8130
# 6 11.8351 10.5782 -0.5772 -3.1412 0.8130 22.8444
#
#
#
# Elastic Compliance Matrix: (Units=1/GPa)
#
#
# Indices 1 2 3 4 5 6 
#
# 1 0.014499 0.001262 -0.001358 -0.002999 0.001691 -0.008603
# 2 0.001262 0.020676 -0.000770 -0.000377 0.004378 -0.010455
# 3 -0.001358 -0.000770 0.014751 -0.006232 0.009309 0.000245
# 4 -0.002999 -0.000377 -0.006232 0.030726 -0.009604 0.006137
# 5 0.001691 0.004378 0.009309 -0.009604 0.034429 -0.005214
# 6 -0.008603 -0.010455 0.000245 0.006137 -0.005214 0.054108
#
#
# Mechanical properties :
#
#
# Convention : Reuss Voigt Hill
#
# Bulk Modulus (GPa) = 20.75020 29.69309 25.22165
# Shear Modulus (GPa) = 26.74013 33.28863 30.01438
#
# Velocity S-wave (km/s) = 3.33477 3.72077 3.53305
# Velocity P-wave (km/s) = 4.84327 5.55046 5.20888
#
# Compressibility (1/GPa) = 0.04819231
#
# Stress axis : x y z
#
# Youngs Moduli (GPa) = 68.97231 48.36542 67.79431
#
# Poissons Ratio (x) = -0.06104 0.09206
# Poissons Ratio (y) = -0.08705 0.05224
# Poissons Ratio (z) = 0.09366 0.03727
#
# Static dielectric constant tensor:
#      x y z
#    x 6.242320 0.966990 -0.187940 
#    y 0.966990 3.558540 -0.924080 
#    z -0.187940 -0.924080 3.451620 
# 
# 
# High freq. dielectric constant tensor:
#      x y z
#    x 1.952300 0.012040 -0.009710 
#    y 0.012040 1.958010 0.007960 
#    z -0.009710 0.007960 1.939830 
# 
# From -- ./inp_files/245345.got.cif
#   From: 2010.06.25/outbox.cif.g09.slc.cpg/sg2_123_cif.got.tgz:245345.got - 2010.06.27 13:26:56.
