data_PCOD8003208
_publ_section_title
;
Structure prediction by ZEFSAII (Michael W. Deem and Ramdas Pophale) SiO2 
 PCOD8003208
Probable space group: P -1
;
_chemical_formula_sum "Si O2"
_cell_formula_units_Z 16
_cell_length_a 8.667900
_cell_length_b 14.991315
_cell_length_c 9.532799
_cell_angle_alpha 68.506221
_cell_angle_beta 117.669193
_cell_angle_gamma 142.336667
_cell_volume 670.328566
_symmetry_space_group_name_H-M "P -1"
_symmetry_group_IT_number 2
_symmetry_cell_setting 'triclinic'
loop_
_space_group_symop_operation_xyz
x,y,z
-x,-y,-z
loop_
_atom_site_type_symbol
_atom_site_label
_atom_site_fract_x
_atom_site_fract_y
_atom_site_fract_z
Si Si1 0.842175 0.006829 0.834298
Si Si2 0.176555 0.439679 0.219005
Si Si3 0.040058 0.419457 0.479011
Si Si4 0.249767 0.310853 0.715331
Si Si5 0.620257 0.169664 0.050554
Si Si6 0.224813 0.241095 0.428754
Si Si7 0.319433 0.018540 0.751750
Si Si8 0.525346 0.829257 0.543942
O O1 0.035057 0.179754 0.808998
O O2 0.559163 0.904714 0.844789
O O3 0.778435 0.944525 0.686629
O O4 0.000000 0.000000 0.000000
O O5 0.167381 0.485810 0.341191
O O6 0.443897 0.586905 0.166932
O O7 0.226530 0.347201 0.305854
O O8 0.896589 0.345308 0.076933
O O9 0.212530 0.410525 0.637548
O O10 0.000000 0.500000 0.500000
O O11 0.738085 0.255995 0.429471
O O12 0.205055 0.241833 0.586629
O O13 0.702765 0.093545 0.119343
O O14 0.460435 0.141756 0.861722
O O15 0.475621 0.280095 0.461294
O O16 0.978969 0.075757 0.360347
O O17 0.479368 0.095359 0.629078
#
# Coordination Sequence:
#
# PCOD8003208 Si02
#       8
#     2   2   2   2   2   2   2   2
#     4  12  26  42  65  99 140 175 226 286 333 384
#     4  10  21  42  66  95 137 178 213 276 343 407
#     4  11  22  40  67 102 134 169 227 281 333 399
#     4  11  23  41  67  97 137 181 221 271 340 402
#     4  10  22  42  62  98 136 176 220 279 336 395
#     4  10  20  36  64 100 131 170 224 273 331 401
#     4  10  21  37  67  95 132 178 225 270 334 404
#     4  12  22  38  67 100 131 171 229 280 328 398
#
# _framework density 23.86889
#
# number of rings (size 3 to 8) (size 9 to 14) (size 15 to 20)
#    0.000    1.250    2.500    4.875    1.750    1.000 
#    0.000    1.875    0.000   12.000    0.000    0.000 
#    0.000    0.000    0.000    0.000    0.000    0.000 
#
# Total GULP energy -198211.459314 kJ/mol
# GULP energy per Si atom -12388.216207 kJ/mol
# Density = 2.381456 g / cm^3
# Si number density = 23.868890 Si / 1000 Ang^3
#
#
#
# Elastic Constant Matrix: (Units=GPa)
#
#
# Indices 1 2 3 4 5 6 
#
# 1 105.0026 41.1703 18.6875 16.1495 -1.7947 21.4172
# 2 41.1703 88.7226 37.5902 26.6982 -6.9134 25.2262
# 3 18.6875 37.5902 107.9181 17.5489 -5.6629 -0.1409
# 4 16.1495 26.6982 17.5489 25.8572 7.2436 0.9862
# 5 -1.7947 -6.9134 -5.6629 7.2436 15.7487 1.5095
# 6 21.4172 25.2262 -0.1409 0.9862 1.5095 39.8522
#
#
#
# Elastic Compliance Matrix: (Units=1/GPa)
#
#
# Indices 1 2 3 4 5 6 
#
# 1 0.012516 -0.001680 -0.000238 -0.006918 0.004327 -0.005656
# 2 -0.001680 0.034831 -0.003231 -0.041766 0.035204 -0.021456
# 3 -0.000238 -0.003231 0.011695 -0.006028 0.005325 0.002161
# 4 -0.006918 -0.041766 -0.006028 0.110007 -0.074787 0.030244
# 5 0.004327 0.035204 0.005325 -0.074787 0.118367 -0.027223
# 6 -0.005656 -0.021456 0.002161 0.030244 -0.027223 0.042005
#
#
# Mechanical properties :
#
#
# Convention : Reuss Voigt Hill
#
# Bulk Modulus (GPa) = 20.51448 55.17104 37.84276
# Shear Modulus (GPa) = 14.04625 29.90462 21.97543
#
# Velocity S-wave (km/s) = 2.42848 3.54343 3.03755
# Velocity P-wave (km/s) = 4.05915 6.31709 5.30953
#
# Compressibility (1/GPa) = 0.04874605
#
# Stress axis : x y z
#
# Youngs Moduli (GPa) = 79.89585 28.70972 85.50567
#
# Poissons Ratio (x) = 0.04824 0.02031
# Poissons Ratio (y) = 0.13425 0.27623
# Poissons Ratio (z) = 0.01898 0.09275
#
# Static dielectric constant tensor:
#      x y z
#    x -28.032550 2.885600 9.872330 
#    y 2.885600 4.498040 -0.406020 
#    z 9.872330 -0.406020 1.310530 
# 
# 
# High freq. dielectric constant tensor:
#      x y z
#    x 1.949330 0.018470 0.010270 
#    y 0.018470 1.955260 0.017270 
#    z 0.010270 0.017270 1.923310 
# 
# From -- ./inp_files/207101.got.cif
#   From: 2010.06.25/outbox.cif.g09.slc.cpg/sg2_104_cif.got.tgz:207101.got - 2010.06.27 13:26:56.
