data_PCOD8003055
_publ_section_title
;
Structure prediction by ZEFSAII (Michael W. Deem and Ramdas Pophale) SiO2 
 PCOD8003055
Probable space group: P -1
;
_chemical_formula_sum "Si O2"
_cell_formula_units_Z 16
_cell_length_a 8.677071
_cell_length_b 19.759096
_cell_length_c 13.288027
_cell_angle_alpha 22.090454
_cell_angle_beta 80.097752
_cell_angle_gamma 86.459638
_cell_volume 814.204264
_symmetry_space_group_name_H-M "P -1"
_symmetry_group_IT_number 2
_symmetry_cell_setting 'triclinic'
loop_
_space_group_symop_operation_xyz
x,y,z
-x,-y,-z
loop_
_atom_site_type_symbol
_atom_site_label
_atom_site_fract_x
_atom_site_fract_y
_atom_site_fract_z
Si Si1 0.709507 0.074033 0.963339
Si Si2 0.958103 0.694343 0.733049
Si Si3 0.486759 0.295691 0.600822
Si Si4 0.776640 0.596870 0.080139
Si Si5 0.110955 0.789236 0.049562
Si Si6 0.990739 0.317156 0.477408
Si Si7 0.933948 0.941352 0.696425
Si Si8 0.808887 0.573139 0.503144
O O1 0.605512 0.865724 0.241919
O O2 0.151121 0.863656 0.223449
O O3 0.595153 0.216561 0.776864
O O4 0.789030 0.077880 0.058533
O O5 0.807877 0.680472 0.847073
O O6 0.926352 0.729083 0.571264
O O7 0.106519 0.874741 0.502479
O O8 0.000000 0.500000 0.000000
O O9 0.598878 0.457795 0.295990
O O10 0.361591 0.379508 0.562149
O O11 0.916455 0.494234 0.231499
O O12 0.787877 0.755652 0.947739
O O13 0.214576 0.647570 0.199601
O O14 0.933689 0.677579 0.261464
O O15 0.080609 0.907473 0.794975
O O16 0.132320 0.360655 0.482928
O O17 0.000000 0.000000 0.500000
#
# Coordination Sequence:
#
# PCOD8003055 Si02
#       8
#     2   2   2   2   2   2   2   2
#     4   9  21  37  55  84 122 150 189 239 287 345
#     4   9  19  33  59  86 106 147 196 238 281 328
#     4  10  21  37  55  83 124 155 181 235 297 347
#     4   9  18  38  55  81 116 150 186 236 287 337
#     4  10  21  38  58  87 113 150 199 241 282 332
#     4   9  17  34  57  83 113 142 197 244 271 333
#     4  10  20  36  62  84 111 147 197 243 277 331
#     4  10  21  34  58  86 116 152 190 241 287 340
#
# _framework density 19.651088999999999
#
# number of rings (size 3 to 8) (size 9 to 14) (size 15 to 20)
#    0.000    2.500    1.250    0.000    5.250    1.500 
#    0.000    0.625    0.000    3.000    0.000    0.000 
#    0.000    0.000    0.000    0.000    0.000    0.000 
#
# Total GULP energy -198243.366259 kJ/mol
# GULP energy per Si atom -12390.210391 kJ/mol
# Density = 1.960636 g / cm^3
# Si number density = 19.651089 Si / 1000 Ang^3
#
#
#
# Elastic Constant Matrix: (Units=GPa)
#
#
# Indices 1 2 3 4 5 6 
#
# 1 73.2249 31.7538 39.5538 5.4509 0.7736 -4.4259
# 2 31.7538 108.6028 54.9831 2.7818 -1.6029 11.8882
# 3 39.5538 54.9831 107.2843 -11.8177 -14.3408 9.3087
# 4 5.4509 2.7818 -11.8177 35.3602 7.5862 6.6339
# 5 0.7736 -1.6029 -14.3408 7.5862 30.9689 -5.9214
# 6 -4.4259 11.8882 9.3087 6.6339 -5.9214 27.7489
#
#
#
# Elastic Compliance Matrix: (Units=1/GPa)
#
#
# Indices 1 2 3 4 5 6 
#
# 1 0.019926 -0.002778 -0.007502 -0.006730 -0.000879 0.008306
# 2 -0.002778 0.013548 -0.006012 -0.001258 -0.002561 -0.004476
# 3 -0.007502 -0.006012 0.017069 0.007181 0.005069 -0.004982
# 4 -0.006730 -0.001258 0.007181 0.036001 -0.007922 -0.013241
# 5 -0.000879 -0.002561 0.005069 -0.007922 0.038248 0.009312
# 6 0.008306 -0.004476 -0.004982 -0.013241 0.009312 0.046104
#
#
# Mechanical properties :
#
#
# Convention : Reuss Voigt Hill
#
# Bulk Modulus (GPa) = 55.68110 60.18816 57.93463
# Shear Modulus (GPa) = 23.87025 29.67035 26.77030
#
# Velocity S-wave (km/s) = 3.48904 3.88990 3.69491
# Velocity P-wave (km/s) = 6.68039 7.13232 6.91005
#
# Compressibility (1/GPa) = 0.01795942
#
# Stress axis : x y z
#
# Youngs Moduli (GPa) = 50.18580 73.81144 58.58601
#
# Poissons Ratio (x) = 0.20502 0.43953
# Poissons Ratio (y) = 0.13940 0.35221
# Poissons Ratio (z) = 0.37651 0.44374
#
# Static dielectric constant tensor:
#      x y z
#    x 3.318400 0.183960 -0.111080 
#    y 0.183960 4.035670 -0.262210 
#    z -0.111080 -0.262210 4.101990 
# 
# 
# High freq. dielectric constant tensor:
#      x y z
#    x 1.720440 0.015270 -0.000980 
#    y 0.015270 1.771650 -0.010470 
#    z -0.000980 -0.010470 1.781720 
# 
# From -- ./inp_files/507805.got.cif
#   From: 2010.06.25/outbox.cif.g09.slc.cpg/sg2_254_cif.got.tgz:507805.got - 2010.06.27 13:26:56.
