data_PCOD8003895
_publ_section_title
;
Structure prediction by ZEFSAII (Michael W. Deem and Ramdas Pophale) SiO2 
 PCOD8003895
Probable space group: P -1
;
_chemical_formula_sum "Si O2"
_cell_formula_units_Z 16
_cell_length_a 8.359078
_cell_length_b 15.685151
_cell_length_c 8.735587
_cell_angle_alpha 102.998330
_cell_angle_beta 123.879223
_cell_angle_gamma 110.409714
_cell_volume 750.711592
_symmetry_space_group_name_H-M "P -1"
_symmetry_group_IT_number 2
_symmetry_cell_setting 'triclinic'
loop_
_space_group_symop_operation_xyz
x,y,z
-x,-y,-z
loop_
_atom_site_type_symbol
_atom_site_label
_atom_site_fract_x
_atom_site_fract_y
_atom_site_fract_z
Si Si1 0.032831 0.734265 0.838952
Si Si2 0.722767 0.755098 0.917087
Si Si3 0.846872 0.069967 0.608843
Si Si4 0.530619 0.610756 0.045744
Si Si5 0.421869 0.845917 0.336814
Si Si6 0.294792 0.702352 0.483653
Si Si7 0.000968 0.223829 0.495542
Si Si8 0.984628 0.467524 0.303187
O O1 0.076329 0.798603 0.731014
O O2 0.936646 0.611924 0.701244
O O3 0.834218 0.730892 0.827851
O O4 0.283996 0.795789 0.084475
O O5 0.505726 0.755762 0.742052
O O6 0.637828 0.661162 0.956708
O O7 0.911792 0.872867 0.140138
O O8 0.686242 0.103569 0.605393
O O9 0.905532 0.109936 0.479809
O O10 0.699279 0.939947 0.484284
O O11 0.712139 0.694697 0.305371
O O12 0.500000 0.500000 0.000000
O O13 0.280018 0.591937 0.928226
O O14 0.400286 0.754483 0.394578
O O15 0.100058 0.718776 0.445851
O O16 0.168987 0.574660 0.347090
O O17 0.000000 0.500000 0.500000
#
# Coordination Sequence:
#
# PCOD8003895 Si02
#       8
#     2   2   2   2   2   2   2   2
#     4  11  23  38  57  90 124 147 197 243 285 338
#     4  10  22  37  60  90 118 149 198 243 283 345
#     4   8  18  39  62  82 115 155 193 237 297 345
#     4  11  20  38  62  81 115 160 196 229 288 352
#     4   9  20  38  59  86 116 151 196 246 286 338
#     4  11  21  39  60  85 120 161 194 229 292 352
#     4  10  20  37  62  87 115 156 195 234 289 353
#     4  12  22  39  60  85 120 160 191 232 288 352
#
# _framework density 21.313110999999999
#
# number of rings (size 3 to 8) (size 9 to 14) (size 15 to 20)
#    0.000    1.750    3.750    0.750    0.000    3.000 
#    0.000    0.000    0.000    7.500    0.000    0.000 
#    0.000    0.000    0.000    0.000    0.000    0.000 
#
# Total GULP energy -198432.663189 kJ/mol
# GULP energy per Si atom -12402.041449 kJ/mol
# Density = 2.126460 g / cm^3
# Si number density = 21.313111 Si / 1000 Ang^3
#
#
#
# Elastic Constant Matrix: (Units=GPa)
#
#
# Indices 1 2 3 4 5 6 
#
# 1 38.4416 32.5839 34.3248 -0.3907 2.1277 11.8522
# 2 32.5839 130.1412 71.2134 2.0743 -1.0672 44.2963
# 3 34.3248 71.2134 144.2311 -10.7511 12.5250 29.8619
# 4 -0.3907 2.0743 -10.7511 37.0389 6.2271 2.7301
# 5 2.1277 -1.0672 12.5250 6.2271 39.1187 -2.9299
# 6 11.8522 44.2963 29.8619 2.7301 -2.9299 31.7487
#
#
#
# Elastic Compliance Matrix: (Units=1/GPa)
#
#
# Indices 1 2 3 4 5 6 
#
# 1 0.036139 -0.006006 -0.005783 -0.000975 -0.000092 0.000404
# 2 -0.006006 0.017473 -0.003413 -0.000748 0.000607 -0.018807
# 3 -0.005783 -0.003413 0.011787 0.004707 -0.004677 -0.005003
# 4 -0.000975 -0.000748 0.004707 0.029983 -0.006713 -0.006216
# 5 -0.000092 0.000607 -0.004677 -0.006713 0.028661 0.006809
# 6 0.000404 -0.018807 -0.005003 -0.006216 0.006809 0.063455
#
#
# Mechanical properties :
#
#
# Convention : Reuss Voigt Hill
#
# Bulk Modulus (GPa) = 28.57514 65.45088 47.01301
# Shear Modulus (GPa) = 21.78004 33.22737 27.50371
#
# Velocity S-wave (km/s) = 3.20020 3.95271 3.59619
# Velocity P-wave (km/s) = 5.20494 7.18386 6.27293
#
# Compressibility (1/GPa) = 0.03499546
#
# Stress axis : x y z
#
# Youngs Moduli (GPa) = 27.67075 57.23002 84.83679
#
# Poissons Ratio (x) = 0.34374 0.49064
# Poissons Ratio (y) = 0.16620 0.28952
# Poissons Ratio (z) = 0.16003 0.19530
#
# Static dielectric constant tensor:
#      x y z
#    x 3.618570 0.299860 0.256340 
#    y 0.299860 4.130550 -0.027750 
#    z 0.256340 -0.027750 3.992660 
# 
# 
# High freq. dielectric constant tensor:
#      x y z
#    x 1.815630 0.017110 0.013760 
#    y 0.017110 1.838800 -0.007480 
#    z 0.013760 -0.007480 1.840990 
# 
# From -- ./inp_files/178210.got.cif
#   From: 2010.06.25/outbox.cif.g09.slc.cpg/sg2_90_cif.got.tgz:178210.got - 2010.06.27 13:26:56.
