data_PCOD8003145
_publ_section_title
;
Structure prediction by ZEFSAII (Michael W. Deem and Ramdas Pophale) SiO2 
 PCOD8003145
Probable space group: P -1
;
_chemical_formula_sum "Si O2"
_cell_formula_units_Z 16
_cell_length_a 15.446340
_cell_length_b 10.033482
_cell_length_c 11.149345
_cell_angle_alpha 65.631494
_cell_angle_beta 40.714463
_cell_angle_gamma 46.511592
_cell_volume 795.734471
_symmetry_space_group_name_H-M "P -1"
_symmetry_group_IT_number 2
_symmetry_cell_setting 'triclinic'
loop_
_space_group_symop_operation_xyz
x,y,z
-x,-y,-z
loop_
_atom_site_type_symbol
_atom_site_label
_atom_site_fract_x
_atom_site_fract_y
_atom_site_fract_z
Si Si1 0.957356 0.685054 0.422692
Si Si2 0.748341 0.497990 0.002739
Si Si3 0.067625 0.113887 0.389383
Si Si4 0.634477 0.049791 0.552522
Si Si5 0.163442 0.831256 0.818915
Si Si6 0.558922 0.125034 0.871766
Si Si7 0.253221 0.302919 0.842198
Si Si8 0.954639 0.309619 0.194487
O O1 0.085543 0.639969 0.200688
O O2 0.000000 0.500000 0.500000
O O3 0.967390 0.795630 0.477058
O O4 0.767758 0.821733 0.510838
O O5 0.723730 0.363470 0.150480
O O6 0.590978 0.653175 0.021465
O O7 0.771659 0.616330 0.026915
O O8 0.967243 0.276241 0.335275
O O9 0.269756 0.970869 0.195183
O O10 0.000000 0.000000 0.500000
O O11 0.711490 0.122159 0.360410
O O12 0.601862 0.137358 0.685537
O O13 0.449788 0.123942 0.670024
O O14 0.094608 0.804997 0.779115
O O15 0.000000 0.000000 0.000000
O O16 0.500000 0.000000 0.000000
O O17 0.192056 0.466647 0.750571
O O18 0.135749 0.240981 0.975814
#
# Coordination Sequence:
#
# PCOD8003145 Si02
#       8
#     2   2   2   2   2   2   2   2
#     4  11  21  36  62  89 120 159 201 248 294 361
#     4  10  20  36  63  86 118 152 206 241 298 345
#     4  11  23  37  60  87 124 158 194 243 302 362
#     4  10  20  37  61  90 115 153 210 238 294 356
#     4  11  22  38  62  86 117 158 196 256 297 350
#     4  10  20  37  62  91 118 160 203 244 288 366
#     4   9  20  37  63  88 110 154 197 252 284 355
#     4  10  20  37  60  84 121 152 197 238 306 348
#
# _framework density 20.107209999999998
#
# number of rings (size 3 to 8) (size 9 to 14) (size 15 to 20)
#    0.000    1.750    1.250    5.250    0.000    5.500 
#    0.000    1.250    5.500    0.000    0.000    0.000 
#    0.000    0.000    0.000    0.000    0.000    0.000 
#
# Total GULP energy -198341.825701 kJ/mol
# GULP energy per Si atom -12396.364106 kJ/mol
# Density = 2.006145 g / cm^3
# Si number density = 20.107210 Si / 1000 Ang^3
#
#
#
# Elastic Constant Matrix: (Units=GPa)
#
#
# Indices 1 2 3 4 5 6 
#
# 1 70.3565 41.2263 34.8770 5.8507 -16.1618 -21.5631
# 2 41.2263 128.9577 48.0032 3.0060 -17.8169 -27.5077
# 3 34.8770 48.0032 108.9253 6.3327 -16.6240 -15.5448
# 4 5.8507 3.0060 6.3327 39.5438 -3.7811 -5.1677
# 5 -16.1618 -17.8169 -16.6240 -3.7811 32.8767 -2.4152
# 6 -21.5631 -27.5077 -15.5448 -5.1677 -2.4152 35.6188
#
#
#
# Elastic Compliance Matrix: (Units=1/GPa)
#
#
# Indices 1 2 3 4 5 6 
#
# 1 0.022719 -0.002470 -0.003228 -0.000363 0.008964 0.010993
# 2 -0.002470 0.011566 -0.002767 0.001214 0.004286 0.006697
# 3 -0.003228 -0.002767 0.012130 -0.000794 0.003051 0.001294
# 4 -0.000363 0.001214 -0.000794 0.026282 0.003425 0.004417
# 5 0.008964 0.004286 0.003051 0.003425 0.040058 0.013281
# 6 0.010993 0.006697 0.001294 0.004417 0.013281 0.042008
#
#
# Mechanical properties :
#
#
# Convention : Reuss Voigt Hill
#
# Bulk Modulus (GPa) = 33.91495 61.82805 47.87150
# Shear Modulus (GPa) = 27.54481 33.88337 30.71409
#
# Velocity S-wave (km/s) = 3.70523 4.10949 3.91259
# Velocity P-wave (km/s) = 5.93369 7.30296 6.65364
#
# Compressibility (1/GPa) = 0.02948552
#
# Stress axis : x y z
#
# Youngs Moduli (GPa) = 44.01586 86.45702 82.43866
#
# Poissons Ratio (x) = 0.21352 0.26613
# Poissons Ratio (y) = 0.10870 0.22813
# Poissons Ratio (z) = 0.14209 0.23925
#
# Static dielectric constant tensor:
#      x y z
#    x 3.688290 -0.436470 -0.250400 
#    y -0.436470 3.901760 0.068980 
#    z -0.250400 0.068980 3.492170 
# 
# 
# High freq. dielectric constant tensor:
#      x y z
#    x 1.762110 -0.030590 -0.006900 
#    y -0.030590 1.795440 -0.006210 
#    z -0.006900 -0.006210 1.786640 
# 
# From -- ./inp_files/181330.got.cif
#   From: 2010.06.25/outbox.cif.g09.slc.cpg/sg2_91_cif.got.tgz:181330.got - 2010.06.27 13:26:56.
