data_PCOD8003591
_publ_section_title
;
Structure prediction by ZEFSAII (Michael W. Deem and Ramdas Pophale) SiO2 
 PCOD8003591
Probable space group: P -1
;
_chemical_formula_sum "Si O2"
_cell_formula_units_Z 16
_cell_length_a 18.401734
_cell_length_b 15.050446
_cell_length_c 11.588442
_cell_angle_alpha 30.525973
_cell_angle_beta 48.356542
_cell_angle_gamma 29.055817
_cell_volume 739.015926
_symmetry_space_group_name_H-M "P -1"
_symmetry_group_IT_number 2
_symmetry_cell_setting 'triclinic'
loop_
_space_group_symop_operation_xyz
x,y,z
-x,-y,-z
loop_
_atom_site_type_symbol
_atom_site_label
_atom_site_fract_x
_atom_site_fract_y
_atom_site_fract_z
Si Si1 0.605664 0.408271 0.147843
Si Si2 0.261104 0.121653 0.296828
Si Si3 0.568575 0.774725 0.927734
Si Si4 0.606885 0.173415 0.756062
Si Si5 0.743180 0.637103 0.483896
Si Si6 0.704956 0.311501 0.897294
Si Si7 0.982481 0.334420 0.752057
Si Si8 0.924526 0.658478 0.123292
O O1 0.635407 0.440323 0.954126
O O2 0.703754 0.088184 0.418483
O O3 0.657692 0.478159 0.110230
O O4 0.414950 0.639500 0.105198
O O5 0.314943 0.228031 0.177212
O O6 0.068092 0.406095 0.165224
O O7 0.355895 0.952287 0.268893
O O8 0.426238 0.022607 0.710691
O O9 0.493418 0.832636 0.066128
O O10 0.500000 0.500000 0.500000
O O11 0.777551 0.965208 0.871439
O O12 0.812748 0.510325 0.682990
O O13 0.865839 0.565293 0.352133
O O14 0.714967 0.485399 0.629240
O O15 0.879751 0.982166 0.091702
O O16 0.000000 0.500000 0.500000
O O17 0.997282 0.317456 0.893864
#
# Coordination Sequence:
#
# PCOD8003591 Si02
#       8
#     2   2   2   2   2   2   2   2
#     4  11  23  39  64  97 138 169 227 268 329 383
#     4  12  24  44  69  99 134 171 225 281 332 387
#     4  11  24  43  69  99 131 180 221 271 338 402
#     4  11  23  46  74  94 131 177 223 281 339 393
#     4  10  21  40  64  94 135 183 217 262 331 400
#     4  11  22  38  60  98 133 183 220 273 313 406
#     4  10  20  37  59  88 136 173 216 255 334 382
#     4  10  24  42  68  98 135 173 221 279 330 394
#
# _framework density 21.650414000000001
#
# number of rings (size 3 to 8) (size 9 to 14) (size 15 to 20)
#    0.000    1.250    2.500    4.875    1.750    1.500 
#    0.000    0.625    0.000    0.000    0.000    0.000 
#    0.000    0.000    0.000    0.000    0.000    0.000 
#
# Total GULP energy -198372.899712 kJ/mol
# GULP energy per Si atom -12398.306232 kJ/mol
# Density = 2.160114 g / cm^3
# Si number density = 21.650414 Si / 1000 Ang^3
#
#
#
# Elastic Constant Matrix: (Units=GPa)
#
#
# Indices 1 2 3 4 5 6 
#
# 1 108.3925 34.7360 46.7290 1.4274 -13.8952 -1.0347
# 2 34.7360 87.3640 37.2150 -12.9840 -7.2504 -3.6245
# 3 46.7290 37.2150 119.5564 -15.7618 -5.2248 -15.0708
# 4 1.4274 -12.9840 -15.7618 20.3224 -3.7836 1.9167
# 5 -13.8952 -7.2504 -5.2248 -3.7836 40.9269 -2.5403
# 6 -1.0347 -3.6245 -15.0708 1.9167 -2.5403 29.2986
#
#
#
# Elastic Compliance Matrix: (Units=1/GPa)
#
#
# Indices 1 2 3 4 5 6 
#
# 1 0.012943 -0.003946 -0.004829 -0.006560 0.002355 -0.001882
# 2 -0.003946 0.015340 -0.001925 0.008920 0.001979 0.000356
# 3 -0.004829 -0.001925 0.012731 0.008598 0.000790 0.005646
# 4 -0.006560 0.008920 0.008598 0.063061 0.006387 0.001723
# 5 0.002355 0.001979 0.000790 0.006387 0.026437 0.002609
# 6 -0.001882 0.000356 0.005646 0.001723 0.002609 0.037127
#
#
# Mechanical properties :
#
#
# Convention : Reuss Voigt Hill
#
# Bulk Modulus (GPa) = 50.99044 61.40809 56.19927
# Shear Modulus (GPa) = 25.56522 31.21844 28.39183
#
# Velocity S-wave (km/s) = 3.44003 3.80140 3.62522
# Velocity P-wave (km/s) = 6.27545 6.90598 6.59825
#
# Compressibility (1/GPa) = 0.01961152
#
# Stress axis : x y z
#
# Youngs Moduli (GPa) = 77.26298 65.18825 78.54940
#
# Poissons Ratio (x) = 0.25726 0.37935
# Poissons Ratio (y) = 0.30491 0.15123
# Poissons Ratio (z) = 0.37314 0.12551
#
# Static dielectric constant tensor:
#      x y z
#    x 4.323420 -0.143640 0.066630 
#    y -0.143640 3.790090 -0.015140 
#    z 0.066630 -0.015140 3.883330 
# 
# 
# High freq. dielectric constant tensor:
#      x y z
#    x 1.846140 -0.006530 -0.003070 
#    y -0.006530 1.844340 -0.007380 
#    z -0.003070 -0.007380 1.852820 
# 
# From -- ./inp_files/187932.got.cif
#   From: 2010.06.25/outbox.cif.g09.slc.cpg/sg2_94_cif.got.tgz:187932.got - 2010.06.27 13:26:56.
