data_PCOD8003606
_publ_section_title
;
Structure prediction by ZEFSAII (Michael W. Deem and Ramdas Pophale) SiO2 
 PCOD8003606
Probable space group: P -1
;
_chemical_formula_sum "Si O2"
_cell_formula_units_Z 16
_cell_length_a 12.084045
_cell_length_b 16.733316
_cell_length_c 5.169883
_cell_angle_alpha 50.190930
_cell_angle_beta 72.641426
_cell_angle_gamma 59.389301
_cell_volume 690.532322
_symmetry_space_group_name_H-M "P -1"
_symmetry_group_IT_number 2
_symmetry_cell_setting 'triclinic'
loop_
_space_group_symop_operation_xyz
x,y,z
-x,-y,-z
loop_
_atom_site_type_symbol
_atom_site_label
_atom_site_fract_x
_atom_site_fract_y
_atom_site_fract_z
Si Si1 0.280563 0.734068 0.077879
Si Si2 0.378972 0.093030 0.152545
Si Si3 0.372318 0.298506 0.465100
Si Si4 0.445213 0.856258 0.717233
Si Si5 0.576216 0.371397 0.314515
Si Si6 0.856781 0.538377 0.430259
Si Si7 0.960844 0.288951 0.757953
Si Si8 0.129220 0.250830 0.224115
O O1 0.351573 0.634857 0.451483
O O2 0.126067 0.778855 0.099275
O O3 0.316666 0.840020 0.899690
O O4 0.320076 0.694021 0.841178
O O5 0.508162 0.095488 0.172127
O O6 0.258715 0.132085 0.356322
O O7 0.411121 0.962133 0.309189
O O8 0.335780 0.191314 0.759134
O O9 0.441576 0.268005 0.199388
O O10 0.478934 0.311191 0.552822
O O11 0.241904 0.417026 0.347179
O O12 0.500000 0.500000 0.000000
O O13 0.856359 0.425096 0.533137
O O14 0.000000 0.500000 0.500000
O O15 0.825215 0.645006 0.034081
O O16 0.069653 0.254781 0.537021
O O17 0.027409 0.260150 0.051778
#
# Coordination Sequence:
#
# PCOD8003606 Si02
#       8
#     2   2   2   2   2   2   2   2
#     4  11  23  41  61  89 127 162 211 250 313 373
#     4  10  21  40  63  92 121 159 215 265 322 361
#     4  10  20  37  59  90 126 156 207 255 308 371
#     4  10  22  39  65  91 121 165 205 271 318 366
#     4  11  22  38  58  91 124 167 201 252 306 372
#     4   9  20  36  58  88 121 163 204 243 302 363
#     4  11  22  42  60  90 126 171 201 253 304 371
#     4  10  23  39  63  89 122 163 213 255 303 365
#
# _framework density 23.170531
#
# number of rings (size 3 to 8) (size 9 to 14) (size 15 to 20)
#    0.000    1.750    1.250    2.625    5.250    1.000 
#    4.500    1.250    0.000    0.000    0.000    0.000 
#    0.000    0.000    0.000    0.000    0.000    0.000 
#
# Total GULP energy -198214.885419 kJ/mol
# GULP energy per Si atom -12388.430339 kJ/mol
# Density = 2.311779 g / cm^3
# Si number density = 23.170531 Si / 1000 Ang^3
#
#
#
# Elastic Constant Matrix: (Units=GPa)
#
#
# Indices 1 2 3 4 5 6 
#
# 1 110.8342 25.3948 18.8313 -3.6987 -15.7860 7.7081
# 2 25.3948 97.6622 10.5500 6.6213 -12.3211 -10.6654
# 3 18.8313 10.5500 57.2425 5.2313 -11.3425 5.9500
# 4 -3.6987 6.6213 5.2313 31.0293 4.1321 -1.2826
# 5 -15.7860 -12.3211 -11.3425 4.1321 33.4865 2.1383
# 6 7.7081 -10.6654 5.9500 -1.2826 2.1383 28.1569
#
#
#
# Elastic Compliance Matrix: (Units=1/GPa)
#
#
# Indices 1 2 3 4 5 6 
#
# 1 0.010793 -0.002655 -0.002146 0.001607 0.003422 -0.003694
# 2 -0.002655 0.012177 -0.001075 -0.002903 0.002890 0.005215
# 3 -0.002146 -0.001075 0.020570 -0.004552 0.006432 -0.004862
# 4 0.001607 -0.002903 -0.004552 0.034696 -0.006228 0.001476
# 5 0.003422 0.002890 0.006432 -0.006228 0.035755 -0.004200
# 6 -0.003694 0.005215 -0.004862 0.001476 -0.004200 0.039915
#
#
# Mechanical properties :
#
#
# Convention : Reuss Voigt Hill
#
# Bulk Modulus (GPa) = 31.45945 41.69902 36.57924
# Shear Modulus (GPa) = 28.36805 32.59871 30.48338
#
# Velocity S-wave (km/s) = 3.50282 3.75494 3.63107
# Velocity P-wave (km/s) = 5.47416 6.06919 5.77934
#
# Compressibility (1/GPa) = 0.03178695
#
# Stress axis : x y z
#
# Youngs Moduli (GPa) = 92.64912 82.12316 48.61552
#
# Poissons Ratio (x) = 0.21807 0.10434
# Poissons Ratio (y) = 0.24602 0.05225
# Poissons Ratio (z) = 0.19885 0.08827
#
# Static dielectric constant tensor:
#      x y z
#    x 4.229750 0.000080 -0.339380 
#    y 0.000080 4.458210 -0.368030 
#    z -0.339380 -0.368030 4.297920 
# 
# 
# High freq. dielectric constant tensor:
#      x y z
#    x 1.916810 -0.004230 -0.014210 
#    y -0.004230 1.904240 0.007540 
#    z -0.014210 0.007540 1.899390 
# 
# From -- ./inp_files/81027.got.cif
#   From: 2010.06.25/outbox.cif.g09.slc.cpg/sg2_41_cif.got.tgz:81027.got - 2010.06.27 13:26:56.
