data_PCOD8003936
_publ_section_title
;
Structure prediction by ZEFSAII (Michael W. Deem and Ramdas Pophale) SiO2 
 PCOD8003936
Probable space group: P -1
;
_chemical_formula_sum "Si O2"
_cell_formula_units_Z 16
_cell_length_a 6.205140
_cell_length_b 16.903406
_cell_length_c 8.708400
_cell_angle_alpha 121.466395
_cell_angle_beta 80.194521
_cell_angle_gamma 117.618191
_cell_volume 687.202885
_symmetry_space_group_name_H-M "P -1"
_symmetry_group_IT_number 2
_symmetry_cell_setting 'triclinic'
loop_
_space_group_symop_operation_xyz
x,y,z
-x,-y,-z
loop_
_atom_site_type_symbol
_atom_site_label
_atom_site_fract_x
_atom_site_fract_y
_atom_site_fract_z
Si Si1 0.706338 0.150322 0.970301
Si Si2 0.647617 0.519436 0.787531
Si Si3 0.798253 0.706882 0.794302
Si Si4 0.435023 0.219360 0.866801
Si Si5 0.127911 0.427997 0.874092
Si Si6 0.624362 0.828775 0.727339
Si Si7 0.322499 0.689027 0.368802
Si Si8 0.953671 0.019699 0.699692
O O1 0.681939 0.217029 0.897833
O O2 0.740247 0.056199 0.791620
O O3 0.461600 0.117488 0.071891
O O4 0.925502 0.215295 0.123131
O O5 0.758130 0.587136 0.685157
O O6 0.358723 0.483462 0.791440
O O7 0.697608 0.419314 0.677356
O O8 0.780861 0.594019 0.994756
O O9 0.709654 0.743039 0.689277
O O10 0.615019 0.698887 0.946914
O O11 0.459746 0.255836 0.725227
O O12 0.212262 0.106465 0.813875
O O13 0.931201 0.328419 0.701476
O O14 0.000000 0.500000 0.000000
O O15 0.393100 0.769813 0.582142
O O16 0.863901 0.914540 0.701350
O O17 0.000000 0.000000 0.500000
#
# Coordination Sequence:
#
# PCOD8003936 Si02
#       8
#     2   2   2   2   2   2   2   2
#     4  10  24  43  68  94 127 176 210 259 330 386
#     4  10  20  37  62  90 129 175 214 259 321 371
#     4  10  22  41  63  90 131 175 213 257 320 386
#     4  10  21  40  66  95 125 166 221 265 310 384
#     4   9  18  33  59  92 123 164 217 268 309 366
#     4  11  25  43  62  96 137 166 212 266 324 387
#     4  11  22  38  62  97 131 167 218 269 308 376
#     4  11  23  45  69  96 128 165 214 271 322 381
#
# _framework density 23.282789999999999
#
# number of rings (size 3 to 8) (size 9 to 14) (size 15 to 20)
#    0.000    1.750    1.250    3.375    0.000   11.500 
#    2.250    1.250    0.000    0.000    0.000    0.000 
#    0.000    0.000    0.000    0.000    0.000    0.000 
#
# Total GULP energy -198238.838098 kJ/mol
# GULP energy per Si atom -12389.927381 kJ/mol
# Density = 2.322980 g / cm^3
# Si number density = 23.282790 Si / 1000 Ang^3
#
#
#
# Elastic Constant Matrix: (Units=GPa)
#
#
# Indices 1 2 3 4 5 6 
#
# 1 90.3456 32.2573 22.4998 -1.3088 10.2457 0.7756
# 2 32.2573 147.3536 35.0503 -10.6435 1.8941 -6.5337
# 3 22.4998 35.0503 83.9221 -3.8317 0.9848 -0.8645
# 4 -1.3088 -10.6435 -3.8317 29.4423 8.8479 8.8738
# 5 10.2457 1.8941 0.9848 8.8479 31.4889 1.1593
# 6 0.7756 -6.5337 -0.8645 8.8738 1.1593 27.1700
#
#
#
# Elastic Compliance Matrix: (Units=1/GPa)
#
#
# Indices 1 2 3 4 5 6 
#
# 1 0.012972 -0.002165 -0.002485 0.001103 -0.004280 -0.001147
# 2 -0.002165 0.008121 -0.002692 0.002235 -0.000373 0.001215
# 3 -0.002485 -0.002692 0.013731 0.000713 0.000355 -0.000388
# 4 0.001103 0.002235 0.000713 0.042362 -0.011948 -0.012797
# 5 -0.004280 -0.000373 0.000355 -0.011948 0.036430 0.002391
# 6 -0.001147 0.001215 -0.000388 -0.012797 0.002391 0.041195
#
#
# Mechanical properties :
#
#
# Convention : Reuss Voigt Hill
#
# Bulk Modulus (GPa) = 49.65409 55.69290 52.67350
# Shear Modulus (GPa) = 28.37557 33.07451 30.72504
#
# Velocity S-wave (km/s) = 3.49483 3.77312 3.63663
# Velocity P-wave (km/s) = 6.13660 6.55393 6.34870
#
# Compressibility (1/GPa) = 0.02013933
#
# Stress axis : x y z
#
# Youngs Moduli (GPa) = 77.09149 123.14067 72.82842
#
# Poissons Ratio (x) = 0.26657 0.18097
# Poissons Ratio (y) = 0.16689 0.19608
# Poissons Ratio (z) = 0.19156 0.33154
#
# Static dielectric constant tensor:
#      x y z
#    x 4.421390 -0.032440 0.273040 
#    y -0.032440 4.192030 0.011160 
#    z 0.273040 0.011160 4.179320 
# 
# 
# High freq. dielectric constant tensor:
#      x y z
#    x 1.922480 0.000680 0.010330 
#    y 0.000680 1.921620 -0.006120 
#    z 0.010330 -0.006120 1.900520 
# 
# From -- ./inp_files/99574.got.cif
#   From: 2010.06.25/outbox.cif.g09.slc.cpg/sg2_50_cif.got.tgz:99574.got - 2010.06.27 13:26:56.
