data_PCOD8003560
_publ_section_title
;
Structure prediction by ZEFSAII (Michael W. Deem and Ramdas Pophale) SiO2 
 PCOD8003560
Probable space group: P -1
;
_chemical_formula_sum "Si O2"
_cell_formula_units_Z 16
_cell_length_a 9.567847
_cell_length_b 21.944559
_cell_length_c 12.199836
_cell_angle_alpha 39.314124
_cell_angle_beta 129.558878
_cell_angle_gamma 152.993310
_cell_volume 724.600357
_symmetry_space_group_name_H-M "P -1"
_symmetry_group_IT_number 2
_symmetry_cell_setting 'triclinic'
loop_
_space_group_symop_operation_xyz
x,y,z
-x,-y,-z
loop_
_atom_site_type_symbol
_atom_site_label
_atom_site_fract_x
_atom_site_fract_y
_atom_site_fract_z
Si Si1 0.713007 0.329367 0.448312
Si Si2 0.434787 0.695239 0.265929
Si Si3 0.710491 0.637478 0.008303
Si Si4 0.680087 0.177134 0.844495
Si Si5 0.786152 0.779208 0.514829
Si Si6 0.338557 0.660194 0.030891
Si Si7 0.119019 0.393355 0.181396
Si Si8 0.318233 0.163846 0.272417
O O1 0.714994 0.236436 0.657409
O O2 0.510306 0.329817 0.400474
O O3 0.573490 0.240901 0.382883
O O4 0.067767 0.516975 0.349470
O O5 0.519892 0.836060 0.163233
O O6 0.655213 0.717412 0.411460
O O7 0.544314 0.736714 0.136558
O O8 0.824305 0.794875 0.816085
O O9 0.500000 0.500000 0.000000
O O10 0.483636 0.554973 0.111504
O O11 0.990328 0.691823 0.111203
O O12 0.500000 0.000000 0.000000
O O13 0.970530 0.757258 0.646306
O O14 0.033693 0.967871 0.402810
O O15 0.539939 0.771695 0.868844
O O16 0.115083 0.656325 0.952383
O O17 0.117140 0.468058 0.179192
#
# Coordination Sequence:
#
# PCOD8003560 Si02
#       8
#     2   2   2   2   2   2   2   2
#     4  11  22  40  64  90 123 160 200 249 304 360
#     4  11  22  41  64  88 124 161 199 248 300 365
#     4  11  20  36  63  90 117 160 206 247 296 357
#     4  11  23  39  61  95 128 154 194 253 315 359
#     4  11  23  38  61  93 121 153 201 260 313 351
#     4  10  23  41  60  86 121 166 207 244 298 363
#     4  10  20  37  59  85 116 155 209 248 287 361
#     4  11  24  41  61  89 127 162 202 252 302 363
#
# _framework density 22.081136000000001
#
# number of rings (size 3 to 8) (size 9 to 14) (size 15 to 20)
#    0.000    1.250    0.000    9.375    0.000    3.500 
#    0.000    3.750    0.000    0.000    0.000    0.000 
#    0.000    0.000    0.000    0.000    0.000    0.000 
#
# Total GULP energy -198214.828089 kJ/mol
# GULP energy per Si atom -12388.426756 kJ/mol
# Density = 2.203088 g / cm^3
# Si number density = 22.081136 Si / 1000 Ang^3
#
#
#
# Elastic Constant Matrix: (Units=GPa)
#
#
# Indices 1 2 3 4 5 6 
#
# 1 73.0274 31.6583 56.2416 3.4586 9.9900 -13.1865
# 2 31.6583 100.6281 47.2113 8.0117 4.9642 -21.2212
# 3 56.2416 47.2113 124.4106 4.7751 13.9555 -25.6642
# 4 3.4586 8.0117 4.7751 39.2766 -12.3652 1.6525
# 5 9.9900 4.9642 13.9555 -12.3652 36.4285 8.4396
# 6 -13.1865 -21.2212 -25.6642 1.6525 8.4396 30.0120
#
#
#
# Elastic Compliance Matrix: (Units=1/GPa)
#
#
# Indices 1 2 3 4 5 6 
#
# 1 0.021914 -0.002312 -0.008094 -0.001729 -0.003692 0.002206
# 2 -0.002312 0.013833 -0.001879 -0.003951 -0.003831 0.008453
# 3 -0.008094 -0.001879 0.015521 -0.003470 -0.007098 0.010575
# 4 -0.001729 -0.003951 -0.003470 0.032541 0.016381 -0.012920
# 5 -0.003692 -0.003831 -0.007098 0.016381 0.042663 -0.023300
# 6 0.002206 0.008453 0.010575 -0.012920 -0.023300 0.056572
#
#
# Mechanical properties :
#
#
# Convention : Reuss Voigt Hill
#
# Bulk Modulus (GPa) = 37.45555 63.14315 50.29935
# Shear Modulus (GPa) = 23.09324 32.00709 27.55017
#
# Velocity S-wave (km/s) = 3.23745 3.81139 3.53608
# Velocity P-wave (km/s) = 5.56545 6.93015 6.28495
#
# Compressibility (1/GPa) = 0.02669831
#
# Stress axis : x y z
#
# Youngs Moduli (GPa) = 45.63195 72.29236 64.43053
#
# Poissons Ratio (x) = 0.16715 0.52149
# Poissons Ratio (y) = 0.10550 0.12106
# Poissons Ratio (z) = 0.36933 0.13583
#
# Static dielectric constant tensor:
#      x y z
#    x 4.395780 0.077900 0.343350 
#    y 0.077900 4.062780 0.248840 
#    z 0.343350 0.248840 4.321350 
# 
# 
# High freq. dielectric constant tensor:
#      x y z
#    x 1.856480 -0.010040 0.012600 
#    y -0.010040 1.871430 0.010790 
#    z 0.012600 0.010790 1.872760 
# 
# From -- ./inp_files/405443.got.cif
#   From: 2010.06.25/outbox.cif.g09.slc.cpg/sg2_203_cif.got.tgz:405443.got - 2010.06.27 13:26:56.
