data_PCOD8003465
_publ_section_title
;
Structure prediction by ZEFSAII (Michael W. Deem and Ramdas Pophale) SiO2 
 PCOD8003465
Probable space group: P -1
;
_chemical_formula_sum "Si O2"
_cell_formula_units_Z 16
_cell_length_a 11.020130
_cell_length_b 10.902112
_cell_length_c 14.410224
_cell_angle_alpha 111.989463
_cell_angle_beta 103.136459
_cell_angle_gamma 28.242519
_cell_volume 738.597861
_symmetry_space_group_name_H-M "P -1"
_symmetry_group_IT_number 2
_symmetry_cell_setting 'triclinic'
loop_
_space_group_symop_operation_xyz
x,y,z
-x,-y,-z
loop_
_atom_site_type_symbol
_atom_site_label
_atom_site_fract_x
_atom_site_fract_y
_atom_site_fract_z
Si Si1 0.663032 0.196897 0.180278
Si Si2 0.580388 0.378400 0.876996
Si Si3 0.133332 0.659126 0.005676
Si Si4 0.417490 0.537821 0.598255
Si Si5 0.164208 0.981744 0.344634
Si Si6 0.017290 0.396584 0.173721
Si Si7 0.559089 0.104609 0.763870
Si Si8 0.322662 0.289805 0.073278
O O1 0.637862 0.335610 0.137019
O O2 0.638843 0.276128 0.301833
O O3 0.443637 0.288523 0.159894
O O4 0.944300 0.867523 0.118597
O O5 0.692430 0.364909 0.981139
O O6 0.818508 0.136003 0.773864
O O7 0.489360 0.310388 0.866755
O O8 0.283344 0.388637 0.992371
O O9 0.974870 0.758934 0.915683
O O10 0.500000 0.500000 0.500000
O O11 0.657552 0.231271 0.598183
O O12 0.142270 0.712512 0.595153
O O13 0.291830 0.000637 0.336212
O O14 0.065442 0.471844 0.132018
O O15 0.724691 0.696087 0.250191
O O16 0.249623 0.174057 0.226916
O O17 0.500000 0.000000 0.000000
#
# Coordination Sequence:
#
# PCOD8003465 Si02
#       8
#     2   2   2   2   2   2   2   2
#     4  10  20  37  58  81 119 154 183 244 304 334
#     4   8  20  35  53  76 111 156 182 224 308 336
#     4  11  21  35  58  74 119 157 194 252 292 322
#     4  11  20  36  64  94 115 142 187 238 301 368
#     4   9  19  38  55  80 124 145 177 228 303 343
#     4  12  24  35  54  84 108 160 217 225 267 346
#     4  10  23  38  55  79 121 155 196 236 279 349
#     4  11  23  39  55  79 115 163 203 247 285 323
#
# _framework density 21.662669000000001
#
# number of rings (size 3 to 8) (size 9 to 14) (size 15 to 20)
#    0.750    1.000    2.500    2.250    5.250    1.000 
#    0.000    0.000    0.000    0.000    0.000    5.250 
#    0.000    0.000    0.000    0.000    0.000    0.000 
#
# Total GULP energy -198289.323711 kJ/mol
# GULP energy per Si atom -12393.082732 kJ/mol
# Density = 2.161336 g / cm^3
# Si number density = 21.662669 Si / 1000 Ang^3
#
#
#
# Elastic Constant Matrix: (Units=GPa)
#
#
# Indices 1 2 3 4 5 6 
#
# 1 129.6069 36.4551 21.5716 2.2328 -30.7316 -16.2208
# 2 36.4551 105.2314 18.0206 -3.1039 -10.3302 -12.7290
# 3 21.5716 18.0206 67.5300 -6.8946 -19.2856 -2.0483
# 4 2.2328 -3.1039 -6.8946 23.4012 -0.5645 -8.3511
# 5 -30.7316 -10.3302 -19.2856 -0.5645 27.4280 2.9837
# 6 -16.2208 -12.7290 -2.0483 -8.3511 2.9837 35.7229
#
#
#
# Elastic Compliance Matrix: (Units=1/GPa)
#
#
# Indices 1 2 3 4 5 6 
#
# 1 0.011627 -0.002507 0.000537 0.000244 0.012090 0.003465
# 2 -0.002507 0.011138 -0.001911 0.002319 -0.000268 0.003285
# 3 0.000537 -0.001911 0.019747 0.006200 0.013787 0.000993
# 4 0.000244 0.002319 0.006200 0.049397 0.005174 0.012409
# 5 0.012090 -0.000268 0.013787 0.005174 0.059440 0.002430
# 6 0.003465 0.003285 0.000993 0.012409 0.002430 0.033492
#
#
# Mechanical properties :
#
#
# Convention : Reuss Voigt Hill
#
# Bulk Modulus (GPa) = 28.77635 50.49589 39.63612
# Shear Modulus (GPa) = 24.48735 32.39849 28.44292
#
# Velocity S-wave (km/s) = 3.36578 3.87148 3.62745
# Velocity P-wave (km/s) = 5.33079 6.58371 5.99010
#
# Compressibility (1/GPa) = 0.03475076
#
# Stress axis : x y z
#
# Youngs Moduli (GPa) = 86.00413 89.78071 50.64049
#
# Poissons Ratio (x) = 0.22508 -0.02722
# Poissons Ratio (y) = 0.21561 0.09680
# Poissons Ratio (z) = -0.04622 0.17161
#
# Static dielectric constant tensor:
#      x y z
#    x 4.321990 -0.091680 -0.373820 
#    y -0.091680 3.902550 0.007420 
#    z -0.373820 0.007420 3.591480 
# 
# 
# High freq. dielectric constant tensor:
#      x y z
#    x 1.858080 -0.016320 -0.033040 
#    y -0.016320 1.857180 0.002240 
#    z -0.033040 0.002240 1.805440 
# 
# From -- ./inp_files/518033.got.cif
#   From: 2010.06.25/outbox.cif.g09.slc.cpg/sg2_260_cif.got.tgz:518033.got - 2010.06.27 13:26:56.
