data_PCOD8003651
_publ_section_title
;
Structure prediction by ZEFSAII (Michael W. Deem and Ramdas Pophale) SiO2 
 PCOD8003651
Probable space group: P -1
;
_chemical_formula_sum "Si O2"
_cell_formula_units_Z 16
_cell_length_a 12.253751
_cell_length_b 9.494387
_cell_length_c 13.508610
_cell_angle_alpha 56.324616
_cell_angle_beta 105.104708
_cell_angle_gamma 142.934943
_cell_volume 734.646439
_symmetry_space_group_name_H-M "P -1"
_symmetry_group_IT_number 2
_symmetry_cell_setting 'triclinic'
loop_
_space_group_symop_operation_xyz
x,y,z
-x,-y,-z
loop_
_atom_site_type_symbol
_atom_site_label
_atom_site_fract_x
_atom_site_fract_y
_atom_site_fract_z
Si Si1 0.945452 0.064067 0.046508
Si Si2 0.223060 0.818752 0.456438
Si Si3 0.273307 0.566345 0.051502
Si Si4 0.532633 0.737512 0.294440
Si Si5 0.499698 0.104596 0.579489
Si Si6 0.216223 0.265764 0.657656
Si Si7 0.315290 0.950040 0.000978
Si Si8 0.193663 0.174508 0.327738
O O1 0.804844 0.042783 0.982217
O O2 0.139745 0.404463 0.986619
O O3 0.852769 0.853532 0.199719
O O4 0.000000 0.000000 0.000000
O O5 0.378032 0.921764 0.377677
O O6 0.000000 0.500000 0.500000
O O7 0.292544 0.840183 0.574890
O O8 0.251411 0.053512 0.363971
O O9 0.250766 0.355343 0.176538
O O10 0.498894 0.862604 0.958503
O O11 0.202088 0.633081 0.082529
O O12 0.534312 0.882283 0.321556
O O13 0.679654 0.770165 0.350490
O O14 0.316215 0.393205 0.365370
O O15 0.605999 0.907770 0.144464
O O16 0.634509 0.398549 0.434985
O O17 0.038312 0.092252 0.608906
#
# Coordination Sequence:
#
# PCOD8003651 Si02
#       8
#     2   2   2   2   2   2   2   2
#     4  10  21  37  59  89 116 156 197 239 294 347
#     4  11  23  40  58  83 120 161 190 243 293 346
#     4   9  19  38  61  84 114 153 195 242 292 344
#     4  10  21  38  60  92 112 154 198 240 288 347
#     4  11  23  39  61  86 119 156 198 235 293 356
#     4  10  20  37  60  85 117 153 195 240 286 347
#     4   9  19  39  62  83 122 150 191 248 292 336
#     4  10  20  37  62  83 118 154 193 242 295 342
#
# _framework density 21.779184000000001
#
# number of rings (size 3 to 8) (size 9 to 14) (size 15 to 20)
#    0.000    2.000    2.500    0.750    0.000    2.000 
#    4.500    7.500    0.000    0.000    0.000    0.000 
#    0.000    0.000    0.000    0.000    0.000    0.000 
#
# Total GULP energy -198262.331678 kJ/mol
# GULP energy per Si atom -12391.395730 kJ/mol
# Density = 2.172961 g / cm^3
# Si number density = 21.779184 Si / 1000 Ang^3
#
#
#
# Elastic Constant Matrix: (Units=GPa)
#
#
# Indices 1 2 3 4 5 6 
#
# 1 161.2902 42.5171 17.0571 8.3078 1.0233 4.2023
# 2 42.5171 109.5262 9.6631 -8.6322 -16.3290 12.7316
# 3 17.0571 9.6631 28.3092 -2.5217 1.2474 -1.4193
# 4 8.3078 -8.6322 -2.5217 16.7437 -10.3346 1.0888
# 5 1.0233 -16.3290 1.2474 -10.3346 30.8928 3.0872
# 6 4.2023 12.7316 -1.4193 1.0888 3.0872 42.0615
#
#
#
# Elastic Compliance Matrix: (Units=1/GPa)
#
#
# Indices 1 2 3 4 5 6 
#
# 1 0.008602 -0.005103 -0.004126 -0.011885 -0.006928 0.001362
# 2 -0.005103 0.016075 -0.001564 0.021112 0.016407 -0.006159
# 3 -0.004126 -0.001564 0.039067 0.006890 -0.000166 0.002038
# 4 -0.011885 0.021112 0.006890 0.108301 0.048638 -0.011344
# 5 -0.006928 0.016407 -0.000166 0.048638 0.058532 -0.009835
# 6 0.001362 -0.006159 0.002038 -0.011344 -0.009835 0.026587
#
#
# Mechanical properties :
#
#
# Convention : Reuss Voigt Hill
#
# Bulk Modulus (GPa) = 23.71991 48.62225 36.17108
# Shear Modulus (GPa) = 17.07624 33.26550 25.17087
#
# Velocity S-wave (km/s) = 2.80315 3.91243 3.40329
# Velocity P-wave (km/s) = 4.62510 6.54088 5.66457
#
# Compressibility (1/GPa) = 0.04215867
#
# Stress axis : x y z
#
# Youngs Moduli (GPa) = 116.24847 62.20781 25.59684
#
# Poissons Ratio (x) = 0.31746 0.10562
# Poissons Ratio (y) = 0.59324 0.04002
# Poissons Ratio (z) = 0.47968 0.09726
#
# Static dielectric constant tensor:
#      x y z
#    x 4.278840 0.331750 0.320880 
#    y 0.331750 4.410550 -0.229850 
#    z 0.320880 -0.229850 3.515340 
# 
# 
# High freq. dielectric constant tensor:
#      x y z
#    x 1.872270 0.011490 0.027200 
#    y 0.011490 1.869230 -0.014950 
#    z 0.027200 -0.014950 1.812040 
# 
# From -- ./inp_files/315767.got.cif
#   From: 2010.06.25/outbox.cif.g09.slc.cpg/sg2_158_cif.got.tgz:315767.got - 2010.06.27 13:26:56.
