data_PCOD8003913
_publ_section_title
;
Structure prediction by ZEFSAII (Michael W. Deem and Ramdas Pophale) SiO2 
 PCOD8003913
Probable space group: P -1
;
_chemical_formula_sum "Si O2"
_cell_formula_units_Z 14
_cell_length_a 11.352126
_cell_length_b 13.628355
_cell_length_c 16.998467
_cell_angle_alpha 31.397702
_cell_angle_beta 43.109014
_cell_angle_gamma 33.593546
_cell_volume 756.408949
_symmetry_space_group_name_H-M "P -1"
_symmetry_group_IT_number 2
_symmetry_cell_setting 'triclinic'
loop_
_space_group_symop_operation_xyz
x,y,z
-x,-y,-z
loop_
_atom_site_type_symbol
_atom_site_label
_atom_site_fract_x
_atom_site_fract_y
_atom_site_fract_z
Si Si1 0.532142 0.985454 0.264555
Si Si2 0.675097 0.905499 0.545994
Si Si3 0.572191 0.725903 0.024067
Si Si4 0.729172 0.017422 0.732616
Si Si5 0.393090 0.638474 0.307328
Si Si6 0.078106 0.502476 0.546007
Si Si7 0.784770 0.246798 0.307320
O O1 0.771607 0.759119 0.315351
O O2 0.420472 0.110179 0.315385
O O3 0.535586 0.168751 0.081289
O O4 0.394441 0.908661 0.341295
O O5 0.878841 0.647009 0.602980
O O6 0.500000 0.000000 0.500000
O O7 0.742803 0.078760 0.399187
O O8 0.697913 0.834281 0.915703
O O9 0.389432 0.794339 0.131036
O O10 0.740280 0.443532 0.131020
O O11 0.976740 0.897334 0.677502
O O12 0.626260 0.247742 0.677542
O O13 0.619648 0.380878 0.369079
O O14 0.198769 0.622778 0.399228
O O15 0.000000 0.500000 0.500000
#
# Coordination Sequence:
#
# PCOD8003913 Si02
#       7
#     2   2   2   2   2   2   2
#     4  10  23  40  57  96 119 151 204 248 292 352
#     4  12  23  43  66  81 118 162 205 249 298 349
#     4   8  21  39  59  90 129 148 200 238 297 352
#     4  10  20  37  62  88 130 155 194 242 289 366
#     4  10  20  38  63  89 120 165 192 233 303 359
#     4  12  23  43  66  81 118 162 205 249 298 349
#     4  10  20  38  63  89 120 165 192 233 303 359
#
# _framework density 18.508506000000001
#
# number of rings (size 3 to 8) (size 9 to 14) (size 15 to 20)
#    1.714    0.000    4.286    0.857    0.000    2.286 
#    2.571    1.429    0.000    0.000    0.000    0.000 
#    0.000    0.000    0.000    0.000    0.000    0.000 
#
# Total GULP energy -173481.894919 kJ/mol
# GULP energy per Si atom -12391.563923 kJ/mol
# Density = 1.846638 g / cm^3
# Si number density = 18.508506 Si / 1000 Ang^3
#
#
#
# Elastic Constant Matrix: (Units=GPa)
#
#
# Indices 1 2 3 4 5 6 
#
# 1 77.2603 41.4499 -4.5746 -3.8059 21.8613 3.4845
# 2 41.4499 155.2449 9.3920 -6.0653 19.1271 3.7516
# 3 -4.5746 9.3920 18.3255 -3.4775 9.8418 1.3148
# 4 -3.8059 -6.0653 -3.4775 30.3967 -0.3812 0.8362
# 5 21.8613 19.1271 9.8418 -0.3812 27.2485 -0.6019
# 6 3.4845 3.7516 1.3148 0.8362 -0.6019 36.1860
#
#
#
# Elastic Compliance Matrix: (Units=1/GPa)
#
#
# Indices 1 2 3 4 5 6 
#
# 1 0.023808 -0.004498 0.022179 0.004406 -0.023962 -0.003132
# 2 -0.004498 0.007993 -0.005014 0.000462 -0.000189 -0.000227
# 3 0.022179 -0.005014 0.090535 0.011709 -0.046942 -0.005957
# 4 0.004406 0.000462 0.011709 0.034836 -0.007642 -0.001830
# 5 -0.023962 -0.000189 -0.046942 -0.007642 0.073024 0.005424
# 6 -0.003132 -0.000227 -0.005957 -0.001830 0.005424 0.028309
#
#
# Mechanical properties :
#
#
# Convention : Reuss Voigt Hill
#
# Bulk Modulus (GPa) = 6.77193 38.15170 22.46181
# Shear Modulus (GPa) = 17.70566 32.40380 25.05473
#
# Velocity S-wave (km/s) = 3.09629 4.18874 3.68324
# Velocity P-wave (km/s) = 4.05579 6.63716 5.50006
#
# Compressibility (1/GPa) = 0.14766848
#
# Stress axis : x y z
#
# Youngs Moduli (GPa) = 42.00211 125.11501 11.04546
#
# Poissons Ratio (x) = 0.56282 -0.24497
# Poissons Ratio (y) = 0.18894 0.05538
# Poissons Ratio (z) = -0.93155 0.62730
#
# Static dielectric constant tensor:
#      x y z
#    x 3.292910 0.005180 -0.098010 
#    y 0.005180 3.465090 -0.004500 
#    z -0.098010 -0.004500 3.276620 
# 
# 
# High freq. dielectric constant tensor:
#      x y z
#    x 1.708690 0.000660 -0.003010 
#    y 0.000660 1.722070 -0.000420 
#    z -0.003010 -0.000420 1.711360 
# 
# From -- ./inp_files/595215.got.cif
#   From: 2010.06.25/outbox.cif.g09.slc.cpg/sg2_298_cif.got.tgz:595215.got - 2010.06.27 13:26:56.
