data_PCOD8003362
_publ_section_title
;
Structure prediction by ZEFSAII (Michael W. Deem and Ramdas Pophale) SiO2 
 PCOD8003362
Probable space group: P -1
;
_chemical_formula_sum "Si O2"
_cell_formula_units_Z 16
_cell_length_a 12.826164
_cell_length_b 15.327350
_cell_length_c 9.315670
_cell_angle_alpha 96.836837
_cell_angle_beta 72.058444
_cell_angle_gamma 151.081746
_cell_volume 796.099717
_symmetry_space_group_name_H-M "P -1"
_symmetry_group_IT_number 2
_symmetry_cell_setting 'triclinic'
loop_
_space_group_symop_operation_xyz
x,y,z
-x,-y,-z
loop_
_atom_site_type_symbol
_atom_site_label
_atom_site_fract_x
_atom_site_fract_y
_atom_site_fract_z
Si Si1 0.655152 0.524563 0.953843
Si Si2 0.248047 0.807956 0.778810
Si Si3 0.541035 0.840595 0.632088
Si Si4 0.030831 0.778242 0.085869
Si Si5 0.091096 0.420674 0.640027
Si Si6 0.070138 0.787469 0.612033
Si Si7 0.135522 0.589512 0.112828
Si Si8 0.596727 0.825755 0.916140
O O1 0.837646 0.653781 0.769086
O O2 0.500000 0.500000 0.000000
O O3 0.800599 0.629940 0.059227
O O4 0.472607 0.312557 0.999299
O O5 0.444707 0.870708 0.721653
O O6 0.279134 0.895366 0.647363
O O7 0.988592 0.584010 0.798922
O O8 0.212960 0.836056 0.949197
O O9 0.349872 0.651769 0.580169
O O10 0.594898 0.817764 0.742439
O O11 0.791591 0.031125 0.481248
O O12 0.931246 0.677511 0.262719
O O13 0.153731 0.960729 0.088341
O O14 0.025776 0.347848 0.493232
O O15 0.891468 0.346468 0.761956
O O16 0.412586 0.772577 0.017385
O O17 0.000000 0.500000 0.000000
#
# Coordination Sequence:
#
# PCOD8003362 Si02
#       8
#     2   2   2   2   2   2   2   2
#     4  11  26  51  68  85 119 156 210 283 324 365
#     4  10  20  37  54  92 139 173 201 240 291 367
#     4  11  21  36  62  93 136 168 201 242 300 371
#     4  11  21  38  68  92 121 168 216 244 305 379
#     4  11  21  36  62  93 137 167 200 248 297 365
#     4  11  24  39  59  98 126 159 209 261 313 354
#     4  11  17  34  60  91 131 179 209 226 288 375
#     4  12  21  38  69  92 120 172 218 243 298 385
#
# _framework density 20.097985000000001
#
# number of rings (size 3 to 8) (size 9 to 14) (size 15 to 20)
#    0.000    1.000    8.750    0.375    1.750    5.500 
#    0.000    1.250    0.000    0.000    0.000    0.000 
#    0.000    0.000    0.000    0.000    0.000    0.000 
#
# Total GULP energy -198290.409031 kJ/mol
# GULP energy per Si atom -12393.150564 kJ/mol
# Density = 2.005224 g / cm^3
# Si number density = 20.097985 Si / 1000 Ang^3
#
#
#
# Elastic Constant Matrix: (Units=GPa)
#
#
# Indices 1 2 3 4 5 6 
#
# 1 77.8545 23.3210 34.6682 -8.5704 -2.5551 -9.4726
# 2 23.3210 95.8461 20.6467 -12.2529 -1.7061 -23.2425
# 3 34.6682 20.6467 102.5484 -9.2621 6.3596 -6.6944
# 4 -8.5704 -12.2529 -9.2621 35.3200 -5.0755 10.6616
# 5 -2.5551 -1.7061 6.3596 -5.0755 15.1934 -4.1078
# 6 -9.4726 -23.2425 -6.6944 10.6616 -4.1078 16.9839
#
#
#
# Elastic Compliance Matrix: (Units=1/GPa)
#
#
# Indices 1 2 3 4 5 6 
#
# 1 0.016725 -0.000968 -0.005344 0.001297 0.007221 0.006829
# 2 -0.000968 0.017242 -0.002169 -0.001086 0.009100 0.025084
# 3 -0.005344 -0.002169 0.012301 0.001266 -0.006827 -0.003547
# 4 0.001297 -0.001086 0.001266 0.035866 0.005766 -0.021384
# 5 0.007221 0.009100 -0.006827 0.005766 0.080876 0.029731
# 6 0.006829 0.025084 -0.003547 -0.021384 0.029731 0.116232
#
#
# Mechanical properties :
#
#
# Convention : Reuss Voigt Hill
#
# Bulk Modulus (GPa) = 34.12292 48.16898 41.14595
# Shear Modulus (GPa) = 16.34128 26.67368 21.50748
#
# Velocity S-wave (km/s) = 2.85455 3.64700 3.27484
# Velocity P-wave (km/s) = 5.28013 6.46168 5.90055
#
# Compressibility (1/GPa) = 0.02930582
#
# Stress axis : x y z
#
# Youngs Moduli (GPa) = 59.79168 57.99763 81.29355
#
# Poissons Ratio (x) = 0.05613 0.43444
# Poissons Ratio (y) = 0.05786 0.17635
# Poissons Ratio (z) = 0.31953 0.12581
#
# Static dielectric constant tensor:
#      x y z
#    x 3.488130 -0.282560 0.415560 
#    y -0.282560 3.846450 -0.370280 
#    z 0.415560 -0.370280 4.030530 
# 
# 
# High freq. dielectric constant tensor:
#      x y z
#    x 1.743330 -0.011600 0.027050 
#    y -0.011600 1.791880 -0.010220 
#    z 0.027050 -0.010220 1.785040 
# 
# From -- ./inp_files/273144.got.cif
#   From: 2010.06.25/outbox.cif.g09.slc.cpg/sg2_137_cif.got.tgz:273144.got - 2010.06.27 13:26:56.
