data_PCOD8003133
_publ_section_title
;
Structure prediction by ZEFSAII (Michael W. Deem and Ramdas Pophale) SiO2 
 PCOD8003133
Probable space group: P -1
;
_chemical_formula_sum "Si O2"
_cell_formula_units_Z 16
_cell_length_a 10.279630
_cell_length_b 11.638634
_cell_length_c 14.716245
_cell_angle_alpha 151.262854
_cell_angle_beta 52.118025
_cell_angle_gamma 123.784256
_cell_volume 667.409982
_symmetry_space_group_name_H-M "P -1"
_symmetry_group_IT_number 2
_symmetry_cell_setting 'triclinic'
loop_
_space_group_symop_operation_xyz
x,y,z
-x,-y,-z
loop_
_atom_site_type_symbol
_atom_site_label
_atom_site_fract_x
_atom_site_fract_y
_atom_site_fract_z
Si Si1 0.468350 0.896121 0.293193
Si Si2 0.319689 0.460892 0.590022
Si Si3 0.439667 0.352328 0.732089
Si Si4 0.682227 0.089854 0.005973
Si Si5 0.823530 0.395452 0.884994
Si Si6 0.311216 0.228418 0.051250
Si Si7 0.885796 0.960244 0.660362
Si Si8 0.977311 0.503726 0.718572
O O1 0.500217 0.771493 0.288309
O O2 0.315802 0.750747 0.213689
O O3 0.440856 0.177201 0.522120
O O4 0.623652 0.872186 0.142163
O O5 0.500000 0.500000 0.500000
O O6 0.265867 0.179702 0.429592
O O7 0.172817 0.566683 0.661337
O O8 0.315044 0.618965 0.793368
O O9 0.559666 0.586218 0.825854
O O10 0.254682 0.436922 0.888999
O O11 0.728016 0.992840 0.018674
O O12 0.816644 0.006491 0.821256
O O13 0.500000 0.000000 0.000000
O O14 0.933896 0.557364 0.880467
O O15 0.935805 0.204085 0.755357
O O16 0.138651 0.358806 0.203398
O O17 0.042534 0.791288 0.486298
#
# Coordination Sequence:
#
# PCOD8003133 Si02
#       8
#     2   2   2   2   2   2   2   2
#     4  10  20  36  62  99 132 169 207 270 330 388
#     4  10  24  45  64  90 127 172 226 273 319 391
#     4  10  20  36  63 100 130 167 214 266 326 400
#     4  12  23  43  66  92 127 175 226 262 321 392
#     4  11  19  42  67  93 135 167 214 272 329 385
#     4  11  22  40  67  94 138 171 213 276 317 390
#     4  10  25  41  64  92 128 172 219 268 323 384
#     4  10  22  45  64  94 132 169 218 273 336 380
#
# _framework density 23.973269999999999
#
# number of rings (size 3 to 8) (size 9 to 14) (size 15 to 20)
#    0.750    0.750    3.750    2.625    0.000    4.000 
#    4.500    0.625    0.000    0.000    0.000    0.000 
#    0.000    0.000    0.000    0.000    0.000    0.000 
#
# Total GULP energy -198222.824800 kJ/mol
# GULP energy per Si atom -12388.926550 kJ/mol
# Density = 2.391871 g / cm^3
# Si number density = 23.973270 Si / 1000 Ang^3
#
#
#
# Elastic Constant Matrix: (Units=GPa)
#
#
# Indices 1 2 3 4 5 6 
#
# 1 46.7913 3.5825 28.2028 -13.3430 -16.9887 -1.7947
# 2 3.5825 63.7234 8.3782 -2.1926 -3.1544 -7.2267
# 3 28.2028 8.3782 153.9215 -0.7492 2.4819 2.1235
# 4 -13.3430 -2.1926 -0.7492 35.5955 4.7045 -1.9693
# 5 -16.9887 -3.1544 2.4819 4.7045 46.6846 -1.0278
# 6 -1.7947 -7.2267 2.1235 -1.9693 -1.0278 24.8089
#
#
#
# Elastic Compliance Matrix: (Units=1/GPa)
#
#
# Indices 1 2 3 4 5 6 
#
# 1 0.032308 0.000397 -0.006127 0.010774 0.011118 0.004293
# 2 0.000397 0.016492 -0.001055 0.001252 0.001301 0.005076
# 3 -0.006127 -0.001055 0.007732 -0.001954 -0.002552 -0.001673
# 4 0.010774 0.001252 -0.001954 0.032260 0.000944 0.003911
# 5 0.011118 0.001301 -0.002552 0.000944 0.025651 0.002539
# 6 0.004293 0.005076 -0.001673 0.003911 0.002539 0.042656
#
#
# Mechanical properties :
#
#
# Convention : Reuss Voigt Hill
#
# Bulk Modulus (GPa) = 23.27690 38.30702 30.79196
# Shear Modulus (GPa) = 27.02842 36.36932 31.69887
#
# Velocity S-wave (km/s) = 3.36138 3.89919 3.64023
# Velocity P-wave (km/s) = 4.97954 6.02373 5.52635
#
# Compressibility (1/GPa) = 0.04296104
#
# Stress axis : x y z
#
# Youngs Moduli (GPa) = 30.95193 60.63398 129.33744
#
# Poissons Ratio (x) = -0.02409 0.79251
# Poissons Ratio (y) = -0.01230 0.13650
# Poissons Ratio (z) = 0.18966 0.06399
#
# Static dielectric constant tensor:
#      x y z
#    x 4.007460 0.130410 -0.095960 
#    y 0.130410 3.421110 0.619810 
#    z -0.095960 0.619810 4.577190 
# 
# 
# High freq. dielectric constant tensor:
#      x y z
#    x 1.931040 -0.002320 -0.008460 
#    y -0.002320 1.932130 0.003680 
#    z -0.008460 0.003680 1.973780 
# 
# From -- ./inp_files/519335.got.cif
#   From: 2010.06.25/outbox.cif.g09.slc.cpg/sg2_260_cif.got.tgz:519335.got - 2010.06.27 13:26:56.
