data_PCOD8003077
_publ_section_title
;
Structure prediction by ZEFSAII (Michael W. Deem and Ramdas Pophale) SiO2 
 PCOD8003077
Probable space group: P -1
;
_chemical_formula_sum "Si O2"
_cell_formula_units_Z 16
_cell_length_a 14.720176
_cell_length_b 19.864515
_cell_length_c 10.709116
_cell_angle_alpha 25.194335
_cell_angle_beta 45.613945
_cell_angle_gamma 31.607054
_cell_volume 662.141654
_symmetry_space_group_name_H-M "P -1"
_symmetry_group_IT_number 2
_symmetry_cell_setting 'triclinic'
loop_
_space_group_symop_operation_xyz
x,y,z
-x,-y,-z
loop_
_atom_site_type_symbol
_atom_site_label
_atom_site_fract_x
_atom_site_fract_y
_atom_site_fract_z
Si Si1 0.782242 0.032294 0.090237
Si Si2 0.909480 0.417657 0.573804
Si Si3 0.339015 0.591066 0.264190
Si Si4 0.840429 0.523297 0.750325
Si Si5 0.240815 0.740899 0.625965
Si Si6 0.849239 0.764834 0.719947
Si Si7 0.478376 0.975708 0.705168
Si Si8 0.124712 0.949693 0.648076
O O1 0.811735 0.891735 0.415804
O O2 0.596807 0.137393 0.022569
O O3 0.955878 0.850576 0.139126
O O4 0.755696 0.238661 0.810450
O O5 0.724646 0.536671 0.473011
O O6 0.876154 0.434906 0.724054
O O7 0.990495 0.517704 0.292360
O O8 0.557366 0.412999 0.365407
O O9 0.262637 0.742804 0.958019
O O10 0.659743 0.789140 0.481621
O O11 0.805508 0.402696 0.070530
O O12 0.081852 0.941415 0.346093
O O13 0.224219 0.853953 0.579221
O O14 0.902797 0.841368 0.645847
O O15 0.673208 0.823453 0.838249
O O16 0.000000 0.500000 0.000000
O O17 0.500000 0.000000 0.500000
#
# Coordination Sequence:
#
# PCOD8003077 Si02
#       8
#     2   2   2   2   2   2   2   2
#     4   9  20  36  57  87 112 158 207 238 300 367
#     4  10  21  35  61  87 120 162 200 239 305 368
#     4  11  21  39  66  88 122 158 204 251 299 360
#     4  10  20  36  62  89 118 159 200 246 301 360
#     4  11  22  38  65  89 122 155 199 262 296 354
#     4  10  21  33  58  85 122 151 193 259 302 347
#     4   9  18  33  56  87 114 146 204 241 296 354
#     4  10  23  36  57  96 118 152 201 250 310 350
#
# _framework density 24.164014000000002
#
# number of rings (size 3 to 8) (size 9 to 14) (size 15 to 20)
#    0.000    2.000    1.250    3.000    8.750    0.000 
#    0.000    0.000    5.500    6.000    0.000    0.000 
#    0.000    0.000    0.000    0.000    0.000    0.000 
#
# Total GULP energy -198252.818838 kJ/mol
# GULP energy per Si atom -12390.801177 kJ/mol
# Density = 2.410902 g / cm^3
# Si number density = 24.164014 Si / 1000 Ang^3
#
#
#
# Elastic Constant Matrix: (Units=GPa)
#
#
# Indices 1 2 3 4 5 6 
#
# 1 139.9664 59.1327 22.3877 -18.2622 -30.0520 -6.4703
# 2 59.1327 117.3869 17.7179 -27.4671 -8.9800 -14.6098
# 3 22.3877 17.7179 49.6757 -9.6421 -14.9174 -4.3582
# 4 -18.2622 -27.4671 -9.6421 32.6293 -1.6760 -7.3145
# 5 -30.0520 -8.9800 -14.9174 -1.6760 34.3069 -7.8481
# 6 -6.4703 -14.6098 -4.3582 -7.3145 -7.8481 48.5032
#
#
#
# Elastic Compliance Matrix: (Units=1/GPa)
#
#
# Indices 1 2 3 4 5 6 
#
# 1 0.011559 -0.003656 0.000292 0.004630 0.010164 0.002810
# 2 -0.003656 0.013807 0.000035 0.010980 0.002266 0.005697
# 3 0.000292 0.000035 0.026635 0.010161 0.013762 0.006202
# 4 0.004630 0.010980 0.010161 0.049761 0.017240 0.015132
# 5 0.010164 0.002266 0.013762 0.017240 0.048615 0.013741
# 6 0.002810 0.005697 0.006202 0.015132 0.013741 0.027770
#
#
# Mechanical properties :
#
#
# Convention : Reuss Voigt Hill
#
# Bulk Modulus (GPa) = 22.05444 56.16730 39.11087
# Shear Modulus (GPa) = 25.00997 36.94062 30.97530
#
# Velocity S-wave (km/s) = 3.22065 3.91416 3.58422
# Velocity P-wave (km/s) = 4.79342 6.61227 5.77490
#
# Compressibility (1/GPa) = 0.04534234
#
# Stress axis : x y z
#
# Youngs Moduli (GPa) = 86.51432 72.42785 37.54396
#
# Poissons Ratio (x) = 0.26481 -0.01097
# Poissons Ratio (y) = 0.31631 -0.00130
# Poissons Ratio (z) = -0.02528 -0.00251
#
# Static dielectric constant tensor:
#      x y z
#    x 5.157150 -0.320590 -0.273160 
#    y -0.320590 4.520350 -0.207590 
#    z -0.273160 -0.207590 3.993480 
# 
# 
# High freq. dielectric constant tensor:
#      x y z
#    x 1.985030 -0.004670 -0.018140 
#    y -0.004670 1.963080 -0.010640 
#    z -0.018140 -0.010640 1.923790 
# 
# From -- ./inp_files/457631.got.cif
#   From: 2010.06.25/outbox.cif.g09.slc.cpg/sg2_229_cif.got.tgz:457631.got - 2010.06.27 13:26:56.
