data_PCOD8003447
_publ_section_title
;
Structure prediction by ZEFSAII (Michael W. Deem and Ramdas Pophale) SiO2 
 PCOD8003447
Probable space group: P -1
;
_chemical_formula_sum "Si O2"
_cell_formula_units_Z 14
_cell_length_a 7.731154
_cell_length_b 11.085852
_cell_length_c 11.578050
_cell_angle_alpha 91.877360
_cell_angle_beta 59.591340
_cell_angle_gamma 57.840021
_cell_volume 659.529736
_symmetry_space_group_name_H-M "P -1"
_symmetry_group_IT_number 2
_symmetry_cell_setting 'triclinic'
loop_
_space_group_symop_operation_xyz
x,y,z
-x,-y,-z
loop_
_atom_site_type_symbol
_atom_site_label
_atom_site_fract_x
_atom_site_fract_y
_atom_site_fract_z
Si Si1 0.921104 0.710645 0.474435
Si Si2 0.638716 0.874065 0.794290
Si Si3 0.095768 0.691782 0.178320
Si Si4 0.685207 0.551814 0.506716
Si Si5 0.843121 0.315858 0.262361
Si Si6 0.563718 0.672763 0.968361
Si Si7 0.801222 0.766640 0.055070
O O1 0.689794 0.849196 0.638520
O O2 0.845510 0.610874 0.446353
O O3 0.968337 0.775685 0.347991
O O4 0.186286 0.594227 0.453582
O O5 0.899012 0.827995 0.763295
O O6 0.401019 0.052228 0.907479
O O7 0.581451 0.763099 0.861685
O O8 0.265665 0.743592 0.086431
O O9 0.864402 0.748798 0.168472
O O10 0.271103 0.506298 0.130026
O O11 0.709807 0.486276 0.368235
O O12 0.388017 0.694306 0.652028
O O13 0.922665 0.314573 0.104034
O O14 0.678701 0.686683 0.049313
#
# Coordination Sequence:
#
# PCOD8003447 Si02
#       7
#     2   2   2   2   2   2   2
#     4  10  20  37  57  87 125 156 199 254 295 369
#     4  10  22  42  63  86 124 163 208 244 298 365
#     4  11  24  38  63  94 125 159 201 252 321 349
#     4   9  18  34  62  87 118 154 206 255 299 345
#     4   9  18  34  60  90 110 155 208 252 295 349
#     4  10  22  41  63  92 121 156 210 260 296 358
#     4  11  23  41  63  90 128 163 201 250 303 372
#
# _framework density 21.227246999999998
#
# number of rings (size 3 to 8) (size 9 to 14) (size 15 to 20)
#    0.000    2.000    0.000    5.571    6.000    1.143 
#    7.714    0.714    0.000    0.000    0.000    0.000 
#    0.000    0.000    0.000    0.000    0.000    0.000 
#
# Total GULP energy -173538.059306 kJ/mol
# GULP energy per Si atom -12395.575665 kJ/mol
# Density = 2.117893 g / cm^3
# Si number density = 21.227247 Si / 1000 Ang^3
#
#
#
# Elastic Constant Matrix: (Units=GPa)
#
#
# Indices 1 2 3 4 5 6 
#
# 1 80.6942 11.2828 47.7209 -8.1510 -9.2639 -4.5129
# 2 11.2828 45.0645 29.7170 0.9735 -10.4959 0.0102
# 3 47.7209 29.7170 132.0061 -8.8759 -3.1747 -4.4756
# 4 -8.1510 0.9735 -8.8759 25.2323 -8.5850 3.7819
# 5 -9.2639 -10.4959 -3.1747 -8.5850 31.0556 -2.3269
# 6 -4.5129 0.0102 -4.4756 3.7819 -2.3269 17.1638
#
#
#
# Elastic Compliance Matrix: (Units=1/GPa)
#
#
# Indices 1 2 3 4 5 6 
#
# 1 0.017117 0.000933 -0.005797 0.005254 0.006484 0.002710
# 2 0.000933 0.028394 -0.006510 0.000087 0.009216 -0.000239
# 3 -0.005797 -0.006510 0.011201 0.001408 -0.002337 0.000774
# 4 0.005254 0.000087 0.001408 0.047752 0.014431 -0.006817
# 5 0.006484 0.009216 -0.002337 0.014431 0.041262 0.003504
# 6 0.002710 -0.000239 0.000774 -0.006817 0.003504 0.061154
#
#
# Mechanical properties :
#
#
# Convention : Reuss Voigt Hill
#
# Bulk Modulus (GPa) = 29.44214 48.35626 38.89920
# Shear Modulus (GPa) = 20.75127 25.95994 23.35560
#
# Velocity S-wave (km/s) = 3.13001 3.50087 3.32062
# Velocity P-wave (km/s) = 5.19257 6.25869 5.75039
#
# Compressibility (1/GPa) = 0.03396492
#
# Stress axis : x y z
#
# Youngs Moduli (GPa) = 58.42228 35.21844 89.27646
#
# Poissons Ratio (x) = -0.03287 0.51752
# Poissons Ratio (y) = -0.05452 0.58119
# Poissons Ratio (z) = 0.33866 0.22927
#
# Static dielectric constant tensor:
#      x y z
#    x 3.995500 -0.081280 -0.022960 
#    y -0.081280 3.363900 0.033750 
#    z -0.022960 0.033750 4.045010 
# 
# 
# High freq. dielectric constant tensor:
#      x y z
#    x 1.837820 -0.008840 0.002060 
#    y -0.008840 1.783710 0.003500 
#    z 0.002060 0.003500 1.847140 
# 
# From -- ./inp_files/151544.got.cif
#   From: 2010.06.25/outbox.cif.g09.slc.cpg/sg2_76_cif.got.tgz:151544.got - 2010.06.27 13:26:56.
