data_PCOD8003018
_publ_section_title
;
Structure prediction by ZEFSAII (Michael W. Deem and Ramdas Pophale) SiO2 
 PCOD8003018
Probable space group: P -1
;
_chemical_formula_sum "Si O2"
_cell_formula_units_Z 16
_cell_length_a 15.304005
_cell_length_b 11.012371
_cell_length_c 8.546584
_cell_angle_alpha 55.987526
_cell_angle_beta 131.724993
_cell_angle_gamma 97.968747
_cell_volume 825.105436
_symmetry_space_group_name_H-M "P -1"
_symmetry_group_IT_number 2
_symmetry_cell_setting 'triclinic'
loop_
_space_group_symop_operation_xyz
x,y,z
-x,-y,-z
loop_
_atom_site_type_symbol
_atom_site_label
_atom_site_fract_x
_atom_site_fract_y
_atom_site_fract_z
Si Si1 0.507617 0.118012 0.610127
Si Si2 0.656434 0.777732 0.937920
Si Si3 0.366282 0.340504 0.685838
Si Si4 0.195046 0.588926 0.056769
Si Si5 0.683573 0.909463 0.364141
Si Si6 0.385082 0.752164 0.085721
Si Si7 0.098678 0.407581 0.814368
Si Si8 0.967061 0.676508 0.897983
O O1 0.459462 0.211155 0.322742
O O2 0.383494 0.091260 0.549323
O O3 0.555911 0.230405 0.689714
O O4 0.624902 0.952664 0.844226
O O5 0.670439 0.645880 0.184621
O O6 0.787799 0.727595 0.039554
O O7 0.260190 0.456211 0.362032
O O8 0.392927 0.156384 0.803211
O O9 0.499248 0.361520 0.802308
O O10 0.285623 0.671007 0.043428
O O11 0.153392 0.514408 0.909427
O O12 0.075390 0.722454 0.907762
O O13 0.828887 0.794998 0.602933
O O14 0.681329 0.080526 0.197991
O O15 0.000000 0.500000 0.500000
O O16 0.026380 0.328237 0.901248
O O17 0.000000 0.500000 0.000000
#
# Coordination Sequence:
#
# PCOD8003018 Si02
#       8
#     2   2   2   2   2   2   2   2
#     4  10  20  36  61  91 119 153 195 248 293 345
#     4  11  20  34  62  93 114 148 207 240 293 340
#     4  11  19  37  62  89 114 160 198 237 283 356
#     4  11  24  40  59  88 120 157 200 245 292 344
#     4  11  18  38  63  86 115 155 210 238 277 352
#     4  11  22  38  60  89 124 154 195 243 297 348
#     4  11  22  37  61  86 116 154 202 244 289 350
#     4  10  20  38  60  81 112 156 205 243 273 346
#
# _framework density 19.391459999999999
#
# number of rings (size 3 to 8) (size 9 to 14) (size 15 to 20)
#    0.000    1.250    6.250    2.625    1.750    0.500 
#    0.000    3.750    0.000    1.500    0.000    0.000 
#    0.000    0.000    0.000    0.000    0.000    0.000 
#
# Total GULP energy -198256.567653 kJ/mol
# GULP energy per Si atom -12391.035478 kJ/mol
# Density = 1.934732 g / cm^3
# Si number density = 19.391460 Si / 1000 Ang^3
#
#
#
# Elastic Constant Matrix: (Units=GPa)
#
#
# Indices 1 2 3 4 5 6 
#
# 1 150.5461 40.0007 43.9712 4.7659 12.8717 -11.0540
# 2 40.0007 45.4815 30.3269 3.3003 -4.8508 2.4494
# 3 43.9712 30.3269 108.9374 10.8851 -2.3405 -3.3950
# 4 4.7659 3.3003 10.8851 19.7902 -11.0373 2.3558
# 5 12.8717 -4.8508 -2.3405 -11.0373 42.1158 -4.0314
# 6 -11.0540 2.4494 -3.3950 2.3558 -4.0314 31.2436
#
#
#
# Elastic Compliance Matrix: (Units=1/GPa)
#
#
# Indices 1 2 3 4 5 6 
#
# 1 0.010038 -0.008362 -0.001380 -0.003277 -0.004611 0.003709
# 2 -0.008362 0.034536 -0.006718 0.004415 0.006756 -0.005857
# 3 -0.001380 -0.006718 0.012245 -0.006102 -0.001109 0.001686
# 4 -0.003277 0.004415 -0.006102 0.064303 0.017568 -0.004750
# 5 -0.004611 0.006756 -0.001109 0.017568 0.030506 0.000330
# 6 0.003709 -0.005857 0.001686 -0.004750 0.000330 0.034362
#
#
# Mechanical properties :
#
#
# Convention : Reuss Voigt Hill
#
# Bulk Modulus (GPa) = 41.84064 59.28472 50.56268
# Shear Modulus (GPa) = 22.03861 31.34101 26.68981
#
# Velocity S-wave (km/s) = 3.37488 4.02459 3.71397
# Velocity P-wave (km/s) = 6.06713 7.22741 6.67254
#
# Compressibility (1/GPa) = 0.02390021
#
# Stress axis : x y z
#
# Youngs Moduli (GPa) = 99.62562 28.95512 81.66540
#
# Poissons Ratio (x) = 0.24212 0.11268
# Poissons Ratio (y) = 0.83304 0.54861
# Poissons Ratio (z) = 0.13746 0.19452
#
# Static dielectric constant tensor:
#      x y z
#    x 4.225390 -0.219810 0.129570 
#    y -0.219810 3.145960 0.051530 
#    z 0.129570 0.051530 3.711800 
# 
# 
# High freq. dielectric constant tensor:
#      x y z
#    x 1.773150 -0.022970 0.004890 
#    y -0.022970 1.702820 0.002580 
#    z 0.004890 0.002580 1.769700 
# 
# From -- ./inp_files/218561.got.cif
#   From: 2010.06.25/outbox.cif.g09.slc.cpg/sg2_110_cif.got.tgz:218561.got - 2010.06.27 13:26:56.
