data_PCOD8003389
_publ_section_title
;
Structure prediction by ZEFSAII (Michael W. Deem and Ramdas Pophale) SiO2 
 PCOD8003389
Probable space group: P -1
;
_chemical_formula_sum "Si O2"
_cell_formula_units_Z 14
_cell_length_a 7.625241
_cell_length_b 7.715744
_cell_length_c 20.213026
_cell_angle_alpha 45.324715
_cell_angle_beta 119.652784
_cell_angle_gamma 123.552135
_cell_volume 693.360184
_symmetry_space_group_name_H-M "P -1"
_symmetry_group_IT_number 2
_symmetry_cell_setting 'triclinic'
loop_
_space_group_symop_operation_xyz
x,y,z
-x,-y,-z
loop_
_atom_site_type_symbol
_atom_site_label
_atom_site_fract_x
_atom_site_fract_y
_atom_site_fract_z
Si Si1 0.964985 0.733739 0.392443
Si Si2 0.410702 0.579665 0.101966
Si Si3 0.255553 0.245749 0.784148
Si Si4 0.649887 0.208709 0.625225
Si Si5 0.802250 0.981765 0.830171
Si Si6 0.407613 0.002121 0.077274
Si Si7 0.805850 0.815933 0.471882
O O1 0.870127 0.880379 0.389473
O O2 0.000000 0.500000 0.500000
O O3 0.197863 0.906319 0.360663
O O4 0.799041 0.640954 0.325295
O O5 0.240514 0.313483 0.119606
O O6 0.579342 0.529760 0.200271
O O7 0.298490 0.769319 0.066298
O O8 0.540266 0.723643 0.023064
O O9 0.368736 0.030393 0.846933
O O10 0.048211 0.128019 0.822318
O O11 0.760320 0.519663 0.563414
O O12 0.412091 0.119235 0.574529
O O13 0.650305 0.104731 0.727412
O O14 0.755437 0.008997 0.891008
O O15 0.000000 0.000000 0.500000
#
# Coordination Sequence:
#
# PCOD8003389 Si02
#       7
#     2   2   2   2   2   2   2
#     4   9  18  35  56  76 113 145 172 237 271 314
#     4   9  21  40  56  85 114 149 192 228 290 336
#     4   9  20  38  54  85 112 143 199 226 274 351
#     4   9  21  36  52  84 109 139 195 225 268 344
#     4  11  20  37  60  83 116 150 183 239 282 328
#     4   9  20  41  55  84 119 143 192 241 268 346
#     4  10  20  37  56  78 110 150 184 225 284 329
#
# _framework density 20.191526
#
# number of rings (size 3 to 8) (size 9 to 14) (size 15 to 20)
#    0.857    1.714    0.000    1.286    0.000    5.143 
#    7.714    0.000    0.000    0.000    0.000    0.000 
#    0.000    0.000    0.000    0.000    0.000    0.000 
#
# Total GULP energy -173433.299245 kJ/mol
# GULP energy per Si atom -12388.092803 kJ/mol
# Density = 2.014557 g / cm^3
# Si number density = 20.191526 Si / 1000 Ang^3
#
#
#
# Elastic Constant Matrix: (Units=GPa)
#
#
# Indices 1 2 3 4 5 6 
#
# 1 71.4817 15.0932 5.8976 10.3300 -14.2284 -4.2431
# 2 15.0932 64.1073 -3.5579 3.8966 -9.3674 -0.1523
# 3 5.8976 -3.5579 77.5422 13.1457 -14.1703 -9.4108
# 4 10.3300 3.8966 13.1457 23.0422 -2.4856 1.7717
# 5 -14.2284 -9.3674 -14.1703 -2.4856 36.9277 9.8392
# 6 -4.2431 -0.1523 -9.4108 1.7717 9.8392 19.9657
#
#
#
# Elastic Compliance Matrix: (Units=1/GPa)
#
#
# Indices 1 2 3 4 5 6 
#
# 1 0.016650 -0.002679 0.001020 -0.007210 0.005072 0.002139
# 2 -0.002679 0.017100 0.001982 -0.002249 0.004293 -0.001421
# 3 0.001020 0.001982 0.016264 -0.010056 0.004740 0.006454
# 4 -0.007210 -0.002249 -0.010056 0.053485 -0.000768 -0.010657
# 5 0.005072 0.004293 0.004740 -0.000768 0.035664 -0.014162
# 6 0.002139 -0.001421 0.006454 -0.010657 -0.014162 0.061497
#
#
# Mechanical properties :
#
#
# Convention : Reuss Voigt Hill
#
# Bulk Modulus (GPa) = 19.74011 27.55520 23.64766
# Shear Modulus (GPa) = 23.05206 29.03367 26.04287
#
# Velocity S-wave (km/s) = 3.38253 3.79610 3.59526
# Velocity P-wave (km/s) = 5.00529 5.73501 5.38253
#
# Compressibility (1/GPa) = 0.05065828
#
# Stress axis : x y z
#
# Youngs Moduli (GPa) = 60.06170 58.47880 61.48611
#
# Poissons Ratio (x) = 0.15666 -0.06269
# Poissons Ratio (y) = 0.16090 -0.12185
# Poissons Ratio (z) = -0.06123 -0.11589
#
# Static dielectric constant tensor:
#      x y z
#    x 3.998380 -0.046530 -0.168450 
#    y -0.046530 3.246220 0.109900 
#    z -0.168450 0.109900 3.842360 
# 
# 
# High freq. dielectric constant tensor:
#      x y z
#    x 1.791240 0.005200 -0.006940 
#    y 0.005200 1.748440 0.010860 
#    z -0.006940 0.010860 1.799230 
# 
# From -- ./inp_files/586606.got.cif
#   From: 2010.06.25/outbox.cif.g09.slc.cpg/sg2_294_cif.got.tgz:586606.got - 2010.06.27 13:26:56.
