data_PCOD8003154
_publ_section_title
;
Structure prediction by ZEFSAII (Michael W. Deem and Ramdas Pophale) SiO2 
 PCOD8003154
Probable space group: P -1
;
_chemical_formula_sum "Si O2"
_cell_formula_units_Z 12
_cell_length_a 8.301543
_cell_length_b 12.259710
_cell_length_c 11.853639
_cell_angle_alpha 31.894468
_cell_angle_beta 70.630922
_cell_angle_gamma 77.284463
_cell_volume 596.742021
_symmetry_space_group_name_H-M "P -1"
_symmetry_group_IT_number 2
_symmetry_cell_setting 'triclinic'
loop_
_space_group_symop_operation_xyz
x,y,z
-x,-y,-z
loop_
_atom_site_type_symbol
_atom_site_label
_atom_site_fract_x
_atom_site_fract_y
_atom_site_fract_z
Si Si1 0.513206 0.498452 0.663611
Si Si2 0.778364 0.859535 0.894182
Si Si3 0.648841 0.577789 0.810603
Si Si4 0.384997 0.808010 0.251653
Si Si5 0.795750 0.973192 0.549105
Si Si6 0.097699 0.661046 0.923015
O O1 0.586848 0.562415 0.711249
O O2 0.476585 0.708711 0.424008
O O3 0.653184 0.379245 0.666278
O O4 0.339188 0.336154 0.852262
O O5 0.701319 0.902891 0.749653
O O6 0.970947 0.801545 0.892193
O O7 0.779752 0.080495 0.766803
O O8 0.727933 0.812710 0.609114
O O9 0.500000 0.500000 0.000000
O O10 0.806249 0.443620 0.908685
O O11 0.500000 0.000000 0.000000
O O12 0.759816 0.196237 0.311804
O O13 0.000000 0.000000 0.500000
O O14 0.000000 0.500000 0.000000
#
# Coordination Sequence:
#
# PCOD8003154 Si02
#       6
#     2   2   2   2   2   2
#     4  10  21  40  63  91 124 160 206 261 302 366
#     4  10  20  36  63  88 118 167 209 243 304 371
#     4  12  23  38  60  98 129 157 206 258 312 362
#     4   9  21  39  63  87 119 165 214 249 309 361
#     4  10  21  36  58  89 124 166 198 243 306 371
#     4  11  22  38  58  89 130 167 202 242 312 378
#
# _framework density 20.109192
#
# number of rings (size 3 to 8) (size 9 to 14) (size 15 to 20)
#    0.000    1.667    5.000    0.000    4.667    3.333 
#    0.000    0.833    0.000   17.000    0.000    0.000 
#    0.000    0.000    0.000    0.000    0.000    0.000 
#
# Total GULP energy -148658.636997 kJ/mol
# GULP energy per Si atom -12388.219750 kJ/mol
# Density = 2.006342 g / cm^3
# Si number density = 20.109192 Si / 1000 Ang^3
#
#
#
# Elastic Constant Matrix: (Units=GPa)
#
#
# Indices 1 2 3 4 5 6 
#
# 1 67.0562 53.3500 34.9552 -3.1257 7.3220 4.9537
# 2 53.3500 140.2270 45.2063 -3.5051 10.6074 -0.4299
# 3 34.9552 45.2063 146.6788 -3.4085 18.5849 8.6652
# 4 -3.1257 -3.5051 -3.4085 33.6368 5.1370 8.4585
# 5 7.3220 10.6074 18.5849 5.1370 25.1533 -2.9760
# 6 4.9537 -0.4299 8.6652 8.4585 -2.9760 39.1308
#
#
#
# Elastic Compliance Matrix: (Units=1/GPa)
#
#
# Indices 1 2 3 4 5 6 
#
# 1 0.022949 -0.007678 -0.002571 0.002205 -0.002357 -0.003076
# 2 -0.007678 0.010582 -0.001368 0.000092 -0.001083 0.001289
# 3 -0.002571 -0.001368 0.008795 0.002045 -0.005889 -0.002527
# 4 0.002205 0.000092 0.002045 0.033926 -0.010166 -0.008837
# 5 -0.002357 -0.001083 -0.005889 -0.010166 0.048208 0.007454
# 6 -0.003076 0.001289 -0.002527 -0.008837 0.007454 0.028996
#
#
# Mechanical properties :
#
#
# Convention : Reuss Voigt Hill
#
# Bulk Modulus (GPa) = 52.38093 68.99833 60.68963
# Shear Modulus (GPa) = 27.31415 34.28090 30.79752
#
# Velocity S-wave (km/s) = 3.68950 4.13333 3.91770
# Velocity P-wave (km/s) = 6.65242 7.56079 7.12110
#
# Compressibility (1/GPa) = 0.01909092
#
# Stress axis : x y z
#
# Youngs Moduli (GPa) = 43.57399 94.50168 113.70028
#
# Poissons Ratio (x) = 0.72562 0.29232
# Poissons Ratio (y) = 0.33458 0.15558
# Poissons Ratio (z) = 0.11203 0.12931
#
# Static dielectric constant tensor:
#      x y z
#    x 3.384350 -0.178000 0.225410 
#    y -0.178000 4.081530 0.128290 
#    z 0.225410 0.128290 4.314900 
# 
# 
# High freq. dielectric constant tensor:
#      x y z
#    x 1.744150 -0.012220 0.018180 
#    y -0.012220 1.789620 -0.002780 
#    z 0.018180 -0.002780 1.811280 
# 
# From -- ./inp_files/24232.got.cif
#   From: 2010.06.25/outbox.cif.g09.slc.cpg/sg2_13_cif.got.tgz:24232.got - 2010.06.27 13:26:56.
