data_PCOD8003383
_publ_section_title
;
Structure prediction by ZEFSAII (Michael W. Deem and Ramdas Pophale) SiO2 
 PCOD8003383
Probable space group: P -1
;
_chemical_formula_sum "Si O2"
_cell_formula_units_Z 16
_cell_length_a 9.082652
_cell_length_b 19.099085
_cell_length_c 9.533036
_cell_angle_alpha 144.519711
_cell_angle_beta 76.232396
_cell_angle_gamma 112.813251
_cell_volume 875.367365
_symmetry_space_group_name_H-M "P -1"
_symmetry_group_IT_number 2
_symmetry_cell_setting 'triclinic'
loop_
_space_group_symop_operation_xyz
x,y,z
-x,-y,-z
loop_
_atom_site_type_symbol
_atom_site_label
_atom_site_fract_x
_atom_site_fract_y
_atom_site_fract_z
Si Si1 0.495765 0.054554 0.371565
Si Si2 0.255421 0.800961 0.959637
Si Si3 0.381665 0.732189 0.528970
Si Si4 0.870448 0.516993 0.952178
Si Si5 0.411162 0.414284 0.254668
Si Si6 0.942506 0.598856 0.761577
Si Si7 0.595131 0.572664 0.226475
Si Si8 0.519817 0.828395 0.143472
O O1 0.579895 0.136286 0.351762
O O2 0.483262 0.147470 0.650405
O O3 0.595130 0.963973 0.261321
O O4 0.318261 0.957339 0.203279
O O5 0.303443 0.747703 0.718359
O O6 0.062180 0.741894 0.926989
O O7 0.341244 0.755998 0.999343
O O8 0.257202 0.620968 0.284508
O O9 0.545118 0.699127 0.470871
O O10 0.956466 0.586401 0.905006
O O11 0.784203 0.604742 0.198907
O O12 0.000000 0.500000 0.000000
O O13 0.500000 0.500000 0.500000
O O14 0.241156 0.428095 0.281967
O O15 0.539752 0.467471 0.189312
O O16 0.376310 0.264083 0.049711
O O17 0.000000 0.500000 0.500000
O O18 0.500000 0.500000 0.000000
#
# Coordination Sequence:
#
# PCOD8003383 Si02
#       8
#     2   2   2   2   2   2   2   2
#     4   9  21  36  65  84 116 163 208 245 286 358
#     4  10  21  38  58  89 115 156 202 246 302 350
#     4  11  19  39  62  84 121 155 208 246 288 367
#     4  11  25  36  59  91 124 159 192 257 313 358
#     4  12  23  37  65  90 124 160 197 256 296 366
#     4  12  23  40  57  91 128 153 199 251 318 361
#     4  10  20  37  55  88 114 154 201 238 298 351
#     4   9  20  38  59  90 113 158 208 242 291 353
#
# _framework density 18.278040000000001
#
# number of rings (size 3 to 8) (size 9 to 14) (size 15 to 20)
#    0.750    0.750    3.750    3.375    5.250    0.000 
#    0.000    0.625    2.750    0.750    0.000    0.000 
#    0.000    0.000    0.000    0.000    0.000    0.000 
#
# Total GULP energy -198216.374027 kJ/mol
# GULP energy per Si atom -12388.523377 kJ/mol
# Density = 1.823644 g / cm^3
# Si number density = 18.278040 Si / 1000 Ang^3
#
#
#
# Elastic Constant Matrix: (Units=GPa)
#
#
# Indices 1 2 3 4 5 6 
#
# 1 90.1184 43.2555 46.0670 -18.5627 -5.0679 -3.1874
# 2 43.2555 119.5213 48.7363 -4.0146 -6.6429 8.8724
# 3 46.0670 48.7363 96.5924 -8.3260 0.4263 -0.2342
# 4 -18.5627 -4.0146 -8.3260 27.9427 -3.6689 -4.5731
# 5 -5.0679 -6.6429 0.4263 -3.6689 30.7419 0.9939
# 6 -3.1874 8.8724 -0.2342 -4.5731 0.9939 27.8531
#
#
#
# Elastic Compliance Matrix: (Units=1/GPa)
#
#
# Indices 1 2 3 4 5 6 
#
# 1 0.018889 -0.004248 -0.005877 0.011500 0.003481 0.005229
# 2 -0.004248 0.012027 -0.004316 -0.002951 0.001765 -0.004901
# 3 -0.005877 -0.004316 0.015337 -0.000091 -0.002154 0.000893
# 4 0.011500 -0.002951 -0.000091 0.045363 0.006367 0.009476
# 5 0.003481 0.001765 -0.002154 0.006367 0.034285 -0.000360
# 6 0.005229 -0.004901 0.000893 0.009476 -0.000360 0.039638
#
#
# Mechanical properties :
#
#
# Convention : Reuss Voigt Hill
#
# Bulk Modulus (GPa) = 57.56715 64.70553 61.13634
# Shear Modulus (GPa) = 24.97354 28.51909 26.74631
#
# Velocity S-wave (km/s) = 3.70038 3.95434 3.82946
# Velocity P-wave (km/s) = 7.05838 7.50511 7.28517
#
# Compressibility (1/GPa) = 0.01737102
#
# Stress axis : x y z
#
# Youngs Moduli (GPa) = 52.94080 83.14655 65.20158
#
# Poissons Ratio (x) = 0.35323 0.38316
# Poissons Ratio (y) = 0.22491 0.28142
# Poissons Ratio (z) = 0.31111 0.35888
#
# Static dielectric constant tensor:
#      x y z
#    x -2.020430 -0.055490 4.450250 
#    y -0.055490 3.367380 -0.079100 
#    z 4.450250 -0.079100 -0.284170 
# 
# 
# High freq. dielectric constant tensor:
#      x y z
#    x 1.682150 -0.010160 0.002030 
#    y -0.010160 1.713960 -0.014580 
#    z 0.002030 -0.014580 1.714480 
# 
# From -- ./inp_files/218846.got.cif
#   From: 2010.06.25/outbox.cif.g09.slc.cpg/sg2_110_cif.got.tgz:218846.got - 2010.06.27 13:26:56.
