data_PCOD8003290
_publ_section_title
;
Structure prediction by ZEFSAII (Michael W. Deem and Ramdas Pophale) SiO2 
 PCOD8003290
Probable space group: P -1
;
_chemical_formula_sum "Si O2"
_cell_formula_units_Z 16
_cell_length_a 9.276746
_cell_length_b 10.158739
_cell_length_c 16.919851
_cell_angle_alpha 140.633367
_cell_angle_beta 109.633007
_cell_angle_gamma 98.259307
_cell_volume 702.593269
_symmetry_space_group_name_H-M "P -1"
_symmetry_group_IT_number 2
_symmetry_cell_setting 'triclinic'
loop_
_space_group_symop_operation_xyz
x,y,z
-x,-y,-z
loop_
_atom_site_type_symbol
_atom_site_label
_atom_site_fract_x
_atom_site_fract_y
_atom_site_fract_z
Si Si1 0.246712 0.846675 0.225337
Si Si2 0.080072 0.819908 0.773612
Si Si3 0.255983 0.107852 0.095345
Si Si4 0.014215 0.998900 0.698262
Si Si5 0.300694 0.583648 0.718920
Si Si6 0.623777 0.457787 0.560801
Si Si7 0.140553 0.290629 0.706024
Si Si8 0.027618 0.579603 0.907183
O O1 0.195721 0.633736 0.187337
O O2 0.091981 0.901664 0.232992
O O3 0.485847 0.131585 0.405052
O O4 0.201867 0.703736 0.065304
O O5 0.181937 0.691037 0.743781
O O6 0.830696 0.566662 0.607045
O O7 0.142855 0.981152 0.776858
O O8 0.152389 0.039857 0.959055
O O9 0.468120 0.168102 0.156448
O O10 0.315381 0.383268 0.270726
O O11 0.082578 0.844486 0.997350
O O12 0.187046 0.224648 0.768830
O O13 0.823922 0.697110 0.485354
O O14 0.323868 0.522234 0.786308
O O15 0.500000 0.500000 0.500000
O O16 0.023612 0.398062 0.755404
O O17 0.000000 0.000000 0.500000
#
# Coordination Sequence:
#
# PCOD8003290 Si02
#       8
#     2   2   2   2   2   2   2   2
#     4  10  20  39  66  91 123 171 219 259 327 383
#     4  12  24  37  62 104 131 165 222 279 322 384
#     4  12  23  40  66  96 136 171 220 271 330 387
#     4  10  20  40  65  89 128 172 216 263 325 391
#     4  11  22  41  66  95 129 174 219 267 327 387
#     4  12  22  41  66  95 130 179 218 267 329 392
#     4   9  20  38  64  90 127 177 212 258 330 390
#     4  10  20  36  65  95 123 166 216 271 315 385
#
# _framework density 22.772779
#
# number of rings (size 3 to 8) (size 9 to 14) (size 15 to 20)
#    0.000    1.250    5.000    1.125    0.000    0.000 
#    0.000    1.250    0.000    6.000    0.000    0.000 
#    0.000    0.000    0.000    0.000    0.000    0.000 
#
# Total GULP energy -198242.199396 kJ/mol
# GULP energy per Si atom -12390.137462 kJ/mol
# Density = 2.272095 g / cm^3
# Si number density = 22.772779 Si / 1000 Ang^3
#
#
#
# Elastic Constant Matrix: (Units=GPa)
#
#
# Indices 1 2 3 4 5 6 
#
# 1 72.3184 17.9133 23.0643 1.2219 6.1500 4.7551
# 2 17.9133 161.0617 34.0893 0.4427 11.5051 5.2525
# 3 23.0643 34.0893 90.3858 1.1966 -6.8463 -2.5514
# 4 1.2219 0.4427 1.1966 33.8493 6.9350 -5.7623
# 5 6.1500 11.5051 -6.8463 6.9350 35.0968 -5.1749
# 6 4.7551 5.2525 -2.5514 -5.7623 -5.1749 19.1561
#
#
#
# Elastic Compliance Matrix: (Units=1/GPa)
#
#
# Indices 1 2 3 4 5 6 
#
# 1 0.016097 -0.000345 -0.004463 -0.000522 -0.004334 -0.005823
# 2 -0.000345 0.007223 -0.002985 0.000181 -0.003391 -0.003154
# 3 -0.004463 -0.002985 0.013880 -0.000519 0.005316 0.005055
# 4 -0.000522 0.000181 -0.000519 0.032044 -0.005185 0.008249
# 5 -0.004334 -0.003391 0.005316 -0.005185 0.033947 0.010325
# 6 -0.005823 -0.003154 0.005055 0.008249 0.010325 0.060457
#
#
# Mechanical properties :
#
#
# Convention : Reuss Voigt Hill
#
# Bulk Modulus (GPa) = 46.26292 52.65550 49.45921
# Shear Modulus (GPa) = 26.81840 34.20038 30.50939
#
# Velocity S-wave (km/s) = 3.43542 3.87952 3.66420
# Velocity P-wave (km/s) = 6.00793 6.57571 6.29822
#
# Compressibility (1/GPa) = 0.02161559
#
# Stress axis : x y z
#
# Youngs Moduli (GPa) = 62.12397 138.43893 72.04363
#
# Poissons Ratio (x) = 0.04772 0.32155
# Poissons Ratio (y) = 0.02141 0.21502
# Poissons Ratio (z) = 0.27727 0.41319
#
# Static dielectric constant tensor:
#      x y z
#    x 3.783780 0.391790 -0.275370 
#    y 0.391790 4.752630 0.130060 
#    z -0.275370 0.130060 4.374770 
# 
# 
# High freq. dielectric constant tensor:
#      x y z
#    x 1.862970 0.024130 -0.034070 
#    y 0.024130 1.915190 0.005380 
#    z -0.034070 0.005380 1.901230 
# 
# From -- ./inp_files/559304.got.cif
#   From: 2010.06.25/outbox.cif.g09.slc.cpg/sg2_280_cif.got.tgz:559304.got - 2010.06.27 13:26:56.
