data_PCOD8003312
_publ_section_title
;
Structure prediction by ZEFSAII (Michael W. Deem and Ramdas Pophale) SiO2 
 PCOD8003312
Probable space group: P -1
;
_chemical_formula_sum "Si O2"
_cell_formula_units_Z 14
_cell_length_a 11.380991
_cell_length_b 7.065609
_cell_length_c 12.383524
_cell_angle_alpha 118.323879
_cell_angle_beta 37.415887
_cell_angle_gamma 112.212615
_cell_volume 532.608966
_symmetry_space_group_name_H-M "P -1"
_symmetry_group_IT_number 2
_symmetry_cell_setting 'triclinic'
loop_
_space_group_symop_operation_xyz
x,y,z
-x,-y,-z
loop_
_atom_site_type_symbol
_atom_site_label
_atom_site_fract_x
_atom_site_fract_y
_atom_site_fract_z
Si Si1 0.964672 0.250758 0.960225
Si Si2 0.754068 0.714667 0.988600
Si Si3 0.820022 0.121891 0.244097
Si Si4 0.380734 0.728055 0.368282
Si Si5 0.381218 0.262411 0.143742
Si Si6 0.024412 0.743698 0.502445
Si Si7 0.807548 0.237468 0.847586
O O1 0.904775 0.146115 0.860914
O O2 0.167117 0.139606 0.824842
O O3 0.000000 0.500000 0.000000
O O4 0.796515 0.201439 0.159614
O O5 0.583939 0.839046 0.214824
O O6 0.655672 0.663169 0.930936
O O7 0.783532 0.487265 0.961895
O O8 0.959285 0.830825 0.860585
O O9 0.656205 0.229609 0.466247
O O10 0.384059 0.472557 0.274788
O O11 0.206693 0.843502 0.459718
O O12 0.182091 0.128004 0.288903
O O13 0.588043 0.138322 0.968556
O O14 0.054040 0.769732 0.360338
O O15 0.000000 0.500000 0.500000
#
# Coordination Sequence:
#
# PCOD8003312 Si02
#       7
#     2   2   2   2   2   2   2
#     4  11  26  46  69  87 124 177 219 271 316 370
#     4  11  17  35  68  97 132 166 204 257 320 386
#     4  11  24  45  67  92 127 169 218 268 319 364
#     4  10  18  32  64 100 126 170 207 249 322 383
#     4  10  18  30  62 103 132 167 198 250 328 383
#     4  10  16  28  58  95 130 164 200 247 316 383
#     4  11  19  37  60  96 128 166 215 249 313 386
#
# _framework density 26.285701
#
# number of rings (size 3 to 8) (size 9 to 14) (size 15 to 20)
#    0.000    1.429    7.143    1.714    0.000    0.000 
#    0.000   10.000    0.000    0.000    0.000    0.000 
#    0.000    0.000    0.000    0.000    0.000    0.000 
#
# Total GULP energy -173490.844236 kJ/mol
# GULP energy per Si atom -12392.203160 kJ/mol
# Density = 2.622587 g / cm^3
# Si number density = 26.285701 Si / 1000 Ang^3
#
#
#
# Elastic Constant Matrix: (Units=GPa)
#
#
# Indices 1 2 3 4 5 6 
#
# 1 98.3606 24.5790 42.8293 -12.1950 6.1738 -26.6608
# 2 24.5790 87.8994 41.5506 -19.5593 1.9216 -1.7003
# 3 42.8293 41.5506 228.3924 4.1456 7.3691 -16.6915
# 4 -12.1950 -19.5593 4.1456 32.7662 -4.6609 6.3938
# 5 6.1738 1.9216 7.3691 -4.6609 67.5801 -8.6251
# 6 -26.6608 -1.7003 -16.6915 6.3938 -8.6251 32.2534
#
#
#
# Elastic Compliance Matrix: (Units=1/GPa)
#
#
# Indices 1 2 3 4 5 6 
#
# 1 0.014693 -0.002768 -0.001500 0.001930 0.000431 0.010956
# 2 -0.002768 0.015518 -0.002832 0.009549 0.000169 -0.004783
# 3 -0.001500 -0.002832 0.005392 -0.003366 -0.000351 0.001975
# 4 0.001930 0.009549 -0.003366 0.038956 0.001725 -0.006905
# 5 0.000431 0.000169 -0.000351 0.001725 0.015416 0.003965
# 6 0.010956 -0.004783 0.001975 -0.006905 0.003965 0.043260
#
#
# Mechanical properties :
#
#
# Convention : Reuss Voigt Hill
#
# Bulk Modulus (GPa) = 46.72303 70.28558 58.50431
# Shear Modulus (GPa) = 32.34777 46.89949 39.62363
#
# Velocity S-wave (km/s) = 3.51183 4.22859 3.88676
# Velocity P-wave (km/s) = 5.85300 7.11607 6.51521
#
# Compressibility (1/GPa) = 0.02140272
#
# Stress axis : x y z
#
# Youngs Moduli (GPa) = 68.05817 64.44083 185.46797
#
# Poissons Ratio (x) = 0.17835 0.27822
# Poissons Ratio (y) = 0.18836 0.52534
# Poissons Ratio (z) = 0.10209 0.18253
#
# Static dielectric constant tensor:
#      x y z
#    x 5.259100 0.119940 -0.393370 
#    y 0.119940 4.929290 0.048550 
#    z -0.393370 0.048550 5.370560 
# 
# 
# High freq. dielectric constant tensor:
#      x y z
#    x 2.057180 0.009300 0.003680 
#    y 0.009300 2.067480 0.003800 
#    z 0.003680 0.003800 2.067000 
# 
# From -- ./inp_files/415087.got.cif
#   From: 2010.06.25/outbox.cif.g09.slc.cpg/sg2_208_cif.got.tgz:415087.got - 2010.06.27 13:26:56.
