data_PCOD8003147
_publ_section_title
;
Structure prediction by ZEFSAII (Michael W. Deem and Ramdas Pophale) SiO2 
 PCOD8003147
Probable space group: P -1
;
_chemical_formula_sum "Si O2"
_cell_formula_units_Z 12
_cell_length_a 9.330123
_cell_length_b 6.612375
_cell_length_c 26.578296
_cell_angle_alpha 117.923476
_cell_angle_beta 26.932218
_cell_angle_gamma 106.742328
_cell_volume 620.954632
_symmetry_space_group_name_H-M "P -1"
_symmetry_group_IT_number 2
_symmetry_cell_setting 'triclinic'
loop_
_space_group_symop_operation_xyz
x,y,z
-x,-y,-z
loop_
_atom_site_type_symbol
_atom_site_label
_atom_site_fract_x
_atom_site_fract_y
_atom_site_fract_z
Si Si1 0.297956 0.167399 0.627753
Si Si2 0.640163 0.978851 0.600960
Si Si3 0.709644 0.758565 0.163044
Si Si4 0.758796 0.224594 0.071698
Si Si5 0.393499 0.522864 0.478284
Si Si6 0.769489 0.960205 0.742826
O O1 0.294446 0.435859 0.644821
O O2 0.500000 0.000000 0.500000
O O3 0.483043 0.119203 0.616874
O O4 0.933287 0.135599 0.742453
O O5 0.680973 0.701518 0.548397
O O6 0.396979 0.083370 0.735693
O O7 0.000000 0.000000 0.500000
O O8 0.709578 0.486275 0.143297
O O9 0.467468 0.875086 0.205938
O O10 0.083067 0.760423 0.031208
O O11 0.409692 0.166368 0.175080
O O12 0.000000 0.000000 0.000000
O O13 0.500000 0.500000 0.500000
O O14 0.055826 0.746258 0.600990
#
# Coordination Sequence:
#
# PCOD8003147 Si02
#       6
#     2   2   2   2   2   2
#     4  10  21  36  54  84 120 160 198 235 293 358
#     4  12  23  36  60  93 126 155 199 252 296 350
#     4  10  22  37  61  92 121 153 205 257 292 353
#     4   9  20  40  63  86 117 159 205 245 310 353
#     4  11  22  37  60  87 125 162 197 234 301 365
#     4  10  20  36  63  86 119 165 201 238 298 360
#
# _framework density 19.325084
#
# number of rings (size 3 to 8) (size 9 to 14) (size 15 to 20)
#    0.000    1.667    3.333    3.000    2.333    5.333 
#    0.000    0.833    0.000   10.000    0.000    0.000 
#    0.000    0.000    0.000    0.000    0.000    0.000 
#
# Total GULP energy -148679.459985 kJ/mol
# GULP energy per Si atom -12389.954999 kJ/mol
# Density = 1.928110 g / cm^3
# Si number density = 19.325084 Si / 1000 Ang^3
#
#
#
# Elastic Constant Matrix: (Units=GPa)
#
#
# Indices 1 2 3 4 5 6 
#
# 1 118.9404 57.6689 43.0399 -14.6143 6.5255 9.1935
# 2 57.6689 178.8778 55.7079 -23.3081 -7.7378 21.6628
# 3 43.0399 55.7079 92.8498 -18.1196 6.4861 16.5968
# 4 -14.6143 -23.3081 -18.1196 48.5887 3.5199 -8.2160
# 5 6.5255 -7.7378 6.4861 3.5199 22.2602 -0.7127
# 6 9.1935 21.6628 16.5968 -8.2160 -0.7127 37.3627
#
#
#
# Elastic Compliance Matrix: (Units=1/GPa)
#
#
# Indices 1 2 3 4 5 6 
#
# 1 0.011145 -0.002644 -0.003174 0.001218 -0.003441 0.000402
# 2 -0.002644 0.008075 -0.003293 0.001163 0.004286 -0.002231
# 3 -0.003174 -0.003293 0.015889 0.003147 -0.005463 -0.003780
# 4 0.001218 0.001163 0.003147 0.023461 -0.004493 0.002701
# 5 -0.003441 0.004286 -0.005463 -0.004493 0.049748 0.000749
# 6 0.000402 -0.002231 -0.003780 0.002701 0.000749 0.030247
#
#
# Mechanical properties :
#
#
# Convention : Reuss Voigt Hill
#
# Bulk Modulus (GPa) = 59.21612 78.16681 68.69147
# Shear Modulus (GPa) = 30.78510 37.25908 34.02209
#
# Velocity S-wave (km/s) = 3.99559 4.39568 4.20040
# Velocity P-wave (km/s) = 7.21075 8.14241 7.69070
#
# Compressibility (1/GPa) = 0.01688729
#
# Stress axis : x y z
#
# Youngs Moduli (GPa) = 89.72482 123.83198 62.93742
#
# Poissons Ratio (x) = 0.32735 0.19977
# Poissons Ratio (y) = 0.23719 0.20728
# Poissons Ratio (z) = 0.28480 0.40783
#
# Static dielectric constant tensor:
#      x y z
#    x 3.356090 0.167710 -0.211980 
#    y 0.167710 4.341670 -0.494260 
#    z -0.211980 -0.494260 3.998260 
# 
# 
# High freq. dielectric constant tensor:
#      x y z
#    x 1.728300 -0.001590 -0.012170 
#    y -0.001590 1.783670 -0.017640 
#    z -0.012170 -0.017640 1.742260 
# 
# From -- ./inp_files/35059.got.cif
#   From: 2010.06.25/outbox.cif.g09.slc.cpg/sg2_18_cif.got.tgz:35059.got - 2010.06.27 13:26:56.
