data_PCOD8003250
_publ_section_title
;
Structure prediction by ZEFSAII (Michael W. Deem and Ramdas Pophale) SiO2 
 PCOD8003250
Probable space group: P -1
;
_chemical_formula_sum "Si O2"
_cell_formula_units_Z 16
_cell_length_a 15.087920
_cell_length_b 8.551268
_cell_length_c 13.817366
_cell_angle_alpha 104.462655
_cell_angle_beta 40.458059
_cell_angle_gamma 132.993859
_cell_volume 696.953203
_symmetry_space_group_name_H-M "P -1"
_symmetry_group_IT_number 2
_symmetry_cell_setting 'triclinic'
loop_
_space_group_symop_operation_xyz
x,y,z
-x,-y,-z
loop_
_atom_site_type_symbol
_atom_site_label
_atom_site_fract_x
_atom_site_fract_y
_atom_site_fract_z
Si Si1 0.385945 0.305411 0.344289
Si Si2 0.596634 0.349035 0.996582
Si Si3 0.413902 0.593080 0.617773
Si Si4 0.515612 0.783752 0.364018
Si Si5 0.654520 0.083368 0.004782
Si Si6 0.035251 0.272366 0.389510
Si Si7 0.750991 0.302013 0.583868
Si Si8 0.062859 0.733344 0.021698
O O1 0.512872 0.397636 0.152868
O O2 0.482918 0.273451 0.341933
O O3 0.417683 0.518156 0.380841
O O4 0.128247 0.028124 0.503162
O O5 0.387220 0.089470 0.069934
O O6 0.726038 0.318207 0.933281
O O7 0.764751 0.600145 0.825641
O O8 0.500000 0.500000 0.500000
O O9 0.494935 0.794886 0.498957
O O10 0.150355 0.350578 0.808684
O O11 0.366304 0.777769 0.433612
O O12 0.766583 0.027808 0.157853
O O13 0.838464 0.187651 0.940548
O O14 0.425691 0.909213 0.220991
O O15 0.918768 0.311400 0.435564
O O16 0.125114 0.419769 0.440858
O O17 0.000000 0.500000 0.000000
#
# Coordination Sequence:
#
# PCOD8003250 Si02
#       8
#     2   2   2   2   2   2   2   2
#     4  11  23  41  61  91 127 167 213 258 316 393
#     4  10  20  36  64  95 126 169 200 257 328 380
#     4  10  25  44  63  91 129 173 218 266 317 387
#     4  10  25  44  65  89 131 167 209 274 319 374
#     4   9  19  37  61  98 129 158 213 264 312 383
#     4  10  21  35  65  92 125 163 206 254 315 386
#     4   9  19  40  60  94 126 160 207 259 311 379
#     4  11  24  42  68  97 126 168 219 273 318 379
#
# _framework density 22.957063999999999
#
# number of rings (size 3 to 8) (size 9 to 14) (size 15 to 20)
#    0.000    2.000    1.250    0.750    5.250    7.000 
#    0.000    6.875    0.000    0.000    0.000    0.000 
#    0.000    0.000    0.000    0.000    0.000    0.000 
#
# Total GULP energy -198405.917203 kJ/mol
# GULP energy per Si atom -12400.369825 kJ/mol
# Density = 2.290481 g / cm^3
# Si number density = 22.957064 Si / 1000 Ang^3
#
#
#
# Elastic Constant Matrix: (Units=GPa)
#
#
# Indices 1 2 3 4 5 6 
#
# 1 78.4093 -6.5489 16.5640 2.5731 3.7164 18.8463
# 2 -6.5489 68.9421 27.3086 -11.4153 5.7219 5.3571
# 3 16.5640 27.3086 108.8859 -14.1402 1.1204 3.6177
# 4 2.5731 -11.4153 -14.1402 36.1152 1.9042 6.8119
# 5 3.7164 5.7219 1.1204 1.9042 34.4995 -2.9858
# 6 18.8463 5.3571 3.6177 6.8119 -2.9858 27.9907
#
#
#
# Elastic Compliance Matrix: (Units=1/GPa)
#
#
# Indices 1 2 3 4 5 6 
#
# 1 0.016892 0.004326 -0.002998 0.001553 -0.003614 -0.012577
# 2 0.004326 0.018489 -0.004273 0.005548 -0.004368 -0.007716
# 3 -0.002998 -0.004273 0.011076 0.003032 0.000568 0.000728
# 4 0.001553 0.005548 0.003032 0.032783 -0.003939 -0.010898
# 5 -0.003614 -0.004368 0.000568 -0.003939 0.030944 0.007455
# 6 -0.012577 -0.007716 0.000728 -0.010898 0.007455 0.049024
#
#
# Mechanical properties :
#
#
# Convention : Reuss Voigt Hill
#
# Bulk Modulus (GPa) = 24.65080 36.76497 30.70789
# Shear Modulus (GPa) = 27.99248 34.31532 31.15390
#
# Velocity S-wave (km/s) = 3.49569 3.87041 3.68781
# Velocity P-wave (km/s) = 5.20137 6.00190 5.61592
#
# Compressibility (1/GPa) = 0.04056663
#
# Stress axis : x y z
#
# Youngs Moduli (GPa) = 59.20088 54.08512 90.28931
#
# Poissons Ratio (x) = -0.23400 0.27068
# Poissons Ratio (y) = -0.25613 0.38585
# Poissons Ratio (z) = 0.17748 0.23113
#
# Static dielectric constant tensor:
#      x y z
#    x 4.626160 0.368950 0.259600 
#    y 0.368950 3.930200 -0.168260 
#    z 0.259600 -0.168260 4.237480 
# 
# 
# High freq. dielectric constant tensor:
#      x y z
#    x 1.908760 0.015010 0.010240 
#    y 0.015010 1.894920 -0.005560 
#    z 0.010240 -0.005560 1.906290 
# 
# From -- ./inp_files/519647.got.cif
#   From: 2010.06.25/outbox.cif.g09.slc.cpg/sg2_260_cif.got.tgz:519647.got - 2010.06.27 13:26:56.
