data_PCOD8003508
_publ_section_title
;
Structure prediction by ZEFSAII (Michael W. Deem and Ramdas Pophale) SiO2 
 PCOD8003508
Probable space group: P -1
;
_chemical_formula_sum "Si O2"
_cell_formula_units_Z 16
_cell_length_a 20.373949
_cell_length_b 11.690601
_cell_length_c 11.777919
_cell_angle_alpha 146.956927
_cell_angle_beta 44.600668
_cell_angle_gamma 150.051007
_cell_volume 762.588833
_symmetry_space_group_name_H-M "P -1"
_symmetry_group_IT_number 2
_symmetry_cell_setting 'triclinic'
loop_
_space_group_symop_operation_xyz
x,y,z
-x,-y,-z
loop_
_atom_site_type_symbol
_atom_site_label
_atom_site_fract_x
_atom_site_fract_y
_atom_site_fract_z
Si Si1 0.434961 0.352018 0.793014
Si Si2 0.142684 0.221387 0.779478
Si Si3 0.629677 0.717871 0.448175
Si Si4 0.711062 0.275973 0.545739
Si Si5 0.794987 0.378183 0.765639
Si Si6 0.988725 0.566784 0.413589
Si Si7 0.985845 0.347827 0.003822
Si Si8 0.699258 0.714063 0.876191
O O1 0.398861 0.358253 0.714143
O O2 0.588466 0.642104 0.871047
O O3 0.416562 0.071667 0.603391
O O4 0.343030 0.330433 0.977185
O O5 0.276360 0.321687 0.655233
O O6 0.031389 0.870351 0.643309
O O7 0.173913 0.379514 0.991280
O O8 0.083845 0.302242 0.833534
O O9 0.500000 0.500000 0.500000
O O10 0.699214 0.049903 0.664542
O O11 0.724672 0.369090 0.736837
O O12 0.709359 0.480849 0.641519
O O13 0.831821 0.307845 0.396859
O O14 0.932360 0.477319 0.641036
O O15 0.032661 0.568187 0.233120
O O16 0.000000 0.500000 0.000000
O O17 0.836319 0.039433 0.950287
#
# Coordination Sequence:
#
# PCOD8003508 Si02
#       8
#     2   2   2   2   2   2   2   2
#     4  10  23  40  61  91 126 162 206 256 304 367
#     4  10  21  41  61  90 119 160 207 248 315 364
#     4  10  22  42  63  90 125 162 208 259 306 366
#     4  11  19  37  60  91 122 157 203 246 308 363
#     4   9  21  35  60  92 123 156 199 250 307 366
#     4  10  20  37  58  88 124 155 197 254 300 364
#     4  11  24  42  61  91 126 164 208 255 309 370
#     4  11  22  40  63  89 125 167 204 252 311 367
#
# _framework density 20.981162999999999
#
# number of rings (size 3 to 8) (size 9 to 14) (size 15 to 20)
#    0.000    1.750    2.500    1.500    0.000    4.500 
#    2.250    2.500    0.000    0.000    0.000    0.000 
#    0.000    0.000    0.000    0.000    0.000    0.000 
#
# Total GULP energy -198336.611325 kJ/mol
# GULP energy per Si atom -12396.038208 kJ/mol
# Density = 2.093341 g / cm^3
# Si number density = 20.981163 Si / 1000 Ang^3
#
#
#
# Elastic Constant Matrix: (Units=GPa)
#
#
# Indices 1 2 3 4 5 6 
#
# 1 83.0490 38.8836 25.6945 5.6407 -10.4511 9.7024
# 2 38.8836 111.9527 29.7404 -5.0097 -8.8223 18.1633
# 3 25.6945 29.7404 89.9779 14.8872 -6.0596 5.8458
# 4 5.6407 -5.0097 14.8872 21.6506 4.2626 -1.8394
# 5 -10.4511 -8.8223 -6.0596 4.2626 31.1020 2.9373
# 6 9.7024 18.1633 5.8458 -1.8394 2.9373 26.7183
#
#
#
# Elastic Compliance Matrix: (Units=1/GPa)
#
#
# Indices 1 2 3 4 5 6 
#
# 1 0.015986 -0.004418 -0.001695 -0.005253 0.004822 -0.003323
# 2 -0.004418 0.012700 -0.003398 0.005668 0.001249 -0.006033
# 3 -0.001695 -0.003398 0.014892 -0.011309 0.003055 -0.001447
# 4 -0.005253 0.005668 -0.011309 0.059313 -0.011040 0.005826
# 5 0.004822 0.001249 0.003055 -0.011040 0.037000 -0.008096
# 6 -0.003323 -0.006033 -0.001447 0.005826 -0.008096 0.044343
#
#
# Mechanical properties :
#
#
# Convention : Reuss Voigt Hill
#
# Bulk Modulus (GPa) = 40.72272 52.62408 46.67340
# Shear Modulus (GPa) = 23.64733 28.60491 26.12612
#
# Velocity S-wave (km/s) = 3.36083 3.69638 3.53259
# Velocity P-wave (km/s) = 5.87466 6.58435 6.23960
#
# Compressibility (1/GPa) = 0.02455632
#
# Stress axis : x y z
#
# Youngs Moduli (GPa) = 62.55565 78.73819 67.15127
#
# Poissons Ratio (x) = 0.34786 0.11382
# Poissons Ratio (y) = 0.27637 0.22817
# Poissons Ratio (z) = 0.10603 0.26754
#
# Static dielectric constant tensor:
#      x y z
#    x 3.790780 0.310100 -0.013530 
#    y 0.310100 3.561180 0.069140 
#    z -0.013530 0.069140 3.882900 
# 
# 
# High freq. dielectric constant tensor:
#      x y z
#    x 1.822320 0.026230 -0.002300 
#    y 0.026230 1.803140 0.010990 
#    z -0.002300 0.010990 1.832430 
# 
# From -- ./inp_files/69709.got.cif
#   From: 2010.06.25/outbox.cif.g09.slc.cpg/sg2_35_cif.got.tgz:69709.got - 2010.06.27 13:26:56.
