data_PCOD8003832
_publ_section_title
;
Structure prediction by ZEFSAII (Michael W. Deem and Ramdas Pophale) SiO2 
 PCOD8003832
Probable space group: P -1
;
_chemical_formula_sum "Si O2"
_cell_formula_units_Z 16
_cell_length_a 11.692879
_cell_length_b 13.006736
_cell_length_c 11.764352
_cell_angle_alpha 72.834644
_cell_angle_beta 134.468921
_cell_angle_gamma 71.272680
_cell_volume 772.316863
_symmetry_space_group_name_H-M "P -1"
_symmetry_group_IT_number 2
_symmetry_cell_setting 'triclinic'
loop_
_space_group_symop_operation_xyz
x,y,z
-x,-y,-z
loop_
_atom_site_type_symbol
_atom_site_label
_atom_site_fract_x
_atom_site_fract_y
_atom_site_fract_z
Si Si1 0.784291 0.695365 0.042279
Si Si2 0.505664 0.163696 0.521006
Si Si3 0.810783 0.349109 0.063403
Si Si4 0.181589 0.309410 0.449168
Si Si5 0.417354 0.735499 0.653259
Si Si6 0.104030 0.939346 0.718551
Si Si7 0.590658 0.833087 0.106847
Si Si8 0.882257 0.789305 0.885005
O O1 0.760487 0.733250 0.145601
O O2 0.991411 0.500652 0.220777
O O3 0.519717 0.784730 0.781713
O O4 0.887940 0.748509 0.033478
O O5 0.443099 0.200488 0.599847
O O6 0.525010 0.270052 0.438448
O O7 0.279286 0.215240 0.291321
O O8 0.769210 0.967368 0.746278
O O9 0.795720 0.232006 0.123885
O O10 0.050276 0.266641 0.331331
O O11 0.856972 0.337954 0.962872
O O12 0.551806 0.552110 0.842840
O O13 0.228561 0.286433 0.622878
O O14 0.114987 0.894390 0.409125
O O15 0.351766 0.880852 0.923369
O O16 0.000000 0.000000 0.500000
O O17 0.500000 0.000000 0.000000
#
# Coordination Sequence:
#
# PCOD8003832 Si02
#       8
#     2   2   2   2   2   2   2   2
#     4  10  20  37  61  91 122 158 205 250 293 355
#     4   9  16  30  60  91 124 152 197 249 296 355
#     4  10  21  39  66  95 121 153 201 256 304 350
#     4  10  21  37  60  93 122 159 200 246 302 361
#     4  10  20  38  63  96 120 156 205 253 301 349
#     4  12  24  42  63  88 124 160 203 251 299 361
#     4  12  25  42  60  84 122 165 203 243 304 365
#     4   9  16  30  62  93 118 154 198 251 297 343
#
# _framework density 20.716885999999999
#
# number of rings (size 3 to 8) (size 9 to 14) (size 15 to 20)
#    0.000    1.750    2.500    2.625    1.750    3.500 
#    4.500    0.625    0.000    1.500    0.000    0.000 
#    0.000    0.000    0.000    0.000    0.000    0.000 
#
# Total GULP energy -198295.958374 kJ/mol
# GULP energy per Si atom -12393.497398 kJ/mol
# Density = 2.066973 g / cm^3
# Si number density = 20.716886 Si / 1000 Ang^3
#
#
#
# Elastic Constant Matrix: (Units=GPa)
#
#
# Indices 1 2 3 4 5 6 
#
# 1 127.4473 55.6188 35.4225 4.7782 -17.5213 -3.0124
# 2 55.6188 81.1244 20.4841 -13.6193 3.6982 5.3281
# 3 35.4225 20.4841 52.4231 -2.9227 -6.0090 11.2606
# 4 4.7782 -13.6193 -2.9227 31.5746 -2.5925 -8.7848
# 5 -17.5213 3.6982 -6.0090 -2.5925 26.0344 -1.0520
# 6 -3.0124 5.3281 11.2606 -8.7848 -1.0520 41.6560
#
#
#
# Elastic Compliance Matrix: (Units=1/GPa)
#
#
# Indices 1 2 3 4 5 6 
#
# 1 0.016359 -0.011319 -0.006474 -0.006150 0.010646 0.003353
# 2 -0.011319 0.022739 -0.001539 0.010139 -0.010251 -0.001432
# 3 -0.006474 -0.001539 0.025793 0.000884 0.001620 -0.007016
# 4 -0.006150 0.010139 0.000884 0.038660 -0.001277 0.006140
# 5 0.010646 -0.010251 0.001620 -0.001277 0.047383 0.002570
# 6 0.003353 -0.001432 -0.007016 0.006140 0.002570 0.027688
#
#
# Mechanical properties :
#
#
# Convention : Reuss Voigt Hill
#
# Bulk Modulus (GPa) = 38.12758 53.78286 45.95522
# Shear Modulus (GPa) = 22.12109 29.81761 25.96935
#
# Velocity S-wave (km/s) = 3.27124 3.79791 3.54437
# Velocity P-wave (km/s) = 5.71944 6.72677 6.24346
#
# Compressibility (1/GPa) = 0.02622773
#
# Stress axis : x y z
#
# Youngs Moduli (GPa) = 61.12909 43.97690 38.76971
#
# Poissons Ratio (x) = 0.49778 0.25098
# Poissons Ratio (y) = 0.69192 0.05967
# Poissons Ratio (z) = 0.39572 0.06769
#
# Static dielectric constant tensor:
#      x y z
#    x 4.036380 -0.130700 -0.092610 
#    y -0.130700 3.694110 -0.128900 
#    z -0.092610 -0.128900 3.545360 
# 
# 
# High freq. dielectric constant tensor:
#      x y z
#    x 1.824720 -0.010480 -0.014060 
#    y -0.010480 1.800670 -0.029460 
#    z -0.014060 -0.029460 1.781490 
# 
# From -- ./inp_files/279349.got.cif
#   From: 2010.06.25/outbox.cif.g09.slc.cpg/sg2_140_cif.got.tgz:279349.got - 2010.06.27 13:26:56.
