data_PCOD8003755
_publ_section_title
;
Structure prediction by ZEFSAII (Michael W. Deem and Ramdas Pophale) SiO2 
 PCOD8003755
Probable space group: P -1
;
_chemical_formula_sum "Si O2"
_cell_formula_units_Z 14
_cell_length_a 8.781615
_cell_length_b 18.610926
_cell_length_c 6.368838
_cell_angle_alpha 99.523378
_cell_angle_beta 84.941446
_cell_angle_gamma 141.306877
_cell_volume 640.322131
_symmetry_space_group_name_H-M "P -1"
_symmetry_group_IT_number 2
_symmetry_cell_setting 'triclinic'
loop_
_space_group_symop_operation_xyz
x,y,z
-x,-y,-z
loop_
_atom_site_type_symbol
_atom_site_label
_atom_site_fract_x
_atom_site_fract_y
_atom_site_fract_z
Si Si1 0.397825 0.467926 0.225560
Si Si2 0.959375 0.407298 0.351142
Si Si3 0.432578 0.773362 0.021578
Si Si4 0.716483 0.944957 0.697855
Si Si5 0.729217 0.199818 0.563468
Si Si6 0.237712 0.174287 0.665179
Si Si7 0.206839 0.304787 0.488281
O O1 0.264102 0.341380 0.250426
O O2 0.647768 0.572718 0.374239
O O3 0.213594 0.467643 0.271065
O O4 0.500000 0.500000 0.000000
O O5 0.832077 0.309819 0.491628
O O6 0.000000 0.500000 0.500000
O O7 0.777201 0.345209 0.143173
O O8 0.322028 0.797499 0.188442
O O9 0.564674 0.761148 0.142349
O O10 0.634698 0.888083 0.909164
O O11 0.509507 0.916525 0.592308
O O12 0.759506 0.893022 0.517488
O O13 0.967898 0.083595 0.755769
O O14 0.921242 0.205149 0.530239
O O15 0.309289 0.268210 0.551854
#
# Coordination Sequence:
#
# PCOD8003755 Si02
#       7
#     2   2   2   2   2   2   2
#     4  10  22  41  61  83 122 163 201 249 296 355
#     4  10  22  38  61  88 118 157 206 250 299 354
#     4  10  20  37  61  83 120 154 200 246 297 356
#     4   9  20  38  61  86 121 151 201 251 295 349
#     4   9  20  39  57  85 119 158 190 251 297 354
#     4  10  21  38  59  90 118 156 196 251 303 352
#     4  10  22  39  58  85 123 154 200 241 301 358
#
# _framework density 21.863994999999999
#
# number of rings (size 3 to 8) (size 9 to 14) (size 15 to 20)
#    0.000    2.286    0.000    1.286    6.000    2.286 
#    5.143    0.714    0.000    0.000    0.000    0.000 
#    0.000    0.000    0.000    0.000    0.000    0.000 
#
# Total GULP energy -173519.915458 kJ/mol
# GULP energy per Si atom -12394.279676 kJ/mol
# Density = 2.181423 g / cm^3
# Si number density = 21.863995 Si / 1000 Ang^3
#
#
#
# Elastic Constant Matrix: (Units=GPa)
#
#
# Indices 1 2 3 4 5 6 
#
# 1 96.5752 31.4942 45.5867 -9.3375 19.3004 21.4905
# 2 31.4942 59.4238 31.8239 -9.6682 10.0869 19.0652
# 3 45.5867 31.8239 119.9735 -15.3920 12.0442 14.7717
# 4 -9.3375 -9.6682 -15.3920 29.5596 4.4075 -1.3196
# 5 19.3004 10.0869 12.0442 4.4075 26.5704 -9.5870
# 6 21.4905 19.0652 14.7717 -1.3196 -9.5870 33.8016
#
#
#
# Elastic Compliance Matrix: (Units=1/GPa)
#
#
# Indices 1 2 3 4 5 6 
#
# 1 0.020582 0.001816 -0.002610 0.008271 -0.022716 -0.019089
# 2 0.001816 0.029921 -0.002148 0.011480 -0.021850 -0.022841
# 3 -0.002610 -0.002148 0.011351 0.004896 -0.004379 -0.003140
# 4 0.008271 0.011480 0.004896 0.045942 -0.027365 -0.019841
# 5 -0.022716 -0.021850 -0.004379 -0.027365 0.087915 0.052547
# 6 -0.019089 -0.022841 -0.003140 -0.019841 0.052547 0.070105
#
#
# Mechanical properties :
#
#
# Convention : Reuss Voigt Hill
#
# Bulk Modulus (GPa) = 17.86711 54.86469 36.36590
# Shear Modulus (GPa) = 17.22011 29.12417 23.17214
#
# Velocity S-wave (km/s) = 2.80947 3.65370 3.25904
# Velocity P-wave (km/s) = 4.32595 6.55343 5.55254
#
# Compressibility (1/GPa) = 0.05596875
#
# Stress axis : x y z
#
# Youngs Moduli (GPa) = 48.58642 33.42118 88.09590
#
# Poissons Ratio (x) = -0.06068 0.22995
# Poissons Ratio (y) = -0.08821 0.18924
# Poissons Ratio (z) = 0.12682 0.07179
#
# Static dielectric constant tensor:
#      x y z
#    x 5.037320 0.735750 0.994090 
#    y 0.735750 4.093620 -0.129820 
#    z 0.994090 -0.129820 4.911300 
# 
# 
# High freq. dielectric constant tensor:
#      x y z
#    x 1.856600 0.031350 0.012020 
#    y 0.031350 1.852190 -0.018660 
#    z 0.012020 -0.018660 1.862690 
# 
# From -- ./inp_files/35530.got.cif
#   From: 2010.06.25/outbox.cif.g09.slc.cpg/sg2_18_cif.got.tgz:35530.got - 2010.06.27 13:26:56.
