data_PCOD8003996
_publ_section_title
;
Structure prediction by ZEFSAII (Michael W. Deem and Ramdas Pophale) SiO2 
 PCOD8003996
Probable space group: P -1
;
_chemical_formula_sum "Si O2"
_cell_formula_units_Z 16
_cell_length_a 21.436184
_cell_length_b 15.088255
_cell_length_c 9.045307
_cell_angle_alpha 64.078801
_cell_angle_beta 114.940421
_cell_angle_gamma 162.262220
_cell_volume 801.486057
_symmetry_space_group_name_H-M "P -1"
_symmetry_group_IT_number 2
_symmetry_cell_setting 'triclinic'
loop_
_space_group_symop_operation_xyz
x,y,z
-x,-y,-z
loop_
_atom_site_type_symbol
_atom_site_label
_atom_site_fract_x
_atom_site_fract_y
_atom_site_fract_z
Si Si1 0.569251 0.981546 0.614700
Si Si2 0.046318 0.575308 0.163046
Si Si3 0.195046 0.402465 0.846066
Si Si4 0.807255 0.765845 0.807175
Si Si5 0.058114 0.760174 0.234611
Si Si6 0.747656 0.100807 0.444929
Si Si7 0.555382 0.585815 0.826882
Si Si8 0.428463 0.505819 0.494155
O O1 0.398014 0.683852 0.744328
O O2 0.500000 0.000000 0.500000
O O3 0.769490 0.247683 0.727580
O O4 0.609510 0.985964 0.492634
O O5 0.093926 0.755096 0.115377
O O6 0.837869 0.276606 0.264196
O O7 0.000000 0.500000 0.000000
O O8 0.144273 0.446833 0.806499
O O9 0.209465 0.365723 0.044626
O O10 0.023740 0.111743 0.794420
O O11 0.612321 0.556800 0.838932
O O12 0.766194 0.710605 0.628949
O O13 0.059587 0.678720 0.424248
O O14 0.243225 0.078938 0.226925
O O15 0.611731 0.830753 0.437749
O O16 0.379224 0.406791 0.688072
O O17 0.500000 0.500000 0.000000
O O18 0.500000 0.500000 0.500000
#
# Coordination Sequence:
#
# PCOD8003996 Si02
#       8
#     2   2   2   2   2   2   2   2
#     4  11  23  41  65  87 117 166 205 249 302 367
#     4  11  24  39  62  89 116 153 204 257 300 352
#     4  10  20  37  63  84 123 159 203 241 305 362
#     4   9  20  35  57  86 122 158 192 248 300 354
#     4   9  19  39  58  82 116 163 193 241 295 361
#     4  10  21  39  63  85 119 156 203 242 302 364
#     4   9  18  31  59  86 114 152 202 238 294 360
#     4   9  19  35  57  86 116 154 191 246 296 348
#
# _framework density 19.962918999999999
#
# number of rings (size 3 to 8) (size 9 to 14) (size 15 to 20)
#    0.000    2.250    0.000    3.750    7.000    1.000 
#    2.250    1.875    0.000    0.000    0.000    0.000 
#    0.000    0.000    0.000    0.000    0.000    0.000 
#
# Total GULP energy -198213.193584 kJ/mol
# GULP energy per Si atom -12388.324599 kJ/mol
# Density = 1.991748 g / cm^3
# Si number density = 19.962919 Si / 1000 Ang^3
#
#
#
# Elastic Constant Matrix: (Units=GPa)
#
#
# Indices 1 2 3 4 5 6 
#
# 1 112.6687 31.0909 46.2296 5.5752 7.0381 -1.9973
# 2 31.0909 64.0862 51.1212 7.1349 -0.5951 7.7547
# 3 46.2296 51.1212 150.5416 10.9334 -8.1071 8.8850
# 4 5.5752 7.1349 10.9334 34.3691 -2.0188 -4.1819
# 5 7.0381 -0.5951 -8.1071 -2.0188 34.4032 -0.5798
# 6 -1.9973 7.7547 8.8850 -4.1819 -0.5798 24.9619
#
#
#
# Elastic Compliance Matrix: (Units=1/GPa)
#
#
# Indices 1 2 3 4 5 6 
#
# 1 0.011173 -0.003835 -0.002450 -0.000056 -0.002884 0.002881
# 2 -0.003835 0.023509 -0.006269 -0.003015 -0.000562 -0.005897
# 3 -0.002450 -0.006269 0.009891 -0.001534 0.002601 -0.001966
# 4 -0.000056 -0.003015 -0.001534 0.031128 0.001538 0.006729
# 5 -0.002884 -0.000562 0.002601 0.001538 0.030350 -0.000019
# 6 0.002881 -0.005897 -0.001966 0.006729 -0.000019 0.043950
#
#
# Mechanical properties :
#
#
# Convention : Reuss Voigt Hill
#
# Bulk Modulus (GPa) = 51.37353 64.90888 58.14120
# Shear Modulus (GPa) = 27.53316 32.00382 29.76849
#
# Velocity S-wave (km/s) = 3.71781 4.00830 3.86578
# Velocity P-wave (km/s) = 6.64980 7.34896 7.00810
#
# Compressibility (1/GPa) = 0.01946528
#
# Stress axis : x y z
#
# Youngs Moduli (GPa) = 89.49932 42.53640 101.09858
#
# Poissons Ratio (x) = 0.16315 0.24770
# Poissons Ratio (y) = 0.34327 0.63376
# Poissons Ratio (z) = 0.21928 0.26665
#
# Static dielectric constant tensor:
#      x y z
#    x 3.824470 -0.140150 0.231700 
#    y -0.140150 3.544880 0.243450 
#    z 0.231700 0.243450 4.028520 
# 
# 
# High freq. dielectric constant tensor:
#      x y z
#    x 1.774180 -0.013500 0.011380 
#    y -0.013500 1.766180 -0.000740 
#    z 0.011380 -0.000740 1.785730 
# 
# From -- ./inp_files/347552.got.cif
#   From: 2010.06.25/outbox.cif.g09.slc.cpg/sg2_174_cif.got.tgz:347552.got - 2010.06.27 13:26:56.
