data_PCOD8003228
_publ_section_title
;
Structure prediction by ZEFSAII (Michael W. Deem and Ramdas Pophale) SiO2 
 PCOD8003228
Probable space group: P -1
;
_chemical_formula_sum "Si O2"
_cell_formula_units_Z 16
_cell_length_a 12.485580
_cell_length_b 12.900667
_cell_length_c 12.446454
_cell_angle_alpha 49.233771
_cell_angle_beta 145.544743
_cell_angle_gamma 107.173316
_cell_volume 707.331112
_symmetry_space_group_name_H-M "P -1"
_symmetry_group_IT_number 2
_symmetry_cell_setting 'triclinic'
loop_
_space_group_symop_operation_xyz
x,y,z
-x,-y,-z
loop_
_atom_site_type_symbol
_atom_site_label
_atom_site_fract_x
_atom_site_fract_y
_atom_site_fract_z
Si Si1 0.422440 0.392142 0.712378
Si Si2 0.309049 0.931472 0.308472
Si Si3 0.885389 0.178671 0.335269
Si Si4 0.757766 0.528290 0.273621
Si Si5 0.316500 0.745808 0.646068
Si Si6 0.096045 0.771488 0.144797
Si Si7 0.182496 0.276323 0.204053
Si Si8 0.117601 0.345768 0.346577
O O1 0.366335 0.351262 0.809124
O O2 0.342518 0.324470 0.597762
O O3 0.292285 0.589036 0.468702
O O4 0.695553 0.301328 0.005399
O O5 0.267985 0.882258 0.426263
O O6 0.571363 0.864954 0.548771
O O7 0.221744 0.867125 0.184271
O O8 0.131123 0.133059 0.028459
O O9 0.802061 0.179065 0.386955
O O10 0.053771 0.241003 0.437199
O O11 0.000000 0.000000 0.500000
O O12 0.780138 0.354929 0.416002
O O13 0.000000 0.500000 0.500000
O O14 0.596190 0.626229 0.970649
O O15 0.004758 0.761086 0.959649
O O16 0.200518 0.263464 0.354767
O O17 0.097182 0.460289 0.967459
#
# Coordination Sequence:
#
# PCOD8003228 Si02
#       8
#     2   2   2   2   2   2   2   2
#     4  10  21  42  63  92 121 163 216 253 313 370
#     4  11  22  39  63  97 133 155 211 263 311 379
#     4  11  25  44  66  90 128 169 205 261 314 377
#     4  10  20  36  64  91 121 162 204 258 314 368
#     4  10  23  37  62  97 122 164 204 256 321 371
#     4  10  22  39  64  93 125 164 204 261 319 360
#     4  10  23  41  64  94 127 173 206 258 310 365
#     4  10  23  42  65  91 129 169 215 251 306 380
#
# _framework density 22.620242000000001
#
# number of rings (size 3 to 8) (size 9 to 14) (size 15 to 20)
#    0.000    1.750    1.250    1.875    8.750    1.500 
#    2.250    3.750    0.000    0.000    0.000    0.000 
#    0.000    0.000    0.000    0.000    0.000    0.000 
#
# Total GULP energy -198244.614827 kJ/mol
# GULP energy per Si atom -12390.288427 kJ/mol
# Density = 2.256876 g / cm^3
# Si number density = 22.620242 Si / 1000 Ang^3
#
#
#
# Elastic Constant Matrix: (Units=GPa)
#
#
# Indices 1 2 3 4 5 6 
#
# 1 66.0680 20.9222 13.5595 2.3462 1.4156 -15.2731
# 2 20.9222 120.0628 37.5771 14.5326 -4.5057 -14.8276
# 3 13.5595 37.5771 98.9909 -0.5202 9.0429 -5.4545
# 4 2.3462 14.5326 -0.5202 40.9270 -2.8234 0.4719
# 5 1.4156 -4.5057 9.0429 -2.8234 21.0914 4.9136
# 6 -15.2731 -14.8276 -5.4545 0.4719 4.9136 34.0532
#
#
#
# Elastic Compliance Matrix: (Units=1/GPa)
#
#
# Indices 1 2 3 4 5 6 
#
# 1 0.017745 -0.001884 -0.001040 -0.000651 -0.002960 0.007408
# 2 -0.001884 0.010802 -0.003979 -0.003604 0.002996 0.002839
# 3 -0.001040 -0.003979 0.012350 0.001204 -0.006062 0.000637
# 4 -0.000651 -0.003604 0.001204 0.025988 0.002803 -0.002433
# 5 -0.002960 0.002996 -0.006062 0.002803 0.053257 -0.008718
# 6 0.007408 0.002839 0.000637 -0.002433 -0.008718 0.035318
#
#
# Mechanical properties :
#
#
# Convention : Reuss Voigt Hill
#
# Bulk Modulus (GPa) = 36.91249 47.69326 42.30288
# Shear Modulus (GPa) = 28.04334 33.41851 30.73093
#
# Velocity S-wave (km/s) = 3.52482 3.84783 3.68986
# Velocity P-wave (km/s) = 5.73756 6.39306 6.07416
#
# Compressibility (1/GPa) = 0.02709110
#
# Stress axis : x y z
#
# Youngs Moduli (GPa) = 56.35341 92.57754 80.97205
#
# Poissons Ratio (x) = 0.17443 0.08423
# Poissons Ratio (y) = 0.10618 0.32215
# Poissons Ratio (z) = 0.05862 0.36832
#
# Static dielectric constant tensor:
#      x y z
#    x 3.462120 -0.151900 -0.824180 
#    y -0.151900 4.184230 0.308170 
#    z -0.824180 0.308170 1.393440 
# 
# 
# High freq. dielectric constant tensor:
#      x y z
#    x 1.856320 -0.018710 0.001980 
#    y -0.018710 1.909100 0.013540 
#    z 0.001980 0.013540 1.900140 
# 
# From -- ./inp_files/532431.got.cif
#   From: 2010.06.25/outbox.cif.g09.slc.cpg/sg2_267_cif.got.tgz:532431.got - 2010.06.27 13:26:56.
