data_PCOD8003271
_publ_section_title
;
Structure prediction by ZEFSAII (Michael W. Deem and Ramdas Pophale) SiO2 
 PCOD8003271
Probable space group: P -1
;
_chemical_formula_sum "Si O2"
_cell_formula_units_Z 12
_cell_length_a 11.062058
_cell_length_b 9.884015
_cell_length_c 16.471965
_cell_angle_alpha 59.923404
_cell_angle_beta 157.787185
_cell_angle_gamma 122.238524
_cell_volume 575.749771
_symmetry_space_group_name_H-M "P -1"
_symmetry_group_IT_number 2
_symmetry_cell_setting 'triclinic'
loop_
_space_group_symop_operation_xyz
x,y,z
-x,-y,-z
loop_
_atom_site_type_symbol
_atom_site_label
_atom_site_fract_x
_atom_site_fract_y
_atom_site_fract_z
Si Si1 0.695071 0.651402 0.527110
Si Si2 0.209133 0.838168 0.094081
Si Si3 0.858239 0.869539 0.710007
Si Si4 0.306021 0.190160 0.086854
Si Si5 0.141051 0.789218 0.351419
Si Si6 0.800840 0.457324 0.245895
O O1 0.500000 0.500000 0.500000
O O2 0.440624 0.716535 0.292622
O O3 0.885363 0.786629 0.665973
O O4 0.969983 0.606343 0.655938
O O5 0.385562 0.014196 0.182779
O O6 0.142936 0.837123 0.956707
O O7 0.859002 0.785768 0.937168
O O8 0.514729 0.796106 0.560418
O O9 0.897418 0.060362 0.662515
O O10 0.651069 0.318990 0.258849
O O11 0.049492 0.210210 0.851783
O O12 0.000878 0.622018 0.361997
O O13 0.500000 0.500000 0.000000
#
# Coordination Sequence:
#
# PCOD8003271 Si02
#       6
#     2   2   2   2   2   2
#     4  12  22  39  63  88 118 157 199 245 295 345
#     4  10  21  37  63  88 117 155 202 240 291 356
#     4  10  20  36  65  90 115 153 202 242 285 355
#     4   9  18  37  61  88 120 160 192 240 298 350
#     4   9  17  36  60  88 118 155 195 236 293 351
#     4  10  20  38  63  84 122 160 194 241 302 347
#
# _framework density 20.842388
#
# number of rings (size 3 to 8) (size 9 to 14) (size 15 to 20)
#    0.000    2.000    3.333    1.000    2.333    1.333 
#    0.000    8.333    7.333    0.000    0.000    0.000 
#    0.000    0.000    0.000    0.000    0.000    0.000 
#
# Total GULP energy -148769.045013 kJ/mol
# GULP energy per Si atom -12397.420418 kJ/mol
# Density = 2.079495 g / cm^3
# Si number density = 20.842388 Si / 1000 Ang^3
#
#
#
# Elastic Constant Matrix: (Units=GPa)
#
#
# Indices 1 2 3 4 5 6 
#
# 1 66.4943 59.6752 28.3518 4.4273 14.6869 2.9870
# 2 59.6752 173.5683 49.5311 10.1419 22.6966 13.3956
# 3 28.3518 49.5311 89.2139 -16.9723 12.0607 -4.6263
# 4 4.4273 10.1419 -16.9723 35.4625 -2.1606 4.2615
# 5 14.6869 22.6966 12.0607 -2.1606 25.4896 9.7926
# 6 2.9870 13.3956 -4.6263 4.2615 9.7926 37.9679
#
#
#
# Elastic Compliance Matrix: (Units=1/GPa)
#
#
# Indices 1 2 3 4 5 6 
#
# 1 0.024008 -0.006102 -0.003799 -0.003813 -0.007785 0.002237
# 2 -0.006102 0.009741 -0.003943 -0.003800 -0.002728 -0.002307
# 3 -0.003799 -0.003943 0.016903 0.009101 -0.002858 0.003465
# 4 -0.003813 -0.003800 0.009101 0.034731 0.005173 -0.002483
# 5 -0.007785 -0.002728 -0.002858 0.005173 0.052934 -0.013006
# 6 0.002237 -0.002307 0.003465 -0.002483 -0.013006 0.031032
#
#
# Mechanical properties :
#
#
# Convention : Reuss Voigt Hill
#
# Bulk Modulus (GPa) = 43.54552 67.15475 55.35013
# Shear Modulus (GPa) = 24.42709 32.56522 28.49616
#
# Velocity S-wave (km/s) = 3.42715 3.95707 3.70161
# Velocity P-wave (km/s) = 6.04968 7.29165 6.69950
#
# Compressibility (1/GPa) = 0.02296448
#
# Stress axis : x y z
#
# Youngs Moduli (GPa) = 41.65330 102.65422 59.16164
#
# Poissons Ratio (x) = 0.62639 0.22474
# Poissons Ratio (y) = 0.25417 0.23328
# Poissons Ratio (z) = 0.15823 0.40477
#
# Static dielectric constant tensor:
#      x y z
#    x 3.629280 0.272220 0.041610 
#    y 0.272220 4.721250 0.407030 
#    z 0.041610 0.407030 4.144350 
# 
# 
# High freq. dielectric constant tensor:
#      x y z
#    x 1.783130 0.006160 -0.001980 
#    y 0.006160 1.835460 -0.001530 
#    z -0.001980 -0.001530 1.809090 
# 
# From -- ./inp_files/147832.got.cif
#   From: 2010.06.25/outbox.cif.g09.slc.cpg/sg2_74_cif.got.tgz:147832.got - 2010.06.27 13:26:56.
