data_PCOD8003153
_publ_section_title
;
Structure prediction by ZEFSAII (Michael W. Deem and Ramdas Pophale) SiO2 
 PCOD8003153
Probable space group: P -1
;
_chemical_formula_sum "Si O2"
_cell_formula_units_Z 16
_cell_length_a 9.175259
_cell_length_b 16.401857
_cell_length_c 16.262727
_cell_angle_alpha 153.356740
_cell_angle_beta 80.182885
_cell_angle_gamma 81.608157
_cell_volume 797.715077
_symmetry_space_group_name_H-M "P -1"
_symmetry_group_IT_number 2
_symmetry_cell_setting 'triclinic'
loop_
_space_group_symop_operation_xyz
x,y,z
-x,-y,-z
loop_
_atom_site_type_symbol
_atom_site_label
_atom_site_fract_x
_atom_site_fract_y
_atom_site_fract_z
Si Si1 0.150245 0.994706 0.086225
Si Si2 0.904813 0.344129 0.281913
Si Si3 0.541120 0.494197 0.086671
Si Si4 0.073501 0.552629 0.379473
Si Si5 0.057488 0.759324 0.242340
Si Si6 0.349464 0.025494 0.599397
Si Si7 0.270270 0.404408 0.055637
Si Si8 0.580007 0.742241 0.791318
O O1 0.080689 0.185126 0.189948
O O2 0.047749 0.162945 0.329321
O O3 0.078057 0.848459 0.949633
O O4 0.389450 0.786667 0.880725
O O5 0.691392 0.540104 0.525389
O O6 0.933345 0.495350 0.358494
O O7 0.419942 0.764560 0.378572
O O8 0.458645 0.381281 0.037948
O O9 0.500000 0.500000 0.000000
O O10 0.778326 0.337101 0.932763
O O11 0.117889 0.525842 0.254997
O O12 0.278080 0.356466 0.232793
O O13 0.152647 0.562704 0.128439
O O14 0.000000 0.000000 0.500000
O O15 0.871864 0.801294 0.262269
O O16 0.500000 0.000000 0.500000
O O17 0.349247 0.136549 0.785407
O O18 0.500000 0.000000 0.000000
#
# Coordination Sequence:
#
# PCOD8003153 Si02
#       8
#     2   2   2   2   2   2   2   2
#     4  10  20  38  63  87 115 164 201 237 286 356
#     4  10  20  36  63  88 118 154 205 241 281 354
#     4  10  20  39  59  86 115 150 201 246 290 354
#     4  11  23  40  55  89 130 150 189 255 304 343
#     4  11  20  40  66  85 112 157 205 245 290 363
#     4  12  21  39  66  88 112 153 208 247 290 363
#     4  11  24  40  59  89 124 155 194 256 309 342
#     4  11  18  38  66  86 114 162 203 235 284 355
#
# _framework density 20.057286000000001
#
# number of rings (size 3 to 8) (size 9 to 14) (size 15 to 20)
#    0.000    1.250    7.500    1.500    0.000    1.000 
#    4.500    0.000    0.000    0.000    0.000    0.000 
#    0.000    0.000    0.000    0.000    0.000    0.000 
#
# Total GULP energy -198385.456953 kJ/mol
# GULP energy per Si atom -12399.091060 kJ/mol
# Density = 2.001163 g / cm^3
# Si number density = 20.057286 Si / 1000 Ang^3
#
#
#
# Elastic Constant Matrix: (Units=GPa)
#
#
# Indices 1 2 3 4 5 6 
#
# 1 124.2151 32.2544 60.9682 -13.0624 -11.1250 4.7915
# 2 32.2544 40.4471 37.0913 -20.0216 0.8148 8.0355
# 3 60.9682 37.0913 154.7525 -19.8176 10.3102 3.5069
# 4 -13.0624 -20.0216 -19.8176 33.8059 -1.3232 -5.7891
# 5 -11.1250 0.8148 10.3102 -1.3232 49.2331 3.9205
# 6 4.7915 8.0355 3.5069 -5.7891 3.9205 12.1273
#
#
#
# Elastic Compliance Matrix: (Units=1/GPa)
#
#
# Indices 1 2 3 4 5 6 
#
# 1 0.011671 -0.006879 -0.003360 -0.001561 0.003489 -0.000955
# 2 -0.006879 0.049518 -0.006260 0.019755 0.000995 -0.019174
# 3 -0.003360 -0.006260 0.009541 0.001198 -0.002959 0.004245
# 4 -0.001561 0.019755 0.001198 0.042680 -0.000395 0.007682
# 5 0.003489 0.000995 -0.002959 -0.000395 0.022378 -0.008605
# 6 -0.000955 -0.019174 0.004245 0.007682 -0.008605 0.100761
#
#
# Mechanical properties :
#
#
# Convention : Reuss Voigt Hill
#
# Bulk Modulus (GPa) = 26.50357 64.44916 45.47637
# Shear Modulus (GPa) = 17.72264 31.63999 24.68131
#
# Velocity S-wave (km/s) = 2.97577 3.97606 3.51171
# Velocity P-wave (km/s) = 5.00495 7.29939 6.25822
#
# Compressibility (1/GPa) = 0.03773077
#
# Stress axis : x y z
#
# Youngs Moduli (GPa) = 85.68114 20.19449 104.81596
#
# Poissons Ratio (x) = 0.13893 0.35218
# Poissons Ratio (y) = 0.58943 0.65618
# Poissons Ratio (z) = 0.28789 0.12642
#
# Static dielectric constant tensor:
#      x y z
#    x 4.087920 0.179990 -0.323040 
#    y 0.179990 3.206850 0.192760 
#    z -0.323040 0.192760 1.128010 
# 
# 
# High freq. dielectric constant tensor:
#      x y z
#    x 1.797040 0.011610 0.002020 
#    y 0.011610 1.728400 -0.001070 
#    z 0.002020 -0.001070 1.804890 
# 
# From -- ./inp_files/350956.got.cif
#   From: 2010.06.25/outbox.cif.g09.slc.cpg/sg2_176_cif.got.tgz:350956.got - 2010.06.27 13:26:56.
