data_PCOD8003939
_publ_section_title
;
Structure prediction by ZEFSAII (Michael W. Deem and Ramdas Pophale) SiO2 
 PCOD8003939
Probable space group: P -1
;
_chemical_formula_sum "Si O2"
_cell_formula_units_Z 14
_cell_length_a 10.804647
_cell_length_b 16.012079
_cell_length_c 12.728527
_cell_angle_alpha 40.507389
_cell_angle_beta 31.496535
_cell_angle_gamma 62.136336
_cell_volume 632.208586
_symmetry_space_group_name_H-M "P -1"
_symmetry_group_IT_number 2
_symmetry_cell_setting 'triclinic'
loop_
_space_group_symop_operation_xyz
x,y,z
-x,-y,-z
loop_
_atom_site_type_symbol
_atom_site_label
_atom_site_fract_x
_atom_site_fract_y
_atom_site_fract_z
Si Si1 0.719595 0.352223 0.808833
Si Si2 0.302110 0.936779 0.804338
Si Si3 0.319319 0.667774 0.385659
Si Si4 0.699371 0.467467 0.270033
Si Si5 0.248905 0.025496 0.150385
Si Si6 0.173055 0.294696 0.206730
Si Si7 0.270701 0.138460 0.801846
O O1 0.752212 0.376068 0.638788
O O2 0.000000 0.500000 0.500000
O O3 0.687100 0.198496 0.019356
O O4 0.432371 0.346606 0.051032
O O5 0.500000 0.000000 0.500000
O O6 0.399921 0.072877 0.687983
O O7 0.986801 0.866687 0.062573
O O8 0.336061 0.544437 0.565452
O O9 0.064109 0.682427 0.597672
O O10 0.632372 0.817252 0.024882
O O11 0.490614 0.311571 0.508632
O O12 0.688528 0.608058 0.094461
O O13 0.000000 0.500000 0.000000
O O14 0.172884 0.033862 0.076207
O O15 0.971526 0.885808 0.539187
O O16 0.500000 0.000000 0.000000
#
# Coordination Sequence:
#
# PCOD8003939 Si02
#       7
#     2   2   2   2   2   2   2
#     4  12  26  40  57  87 122 157 198 238 287 351
#     4  11  24  40  61  86 115 160 204 236 282 344
#     4   9  21  40  60  85 119 155 192 239 294 349
#     4   9  19  38  64  90 116 152 192 239 300 349
#     4   9  17  36  63  87 114 147 189 241 294 343
#     4  10  20  37  62  91 118 149 190 242 297 343
#     4  10  21  41  62  84 120 155 193 244 288 341
#
# _framework density 22.144589
#
# number of rings (size 3 to 8) (size 9 to 14) (size 15 to 20)
#    0.000    2.000    0.000    4.286    0.000    5.143 
#    0.000   11.429    0.000    0.000    0.000    0.000 
#    0.000    0.000    0.000    0.000    0.000    0.000 
#
# Total GULP energy -173444.924406 kJ/mol
# GULP energy per Si atom -12388.923172 kJ/mol
# Density = 2.209419 g / cm^3
# Si number density = 22.144589 Si / 1000 Ang^3
#
#
#
# Elastic Constant Matrix: (Units=GPa)
#
#
# Indices 1 2 3 4 5 6 
#
# 1 167.3406 60.2496 78.0946 -18.7185 10.2489 -1.4387
# 2 60.2496 59.7882 50.3549 -14.2357 20.5548 -1.6377
# 3 78.0946 50.3549 159.6780 -23.5173 10.9990 1.3490
# 4 -18.7185 -14.2357 -23.5173 29.6799 -2.8253 0.4839
# 5 10.2489 20.5548 10.9990 -2.8253 40.6873 0.4595
# 6 -1.4387 -1.6377 1.3490 0.4839 0.4595 49.9403
#
#
#
# Elastic Compliance Matrix: (Units=1/GPa)
#
#
# Indices 1 2 3 4 5 6 
#
# 1 0.010230 -0.009283 -0.002187 0.000527 0.002740 0.000019
# 2 -0.009283 0.036999 -0.005199 0.006371 -0.014519 0.001158
# 3 -0.002187 -0.005199 0.009463 0.003718 0.000883 -0.000533
# 4 0.000527 0.006371 0.003718 0.039880 -0.001584 -0.000248
# 5 0.002740 -0.014519 0.000883 -0.001584 0.030881 -0.000690
# 6 0.000019 0.001158 -0.000533 -0.000248 -0.000690 0.020086
#
#
# Mechanical properties :
#
#
# Convention : Reuss Voigt Hill
#
# Bulk Modulus (GPa) = 42.81960 84.91167 63.86564
# Shear Modulus (GPa) = 26.50232 37.26869 31.88550
#
# Velocity S-wave (km/s) = 3.46321 4.10685 3.79869
# Velocity P-wave (km/s) = 5.94728 7.80486 6.93851
#
# Compressibility (1/GPa) = 0.02335379
#
# Stress axis : x y z
#
# Youngs Moduli (GPa) = 97.75036 27.02743 105.67421
#
# Poissons Ratio (x) = 0.25090 0.23113
# Poissons Ratio (y) = 0.90744 0.54940
# Poissons Ratio (z) = 0.21380 0.14052
#
# Static dielectric constant tensor:
#      x y z
#    x 4.670400 -0.493990 0.287850 
#    y -0.493990 4.175100 -0.255330 
#    z 0.287850 -0.255330 4.803960 
# 
# 
# High freq. dielectric constant tensor:
#      x y z
#    x 1.890850 -0.023090 0.003460 
#    y -0.023090 1.865550 0.002320 
#    z 0.003460 0.002320 1.888740 
# 
# From -- ./inp_files/402804.got.cif
#   From: 2010.06.25/outbox.cif.g09.slc.cpg/sg2_202_cif.got.tgz:402804.got - 2010.06.27 13:26:56.
