data_PCOD8003236
_publ_section_title
;
Structure prediction by ZEFSAII (Michael W. Deem and Ramdas Pophale) SiO2 
 PCOD8003236
Probable space group: P -1
;
_chemical_formula_sum "Si O2"
_cell_formula_units_Z 14
_cell_length_a 12.227290
_cell_length_b 8.792406
_cell_length_c 16.084902
_cell_angle_alpha 148.373260
_cell_angle_beta 47.536986
_cell_angle_gamma 120.661294
_cell_volume 659.471664
_symmetry_space_group_name_H-M "P -1"
_symmetry_group_IT_number 2
_symmetry_cell_setting 'triclinic'
loop_
_space_group_symop_operation_xyz
x,y,z
-x,-y,-z
loop_
_atom_site_type_symbol
_atom_site_label
_atom_site_fract_x
_atom_site_fract_y
_atom_site_fract_z
Si Si1 0.052239 0.646793 0.908221
Si Si2 0.428891 0.381105 0.060035
Si Si3 0.125057 0.569233 0.529675
Si Si4 0.841636 0.810633 0.238696
Si Si5 0.544419 0.670220 0.294751
Si Si6 0.109091 0.252607 0.126753
Si Si7 0.433919 0.180643 0.198405
O O1 0.139494 0.317839 0.734894
O O2 0.925480 0.633285 0.896853
O O3 0.991254 0.754646 0.080814
O O4 0.150434 0.893287 0.941797
O O5 0.458856 0.577763 0.214975
O O6 0.249368 0.392587 0.152838
O O7 0.500000 0.500000 0.000000
O O8 0.515135 0.043096 0.857496
O O9 0.253297 0.280494 0.337586
O O10 0.000000 0.500000 0.500000
O O11 0.044773 0.644311 0.694650
O O12 0.204551 0.832628 0.572442
O O13 0.722451 0.640316 0.173635
O O14 0.513254 0.468449 0.295273
O O15 0.500000 0.000000 0.500000
O O16 0.500000 0.000000 0.000000
#
# Coordination Sequence:
#
# PCOD8003236 Si02
#       7
#     2   2   2   2   2   2   2
#     4   9  20  39  64  93 124 165 204 260 322 380
#     4  11  24  42  66  93 128 172 213 262 324 386
#     4  11  22  38  60  92 124 164 212 261 312 373
#     4  10  20  36  64  92 121 162 210 255 315 384
#     4  11  21  39  65  91 125 163 212 260 314 379
#     4  10  21  40  64  91 131 164 208 264 318 374
#     4  10  22  41  62  89 126 169 211 258 317 376
#
# _framework density 21.229113999999999
#
# number of rings (size 3 to 8) (size 9 to 14) (size 15 to 20)
#    0.000    1.714    1.429    3.429    0.000    6.857 
#    2.571    2.143    0.000    0.000    0.000    0.000 
#    0.000    0.000    0.000    0.000    0.000    0.000 
#
# Total GULP energy -173438.984941 kJ/mol
# GULP energy per Si atom -12388.498924 kJ/mol
# Density = 2.118080 g / cm^3
# Si number density = 21.229114 Si / 1000 Ang^3
#
#
#
# Elastic Constant Matrix: (Units=GPa)
#
#
# Indices 1 2 3 4 5 6 
#
# 1 138.1620 72.7519 38.5179 13.1965 5.5773 7.7851
# 2 72.7519 148.1990 48.2493 16.9147 -3.3858 -9.6703
# 3 38.5179 48.2493 88.8951 15.3830 -12.6552 -7.5879
# 4 13.1965 16.9147 15.3830 29.4503 5.3967 -1.2675
# 5 5.5773 -3.3858 -12.6552 5.3967 34.1292 1.9519
# 6 7.7851 -9.6703 -7.5879 -1.2675 1.9519 46.8404
#
#
#
# Elastic Compliance Matrix: (Units=1/GPa)
#
#
# Indices 1 2 3 4 5 6 
#
# 1 0.010773 -0.004611 -0.002811 -0.000286 -0.003039 -0.003079
# 2 -0.004611 0.010408 -0.002883 -0.002484 0.000976 0.002340
# 3 -0.002811 -0.002883 0.016433 -0.006907 0.007242 0.002045
# 4 -0.000286 -0.002484 -0.006907 0.040801 -0.009207 -0.000096
# 5 -0.003039 0.000976 0.007242 -0.009207 0.034023 0.000213
# 6 -0.003079 0.002340 0.002045 -0.000096 0.000213 0.022664
#
#
# Mechanical properties :
#
#
# Convention : Reuss Voigt Hill
#
# Bulk Modulus (GPa) = 58.80849 77.14382 67.97615
# Shear Modulus (GPa) = 30.98268 36.46643 33.72456
#
# Velocity S-wave (km/s) = 3.82441 4.14908 3.99005
# Velocity P-wave (km/s) = 6.87484 7.70524 7.30185
#
# Compressibility (1/GPa) = 0.01700435
#
# Stress axis : x y z
#
# Youngs Moduli (GPa) = 92.82329 96.07646 60.85416
#
# Poissons Ratio (x) = 0.44301 0.17107
# Poissons Ratio (y) = 0.42801 0.17543
# Poissons Ratio (z) = 0.26094 0.27697
#
# Static dielectric constant tensor:
#      x y z
#    x 4.011910 0.334350 -0.122820 
#    y 0.334350 4.221010 0.236710 
#    z -0.122820 0.236710 3.838630 
# 
# 
# High freq. dielectric constant tensor:
#      x y z
#    x 1.827860 0.003900 -0.011830 
#    y 0.003900 1.849300 0.015230 
#    z -0.011830 0.015230 1.811890 
# 
# From -- ./inp_files/333649.got.cif
#   From: 2010.06.25/outbox.cif.g09.slc.cpg/sg2_167_cif.got.tgz:333649.got - 2010.06.27 13:26:56.
