data_PCOD8003836
_publ_section_title
;
Structure prediction by ZEFSAII (Michael W. Deem and Ramdas Pophale) SiO2 
 PCOD8003836
Probable space group: P -1
;
_chemical_formula_sum "Si O2"
_cell_formula_units_Z 16
_cell_length_a 8.336221
_cell_length_b 11.284606
_cell_length_c 19.334808
_cell_angle_alpha 45.025571
_cell_angle_beta 41.082655
_cell_angle_gamma 38.743185
_cell_volume 716.086324
_symmetry_space_group_name_H-M "P -1"
_symmetry_group_IT_number 2
_symmetry_cell_setting 'triclinic'
loop_
_space_group_symop_operation_xyz
x,y,z
-x,-y,-z
loop_
_atom_site_type_symbol
_atom_site_label
_atom_site_fract_x
_atom_site_fract_y
_atom_site_fract_z
Si Si1 0.194043 0.427716 0.658448
Si Si2 0.997120 0.149086 0.786683
Si Si3 0.170017 0.829076 0.960365
Si Si4 0.138636 0.814497 0.479689
Si Si5 0.130127 0.633205 0.850104
Si Si6 0.089246 0.951811 0.288117
Si Si7 0.735087 0.696321 0.161562
Si Si8 0.552781 0.660584 0.028088
O O1 0.044825 0.658292 0.591614
O O2 0.518611 0.297306 0.578869
O O3 0.159448 0.428140 0.751258
O O4 0.029474 0.331343 0.718821
O O5 0.991504 0.144710 0.707610
O O6 0.704989 0.187277 0.901014
O O7 0.234922 0.931419 0.831905
O O8 0.461295 0.666705 0.974620
O O9 0.971585 0.743324 0.039193
O O10 0.000000 0.000000 0.000000
O O11 0.033957 0.884461 0.406837
O O12 0.000000 0.000000 0.500000
O O13 0.292951 0.441046 0.828042
O O14 0.303593 0.565258 0.895389
O O15 0.135967 0.813236 0.740185
O O16 0.794616 0.713651 0.936179
O O17 0.421050 0.892379 0.196230
#
# Coordination Sequence:
#
# PCOD8003836 Si02
#       8
#     2   2   2   2   2   2   2   2
#     4  10  22  43  69  94 121 161 214 265 328 377
#     4  11  22  42  64  95 131 172 212 261 312 377
#     4  10  20  37  61  91 131 169 215 247 301 370
#     4  10  23  46  70  95 119 157 212 273 332 389
#     4  11  24  38  59  96 134 178 215 251 309 369
#     4  11  24  41  66  91 129 170 210 266 323 378
#     4  11  21  40  65  91 128 176 213 261 309 377
#     4  10  22  40  56  94 137 174 216 252 301 369
#
# _framework density 22.343675000000001
#
# number of rings (size 3 to 8) (size 9 to 14) (size 15 to 20)
#    0.000    1.500    3.750    2.250    5.250    2.000 
#    2.250    0.625    0.000    0.000    0.000    0.000 
#    0.000    0.000    0.000    0.000    0.000    0.000 
#
# Total GULP energy -198300.074601 kJ/mol
# GULP energy per Si atom -12393.754663 kJ/mol
# Density = 2.229282 g / cm^3
# Si number density = 22.343675 Si / 1000 Ang^3
#
#
#
# Elastic Constant Matrix: (Units=GPa)
#
#
# Indices 1 2 3 4 5 6 
#
# 1 124.5555 40.1985 51.7554 -19.5675 29.5442 -9.6014
# 2 40.1985 97.4538 48.8839 -25.8686 15.0129 6.8602
# 3 51.7554 48.8839 105.5227 -31.2974 23.8819 2.7626
# 4 -19.5675 -25.8686 -31.2974 43.2015 -4.6035 7.2920
# 5 29.5442 15.0129 23.8819 -4.6035 36.5457 -2.9509
# 6 -9.6014 6.8602 2.7626 7.2920 -2.9509 31.0722
#
#
#
# Elastic Compliance Matrix: (Units=1/GPa)
#
#
# Indices 1 2 3 4 5 6 
#
# 1 0.012050 -0.002566 -0.003399 0.000135 -0.006128 0.003979
# 2 -0.002566 0.015372 -0.003495 0.006267 -0.001611 -0.005500
# 3 -0.003399 -0.003495 0.016814 0.008641 -0.006069 -0.004378
# 4 0.000135 0.006267 0.008641 0.034505 -0.004845 -0.010668
# 5 -0.006128 -0.001611 -0.006069 -0.004845 0.036627 0.003617
# 6 0.003979 -0.005500 -0.004378 -0.010668 0.003617 0.037863
#
#
# Mechanical properties :
#
#
# Convention : Reuss Voigt Hill
#
# Bulk Modulus (GPa) = 39.50142 67.68973 53.59557
# Shear Modulus (GPa) = 27.68710 34.61015 31.14863
#
# Velocity S-wave (km/s) = 3.52397 3.93999 3.73777
# Velocity P-wave (km/s) = 5.85450 7.14553 6.53199
#
# Compressibility (1/GPa) = 0.02531555
#
# Stress axis : x y z
#
# Youngs Moduli (GPa) = 82.98415 65.05445 59.47512
#
# Poissons Ratio (x) = 0.16693 0.20215
# Poissons Ratio (y) = 0.21294 0.20788
# Poissons Ratio (z) = 0.28206 0.22738
#
# Static dielectric constant tensor:
#      x y z
#    x 4.430760 -0.304610 0.370560 
#    y -0.304610 4.311310 -0.406610 
#    z 0.370560 -0.406610 4.083680 
# 
# 
# High freq. dielectric constant tensor:
#      x y z
#    x 1.885040 -0.002580 0.022620 
#    y -0.002580 1.883890 -0.016300 
#    z 0.022620 -0.016300 1.857450 
# 
# From -- ./inp_files/589439.got.cif
#   From: 2010.06.25/outbox.cif.g09.slc.cpg/sg2_295_cif.got.tgz:589439.got - 2010.06.27 13:26:56.
