data_PCOD8003042
_publ_section_title
;
Structure prediction by ZEFSAII (Michael W. Deem and Ramdas Pophale) SiO2 
 PCOD8003042
Probable space group: P -1
;
_chemical_formula_sum "Si O2"
_cell_formula_units_Z 16
_cell_length_a 17.592132
_cell_length_b 11.972423
_cell_length_c 8.367397
_cell_angle_alpha 126.945851
_cell_angle_beta 145.899073
_cell_angle_gamma 46.851276
_cell_volume 718.264224
_symmetry_space_group_name_H-M "P -1"
_symmetry_group_IT_number 2
_symmetry_cell_setting 'triclinic'
loop_
_space_group_symop_operation_xyz
x,y,z
-x,-y,-z
loop_
_atom_site_type_symbol
_atom_site_label
_atom_site_fract_x
_atom_site_fract_y
_atom_site_fract_z
Si Si1 0.883745 0.426448 0.912493
Si Si2 0.466523 0.678002 0.090951
Si Si3 0.025063 0.870884 0.735921
Si Si4 0.396478 0.642628 0.609131
Si Si5 0.078112 0.287606 0.840144
Si Si6 0.343813 0.674874 0.200857
Si Si7 0.648499 0.859030 0.582767
Si Si8 0.884408 0.874646 0.806786
O O1 0.718285 0.437893 0.658376
O O2 0.934363 0.383870 0.780715
O O3 0.882273 0.592589 0.093585
O O4 0.002575 0.301610 0.125878
O O5 0.383897 0.751373 0.178308
O O6 0.614338 0.709638 0.367454
O O7 0.500000 0.500000 0.000000
O O8 0.373999 0.745624 0.820958
O O9 0.964301 0.828946 0.434920
O O10 0.891795 0.921783 0.677396
O O11 0.167653 0.722951 0.923487
O O12 0.067460 0.014738 0.901915
O O13 0.375700 0.734856 0.483057
O O14 0.564898 0.509330 0.796740
O O15 0.222277 0.179455 0.096371
O O16 0.715130 0.899084 0.571264
O O17 0.500000 0.000000 0.500000
#
# Coordination Sequence:
#
# PCOD8003042 Si02
#       8
#     2   2   2   2   2   2   2   2
#     4  10  20  40  60  96 130 159 215 263 313 384
#     4  10  21  39  64  90 126 166 211 264 319 376
#     4  11  22  43  62  94 126 171 213 259 326 383
#     4  10  20  36  61  96 125 168 209 265 323 373
#     4  10  23  39  67  91 127 170 207 267 323 379
#     4  10  20  36  62  94 125 163 212 267 307 387
#     4  11  24  45  62  94 127 164 213 265 320 389
#     4  10  24  41  63  88 134 163 209 267 313 390
#
# _framework density 22.275925000000001
#
# number of rings (size 3 to 8) (size 9 to 14) (size 15 to 20)
#    0.000    1.750    1.250    3.000    0.000    8.500 
#    9.000    0.625    0.000    0.000    0.000    0.000 
#    0.000    0.000    0.000    0.000    0.000    0.000 
#
# Total GULP energy -198255.657150 kJ/mol
# GULP energy per Si atom -12390.978572 kJ/mol
# Density = 2.222522 g / cm^3
# Si number density = 22.275925 Si / 1000 Ang^3
#
#
#
# Elastic Constant Matrix: (Units=GPa)
#
#
# Indices 1 2 3 4 5 6 
#
# 1 156.3718 16.8624 62.4106 5.2897 -0.4430 9.8884
# 2 16.8624 62.8368 12.6914 -4.2339 13.5101 -7.7668
# 3 62.4106 12.6914 99.4170 3.3617 -7.5768 0.5298
# 4 5.2897 -4.2339 3.3617 38.4520 1.9681 7.5896
# 5 -0.4430 13.5101 -7.5768 1.9681 51.1777 -6.1006
# 6 9.8884 -7.7668 0.5298 7.5896 -6.1006 20.8622
#
#
#
# Elastic Compliance Matrix: (Units=1/GPa)
#
#
# Indices 1 2 3 4 5 6 
#
# 1 0.009115 -0.001763 -0.005541 0.000095 -0.000891 -0.005131
# 2 -0.001763 0.018529 -0.001684 0.001493 -0.004508 0.005915
# 3 -0.005541 -0.001684 0.014002 -0.001385 0.002879 0.002990
# 4 0.000095 0.001493 -0.001385 0.028544 -0.002972 -0.010707
# 5 -0.000891 -0.004508 0.002879 -0.002972 0.022000 0.006186
# 6 -0.005131 0.005915 0.002990 -0.010707 0.006186 0.058196
#
#
# Mechanical properties :
#
#
# Convention : Reuss Voigt Hill
#
# Bulk Modulus (GPa) = 42.24793 55.83937 49.04365
# Shear Modulus (GPa) = 28.36819 37.20913 32.78866
#
# Velocity S-wave (km/s) = 3.57247 4.09146 3.84074
# Velocity P-wave (km/s) = 6.00197 6.88778 6.46008
#
# Compressibility (1/GPa) = 0.02366980
#
# Stress axis : x y z
#
# Youngs Moduli (GPa) = 109.70383 53.97079 71.41615
#
# Poissons Ratio (x) = 0.09516 0.39572
# Poissons Ratio (y) = 0.19343 0.12027
# Poissons Ratio (z) = 0.60788 0.09089
#
# Static dielectric constant tensor:
#      x y z
#    x 4.755140 0.078830 -0.057840 
#    y 0.078830 3.789510 0.001810 
#    z -0.057840 0.001810 4.035460 
# 
# 
# High freq. dielectric constant tensor:
#      x y z
#    x 1.894150 0.001430 0.006260 
#    y 0.001430 1.857770 -0.007600 
#    z 0.006260 -0.007600 1.857700 
# 
# From -- ./inp_files/333858.got.cif
#   From: 2010.06.25/outbox.cif.g09.slc.cpg/sg2_167_cif.got.tgz:333858.got - 2010.06.27 13:26:56.
