data_PCOD8003578
_publ_section_title
;
Structure prediction by ZEFSAII (Michael W. Deem and Ramdas Pophale) SiO2 
 PCOD8003578
Probable space group: P -1
;
_chemical_formula_sum "Si O2"
_cell_formula_units_Z 12
_cell_length_a 8.888865
_cell_length_b 7.327769
_cell_length_c 13.327414
_cell_angle_alpha 90.892625
_cell_angle_beta 68.635674
_cell_angle_gamma 50.518878
_cell_volume 585.915315
_symmetry_space_group_name_H-M "P -1"
_symmetry_group_IT_number 2
_symmetry_cell_setting 'triclinic'
loop_
_space_group_symop_operation_xyz
x,y,z
-x,-y,-z
loop_
_atom_site_type_symbol
_atom_site_label
_atom_site_fract_x
_atom_site_fract_y
_atom_site_fract_z
Si Si1 0.804739 0.770654 0.364785
Si Si2 0.525288 0.541158 0.233670
Si Si3 0.861798 0.438494 0.995530
Si Si4 0.531877 0.276780 0.539869
Si Si5 0.712885 0.028095 0.188914
Si Si6 0.709627 0.576755 0.812532
O O1 0.684646 0.680421 0.432399
O O2 0.728022 0.865302 0.270028
O O3 0.069318 0.528394 0.300516
O O4 0.745254 0.997156 0.446246
O O5 0.430977 0.734016 0.349495
O O6 0.330849 0.604466 0.211650
O O7 0.665903 0.265348 0.247948
O O8 0.686962 0.530381 0.124301
O O9 0.728270 0.581564 0.927010
O O10 0.051119 0.137644 0.928082
O O11 0.000000 0.500000 0.000000
O O12 0.500000 0.500000 0.500000
O O13 0.505141 0.135652 0.166988
#
# Coordination Sequence:
#
# PCOD8003578 Si02
#       6
#     2   2   2   2   2   2
#     4  10  21  41  65  88 124 156 202 251 293 363
#     4  10  20  37  59  87 120 158 203 243 298 355
#     4  11  21  37  59  88 123 162 198 246 305 358
#     4  11  21  40  64  90 119 164 201 245 306 353
#     4   9  20  38  61  86 121 155 200 245 296 355
#     4   9  21  38  61  88 121 157 201 248 301 356
#
# _framework density 20.480774
#
# number of rings (size 3 to 8) (size 9 to 14) (size 15 to 20)
#    1.000    1.000    1.667    3.000    0.000    1.333 
#    0.000   10.833    0.000    0.000    0.000    0.000 
#    0.000    0.000    0.000    0.000    0.000    0.000 
#
# Total GULP energy -148673.327541 kJ/mol
# GULP energy per Si atom -12389.443962 kJ/mol
# Density = 2.043416 g / cm^3
# Si number density = 20.480774 Si / 1000 Ang^3
#
#
#
# Elastic Constant Matrix: (Units=GPa)
#
#
# Indices 1 2 3 4 5 6 
#
# 1 99.9587 16.1290 39.0574 -12.3589 3.9100 0.7726
# 2 16.1290 53.6954 30.9892 -5.8336 3.9453 -10.4386
# 3 39.0574 30.9892 119.5455 -1.5969 3.3992 -7.3118
# 4 -12.3589 -5.8336 -1.5969 11.8468 5.0238 -1.6640
# 5 3.9100 3.9453 3.3992 5.0238 43.6861 -2.1222
# 6 0.7726 -10.4386 -7.3118 -1.6640 -2.1222 40.9693
#
#
#
# Elastic Compliance Matrix: (Units=1/GPa)
#
#
# Indices 1 2 3 4 5 6 
#
# 1 0.013552 0.000025 -0.004198 0.014609 -0.002595 -0.000540
# 2 0.000025 0.024769 -0.005814 0.013535 -0.003068 0.005663
# 3 -0.004198 -0.005814 0.011166 -0.005998 0.000740 0.000385
# 4 0.014609 0.013535 -0.005998 0.112582 -0.014723 0.005913
# 5 -0.002595 -0.003068 0.000740 -0.014723 0.025040 0.000098
# 6 -0.000540 0.005663 0.000385 0.005913 0.000098 0.026176
#
#
# Mechanical properties :
#
#
# Convention : Reuss Voigt Hill
#
# Bulk Modulus (GPa) = 33.88448 49.50564 41.69506
# Shear Modulus (GPa) = 20.56782 31.76871 26.16827
#
# Velocity S-wave (km/s) = 3.17243 3.94273 3.57837
# Velocity P-wave (km/s) = 5.47718 6.70456 6.12171
#
# Compressibility (1/GPa) = 0.02951204
#
# Stress axis : x y z
#
# Youngs Moduli (GPa) = 73.78714 40.37362 89.55493
#
# Poissons Ratio (x) = -0.00101 0.37599
# Poissons Ratio (y) = -0.00185 0.52071
# Poissons Ratio (z) = 0.30979 0.23475
#
# Static dielectric constant tensor:
#      x y z
#    x 3.707240 -0.154660 -0.246630 
#    y -0.154660 3.719330 0.645220 
#    z -0.246630 0.645220 4.559700 
# 
# 
# High freq. dielectric constant tensor:
#      x y z
#    x 1.797880 0.002680 -0.000600 
#    y 0.002680 1.774370 0.011220 
#    z -0.000600 0.011220 1.814440 
# 
# From -- ./inp_files/72708.got.cif
#   From: 2010.06.25/outbox.cif.g09.slc.cpg/sg2_37_cif.got.tgz:72708.got - 2010.06.27 13:26:56.
