data_PCOD8003543
_publ_section_title
;
Structure prediction by ZEFSAII (Michael W. Deem and Ramdas Pophale) SiO2 
 PCOD8003543
Probable space group: P -1
;
_chemical_formula_sum "Si O2"
_cell_formula_units_Z 16
_cell_length_a 23.472664
_cell_length_b 8.598441
_cell_length_c 22.057383
_cell_angle_alpha 141.304858
_cell_angle_beta 17.487938
_cell_angle_gamma 133.678860
_cell_volume 801.335164
_symmetry_space_group_name_H-M "P -1"
_symmetry_group_IT_number 2
_symmetry_cell_setting 'triclinic'
loop_
_space_group_symop_operation_xyz
x,y,z
-x,-y,-z
loop_
_atom_site_type_symbol
_atom_site_label
_atom_site_fract_x
_atom_site_fract_y
_atom_site_fract_z
Si Si1 0.435020 0.259559 0.834412
Si Si2 0.512204 0.245625 0.449323
Si Si3 0.677484 0.597510 0.875564
Si Si4 0.050256 0.649630 0.300036
Si Si5 0.811426 0.266145 0.389908
Si Si6 0.806653 0.238076 0.255262
Si Si7 0.058810 0.175281 0.404904
Si Si8 0.073505 0.311138 0.921572
O O1 0.646214 0.311025 0.623456
O O2 0.421889 0.995331 0.736507
O O3 0.399646 0.237197 0.935151
O O4 0.275177 0.506309 0.044418
O O5 0.500000 0.500000 0.500000
O O6 0.650026 0.191137 0.351829
O O7 0.296237 0.276298 0.705859
O O8 0.749846 0.784260 0.811980
O O9 0.859418 0.345771 0.627630
O O10 0.500000 0.500000 0.000000
O O11 0.949683 0.450961 0.311456
O O12 0.925738 0.754585 0.519022
O O13 0.053289 0.876543 0.318212
O O14 0.703321 0.330384 0.452740
O O15 0.948279 0.968528 0.163243
O O16 0.915237 0.433465 0.172823
O O17 0.000000 0.000000 0.000000
O O18 0.000000 0.500000 0.000000
#
# Coordination Sequence:
#
# PCOD8003543 Si02
#       8
#     2   2   2   2   2   2   2   2
#     4  10  22  38  60  88 118 161 199 248 308 357
#     4  11  22  39  61  85 124 162 206 258 301 363
#     4  10  20  40  64  89 123 152 194 250 305 360
#     4  10  20  40  61  85 124 157 199 247 301 365
#     4  10  22  37  58  87 120 156 207 251 300 362
#     4  10  21  38  58  83 117 159 206 254 306 356
#     4   9  21  39  62  90 117 159 197 241 306 369
#     4  10  20  37  59  83 115 162 208 250 309 352
#
# _framework density 19.966674999999999
#
# number of rings (size 3 to 8) (size 9 to 14) (size 15 to 20)
#    0.000    2.000    1.250    2.250    0.000    6.500 
#    6.750    5.000    0.000    0.000    0.000    0.000 
#    0.000    0.000    0.000    0.000    0.000    0.000 
#
# Total GULP energy -198254.050731 kJ/mol
# GULP energy per Si atom -12390.878171 kJ/mol
# Density = 1.992123 g / cm^3
# Si number density = 19.966675 Si / 1000 Ang^3
#
#
#
# Elastic Constant Matrix: (Units=GPa)
#
#
# Indices 1 2 3 4 5 6 
#
# 1 114.7820 56.5573 40.5214 -9.4578 -4.3502 -8.7115
# 2 56.5573 149.3005 40.3720 -8.0186 -0.1980 -12.6768
# 3 40.5214 40.3720 76.8131 -16.6685 5.3835 -5.6919
# 4 -9.4578 -8.0186 -16.6685 34.8229 -3.6588 -0.9215
# 5 -4.3502 -0.1980 5.3835 -3.6588 35.2099 -9.1480
# 6 -8.7115 -12.6768 -5.6919 -0.9215 -9.1480 39.2923
#
#
#
# Elastic Compliance Matrix: (Units=1/GPa)
#
#
# Indices 1 2 3 4 5 6 
#
# 1 0.012220 -0.003179 -0.004699 0.000666 0.002708 0.001649
# 2 -0.003179 0.008837 -0.002893 -0.000104 0.000571 0.001858
# 3 -0.004699 -0.002893 0.018685 0.006726 -0.002686 0.000264
# 4 0.000666 -0.000104 0.006726 0.032487 0.003097 0.002572
# 5 0.002708 0.000571 -0.002686 0.003097 0.031498 0.007802
# 6 0.001649 0.001858 0.000264 0.002572 0.007802 0.028330
#
#
# Mechanical properties :
#
#
# Convention : Reuss Voigt Hill
#
# Bulk Modulus (GPa) = 54.93995 68.42189 61.68092
# Shear Modulus (GPa) = 31.31538 35.42802 33.37170
#
# Velocity S-wave (km/s) = 3.96458 4.21688 4.09267
# Velocity P-wave (km/s) = 6.96654 7.61918 7.30016
#
# Compressibility (1/GPa) = 0.01820169
#
# Stress axis : x y z
#
# Youngs Moduli (GPa) = 81.83233 113.15638 53.51868
#
# Poissons Ratio (x) = 0.35975 0.25146
# Poissons Ratio (y) = 0.26016 0.15481
# Poissons Ratio (z) = 0.38450 0.32731
#
# Static dielectric constant tensor:
#      x y z
#    x 3.943100 -0.319600 0.139650 
#    y -0.319600 3.830910 -0.125860 
#    z 0.139650 -0.125860 3.669420 
# 
# 
# High freq. dielectric constant tensor:
#      x y z
#    x 1.780590 -0.017110 0.000540 
#    y -0.017110 1.782440 -0.016530 
#    z 0.000540 -0.016530 1.778360 
# 
# From -- ./inp_files/317813.got.cif
#   From: 2010.06.25/outbox.cif.g09.slc.cpg/sg2_159_cif.got.tgz:317813.got - 2010.06.27 13:26:56.
