data_PCOD8003800
_publ_section_title
;
Structure prediction by ZEFSAII (Michael W. Deem and Ramdas Pophale) SiO2 
 PCOD8003800
Probable space group: P -1
;
_chemical_formula_sum "Si O2"
_cell_formula_units_Z 14
_cell_length_a 10.826081
_cell_length_b 14.246458
_cell_length_c 23.392475
_cell_angle_alpha 24.002088
_cell_angle_beta 36.736341
_cell_angle_gamma 28.688121
_cell_volume 704.501782
_symmetry_space_group_name_H-M "P -1"
_symmetry_group_IT_number 2
_symmetry_cell_setting 'triclinic'
loop_
_space_group_symop_operation_xyz
x,y,z
-x,-y,-z
loop_
_atom_site_type_symbol
_atom_site_label
_atom_site_fract_x
_atom_site_fract_y
_atom_site_fract_z
Si Si1 0.559736 0.689918 0.647893
Si Si2 0.500011 0.328979 0.447343
Si Si3 0.853128 0.799277 0.300016
Si Si4 0.425792 0.654769 0.834830
Si Si5 0.559756 0.633587 0.352106
Si Si6 0.146895 0.300641 0.300029
Si Si7 0.425829 0.159241 0.165166
O O1 0.481960 0.630697 0.649147
O O2 0.392580 0.675142 0.767191
O O3 0.856055 0.440989 0.690628
O O4 0.500000 0.000000 0.500000
O O5 0.245553 0.347193 0.542983
O O6 0.481983 0.578129 0.350849
O O7 0.754484 0.023867 0.542964
O O8 0.820489 0.057980 0.204427
O O9 0.683170 0.932248 0.232011
O O10 0.683118 0.628361 0.767958
O O11 0.455905 0.378092 0.999997
O O12 0.500000 0.500000 0.500000
O O13 0.856077 0.512871 0.309367
O O14 0.392614 0.976698 0.232807
O O15 0.179560 0.328692 0.204439
#
# Coordination Sequence:
#
# PCOD8003800 Si02
#       7
#     2   2   2   2   2   2   2
#     4  12  22  37  60  91 121 158 198 243 302 355
#     4  10  22  36  56  90 118 152 194 246 294 356
#     4  10  20  37  61  88 121 147 199 258 292 341
#     4  10  22  39  62  91 119 157 201 248 300 347
#     4  12  22  37  60  91 121 158 198 243 302 355
#     4  10  20  37  61  88 121 147 199 258 292 341
#     4  10  22  39  62  91 119 157 201 248 300 347
#
# _framework density 19.872198999999998
#
# number of rings (size 3 to 8) (size 9 to 14) (size 15 to 20)
#    0.000    1.714    5.714    3.429    0.000    3.429 
#    0.000    0.714    0.000    1.714    0.000    0.000 
#    0.000    0.000    0.000    0.000    0.000    0.000 
#
# Total GULP energy -173587.920675 kJ/mol
# GULP energy per Si atom -12399.137191 kJ/mol
# Density = 1.982697 g / cm^3
# Si number density = 19.872199 Si / 1000 Ang^3
#
#
#
# Elastic Constant Matrix: (Units=GPa)
#
#
# Indices 1 2 3 4 5 6 
#
# 1 85.6275 30.1813 45.7865 2.9501 -5.2703 42.4080
# 2 30.1813 96.6068 50.3767 0.8566 -0.7479 17.2694
# 3 45.7865 50.3767 110.8742 4.0954 -5.3114 20.9135
# 4 2.9501 0.8566 4.0954 23.0479 10.0248 2.6190
# 5 -5.2703 -0.7479 -5.3114 10.0248 25.8980 -1.0739
# 6 42.4080 17.2694 20.9135 2.6190 -1.0739 41.2817
#
#
#
# Elastic Compliance Matrix: (Units=1/GPa)
#
#
# Indices 1 2 3 4 5 6 
#
# 1 0.028020 -0.001029 -0.006143 -0.001294 0.003874 -0.025059
# 2 -0.001029 0.013972 -0.005673 0.001579 -0.001666 -0.002057
# 3 -0.006143 -0.005673 0.014020 -0.002851 0.002641 0.001831
# 4 -0.001294 0.001579 -0.002851 0.053623 -0.021636 -0.001851
# 5 0.003874 -0.001666 0.002641 -0.021636 0.048187 -0.001995
# 6 -0.025059 -0.002057 0.001831 -0.001851 -0.001995 0.049964
#
#
# Mechanical properties :
#
#
# Convention : Reuss Voigt Hill
#
# Bulk Modulus (GPa) = 32.98138 60.64417 46.81277
# Shear Modulus (GPa) = 20.52668 29.16311 24.84490
#
# Velocity S-wave (km/s) = 3.21742 3.83500 3.53970
# Velocity P-wave (km/s) = 5.51680 7.08470 6.34933
#
# Compressibility (1/GPa) = 0.03032014
#
# Stress axis : x y z
#
# Youngs Moduli (GPa) = 35.68896 71.57135 71.32482
#
# Poissons Ratio (x) = 0.07367 0.43817
# Poissons Ratio (y) = 0.03674 0.40466
# Poissons Ratio (z) = 0.21925 0.40605
#
# Static dielectric constant tensor:
#      x y z
#    x 3.507040 0.378890 -0.039840 
#    y 0.378890 3.784750 -0.010960 
#    z -0.039840 -0.010960 3.486390 
# 
# 
# High freq. dielectric constant tensor:
#      x y z
#    x 1.752730 0.031860 -0.003560 
#    y 0.031860 1.785170 -0.001490 
#    z -0.003560 -0.001490 1.754820 
# 
# From -- ./inp_files/428348.got.cif
#   From: 2010.06.25/outbox.cif.g09.slc.cpg/sg2_215_cif.got.tgz:428348.got - 2010.06.27 13:26:56.
