data_PCOD8003666
_publ_section_title
;
Structure prediction by ZEFSAII (Michael W. Deem and Ramdas Pophale) SiO2 
 PCOD8003666
Probable space group: P -1
;
_chemical_formula_sum "Si O2"
_cell_formula_units_Z 16
_cell_length_a 13.974485
_cell_length_b 10.385885
_cell_length_c 12.529660
_cell_angle_alpha 90.186943
_cell_angle_beta 40.331040
_cell_angle_gamma 121.510561
_cell_volume 700.288940
_symmetry_space_group_name_H-M "P -1"
_symmetry_group_IT_number 2
_symmetry_cell_setting 'triclinic'
loop_
_space_group_symop_operation_xyz
x,y,z
-x,-y,-z
loop_
_atom_site_type_symbol
_atom_site_label
_atom_site_fract_x
_atom_site_fract_y
_atom_site_fract_z
Si Si1 0.407669 0.594069 0.970479
Si Si2 0.259550 0.124530 0.498277
Si Si3 0.574914 0.299804 0.665283
Si Si4 0.950168 0.453576 0.799983
Si Si5 0.790229 0.949165 0.216298
Si Si6 0.720692 0.779899 0.897448
Si Si7 0.518817 0.976151 0.688409
Si Si8 0.820658 0.264275 0.202081
O O1 0.516044 0.651991 0.758096
O O2 0.629451 0.783507 0.865788
O O3 0.201486 0.562106 0.152752
O O4 0.280237 0.374064 0.115212
O O5 0.275394 0.983929 0.450593
O O6 0.299578 0.161534 0.590915
O O7 0.004529 0.015787 0.680981
O O8 0.875199 0.533703 0.403540
O O9 0.446198 0.232134 0.660351
O O10 0.562115 0.141239 0.710035
O O11 0.457911 0.307012 0.854135
O O12 0.157019 0.690348 0.688462
O O13 0.762219 0.254024 0.037437
O O14 0.907640 0.176043 0.112368
O O15 0.000000 0.000000 0.000000
O O16 0.464408 0.926391 0.605068
O O17 0.000000 0.500000 0.000000
#
# Coordination Sequence:
#
# PCOD8003666 Si02
#       8
#     2   2   2   2   2   2   2   2
#     4  10  24  42  62  86 113 167 213 247 294 368
#     4  11  21  41  65  85 121 164 201 247 304 371
#     4  11  22  37  60  91 123 156 186 256 313 351
#     4  10  20  37  60  87 117 156 207 241 295 360
#     4  11  21  36  60  97 129 157 199 254 315 370
#     4  11  23  41  61  86 124 156 205 256 307 356
#     4   9  20  36  60  88 117 157 203 241 290 372
#     4   9  18  35  60  85 124 166 199 240 296 375
#
# _framework density 22.847712000000001
#
# number of rings (size 3 to 8) (size 9 to 14) (size 15 to 20)
#    0.000    1.750    1.250    3.375    0.000    4.500 
#    2.250    3.125    0.000    0.000    0.000    0.000 
#    0.000    0.000    0.000    0.000    0.000    0.000 
#
# Total GULP energy -198271.014684 kJ/mol
# GULP energy per Si atom -12391.938418 kJ/mol
# Density = 2.279571 g / cm^3
# Si number density = 22.847712 Si / 1000 Ang^3
#
#
#
# Elastic Constant Matrix: (Units=GPa)
#
#
# Indices 1 2 3 4 5 6 
#
# 1 122.7761 16.0845 44.9681 2.8372 -12.6926 3.1381
# 2 16.0845 37.2642 3.0548 8.2521 0.8794 -3.2738
# 3 44.9681 3.0548 101.7683 13.4711 -24.8933 8.8405
# 4 2.8372 8.2521 13.4711 19.2995 -6.8577 1.1529
# 5 -12.6926 0.8794 -24.8933 -6.8577 42.9737 6.4366
# 6 3.1381 -3.2738 8.8405 1.1529 6.4366 23.4664
#
#
#
# Elastic Compliance Matrix: (Units=1/GPa)
#
#
# Indices 1 2 3 4 5 6 
#
# 1 0.010635 -0.005336 -0.004715 0.004565 0.001397 -0.000998
# 2 -0.005336 0.033469 0.001781 -0.016948 -0.004968 0.006907
# 3 -0.004715 0.001781 0.015171 -0.007760 0.007078 -0.006396
# 4 0.004565 -0.016948 -0.007760 0.067279 0.008800 -0.005771
# 5 0.001397 -0.004968 0.007078 0.008800 0.031165 -0.012527
# 6 -0.000998 0.006907 -0.006396 -0.005771 -0.012527 0.049841
#
#
# Mechanical properties :
#
#
# Convention : Reuss Voigt Hill
#
# Bulk Modulus (GPa) = 23.39945 43.33595 33.36770
# Shear Modulus (GPa) = 20.97805 30.32800 25.65303
#
# Velocity S-wave (km/s) = 3.03342 3.64730 3.35443
# Velocity P-wave (km/s) = 4.74685 6.06181 5.44417
#
# Compressibility (1/GPa) = 0.04273604
#
# Stress axis : x y z
#
# Youngs Moduli (GPa) = 94.02650 29.87795 65.91728
#
# Poissons Ratio (x) = 0.15942 0.31081
# Poissons Ratio (y) = 0.50169 -0.11740
# Poissons Ratio (z) = 0.44335 -0.05321
#
# Static dielectric constant tensor:
#      x y z
#    x 4.438130 -0.038010 -0.096900 
#    y -0.038010 3.854200 -0.044760 
#    z -0.096900 -0.044760 4.302100 
# 
# 
# High freq. dielectric constant tensor:
#      x y z
#    x 1.914700 -0.008450 -0.008820 
#    y -0.008450 1.867150 -0.007750 
#    z -0.008820 -0.007750 1.917800 
# 
# From -- ./inp_files/398724.got.cif
#   From: 2010.06.25/outbox.cif.g09.slc.cpg/sg2_200_cif.got.tgz:398724.got - 2010.06.27 13:26:56.
