data_PCOD8003875
_publ_section_title
;
Structure prediction by ZEFSAII (Michael W. Deem and Ramdas Pophale) SiO2 
 PCOD8003875
Probable space group: P -1
;
_chemical_formula_sum "Si O2"
_cell_formula_units_Z 12
_cell_length_a 8.959634
_cell_length_b 9.548253
_cell_length_c 15.289530
_cell_angle_alpha 37.911250
_cell_angle_beta 135.082318
_cell_angle_gamma 113.673536
_cell_volume 528.936602
_symmetry_space_group_name_H-M "P -1"
_symmetry_group_IT_number 2
_symmetry_cell_setting 'triclinic'
loop_
_space_group_symop_operation_xyz
x,y,z
-x,-y,-z
loop_
_atom_site_type_symbol
_atom_site_label
_atom_site_fract_x
_atom_site_fract_y
_atom_site_fract_z
Si Si1 0.208744 0.451112 0.293726
Si Si2 0.188871 0.264718 0.891456
Si Si3 0.306418 0.708005 0.722685
Si Si4 0.111848 0.894538 0.919034
Si Si5 0.375417 0.021116 0.265009
Si Si6 0.925688 0.152021 0.267627
O O1 0.447037 0.254187 0.519529
O O2 0.071124 0.326430 0.238436
O O3 0.062044 0.565847 0.262668
O O4 0.251055 0.656912 0.150939
O O5 0.336502 0.431297 0.846422
O O6 0.166432 0.124180 0.864415
O O7 0.307907 0.068333 0.112539
O O8 0.276818 0.741164 0.799233
O O9 0.523613 0.778841 0.753921
O O10 0.082361 0.880242 0.495172
O O11 0.188138 0.854334 0.869871
O O12 0.842640 0.950977 0.781542
#
# Coordination Sequence:
#
# PCOD8003875 Si02
#       6
#     2   2   2   2   2   2
#     4   9  19  36  57  81 113 149 184 225 276 330
#     4  10  21  36  57  86 116 146 180 230 286 329
#     4   9  19  38  60  78 109 155 189 219 276 339
#     4  11  22  35  58  89 115 139 184 240 280 318
#     4  10  20  37  62  83 107 150 195 224 265 337
#     4   9  19  37  59  82 112 150 186 228 278 329
#
# _framework density 22.687028000000002
#
# number of rings (size 3 to 8) (size 9 to 14) (size 15 to 20)
#    0.000    2.333    0.000    4.000    0.000    6.000 
#    0.000    2.500    0.000    4.000    0.000    0.000 
#    0.000    0.000    0.000    0.000    0.000    0.000 
#
# Total GULP energy -148828.842402 kJ/mol
# GULP energy per Si atom -12402.403534 kJ/mol
# Density = 2.263539 g / cm^3
# Si number density = 22.687028 Si / 1000 Ang^3
#
#
#
# Elastic Constant Matrix: (Units=GPa)
#
#
# Indices 1 2 3 4 5 6 
#
# 1 47.0968 41.8240 33.4736 -3.0916 -5.3448 7.3605
# 2 41.8240 142.4835 42.2203 -14.7927 -16.3430 -5.6569
# 3 33.4736 42.2203 100.2909 -20.8564 7.5837 9.2881
# 4 -3.0916 -14.7927 -20.8564 22.4847 4.4783 -0.0045
# 5 -5.3448 -16.3430 7.5837 4.4783 26.9552 6.9988
# 6 7.3605 -5.6569 9.2881 -0.0045 6.9988 25.2655
#
#
#
# Elastic Compliance Matrix: (Units=1/GPa)
#
#
# Indices 1 2 3 4 5 6 
#
# 1 0.040088 -0.008706 -0.012373 -0.014021 0.011679 -0.012317
# 2 -0.008706 0.011059 -0.001655 0.003825 0.003609 0.004622
# 3 -0.012373 -0.001655 0.019380 0.017506 -0.011646 -0.000661
# 4 -0.014021 0.003825 0.017506 0.064681 -0.016967 0.003218
# 5 0.011679 0.003609 -0.011646 -0.016967 0.050923 -0.012422
# 6 -0.012317 0.004622 -0.000661 0.003218 -0.012422 0.047887
#
#
# Mechanical properties :
#
#
# Convention : Reuss Voigt Hill
#
# Bulk Modulus (GPa) = 39.90743 58.32301 49.11522
# Shear Modulus (GPa) = 17.37068 26.43130 21.90099
#
# Velocity S-wave (km/s) = 2.77007 3.41697 3.11038
# Velocity P-wave (km/s) = 5.27822 6.42892 5.88178
#
# Compressibility (1/GPa) = 0.02505799
#
# Stress axis : x y z
#
# Youngs Moduli (GPa) = 24.94488 90.42452 51.59979
#
# Poissons Ratio (x) = 0.78724 0.63846
# Poissons Ratio (y) = 0.21717 0.08541
# Poissons Ratio (z) = 0.30865 0.14967
#
# Static dielectric constant tensor:
#      x y z
#    x 3.801460 0.164690 -0.050110 
#    y 0.164690 3.916030 -0.186740 
#    z -0.050110 -0.186740 4.191970 
# 
# 
# High freq. dielectric constant tensor:
#      x y z
#    x 1.867710 0.011590 -0.001210 
#    y 0.011590 1.882790 -0.009750 
#    z -0.001210 -0.009750 1.906430 
# 
# From -- ./inp_files/176806.got.cif
#   From: 2010.06.25/outbox.cif.g09.slc.cpg/sg2_89_cif.got.tgz:176806.got - 2010.06.27 13:26:56.
