data_PCOD8003334
_publ_section_title
;
Structure prediction by ZEFSAII (Michael W. Deem and Ramdas Pophale) SiO2 
 PCOD8003334
Probable space group: P -1
;
_chemical_formula_sum "Si O2"
_cell_formula_units_Z 16
_cell_length_a 11.135128
_cell_length_b 9.063476
_cell_length_c 10.017336
_cell_angle_alpha 52.034543
_cell_angle_beta 113.541916
_cell_angle_gamma 95.861467
_cell_volume 716.132711
_symmetry_space_group_name_H-M "P -1"
_symmetry_group_IT_number 2
_symmetry_cell_setting 'triclinic'
loop_
_space_group_symop_operation_xyz
x,y,z
-x,-y,-z
loop_
_atom_site_type_symbol
_atom_site_label
_atom_site_fract_x
_atom_site_fract_y
_atom_site_fract_z
Si Si1 0.295493 0.384899 0.979044
Si Si2 0.957478 0.211521 0.601477
Si Si3 0.411094 0.341562 0.546118
Si Si4 0.829151 0.593960 0.802301
Si Si5 0.477388 0.962418 0.665189
Si Si6 0.229763 0.808414 0.707971
Si Si7 0.961964 0.196103 0.148219
Si Si8 0.200588 0.395180 0.640627
O O1 0.203807 0.375714 0.071935
O O2 0.431461 0.231138 0.135334
O O3 0.325454 0.597463 0.862788
O O4 0.216520 0.346547 0.831507
O O5 0.896883 0.176485 0.451816
O O6 0.855484 0.378235 0.540762
O O7 0.096827 0.277196 0.600187
O O8 0.980501 0.000490 0.799518
O O9 0.500000 0.500000 0.500000
O O10 0.302622 0.374343 0.361786
O O11 0.507656 0.138454 0.669595
O O12 0.341955 0.336728 0.661663
O O13 0.926040 0.744262 0.735106
O O14 0.909236 0.377742 0.928034
O O15 0.500000 0.000000 0.500000
O O16 0.322030 0.955854 0.624365
O O17 0.165420 0.850493 0.801753
#
# Coordination Sequence:
#
# PCOD8003334 Si02
#       8
#     2   2   2   2   2   2   2   2
#     4  10  23  42  69  93 133 174 223 263 324 390
#     4  10  20  37  65  91 128 171 212 261 325 390
#     4  12  27  42  64  95 138 173 213 278 333 375
#     4  10  22  42  63  98 131 166 219 274 320 382
#     4  12  25  42  71  95 129 176 229 268 320 395
#     4  10  21  38  67  98 128 171 222 271 319 389
#     4  10  20  36  68  95 128 170 221 266 319 389
#     4  10  24  42  62  95 134 170 215 267 330 387
#
# _framework density 22.342226
#
# number of rings (size 3 to 8) (size 9 to 14) (size 15 to 20)
#    0.000    1.500    1.250    3.000    3.500    6.500 
#    0.000    1.250    0.000    0.000    0.000    0.000 
#    0.000    0.000    0.000    0.000    0.000    0.000 
#
# Total GULP energy -198320.461616 kJ/mol
# GULP energy per Si atom -12395.028851 kJ/mol
# Density = 2.229137 g / cm^3
# Si number density = 22.342226 Si / 1000 Ang^3
#
#
#
# Elastic Constant Matrix: (Units=GPa)
#
#
# Indices 1 2 3 4 5 6 
#
# 1 96.2420 34.4744 27.7458 1.9323 -5.5739 12.4599
# 2 34.4744 135.8598 38.9818 -22.5943 2.6702 2.7018
# 3 27.7458 38.9818 79.6687 0.2187 7.8371 -2.9291
# 4 1.9323 -22.5943 0.2187 31.7560 -4.7766 4.6592
# 5 -5.5739 2.6702 7.8371 -4.7766 33.7488 -0.9466
# 6 12.4599 2.7018 -2.9291 4.6592 -0.9466 39.8874
#
#
#
# Elastic Compliance Matrix: (Units=1/GPa)
#
#
# Indices 1 2 3 4 5 6 
#
# 1 0.013070 -0.002463 -0.003774 -0.001505 0.002906 -0.003948
# 2 -0.002463 0.010619 -0.004493 0.008048 0.000902 -0.001199
# 3 -0.003774 -0.004493 0.016647 -0.004234 -0.004646 0.003090
# 4 -0.001505 0.008048 -0.004234 0.038862 0.005464 -0.004796
# 5 0.002906 0.000902 -0.004646 0.005464 0.031858 -0.001192
# 6 -0.003948 -0.001199 0.003090 -0.004796 -0.001192 0.027144
#
#
# Mechanical properties :
#
#
# Convention : Reuss Voigt Hill
#
# Bulk Modulus (GPa) = 52.97414 57.13050 55.05232
# Shear Modulus (GPa) = 30.12909 35.11634 32.62272
#
# Velocity S-wave (km/s) = 3.67621 3.96883 3.82532
# Velocity P-wave (km/s) = 6.46384 6.82849 6.64866
#
# Compressibility (1/GPa) = 0.01887714
#
# Stress axis : x y z
#
# Youngs Moduli (GPa) = 76.50946 94.16955 60.07069
#
# Poissons Ratio (x) = 0.23191 0.22670
# Poissons Ratio (y) = 0.18842 0.26991
# Poissons Ratio (z) = 0.28874 0.42312
#
# Static dielectric constant tensor:
#      x y z
#    x 3.858430 -0.099360 0.140150 
#    y -0.099360 4.301130 -0.363700 
#    z 0.140150 -0.363700 3.963490 
# 
# 
# High freq. dielectric constant tensor:
#      x y z
#    x 1.875140 -0.002400 0.011730 
#    y -0.002400 1.891010 -0.023060 
#    z 0.011730 -0.023060 1.864350 
# 
# From -- ./inp_files/242685.got.cif
#   From: 2010.06.25/outbox.cif.g09.slc.cpg/sg2_122_cif.got.tgz:242685.got - 2010.06.27 13:26:56.
