data_PCOD8003681
_publ_section_title
;
Structure prediction by ZEFSAII (Michael W. Deem and Ramdas Pophale) SiO2 
 PCOD8003681
Probable space group: P -1
;
_chemical_formula_sum "Si O2"
_cell_formula_units_Z 16
_cell_length_a 11.763289
_cell_length_b 14.113893
_cell_length_c 14.280420
_cell_angle_alpha 30.986043
_cell_angle_beta 69.323741
_cell_angle_gamma 50.162888
_cell_volume 813.827619
_symmetry_space_group_name_H-M "P -1"
_symmetry_group_IT_number 2
_symmetry_cell_setting 'triclinic'
loop_
_space_group_symop_operation_xyz
x,y,z
-x,-y,-z
loop_
_atom_site_type_symbol
_atom_site_label
_atom_site_fract_x
_atom_site_fract_y
_atom_site_fract_z
Si Si1 0.332156 0.711925 0.027306
Si Si2 0.156182 0.895216 0.104762
Si Si3 0.918242 0.995041 0.438843
Si Si4 0.662357 0.559732 0.031392
Si Si5 0.976938 0.192121 0.627944
Si Si6 0.343179 0.307920 0.281350
Si Si7 0.975279 0.593959 0.209342
Si Si8 0.923503 0.505306 0.111831
O O1 0.319505 0.704038 0.151040
O O2 0.396668 0.451141 0.184967
O O3 0.461848 0.743947 0.946195
O O4 0.157811 0.965252 0.816938
O O5 0.170531 0.742558 0.319696
O O6 0.125346 0.137881 0.937320
O O7 0.000000 0.000000 0.000000
O O8 0.024487 0.915013 0.379924
O O9 0.921231 0.775538 0.646393
O O10 0.000000 0.000000 0.500000
O O11 0.731275 0.276795 0.242028
O O12 0.708055 0.622241 0.871655
O O13 0.752708 0.569948 0.083302
O O14 0.942828 0.444338 0.406791
O O15 0.178524 0.414699 0.296647
O O16 0.500000 0.000000 0.500000
O O17 0.886832 0.687354 0.051764
O O18 0.000000 0.500000 0.000000
#
# Coordination Sequence:
#
# PCOD8003681 Si02
#       8
#     2   2   2   2   2   2   2   2
#     4  11  23  38  58  86 125 164 194 247 305 357
#     4  10  21  40  59  86 118 165 207 240 289 362
#     4   9  19  33  58  84 111 156 194 238 303 354
#     4  11  21  38  56  84 127 153 196 248 306 364
#     4  10  20  37  60  88 121 156 202 251 295 350
#     4  12  23  35  59  94 127 151 193 254 319 361
#     4  11  21  39  63  89 120 155 206 251 293 359
#     4  10  21  35  58  89 115 153 200 247 300 359
#
# _framework density 19.660183
#
# number of rings (size 3 to 8) (size 9 to 14) (size 15 to 20)
#    0.000    1.500    5.000    1.125    5.250    2.000 
#    2.250    0.625    0.000    6.750    0.000    0.000 
#    0.000    0.000    0.000    0.000    0.000    0.000 
#
# Total GULP energy -198228.757372 kJ/mol
# GULP energy per Si atom -12389.297336 kJ/mol
# Density = 1.961544 g / cm^3
# Si number density = 19.660183 Si / 1000 Ang^3
#
#
#
# Elastic Constant Matrix: (Units=GPa)
#
#
# Indices 1 2 3 4 5 6 
#
# 1 77.1405 29.6377 22.1124 -1.0038 -10.3759 18.2514
# 2 29.6377 98.0781 33.2154 22.2875 -7.1937 16.4994
# 3 22.1124 33.2154 88.0373 15.5203 -7.4922 7.9973
# 4 -1.0038 22.2875 15.5203 33.0846 0.1211 -3.3926
# 5 -10.3759 -7.1937 -7.4922 0.1211 24.8224 1.5115
# 6 18.2514 16.4994 7.9973 -3.3926 1.5115 33.8233
#
#
#
# Elastic Compliance Matrix: (Units=1/GPa)
#
#
# Indices 1 2 3 4 5 6 
#
# 1 0.017586 -0.003613 -0.002504 0.003396 0.005962 -0.007061
# 2 -0.003613 0.015675 -0.002407 -0.010193 0.002738 -0.006273
# 3 -0.002504 -0.002407 0.014185 -0.005270 0.002653 -0.001476
# 4 0.003396 -0.010193 -0.005270 0.040566 -0.003848 0.008627
# 5 0.005962 0.002738 0.002653 -0.003848 0.044852 -0.007570
# 6 -0.007061 -0.006273 -0.001476 0.008627 -0.007570 0.037988
#
#
# Mechanical properties :
#
#
# Convention : Reuss Voigt Hill
#
# Bulk Modulus (GPa) = 32.89624 48.13187 40.51406
# Shear Modulus (GPa) = 25.24844 30.23208 27.74026
#
# Velocity S-wave (km/s) = 3.58752 3.92565 3.76039
# Velocity P-wave (km/s) = 5.82487 6.71436 6.28537
#
# Compressibility (1/GPa) = 0.03039861
#
# Stress axis : x y z
#
# Youngs Moduli (GPa) = 56.86392 63.79487 70.49878
#
# Poissons Ratio (x) = 0.23048 0.17652
# Poissons Ratio (y) = 0.20544 0.16968
# Poissons Ratio (z) = 0.14238 0.15354
#
# Static dielectric constant tensor:
#      x y z
#    x 7.340420 2.342720 -4.089170 
#    y 2.342720 5.594410 -1.817370 
#    z -4.089170 -1.817370 7.878410 
# 
# 
# High freq. dielectric constant tensor:
#      x y z
#    x 1.757700 0.020590 -0.016830 
#    y 0.020590 1.763830 0.022410 
#    z -0.016830 0.022410 1.758740 
# 
# From -- ./inp_files/467438.got.cif
#   From: 2010.06.25/outbox.cif.g09.slc.cpg/sg2_234_cif.got.tgz:467438.got - 2010.06.27 13:26:56.
