data_PCOD8003693
_publ_section_title
;
Structure prediction by ZEFSAII (Michael W. Deem and Ramdas Pophale) SiO2 
 PCOD8003693
Probable space group: P -1
;
_chemical_formula_sum "Si O2"
_cell_formula_units_Z 16
_cell_length_a 7.107159
_cell_length_b 19.237280
_cell_length_c 20.753452
_cell_angle_alpha 157.686090
_cell_angle_beta 133.234762
_cell_angle_gamma 56.500909
_cell_volume 749.813355
_symmetry_space_group_name_H-M "P -1"
_symmetry_group_IT_number 2
_symmetry_cell_setting 'triclinic'
loop_
_space_group_symop_operation_xyz
x,y,z
-x,-y,-z
loop_
_atom_site_type_symbol
_atom_site_label
_atom_site_fract_x
_atom_site_fract_y
_atom_site_fract_z
Si Si1 0.452793 0.242503 0.724279
Si Si2 0.646610 0.449851 0.429169
Si Si3 0.841924 0.990863 0.765341
Si Si4 0.857309 0.579560 0.789775
Si Si5 0.052142 0.455196 0.852343
Si Si6 0.371262 0.874465 0.463110
Si Si7 0.198248 0.144312 0.216845
Si Si8 0.796723 0.245643 0.395213
O O1 0.273912 0.385614 0.805992
O O2 0.440550 0.172252 0.588019
O O3 0.311949 0.068651 0.591369
O O4 0.771651 0.345563 0.902984
O O5 0.500000 0.500000 0.500000
O O6 0.424185 0.376519 0.257442
O O7 0.858678 0.648484 0.625314
O O8 0.784599 0.295826 0.358066
O O9 0.537881 0.913644 0.602024
O O10 0.859565 0.921015 0.780803
O O11 0.037824 0.909008 0.695426
O O12 0.913428 0.219417 0.979790
O O13 0.935848 0.438874 0.635188
O O14 0.836432 0.488150 0.778163
O O15 0.898204 0.301458 0.738136
O O16 0.502423 0.152240 0.276408
O O17 0.000000 0.000000 0.000000
#
# Coordination Sequence:
#
# PCOD8003693 Si02
#       8
#     2   2   2   2   2   2   2   2
#     4  10  23  40  64  91 121 160 201 256 315 371
#     4   8  17  35  56  79 117 158 191 250 305 342
#     4  12  23  38  64  90 121 166 207 251 311 367
#     4  10  20  39  60  87 126 156 204 260 302 362
#     4  11  21  41  64  88 123 163 199 254 320 365
#     4  11  22  40  63  93 123 157 208 255 305 377
#     4  10  20  37  60  89 119 158 212 257 300 368
#     4  10  22  40  59  86 124 166 202 258 310 358
#
# _framework density 21.338642
#
# number of rings (size 3 to 8) (size 9 to 14) (size 15 to 20)
#    0.000    2.000    1.250    5.250    0.000    2.500 
#    0.000    7.500    0.000    0.000    0.000    0.000 
#    0.000    0.000    0.000    0.000    0.000    0.000 
#
# Total GULP energy -198302.977742 kJ/mol
# GULP energy per Si atom -12393.936109 kJ/mol
# Density = 2.129007 g / cm^3
# Si number density = 21.338642 Si / 1000 Ang^3
#
#
#
# Elastic Constant Matrix: (Units=GPa)
#
#
# Indices 1 2 3 4 5 6 
#
# 1 49.2034 14.4264 22.3346 9.8396 3.4569 8.2169
# 2 14.4264 80.5791 28.2098 -4.6226 -0.3874 20.2259
# 3 22.3346 28.2098 111.5135 7.2982 11.0051 12.2201
# 4 9.8396 -4.6226 7.2982 31.4711 7.0820 1.3203
# 5 3.4569 -0.3874 11.0051 7.0820 32.5800 5.3474
# 6 8.2169 20.2259 12.2201 1.3203 5.3474 30.7800
#
#
#
# Elastic Compliance Matrix: (Units=1/GPa)
#
#
# Indices 1 2 3 4 5 6 
#
# 1 0.024675 -0.002834 -0.003462 -0.007338 0.000629 -0.003145
# 2 -0.002834 0.016614 -0.003073 0.003933 0.002240 -0.009499
# 3 -0.003462 -0.003073 0.010898 -0.001197 -0.002956 -0.000818
# 4 -0.007338 0.003933 -0.001197 0.036433 -0.006597 -0.000567
# 5 0.000629 0.002240 -0.002956 -0.006597 0.034088 -0.006106
# 6 -0.003145 -0.009499 -0.000818 -0.000567 -0.006106 0.040980
#
#
# Mechanical properties :
#
#
# Convention : Reuss Voigt Hill
#
# Bulk Modulus (GPa) = 29.89692 41.24862 35.57277
# Shear Modulus (GPa) = 25.82972 30.72123 28.27547
#
# Velocity S-wave (km/s) = 3.48295 3.79845 3.64412
# Velocity P-wave (km/s) = 5.49688 6.21370 5.86625
#
# Compressibility (1/GPa) = 0.03344826
#
# Stress axis : x y z
#
# Youngs Moduli (GPa) = 40.52733 60.19031 91.75971
#
# Poissons Ratio (x) = 0.17058 0.31770
# Poissons Ratio (y) = 0.11486 0.28196
# Poissons Ratio (z) = 0.14032 0.18496
#
# Static dielectric constant tensor:
#      x y z
#    x 3.452610 0.124530 -0.012250 
#    y 0.124530 4.249250 0.123980 
#    z -0.012250 0.123980 4.100650 
# 
# 
# High freq. dielectric constant tensor:
#      x y z
#    x 1.809310 0.015920 0.000610 
#    y 0.015920 1.845470 0.001200 
#    z 0.000610 0.001200 1.845370 
# 
# From -- ./inp_files/608594.got.cif
#   From: 2010.06.25/outbox.cif.g09.slc.cpg/sg2_305_cif.got.tgz:608594.got - 2010.06.27 13:26:56.
