data_PCOD8003545
_publ_section_title
;
Structure prediction by ZEFSAII (Michael W. Deem and Ramdas Pophale) SiO2 
 PCOD8003545
Probable space group: P -1
;
_chemical_formula_sum "Si O2"
_cell_formula_units_Z 16
_cell_length_a 23.858039
_cell_length_b 8.656271
_cell_length_c 21.318490
_cell_angle_alpha 48.395557
_cell_angle_beta 18.098407
_cell_angle_gamma 38.188748
_cell_volume 762.326663
_symmetry_space_group_name_H-M "P -1"
_symmetry_group_IT_number 2
_symmetry_cell_setting 'triclinic'
loop_
_space_group_symop_operation_xyz
x,y,z
-x,-y,-z
loop_
_atom_site_type_symbol
_atom_site_label
_atom_site_fract_x
_atom_site_fract_y
_atom_site_fract_z
Si Si1 0.102304 0.664246 0.283599
Si Si2 0.948527 0.319376 0.524224
Si Si3 0.878488 0.402065 0.122910
Si Si4 0.608621 0.039621 0.515435
Si Si5 0.490184 0.658115 0.717708
Si Si6 0.662828 0.077290 0.311258
Si Si7 0.950251 0.001220 0.242341
Si Si8 0.641478 0.301745 0.763798
O O1 0.969904 0.549045 0.440957
O O2 0.105554 0.721096 0.337414
O O3 0.374217 0.438146 0.030186
O O4 0.951062 0.959250 0.327899
O O5 0.729770 0.416913 0.685385
O O6 0.193846 0.026779 0.316789
O O7 0.634956 0.668838 0.276128
O O8 0.805769 0.306070 0.284665
O O9 0.000000 0.500000 0.000000
O O10 0.062344 0.164978 0.940646
O O11 0.830254 0.890087 0.368236
O O12 0.574246 0.826025 0.596880
O O13 0.677966 0.120089 0.357009
O O14 0.658520 0.370441 0.654582
O O15 0.472857 0.645761 0.663268
O O16 0.225468 0.824284 0.980172
O O17 0.500000 0.000000 0.500000
#
# Coordination Sequence:
#
# PCOD8003545 Si02
#       8
#     2   2   2   2   2   2   2   2
#     4  10  21  39  58  82 114 145 180 231 279 329
#     4  10  21  37  60  85 109 143 186 222 285 338
#     4  11  19  35  54  77 109 142 184 219 265 316
#     4  11  20  36  55  75 112 146 182 224 265 313
#     4   9  19  34  53  80 108 139 183 224 265 320
#     4   9  18  33  53  76 102 148 176 218 265 310
#     4  10  21  35  56  81 105 149 180 221 273 316
#     4  10  20  37  59  84 110 145 180 231 276 333
#
# _framework density 20.988377
#
# number of rings (size 3 to 8) (size 9 to 14) (size 15 to 20)
#    0.000    2.000    3.750    1.875    0.000    3.000 
#    0.000    2.500    0.000    0.000    0.000    0.000 
#    0.000    0.000    0.000    0.000    0.000    0.000 
#
# Total GULP energy -198212.893788 kJ/mol
# GULP energy per Si atom -12388.305862 kJ/mol
# Density = 2.094061 g / cm^3
# Si number density = 20.988377 Si / 1000 Ang^3
#
#
#
# Elastic Constant Matrix: (Units=GPa)
#
#
# Indices 1 2 3 4 5 6 
#
# 1 107.4521 7.3563 49.4764 5.8594 -8.7900 -33.1837
# 2 7.3563 48.1696 33.4805 9.8872 -15.5252 -23.9923
# 3 49.4764 33.4805 128.3983 20.5596 -28.9810 -33.6489
# 4 5.8594 9.8872 20.5596 40.0091 -16.2976 -11.9157
# 5 -8.7900 -15.5252 -28.9810 -16.2976 45.8639 10.0722
# 6 -33.1837 -23.9923 -33.6489 -11.9157 10.0722 42.0745
#
#
#
# Elastic Compliance Matrix: (Units=1/GPa)
#
#
# Indices 1 2 3 4 5 6 
#
# 1 0.014592 0.006616 -0.004405 0.002312 0.000367 0.012325
# 2 0.006616 0.034973 -0.005369 0.001457 0.005866 0.019875
# 3 -0.004405 -0.005369 0.012702 -0.002286 0.004115 0.001990
# 4 0.002312 0.001457 -0.002286 0.031382 0.008982 0.007563
# 5 0.000367 0.005866 0.004115 0.008982 0.029102 0.002503
# 6 0.012325 0.019875 0.001990 0.007563 0.002503 0.047955
#
#
# Mechanical properties :
#
#
# Convention : Reuss Voigt Hill
#
# Bulk Modulus (GPa) = 17.87298 51.62738 34.75018
# Shear Modulus (GPa) = 25.55272 38.50328 32.02800
#
# Velocity S-wave (km/s) = 3.49301 4.28776 3.91063
# Velocity P-wave (km/s) = 4.98019 7.01175 6.08140
#
# Compressibility (1/GPa) = 0.05595036
#
# Stress axis : x y z
#
# Youngs Moduli (GPa) = 68.52926 28.59378 78.72598
#
# Poissons Ratio (x) = -0.18919 0.34682
# Poissons Ratio (y) = -0.45341 0.42271
# Poissons Ratio (z) = 0.30190 0.15353
#
# Static dielectric constant tensor:
#      x y z
#    x 4.324230 -0.464040 0.162040 
#    y -0.464040 4.040050 -0.122690 
#    z 0.162040 -0.122690 3.313070 
# 
# 
# High freq. dielectric constant tensor:
#      x y z
#    x 1.823890 -0.019040 -0.011620 
#    y -0.019040 1.803930 -0.016230 
#    z -0.011620 -0.016230 1.827780 
# 
# From -- ./inp_files/601843.got.cif
#   From: 2010.06.25/outbox.cif.g09.slc.cpg/sg2_301_cif.got.tgz:601843.got - 2010.06.27 13:26:56.
