data_PCOD8003600
_publ_section_title
;
Structure prediction by ZEFSAII (Michael W. Deem and Ramdas Pophale) SiO2 
 PCOD8003600
Probable space group: P -1
;
_chemical_formula_sum "Si O2"
_cell_formula_units_Z 16
_cell_length_a 14.861637
_cell_length_b 12.038282
_cell_length_c 12.422824
_cell_angle_alpha 116.767490
_cell_angle_beta 48.228076
_cell_angle_gamma 149.701046
_cell_volume 788.930099
_symmetry_space_group_name_H-M "P -1"
_symmetry_group_IT_number 2
_symmetry_cell_setting 'triclinic'
loop_
_space_group_symop_operation_xyz
x,y,z
-x,-y,-z
loop_
_atom_site_type_symbol
_atom_site_label
_atom_site_fract_x
_atom_site_fract_y
_atom_site_fract_z
Si Si1 0.985041 0.174968 0.047008
Si Si2 0.172762 0.715907 0.878980
Si Si3 0.177170 0.964238 0.642731
Si Si4 0.993343 0.382726 0.535769
Si Si5 0.379591 0.772336 0.543429
Si Si6 0.823023 0.832109 0.870081
Si Si7 0.588235 0.127215 0.871868
Si Si8 0.408042 0.574651 0.994779
O O1 0.929233 0.238372 0.040860
O O2 0.904709 0.139370 0.216024
O O3 0.261413 0.400520 0.931687
O O4 0.855222 0.941851 0.001155
O O5 0.198697 0.656406 0.725848
O O6 0.417748 0.942503 0.833536
O O7 0.000000 0.500000 0.000000
O O8 0.068996 0.790937 0.558134
O O9 0.081687 0.019620 0.711979
O O10 0.446500 0.176909 0.522159
O O11 0.819667 0.258745 0.717063
O O12 0.000000 0.500000 0.500000
O O13 0.242555 0.583013 0.475888
O O14 0.500000 0.000000 0.500000
O O15 0.678868 0.777841 0.868009
O O16 0.693534 0.588631 0.892445
O O17 0.626435 0.308226 0.918823
O O18 0.500000 0.000000 0.000000
#
# Coordination Sequence:
#
# PCOD8003600 Si02
#       8
#     2   2   2   2   2   2   2   2
#     4  11  21  38  60  94 127 162 209 261 307 369
#     4  12  23  40  63  95 126 163 208 258 315 383
#     4  11  22  35  59  89 124 159 206 252 312 363
#     4  12  22  37  59  91 127 161 204 259 317 368
#     4  12  22  38  59  90 127 162 200 260 322 362
#     4  10  22  37  60  92 126 167 212 258 304 363
#     4  12  24  41  64  95 128 164 205 261 321 377
#     4  10  20  37  59  89 126 159 211 254 310 358
#
# _framework density 20.280631
#
# number of rings (size 3 to 8) (size 9 to 14) (size 15 to 20)
#    0.000    0.750    5.000    5.250    0.000    4.000 
#    0.000    0.000    0.000    1.500    3.250    0.000 
#    0.000    0.000    0.000    0.000    0.000    0.000 
#
# Total GULP energy -198231.273192 kJ/mol
# GULP energy per Si atom -12389.454575 kJ/mol
# Density = 2.023447 g / cm^3
# Si number density = 20.280631 Si / 1000 Ang^3
#
#
#
# Elastic Constant Matrix: (Units=GPa)
#
#
# Indices 1 2 3 4 5 6 
#
# 1 93.4074 46.6068 41.3920 9.7824 -19.8173 28.4067
# 2 46.6068 109.4420 38.6680 13.5110 -3.3457 25.3016
# 3 41.3920 38.6680 102.7572 2.0578 -4.0303 -4.4084
# 4 9.7824 13.5110 2.0578 26.3770 1.7825 0.0495
# 5 -19.8173 -3.3457 -4.0303 1.7825 35.0196 -4.7812
# 6 28.4067 25.3016 -4.4084 0.0495 -4.7812 48.7845
#
#
#
# Elastic Compliance Matrix: (Units=1/GPa)
#
#
# Indices 1 2 3 4 5 6 
#
# 1 0.021556 -0.002928 -0.007521 -0.006558 0.009921 -0.010734
# 2 -0.002928 0.013939 -0.004266 -0.005619 -0.001354 -0.006037
# 3 -0.007521 -0.004266 0.014533 0.003971 -0.002143 0.007691
# 4 -0.006558 -0.005619 0.003971 0.043244 -0.005098 0.006548
# 5 0.009921 -0.001354 -0.002143 -0.005098 0.033787 -0.001952
# 6 -0.010734 -0.006037 0.007691 0.006548 -0.001952 0.030376
#
#
# Mechanical properties :
#
#
# Convention : Reuss Voigt Hill
#
# Bulk Modulus (GPa) = 48.54754 62.10446 55.32600
# Shear Modulus (GPa) = 25.80910 33.96556 29.88733
#
# Velocity S-wave (km/s) = 3.57122 4.09685 3.84303
# Velocity P-wave (km/s) = 6.40271 7.28477 6.85794
#
# Compressibility (1/GPa) = 0.02059837
#
# Stress axis : x y z
#
# Youngs Moduli (GPa) = 46.39187 71.74053 68.80985
#
# Poissons Ratio (x) = 0.21004 0.51753
# Poissons Ratio (y) = 0.13583 0.29351
# Poissons Ratio (z) = 0.34892 0.30601
#
# Static dielectric constant tensor:
#      x y z
#    x 3.970860 0.433770 -0.370040 
#    y 0.433770 3.664710 -0.125090 
#    z -0.370040 -0.125090 3.510220 
# 
# 
# High freq. dielectric constant tensor:
#      x y z
#    x 1.799170 0.036560 -0.022970 
#    y 0.036560 1.793510 0.016800 
#    z -0.022970 0.016800 1.765730 
# 
# From -- ./inp_files/451620.got.cif
#   From: 2010.06.25/outbox.cif.g09.slc.cpg/sg2_226_cif.got.tgz:451620.got - 2010.06.27 13:26:56.
