data_PCOD8003896
_publ_section_title
;
Structure prediction by ZEFSAII (Michael W. Deem and Ramdas Pophale) SiO2 
 PCOD8003896
Probable space group: P -1
;
_chemical_formula_sum "Si O2"
_cell_formula_units_Z 12
_cell_length_a 8.761271
_cell_length_b 9.658210
_cell_length_c 10.134915
_cell_angle_alpha 66.313282
_cell_angle_beta 115.557417
_cell_angle_gamma 120.348487
_cell_volume 648.800739
_symmetry_space_group_name_H-M "P -1"
_symmetry_group_IT_number 2
_symmetry_cell_setting 'triclinic'
loop_
_space_group_symop_operation_xyz
x,y,z
-x,-y,-z
loop_
_atom_site_type_symbol
_atom_site_label
_atom_site_fract_x
_atom_site_fract_y
_atom_site_fract_z
Si Si1 0.639371 0.540621 0.155450
Si Si2 0.992786 0.136007 0.845964
Si Si3 0.426554 0.359231 0.633613
Si Si4 0.394588 0.866916 0.321810
Si Si5 0.664490 0.211755 0.371868
Si Si6 0.012739 0.137208 0.555157
O O1 0.532116 0.570471 0.229986
O O2 0.689747 0.385349 0.255892
O O3 0.827127 0.696562 0.131921
O O4 0.500000 0.500000 0.000000
O O5 0.810973 0.171639 0.792261
O O6 0.980230 0.065226 0.719602
O O7 0.000000 0.000000 0.000000
O O8 0.500000 0.500000 0.500000
O O9 0.513071 0.223437 0.704585
O O10 0.208641 0.285646 0.558544
O O11 0.399081 0.799573 0.495989
O O12 0.514077 0.063878 0.288040
O O13 0.863080 0.207472 0.435021
O O14 0.000000 0.000000 0.500000
#
# Coordination Sequence:
#
# PCOD8003896 Si02
#       6
#     2   2   2   2   2   2
#     4  11  24  41  59  86 122 159 194 242 295 347
#     4  10  23  40  61  84 121 158 194 239 296 349
#     4  11  22  37  62  91 119 148 200 245 286 347
#     4  10  20  37  63  89 115 156 195 240 292 348
#     4  10  20  37  62  87 120 155 193 237 296 351
#     4  10  21  38  61  90 117 152 195 241 291 347
#
# _framework density 18.495663
#
# number of rings (size 3 to 8) (size 9 to 14) (size 15 to 20)
#    0.000    1.667    3.333    1.000    2.333    3.333 
#    3.000    3.333    0.000    0.000    0.000    0.000 
#    0.000    0.000    0.000    0.000    0.000    0.000 
#
# Total GULP energy -148832.757504 kJ/mol
# GULP energy per Si atom -12402.729792 kJ/mol
# Density = 1.845357 g / cm^3
# Si number density = 18.495663 Si / 1000 Ang^3
#
#
#
# Elastic Constant Matrix: (Units=GPa)
#
#
# Indices 1 2 3 4 5 6 
#
# 1 138.7193 63.6241 63.1935 6.2473 3.7537 -4.5621
# 2 63.6241 127.4929 80.6756 -6.5653 0.1431 -7.2203
# 3 63.1935 80.6756 124.3644 -1.5757 7.4322 -3.2274
# 4 6.2473 -6.5653 -1.5757 40.1884 1.5530 -1.8130
# 5 3.7537 0.1431 7.4322 1.5530 24.4008 1.5510
# 6 -4.5621 -7.2203 -3.2274 -1.8130 1.5510 37.7476
#
#
#
# Elastic Compliance Matrix: (Units=1/GPa)
#
#
# Indices 1 2 3 4 5 6 
#
# 1 0.010224 -0.003254 -0.003076 -0.002211 -0.000493 0.000264
# 2 -0.003254 0.014756 -0.007994 0.002583 0.002572 0.001764
# 3 -0.003076 -0.007994 0.015016 -0.000104 -0.004018 -0.000457
# 4 -0.002211 0.002583 -0.000104 0.025766 -0.001379 0.001512
# 5 -0.000493 0.002572 -0.004018 -0.001379 0.042464 -0.001722
# 6 0.000264 0.001764 -0.000457 0.001512 -0.001722 0.026965
#
#
# Mechanical properties :
#
#
# Convention : Reuss Voigt Hill
#
# Bulk Modulus (GPa) = 88.11655 89.50701 88.81178
# Shear Modulus (GPa) = 29.82882 32.67293 31.25088
#
# Velocity S-wave (km/s) = 4.02026 4.20756 4.11497
# Velocity P-wave (km/s) = 8.32437 8.49137 8.40828
#
# Compressibility (1/GPa) = 0.01134861
#
# Stress axis : x y z
#
# Youngs Moduli (GPa) = 97.80748 67.76887 66.59345
#
# Poissons Ratio (x) = 0.22053 0.20483
# Poissons Ratio (y) = 0.31829 0.53234
# Poissons Ratio (z) = 0.30085 0.54174
#
# Static dielectric constant tensor:
#      x y z
#    x 3.870150 0.130650 -0.144660 
#    y 0.130650 3.673400 0.039040 
#    z -0.144660 0.039040 3.340300 
# 
# 
# High freq. dielectric constant tensor:
#      x y z
#    x 1.732040 0.004360 0.003080 
#    y 0.004360 1.726760 0.002920 
#    z 0.003080 0.002920 1.706530 
# 
# From -- ./inp_files/145310.got.cif
#   From: 2010.06.25/outbox.cif.g09.slc.cpg/sg2_73_cif.got.tgz:145310.got - 2010.06.27 13:26:56.
