data_PCOD8003658
_publ_section_title
;
Structure prediction by ZEFSAII (Michael W. Deem and Ramdas Pophale) SiO2 
 PCOD8003658
Probable space group: P -1
;
_chemical_formula_sum "Si O2"
_cell_formula_units_Z 16
_cell_length_a 17.492997
_cell_length_b 9.233063
_cell_length_c 21.000466
_cell_angle_alpha 134.880078
_cell_angle_beta 161.387047
_cell_angle_gamma 45.357503
_cell_volume 758.411741
_symmetry_space_group_name_H-M "P -1"
_symmetry_group_IT_number 2
_symmetry_cell_setting 'triclinic'
loop_
_space_group_symop_operation_xyz
x,y,z
-x,-y,-z
loop_
_atom_site_type_symbol
_atom_site_label
_atom_site_fract_x
_atom_site_fract_y
_atom_site_fract_z
Si Si1 0.403193 0.939453 0.810509
Si Si2 0.429787 0.856923 0.174579
Si Si3 0.685619 0.649606 0.207245
Si Si4 0.282361 0.952687 0.224733
Si Si5 0.043949 0.580894 0.749977
Si Si6 0.141372 0.183555 0.785713
Si Si7 0.390903 0.759155 0.615822
Si Si8 0.452998 0.304369 0.543036
O O1 0.335390 0.777952 0.654367
O O2 0.424082 0.147862 0.854917
O O3 0.202454 0.991084 0.723982
O O4 0.664207 0.844705 0.013819
O O5 0.673632 0.715823 0.293453
O O6 0.430212 0.847460 0.248194
O O7 0.426673 0.095646 0.223436
O O8 0.194363 0.772948 0.934068
O O9 0.938939 0.530253 0.341558
O O10 0.500000 0.500000 0.000000
O O11 0.391031 0.161276 0.391538
O O12 0.317759 0.800988 0.266983
O O13 0.000000 0.000000 0.000000
O O14 0.154028 0.406295 0.833467
O O15 0.768091 0.666628 0.572688
O O16 0.877234 0.181000 0.607849
O O17 0.503393 0.519783 0.618567
#
# Coordination Sequence:
#
# PCOD8003658 Si02
#       8
#     2   2   2   2   2   2   2   2
#     4   9  17  31  54  80 117 161 194 226 283 339
#     4  10  20  37  60  85 121 156 183 240 295 335
#     4   8  16  32  55  82 122 153 183 230 286 337
#     4  11  23  43  65  83 112 151 202 244 287 352
#     4   9  17  36  62  84 118 155 191 234 282 352
#     4   9  18  32  55  84 114 159 199 229 272 347
#     4  10  21  36  55  87 119 143 189 249 290 333
#     4  10  23  40  64  88 108 153 200 240 289 344
#
# _framework density 21.096719
#
# number of rings (size 3 to 8) (size 9 to 14) (size 15 to 20)
#    0.000    2.500    1.250    0.375    1.750    1.500 
#    6.750    1.250    0.000    0.000    0.000    0.000 
#    0.000    0.000    0.000    0.000    0.000    0.000 
#
# Total GULP energy -198225.056639 kJ/mol
# GULP energy per Si atom -12389.066040 kJ/mol
# Density = 2.104870 g / cm^3
# Si number density = 21.096719 Si / 1000 Ang^3
#
#
#
# Elastic Constant Matrix: (Units=GPa)
#
#
# Indices 1 2 3 4 5 6 
#
# 1 84.8143 11.1880 15.3846 3.0914 -10.1234 -18.6177
# 2 11.1880 88.3024 37.2395 14.0717 -6.1836 -6.5949
# 3 15.3846 37.2395 69.9445 -8.5477 -4.6646 3.4937
# 4 3.0914 14.0717 -8.5477 34.8629 2.5747 2.7660
# 5 -10.1234 -6.1836 -4.6646 2.5747 26.3241 8.7070
# 6 -18.6177 -6.5949 3.4937 2.7660 8.7070 26.4671
#
#
#
# Elastic Compliance Matrix: (Units=1/GPa)
#
#
# Indices 1 2 3 4 5 6 
#
# 1 0.015597 0.002220 -0.005670 -0.004777 0.001972 0.012123
# 2 0.002220 0.018791 -0.012245 -0.011569 0.001380 0.008615
# 3 -0.005670 -0.012245 0.024307 0.012219 0.002095 -0.012215
# 4 -0.004777 -0.011569 0.012219 0.037827 -0.002450 -0.011003
# 5 0.001972 0.001380 0.002095 -0.002450 0.043891 -0.012729
# 6 0.012123 0.008615 -0.012215 -0.011003 -0.012729 0.055407
#
#
# Mechanical properties :
#
#
# Convention : Reuss Voigt Hill
#
# Bulk Modulus (GPa) = 36.62476 41.18724 38.90600
# Shear Modulus (GPa) = 21.15837 29.48078 25.31957
#
# Velocity S-wave (km/s) = 3.17033 3.74225 3.46810
# Velocity P-wave (km/s) = 5.54972 6.18369 5.87526
#
# Compressibility (1/GPa) = 0.02730393
#
# Stress axis : x y z
#
# Youngs Moduli (GPa) = 64.11523 53.21608 41.14056
#
# Poissons Ratio (x) = -0.11814 0.23328
# Poissons Ratio (y) = -0.14233 0.50377
# Poissons Ratio (z) = 0.36356 0.65164
#
# Static dielectric constant tensor:
#      x y z
#    x 4.178750 -0.365760 0.054500 
#    y -0.365760 4.043370 0.185610 
#    z 0.054500 0.185610 3.569230 
# 
# 
# High freq. dielectric constant tensor:
#      x y z
#    x 1.815310 -0.015640 -0.000300 
#    y -0.015640 1.830620 0.018600 
#    z -0.000300 0.018600 1.801890 
# 
# From -- ./inp_files/599751.got.cif
#   From: 2010.06.25/outbox.cif.g09.slc.cpg/sg2_300_cif.got.tgz:599751.got - 2010.06.27 13:26:56.
