data_PCOD8003009
_publ_section_title
;
Structure prediction by ZEFSAII (Michael W. Deem and Ramdas Pophale) SiO2 
 PCOD8003009
Probable space group: P -1
;
_chemical_formula_sum "Si O2"
_cell_formula_units_Z 14
_cell_length_a 14.179569
_cell_length_b 8.941400
_cell_length_c 17.905386
_cell_angle_alpha 133.030379
_cell_angle_beta 161.914853
_cell_angle_gamma 53.084946
_cell_volume 503.466081
_symmetry_space_group_name_H-M "P -1"
_symmetry_group_IT_number 2
_symmetry_cell_setting 'triclinic'
loop_
_space_group_symop_operation_xyz
x,y,z
-x,-y,-z
loop_
_atom_site_type_symbol
_atom_site_label
_atom_site_fract_x
_atom_site_fract_y
_atom_site_fract_z
Si Si1 0.544570 0.124638 0.198681
Si Si2 0.631918 0.199950 0.457817
Si Si3 0.839006 0.929914 0.635709
Si Si4 0.276526 0.471932 0.043302
Si Si5 0.975471 0.472939 0.384648
Si Si6 0.688510 0.714168 0.148319
Si Si7 0.953808 0.147803 0.949032
O O1 0.707057 0.150668 0.411764
O O2 0.707241 0.955389 0.219067
O O3 0.542393 0.350317 0.233322
O O4 0.181865 0.021690 0.895069
O O5 0.599503 0.998698 0.419836
O O6 0.304487 0.277723 0.237681
O O7 0.922155 0.369749 0.765769
O O8 0.782574 0.673366 0.506921
O O9 0.797298 0.012375 0.715117
O O10 0.316471 0.452744 0.978434
O O11 0.294631 0.709410 0.167812
O O12 0.987902 0.690360 0.419016
O O13 0.000000 0.500000 0.500000
O O14 0.625635 0.347977 0.059439
O O15 0.000000 0.000000 0.000000
#
# Coordination Sequence:
#
# PCOD8003009 Si02
#       7
#     2   2   2   2   2   2   2
#     4   9  20  38  60  86 118 151 192 246 294 344
#     4  10  22  40  62  85 117 156 199 243 292 346
#     4   9  20  38  59  86 117 154 196 240 291 347
#     4  11  23  38  61  89 118 157 199 240 292 352
#     4  10  20  36  61  89 121 158 194 238 296 353
#     4  10  21  37  58  89 123 153 194 245 294 348
#     4  11  24  41  60  85 120 157 197 245 293 347
#
# _framework density 27.807234999999999
#
# number of rings (size 3 to 8) (size 9 to 14) (size 15 to 20)
#    0.000    2.000    0.000    2.571    0.000   12.000 
#    0.000    0.000    0.000    0.000    0.000    0.000 
#    0.000    0.000    0.000    0.000    0.000    0.000 
#
# Total GULP energy -173574.425519 kJ/mol
# GULP energy per Si atom -12398.173251 kJ/mol
# Density = 2.774394 g / cm^3
# Si number density = 27.807235 Si / 1000 Ang^3
#
#
#
# Elastic Constant Matrix: (Units=GPa)
#
#
# Indices 1 2 3 4 5 6 
#
# 1 144.8434 105.8447 39.9992 -20.3896 -40.4391 -16.3440
# 2 105.8447 248.6187 66.8835 -26.1345 -23.3785 -26.0812
# 3 39.9992 66.8835 120.2879 -38.4995 -1.9246 -15.3102
# 4 -20.3896 -26.1345 -38.4995 49.5031 0.7053 2.8985
# 5 -40.4391 -23.3785 -1.9246 0.7053 61.1592 -11.3575
# 6 -16.3440 -26.0812 -15.3102 2.8985 -11.3575 57.6914
#
#
#
# Elastic Compliance Matrix: (Units=1/GPa)
#
#
# Indices 1 2 3 4 5 6 
#
# 1 0.012742 -0.003962 -0.000825 0.002237 0.007406 0.002945
# 2 -0.003962 0.006398 -0.002063 0.000070 -0.000014 0.001216
# 3 -0.000825 -0.002063 0.012573 0.008266 -0.000734 0.001611
# 4 0.002237 0.000070 0.008266 0.027455 0.001790 0.001832
# 5 0.007406 -0.000014 -0.000734 0.001790 0.022351 0.006207
# 6 0.002945 0.001216 0.001611 0.001832 0.006207 0.020275
#
#
# Mechanical properties :
#
#
# Convention : Reuss Voigt Hill
#
# Bulk Modulus (GPa) = 55.51198 104.35608 79.93403
# Shear Modulus (GPa) = 41.15289 53.73893 47.44591
#
# Velocity S-wave (km/s) = 3.85117 4.40085 4.13515
# Velocity P-wave (km/s) = 6.30728 7.96449 7.18383
#
# Compressibility (1/GPa) = 0.01801413
#
# Stress axis : x y z
#
# Youngs Moduli (GPa) = 78.47997 156.30823 79.53311
#
# Poissons Ratio (x) = 0.61935 0.06558
# Poissons Ratio (y) = 0.31097 0.16404
# Poissons Ratio (z) = 0.06471 0.32240
#
# Static dielectric constant tensor:
#      x y z
#    x 4.929880 0.098270 0.694410 
#    y 0.098270 5.601700 -0.302670 
#    z 0.694410 -0.302670 5.988580 
# 
# 
# High freq. dielectric constant tensor:
#      x y z
#    x 2.117360 0.008290 0.047930 
#    y 0.008290 2.134190 -0.011420 
#    z 0.047930 -0.011420 2.191100 
# 
# From -- ./inp_files/27561.got.cif
#   From: 2010.06.25/outbox.cif.g09.slc.cpg/sg2_14_cif.got.tgz:27561.got - 2010.06.27 13:26:56.
