data_PCOD8003062
_publ_section_title
;
Structure prediction by ZEFSAII (Michael W. Deem and Ramdas Pophale) SiO2 
 PCOD8003062
Probable space group: P -1
;
_chemical_formula_sum "Si O2"
_cell_formula_units_Z 14
_cell_length_a 9.016164
_cell_length_b 11.039141
_cell_length_c 9.269503
_cell_angle_alpha 128.087151
_cell_angle_beta 118.307595
_cell_angle_gamma 70.186405
_cell_volume 637.879010
_symmetry_space_group_name_H-M "P -1"
_symmetry_group_IT_number 2
_symmetry_cell_setting 'triclinic'
loop_
_space_group_symop_operation_xyz
x,y,z
-x,-y,-z
loop_
_atom_site_type_symbol
_atom_site_label
_atom_site_fract_x
_atom_site_fract_y
_atom_site_fract_z
Si Si1 0.691025 0.991231 0.887950
Si Si2 0.240391 0.681624 0.888353
Si Si3 0.591307 0.652851 0.900893
Si Si4 0.868996 0.685985 0.626021
Si Si5 0.394584 0.858720 0.760273
Si Si6 0.202560 0.569685 0.367169
Si Si7 0.175410 0.388443 0.774196
O O1 0.816776 0.850818 0.793388
O O2 0.490894 0.954788 0.752719
O O3 0.729237 0.142397 0.920846
O O4 0.723143 0.040804 0.107202
O O5 0.402083 0.610046 0.821950
O O6 0.218300 0.569852 0.932572
O O7 0.073030 0.669333 0.702508
O O8 0.564485 0.792016 0.877177
O O9 0.693265 0.506316 0.772230
O O10 0.696039 0.705697 0.128072
O O11 0.797717 0.548895 0.586395
O O12 0.800216 0.677576 0.425420
O O13 0.290694 0.725270 0.553179
O O14 0.014834 0.621856 0.265474
#
# Coordination Sequence:
#
# PCOD8003062 Si02
#       7
#     2   2   2   2   2   2   2
#     4  10  20  36  62  87 116 151 199 239 280 343
#     4  10  22  38  59  88 118 153 195 238 285 348
#     4  11  21  38  62  88 120 150 192 246 293 337
#     4  11  21  38  63  89 115 153 197 241 289 339
#     4  10  21  37  63  90 111 149 206 241 276 341
#     4  11  22  39  64  88 112 155 205 239 280 343
#     4  11  23  38  60  91 122 147 190 248 297 339
#
# _framework density 21.947735000000002
#
# number of rings (size 3 to 8) (size 9 to 14) (size 15 to 20)
#    0.000    1.429    1.429    6.857    2.000    0.000 
#    0.000    2.857    3.143    8.571    0.000    0.000 
#    0.000    0.000    0.000    0.000    0.000    0.000 
#
# Total GULP energy -173448.809583 kJ/mol
# GULP energy per Si atom -12389.200684 kJ/mol
# Density = 2.189778 g / cm^3
# Si number density = 21.947735 Si / 1000 Ang^3
#
#
#
# Elastic Constant Matrix: (Units=GPa)
#
#
# Indices 1 2 3 4 5 6 
#
# 1 94.5029 21.5875 57.4188 -9.6038 3.4294 -11.1072
# 2 21.5875 53.9463 40.5227 8.2538 11.7649 -0.9777
# 3 57.4188 40.5227 111.6649 9.7044 5.1863 -5.2024
# 4 -9.6038 8.2538 9.7044 26.2470 -2.0210 9.3305
# 5 3.4294 11.7649 5.1863 -2.0210 35.7704 17.6596
# 6 -11.1072 -0.9777 -5.2024 9.3305 17.6596 32.4839
#
#
#
# Elastic Compliance Matrix: (Units=1/GPa)
#
#
# Indices 1 2 3 4 5 6 
#
# 1 0.017852 -0.001512 -0.009386 0.009800 -0.000217 0.001859
# 2 -0.001512 0.030362 -0.008044 -0.011947 -0.014494 0.010420
# 3 -0.009386 -0.008044 0.017507 -0.008073 -0.000374 0.001875
# 4 0.009800 -0.011947 -0.008073 0.059481 0.020663 -0.026620
# 5 -0.000217 -0.014494 -0.000374 0.020663 0.050816 -0.034131
# 6 0.001859 0.010420 0.001875 -0.026620 -0.034131 0.058235
#
#
# Mechanical properties :
#
#
# Convention : Reuss Voigt Hill
#
# Bulk Modulus (GPa) = 35.92245 55.46357 45.69301
# Shear Modulus (GPa) = 17.76720 28.27261 23.01990
#
# Velocity S-wave (km/s) = 2.84830 3.59301 3.24211
# Velocity P-wave (km/s) = 5.21727 6.52216 5.90587
#
# Compressibility (1/GPa) = 0.02783775
#
# Stress axis : x y z
#
# Youngs Moduli (GPa) = 56.01549 32.93595 57.11914
#
# Poissons Ratio (x) = 0.04979 0.53613
# Poissons Ratio (y) = 0.08468 0.45947
# Poissons Ratio (z) = 0.52577 0.26494
#
# Static dielectric constant tensor:
#      x y z
#    x 4.224120 0.063240 0.096980 
#    y 0.063240 3.948100 0.249210 
#    z 0.096980 0.249210 3.785720 
# 
# 
# High freq. dielectric constant tensor:
#      x y z
#    x 1.882810 0.003370 0.008260 
#    y 0.003370 1.838650 0.030240 
#    z 0.008260 0.030240 1.845920 
# 
# From -- ./inp_files/173502.got.cif
#   From: 2010.06.25/outbox.cif.g09.slc.cpg/sg2_87_cif.got.tgz:173502.got - 2010.06.27 13:26:56.
