data_PCOD8003570
_publ_section_title
;
Structure prediction by ZEFSAII (Michael W. Deem and Ramdas Pophale) SiO2 
 PCOD8003570
Probable space group: P -1
;
_chemical_formula_sum "Si O2"
_cell_formula_units_Z 16
_cell_length_a 26.111226
_cell_length_b 20.164404
_cell_length_c 8.962972
_cell_angle_alpha 34.514582
_cell_angle_beta 33.322242
_cell_angle_gamma 19.421620
_cell_volume 845.190724
_symmetry_space_group_name_H-M "P -1"
_symmetry_group_IT_number 2
_symmetry_cell_setting 'triclinic'
loop_
_space_group_symop_operation_xyz
x,y,z
-x,-y,-z
loop_
_atom_site_type_symbol
_atom_site_label
_atom_site_fract_x
_atom_site_fract_y
_atom_site_fract_z
Si Si1 0.760912 0.020914 0.955480
Si Si2 0.998318 0.871757 0.424851
Si Si3 0.522342 0.065236 0.460312
Si Si4 0.694598 0.607574 0.392747
Si Si5 0.012897 0.317392 0.734683
Si Si6 0.902478 0.972308 0.131478
Si Si7 0.750637 0.722851 0.777190
Si Si8 0.580694 0.294030 0.162739
O O1 0.636558 0.050424 0.144761
O O2 0.668481 0.202240 0.958111
O O3 0.834625 0.018167 0.645036
O O4 0.912144 0.803553 0.068803
O O5 0.135702 0.634396 0.561351
O O6 0.943173 0.922886 0.295389
O O7 0.063803 0.933252 0.191951
O O8 0.351878 0.293466 0.513143
O O9 0.500000 0.000000 0.500000
O O10 0.597196 0.930847 0.676653
O O11 0.553069 0.668143 0.567988
O O12 0.700395 0.705777 0.078226
O O13 0.986966 0.236972 0.833270
O O14 0.131586 0.294341 0.420625
O O15 0.838119 0.549627 0.764859
O O16 0.714119 0.134671 0.261565
O O17 0.500000 0.500000 0.000000
#
# Coordination Sequence:
#
# PCOD8003570 Si02
#       8
#     2   2   2   2   2   2   2   2
#     4   9  20  38  59  84 114 151 194 240 282 347
#     4  11  22  39  60  90 118 149 200 246 293 337
#     4  10  23  38  57  85 126 153 187 242 298 347
#     4  11  22  38  63  87 116 157 197 240 288 355
#     4   9  19  37  59  84 113 152 192 240 281 345
#     4  10  23  38  60  85 123 152 192 246 295 340
#     4  10  20  37  59  86 115 151 199 234 287 344
#     4  10  20  39  60  83 116 156 194 233 290 350
#
# _framework density 18.93064
#
# number of rings (size 3 to 8) (size 9 to 14) (size 15 to 20)
#    0.000    2.000    2.500    1.125    1.750    5.000 
#    0.000    1.875    0.000    0.000    0.000    0.000 
#    0.000    0.000    0.000    0.000    0.000    0.000 
#
# Total GULP energy -198391.807847 kJ/mol
# GULP energy per Si atom -12399.487990 kJ/mol
# Density = 1.888755 g / cm^3
# Si number density = 18.930640 Si / 1000 Ang^3
#
#
#
# Elastic Constant Matrix: (Units=GPa)
#
#
# Indices 1 2 3 4 5 6 
#
# 1 97.6160 31.1697 37.5455 9.5718 -17.3402 14.3355
# 2 31.1697 87.2597 29.7549 3.3482 -6.5910 14.6959
# 3 37.5455 29.7549 109.4303 15.5318 1.8045 10.8980
# 4 9.5718 3.3482 15.5318 25.8184 3.8738 -5.6360
# 5 -17.3402 -6.5910 1.8045 3.8738 20.5663 -7.7892
# 6 14.3355 14.6959 10.8980 -5.6360 -7.7892 25.2277
#
#
#
# Elastic Compliance Matrix: (Units=1/GPa)
#
#
# Indices 1 2 3 4 5 6 
#
# 1 0.015852 -0.002646 -0.003775 -0.005876 0.012738 -0.003216
# 2 -0.002646 0.014232 -0.002266 -0.000850 0.000473 -0.005852
# 3 -0.003775 -0.002266 0.012514 -0.006076 -0.005789 -0.005085
# 4 -0.005876 -0.000850 -0.006076 0.049171 -0.008322 0.014874
# 5 0.012738 0.000473 -0.005789 -0.008322 0.066798 0.013753
# 6 -0.003216 -0.005852 -0.005085 0.014874 0.013753 0.054641
#
#
# Mechanical properties :
#
#
# Convention : Reuss Voigt Hill
#
# Bulk Modulus (GPa) = 39.64655 54.58291 47.11473
# Shear Modulus (GPa) = 20.92121 27.37820 24.14971
#
# Velocity S-wave (km/s) = 3.32799 3.80707 3.57556
# Velocity P-wave (km/s) = 5.97962 6.94411 6.47984
#
# Compressibility (1/GPa) = 0.02522287
#
# Stress axis : x y z
#
# Youngs Moduli (GPa) = 63.08238 70.26489 79.91017
#
# Poissons Ratio (x) = 0.18592 0.30168
# Poissons Ratio (y) = 0.16692 0.18110
# Poissons Ratio (z) = 0.23815 0.15924
#
# Static dielectric constant tensor:
#      x y z
#    x 3.166520 0.036860 0.033680 
#    y 0.036860 3.610810 0.066860 
#    z 0.033680 0.066860 3.112740 
# 
# 
# High freq. dielectric constant tensor:
#      x y z
#    x 1.727010 0.011550 -0.013450 
#    y 0.011550 1.746850 -0.002370 
#    z -0.013450 -0.002370 1.733960 
# 
# From -- ./inp_files/178216.got.cif
#   From: 2010.06.25/outbox.cif.g09.slc.cpg/sg2_90_cif.got.tgz:178216.got - 2010.06.27 13:26:56.
