data_PCOD8003202
_publ_section_title
;
Structure prediction by ZEFSAII (Michael W. Deem and Ramdas Pophale) SiO2 
 PCOD8003202
Probable space group: P -1
;
_chemical_formula_sum "Si O2"
_cell_formula_units_Z 14
_cell_length_a 9.824248
_cell_length_b 12.117124
_cell_length_c 8.906871
_cell_angle_alpha 118.850686
_cell_angle_beta 134.800242
_cell_angle_gamma 66.217378
_cell_volume 655.542868
_symmetry_space_group_name_H-M "P -1"
_symmetry_group_IT_number 2
_symmetry_cell_setting 'triclinic'
loop_
_space_group_symop_operation_xyz
x,y,z
-x,-y,-z
loop_
_atom_site_type_symbol
_atom_site_label
_atom_site_fract_x
_atom_site_fract_y
_atom_site_fract_z
Si Si1 0.499383 0.312411 0.574884
Si Si2 0.749077 0.126803 0.137861
Si Si3 0.100856 0.465322 0.398426
Si Si4 0.516705 0.034255 0.363258
Si Si5 0.140509 0.753580 0.991717
Si Si6 0.063877 0.917617 0.307631
Si Si7 0.221544 0.694419 0.470232
O O1 0.323704 0.409978 0.556835
O O2 0.425393 0.180401 0.373237
O O3 0.640314 0.285591 0.809575
O O4 0.619003 0.366017 0.564441
O O5 0.669143 0.232762 0.265987
O O6 0.866661 0.200222 0.155144
O O7 0.889043 0.023910 0.273226
O O8 0.582140 0.058812 0.884714
O O9 0.099156 0.587862 0.372608
O O10 0.000000 0.500000 0.500000
O O11 0.982086 0.364602 0.157424
O O12 0.737574 0.020222 0.473923
O O13 0.500000 0.000000 0.500000
O O14 0.045525 0.872045 0.091573
O O15 0.063311 0.794132 0.331633
#
# Coordination Sequence:
#
# PCOD8003202 Si02
#       7
#     2   2   2   2   2   2   2
#     4  10  24  43  63  93 132 165 207 268 319 372
#     4  12  20  39  66  95 132 163 208 263 315 375
#     4  12  24  43  69  92 121 171 222 260 310 374
#     4  10  20  36  63  96 128 165 211 252 318 380
#     4  10  22  39  65  97 122 167 218 252 319 376
#     4  10  23  38  63  95 130 166 206 263 317 375
#     4  10  24  44  60  98 133 165 213 262 316 382
#
# _framework density 21.356344
#
# number of rings (size 3 to 8) (size 9 to 14) (size 15 to 20)
#    0.000    1.714    4.286    2.143    2.000    5.143 
#    0.000    5.714    0.000    0.000    0.000    0.000 
#    0.000    0.000    0.000    0.000    0.000    0.000 
#
# Total GULP energy -173576.264188 kJ/mol
# GULP energy per Si atom -12398.304585 kJ/mol
# Density = 2.130774 g / cm^3
# Si number density = 21.356344 Si / 1000 Ang^3
#
#
#
# Elastic Constant Matrix: (Units=GPa)
#
#
# Indices 1 2 3 4 5 6 
#
# 1 109.5657 53.5246 16.1326 4.8115 -1.0128 4.2131
# 2 53.5246 96.0106 37.6214 1.3738 13.5910 14.9235
# 3 16.1326 37.6214 72.6614 11.7209 16.3773 -3.7779
# 4 4.8115 1.3738 11.7209 24.4354 7.0192 1.9082
# 5 -1.0128 13.5910 16.3773 7.0192 28.7363 5.8161
# 6 4.2131 14.9235 -3.7779 1.9082 5.8161 44.1553
#
#
#
# Elastic Compliance Matrix: (Units=1/GPa)
#
#
# Indices 1 2 3 4 5 6 
#
# 1 0.013404 -0.008781 0.001271 -0.004198 0.004650 0.001366
# 2 -0.008781 0.020442 -0.008884 0.006863 -0.005289 -0.006431
# 3 0.001271 -0.008884 0.021346 -0.008426 -0.007076 0.006004
# 4 -0.004198 0.006863 -0.008426 0.048472 -0.009733 -0.003453
# 5 0.004650 -0.005289 -0.007076 -0.009733 0.044836 -0.004747
# 6 0.001366 -0.006431 0.006004 -0.003453 -0.004747 0.025979
#
#
# Mechanical properties :
#
#
# Convention : Reuss Voigt Hill
#
# Bulk Modulus (GPa) = 44.63485 54.75500 49.69493
# Shear Modulus (GPa) = 23.28438 30.86267 27.07353
#
# Velocity S-wave (km/s) = 3.30552 3.80561 3.56435
# Velocity P-wave (km/s) = 5.95936 6.70855 6.34502
#
# Compressibility (1/GPa) = 0.02240402
#
# Stress axis : x y z
#
# Youngs Moduli (GPa) = 74.60221 48.91840 46.84641
#
# Poissons Ratio (x) = 0.42956 -0.05952
# Poissons Ratio (y) = 0.65510 0.41617
# Poissons Ratio (z) = -0.09478 0.43458
#
# Static dielectric constant tensor:
#      x y z
#    x 3.855120 0.177690 -0.126270 
#    y 0.177690 3.945540 0.221180 
#    z -0.126270 0.221180 4.077360 
# 
# 
# High freq. dielectric constant tensor:
#      x y z
#    x 1.836720 0.015560 -0.011870 
#    y 0.015560 1.835530 0.009870 
#    z -0.011870 0.009870 1.835280 
# 
# From -- ./inp_files/175795.got.cif
#   From: 2010.06.25/outbox.cif.g09.slc.cpg/sg2_88_cif.got.tgz:175795.got - 2010.06.27 13:26:56.
