data_PCOD8003365
_publ_section_title
;
Structure prediction by ZEFSAII (Michael W. Deem and Ramdas Pophale) SiO2 
 PCOD8003365
Probable space group: P -1
;
_chemical_formula_sum "Si O2"
_cell_formula_units_Z 16
_cell_length_a 13.877498
_cell_length_b 13.235732
_cell_length_c 17.085847
_cell_angle_alpha 52.626716
_cell_angle_beta 130.746056
_cell_angle_gamma 158.893246
_cell_volume 856.173787
_symmetry_space_group_name_H-M "P -1"
_symmetry_group_IT_number 2
_symmetry_cell_setting 'triclinic'
loop_
_space_group_symop_operation_xyz
x,y,z
-x,-y,-z
loop_
_atom_site_type_symbol
_atom_site_label
_atom_site_fract_x
_atom_site_fract_y
_atom_site_fract_z
Si Si1 0.098355 0.401586 0.348294
Si Si2 0.342639 0.622568 0.808476
Si Si3 0.935192 0.850007 0.851985
Si Si4 0.651090 0.565481 0.233505
Si Si5 0.803963 0.715732 0.418106
Si Si6 0.121186 0.841547 0.088419
Si Si7 0.513300 0.986217 0.263474
Si Si8 0.785315 0.697102 0.670212
O O1 0.088157 0.306948 0.464676
O O2 0.331265 0.718177 0.338401
O O3 0.193387 0.412077 0.316485
O O4 0.781462 0.168459 0.274407
O O5 0.267213 0.477223 0.759554
O O6 0.109261 0.392646 0.858357
O O7 0.648330 0.853372 0.897267
O O8 0.364959 0.793845 0.717449
O O9 0.214151 0.183357 0.843126
O O10 0.682372 0.713783 0.811016
O O11 0.868879 0.735869 0.784767
O O12 0.975942 0.766715 0.969408
O O13 0.769150 0.636269 0.348292
O O14 0.523415 0.522043 0.396758
O O15 0.022687 0.024044 0.396272
O O16 0.293033 0.864535 0.146142
#
# Coordination Sequence:
#
# PCOD8003365 Si02
#       8
#     2   2   2   2   2   2   2   2
#     4  12  20  37  62  75 106 150 178 214 274 316
#     4  10  20  37  55  75 116 140 180 223 257 307
#     4  10  21  35  56  83 112 137 173 223 275 319
#     4  10  21  35  56  83 112 137 173 223 275 319
#     4  10  21  37  56  86 110 132 174 227 272 322
#     4  10  20  37  55  75 116 140 180 223 257 307
#     4  10  22  37  52  81 106 144 190 220 244 314
#     4  10  21  37  56  86 110 132 174 227 272 322
#
# _framework density 18.687794
#
# number of rings (size 3 to 8) (size 9 to 14) (size 15 to 20)
#    0.750    1.000    1.250    3.750    0.000    3.000 
#    0.000    2.500    0.000    0.000    0.000    0.000 
#    0.000    0.000    0.000    0.000    0.000    0.000 
#
# Total GULP energy -198309.382439 kJ/mol
# GULP energy per Si atom -12394.336402 kJ/mol
# Density = 1.864526 g / cm^3
# Si number density = 18.687794 Si / 1000 Ang^3
#
#
#
# Elastic Constant Matrix: (Units=GPa)
#
#
# Indices 1 2 3 4 5 6 
#
# 1 98.5850 40.9961 77.5198 -8.5870 0.9741 4.6949
# 2 40.9961 117.5496 38.0404 -8.8370 -2.0035 17.3089
# 3 77.5198 38.0404 92.8183 -10.0296 0.7222 -2.3839
# 4 -8.5870 -8.8370 -10.0296 17.7630 1.6593 -7.2945
# 5 0.9741 -2.0035 0.7222 1.6593 16.5555 -3.0979
# 6 4.6949 17.3089 -2.3839 -7.2945 -3.0979 19.6676
#
#
#
# Elastic Compliance Matrix: (Units=1/GPa)
#
#
# Indices 1 2 3 4 5 6 
#
# 1 0.032290 -0.000975 -0.027440 -0.005275 -0.002640 -0.012548
# 2 -0.000975 0.011864 -0.004537 -0.001818 -0.000274 -0.011475
# 3 -0.027440 -0.004537 0.037573 0.013966 0.001876 0.020572
# 4 -0.005275 -0.001818 0.013966 0.073912 -0.002004 0.031649
# 5 -0.002640 -0.000274 0.001876 -0.002004 0.062554 0.010209
# 6 -0.012548 -0.011475 0.020572 0.031649 0.010209 0.079779
#
#
# Mechanical properties :
#
#
# Convention : Reuss Voigt Hill
#
# Bulk Modulus (GPa) = 63.19898 69.11839 66.15868
# Shear Modulus (GPa) = 13.54461 20.95701 17.25081
#
# Velocity S-wave (km/s) = 2.69510 3.35241 3.04156
# Velocity P-wave (km/s) = 6.60125 7.21464 6.91475
#
# Compressibility (1/GPa) = 0.01582304
#
# Stress axis : x y z
#
# Youngs Moduli (GPa) = 30.96938 84.29089 26.61480
#
# Poissons Ratio (x) = 0.08221 0.73031
# Poissons Ratio (y) = 0.03021 0.12074
# Poissons Ratio (z) = 0.84980 0.38239
#
# Static dielectric constant tensor:
#      x y z
#    x 3.287650 0.073110 0.049070 
#    y 0.073110 3.669320 -0.019010 
#    z 0.049070 -0.019010 3.269710 
# 
# 
# High freq. dielectric constant tensor:
#      x y z
#    x 1.711260 0.011990 0.006110 
#    y 0.011990 1.751850 -0.006250 
#    z 0.006110 -0.006250 1.707800 
# 
# From -- ./inp_files/574023.got.cif
#   From: 2010.06.25/outbox.cif.g09.slc.cpg/sg2_288_cif.got.tgz:574023.got - 2010.06.27 13:26:56.
