data_PCOD8003590
_publ_section_title
;
Structure prediction by ZEFSAII (Michael W. Deem and Ramdas Pophale) SiO2 
 PCOD8003590
Probable space group: P -1
;
_chemical_formula_sum "Si O2"
_cell_formula_units_Z 16
_cell_length_a 8.580649
_cell_length_b 17.079950
_cell_length_c 7.955237
_cell_angle_alpha 129.176579
_cell_angle_beta 74.768873
_cell_angle_gamma 123.667408
_cell_volume 745.261941
_symmetry_space_group_name_H-M "P -1"
_symmetry_group_IT_number 2
_symmetry_cell_setting 'triclinic'
loop_
_space_group_symop_operation_xyz
x,y,z
-x,-y,-z
loop_
_atom_site_type_symbol
_atom_site_label
_atom_site_fract_x
_atom_site_fract_y
_atom_site_fract_z
Si Si1 0.720451 0.572995 0.274027
Si Si2 0.988432 0.745395 0.693669
Si Si3 0.373661 0.661668 0.862265
Si Si4 0.763041 0.819221 0.099928
Si Si5 0.003228 0.065570 0.254832
Si Si6 0.366906 0.251260 0.588740
Si Si7 0.252446 0.648929 0.516587
Si Si8 0.020395 0.431641 0.053627
O O1 0.833589 0.625590 0.485790
O O2 0.608812 0.433559 0.154791
O O3 0.587725 0.624028 0.337332
O O4 0.851025 0.614557 0.123094
O O5 0.895909 0.777786 0.917926
O O6 0.068941 0.846559 0.661558
O O7 0.149224 0.722080 0.684452
O O8 0.574123 0.781190 0.993503
O O9 0.345501 0.630976 0.632054
O O10 0.193356 0.672388 0.982021
O O11 0.710423 0.763528 0.222415
O O12 0.867732 0.962119 0.282541
O O13 0.214618 0.141452 0.371468
O O14 0.000000 0.000000 0.000000
O O15 0.574334 0.267303 0.546464
O O16 0.111639 0.518752 0.305221
O O17 0.000000 0.500000 0.000000
#
# Coordination Sequence:
#
# PCOD8003590 Si02
#       8
#     2   2   2   2   2   2   2   2
#     4  10  22  40  61  90 125 167 204 250 308 360
#     4  10  22  40  65  89 125 160 203 255 309 364
#     4  11  23  38  60  90 127 165 203 246 300 373
#     4  11  24  42  65  90 122 165 206 253 305 369
#     4   9  20  45  67  88 120 161 203 256 308 365
#     4  11  24  40  68  91 121 160 212 253 303 367
#     4  12  23  39  61  96 124 166 202 254 310 358
#     4  10  20  37  59  88 130 158 198 257 298 361
#
# _framework density 21.468961
#
# number of rings (size 3 to 8) (size 9 to 14) (size 15 to 20)
#    0.000    1.500    2.500    4.500    1.750    4.000 
#    0.000    6.250    0.000    0.000    0.000    0.000 
#    0.000    0.000    0.000    0.000    0.000    0.000 
#
# Total GULP energy -198247.545157 kJ/mol
# GULP energy per Si atom -12390.471572 kJ/mol
# Density = 2.142010 g / cm^3
# Si number density = 21.468961 Si / 1000 Ang^3
#
#
#
# Elastic Constant Matrix: (Units=GPa)
#
#
# Indices 1 2 3 4 5 6 
#
# 1 101.6845 38.6606 28.7371 -3.4987 0.2014 13.3621
# 2 38.6606 84.6907 12.1980 -5.8457 -11.1782 10.5393
# 3 28.7371 12.1980 67.9319 -13.2705 -1.3127 7.1686
# 4 -3.4987 -5.8457 -13.2705 35.7378 3.8207 2.5376
# 5 0.2014 -11.1782 -1.3127 3.8207 29.5411 -8.1196
# 6 13.3621 10.5393 7.1686 2.5376 -8.1196 31.9663
#
#
#
# Elastic Compliance Matrix: (Units=1/GPa)
#
#
# Indices 1 2 3 4 5 6 
#
# 1 0.013748 -0.005646 -0.004613 -0.000673 -0.003351 -0.003648
# 2 -0.005646 0.015347 0.000206 0.001585 0.005225 -0.001545
# 3 -0.004613 0.000206 0.018228 0.006640 -0.000749 -0.002945
# 4 -0.000673 0.001585 0.006640 0.031524 -0.004667 -0.005418
# 5 -0.003351 0.005225 -0.000749 -0.004667 0.039219 0.010178
# 6 -0.003648 -0.001545 -0.002945 -0.005418 0.010178 0.036993
#
#
# Mechanical properties :
#
#
# Convention : Reuss Voigt Hill
#
# Bulk Modulus (GPa) = 36.74146 45.94429 41.34288
# Shear Modulus (GPa) = 27.13902 31.09646 29.11774
#
# Velocity S-wave (km/s) = 3.55928 3.80996 3.68675
# Velocity P-wave (km/s) = 5.83457 6.38758 6.11733
#
# Compressibility (1/GPa) = 0.02721721
#
# Stress axis : x y z
#
# Youngs Moduli (GPa) = 72.74042 65.16112 54.85926
#
# Poissons Ratio (x) = 0.36790 0.25307
# Poissons Ratio (y) = 0.41069 -0.01132
# Poissons Ratio (z) = 0.33556 -0.01345
#
# Static dielectric constant tensor:
#      x y z
#    x 4.025200 0.118400 0.033500 
#    y 0.118400 4.333110 0.389230 
#    z 0.033500 0.389230 3.434280 
# 
# 
# High freq. dielectric constant tensor:
#      x y z
#    x 1.838100 0.003880 0.011540 
#    y 0.003880 1.839980 -0.018030 
#    z 0.011540 -0.018030 1.837370 
# 
# From -- ./inp_files/215820.got.cif
#   From: 2010.06.25/outbox.cif.g09.slc.cpg/sg2_108_cif.got.tgz:215820.got - 2010.06.27 13:26:56.
