data_PCOD8003177
_publ_section_title
;
Structure prediction by ZEFSAII (Michael W. Deem and Ramdas Pophale) SiO2 
 PCOD8003177
Probable space group: P -1
;
_chemical_formula_sum "Si O2"
_cell_formula_units_Z 16
_cell_length_a 19.190053
_cell_length_b 15.614036
_cell_length_c 8.643387
_cell_angle_alpha 33.316608
_cell_angle_beta 142.396225
_cell_angle_gamma 142.547437
_cell_volume 798.066082
_symmetry_space_group_name_H-M "P -1"
_symmetry_group_IT_number 2
_symmetry_cell_setting 'triclinic'
loop_
_space_group_symop_operation_xyz
x,y,z
-x,-y,-z
loop_
_atom_site_type_symbol
_atom_site_label
_atom_site_fract_x
_atom_site_fract_y
_atom_site_fract_z
Si Si1 0.734086 0.803755 0.799129
Si Si2 0.552569 0.899599 0.132725
Si Si3 0.718220 0.146368 0.821634
Si Si4 0.249695 0.515411 0.788810
Si Si5 0.109376 0.667873 0.881025
Si Si6 0.775627 0.048863 0.755270
Si Si7 0.980468 0.783456 0.229513
Si Si8 0.296071 0.672964 0.947862
O O1 0.671951 0.878873 0.447169
O O2 0.713410 0.862062 0.847492
O O3 0.681573 0.599501 0.992546
O O4 0.886029 0.880782 0.930742
O O5 0.439748 0.718894 0.177356
O O6 0.500000 0.000000 0.000000
O O7 0.593184 0.010129 0.881084
O O8 0.692951 0.301645 0.466691
O O9 0.755773 0.040968 0.915820
O O10 0.823615 0.220010 0.024201
O O11 0.101593 0.416894 0.647967
O O12 0.263724 0.526299 0.983334
O O13 0.205257 0.616444 0.022571
O O14 0.056923 0.786810 0.514458
O O15 0.000000 0.500000 0.000000
O O16 0.711735 0.161046 0.391749
O O17 0.924264 0.134187 0.865870
#
# Coordination Sequence:
#
# PCOD8003177 Si02
#       8
#     2   2   2   2   2   2   2   2
#     4  10  21  42  62  87 123 172 193 250 315 360
#     4  12  22  43  65  84 123 163 216 246 293 370
#     4  11  23  38  63  97 116 164 208 252 293 361
#     4   9  22  39  61  91 123 154 205 245 314 350
#     4  11  19  34  62  94 125 150 201 256 302 356
#     4  10  20  36  63  92 122 162 204 242 309 371
#     4   9  20  37  61  87 131 158 198 245 315 364
#     4  10  22  38  63  89 117 171 202 246 303 362
#
# _framework density 20.048466000000001
#
# number of rings (size 3 to 8) (size 9 to 14) (size 15 to 20)
#    0.750    1.000    3.750    1.125    1.750    4.000 
#    0.000    5.625    0.000    0.000    0.000    0.000 
#    0.000    0.000    0.000    0.000    0.000    0.000 
#
# Total GULP energy -198268.783393 kJ/mol
# GULP energy per Si atom -12391.798962 kJ/mol
# Density = 2.000283 g / cm^3
# Si number density = 20.048466 Si / 1000 Ang^3
#
#
#
# Elastic Constant Matrix: (Units=GPa)
#
#
# Indices 1 2 3 4 5 6 
#
# 1 159.3815 67.3816 44.4373 -3.3149 -8.3158 -13.2482
# 2 67.3816 100.5337 26.0573 -0.4083 1.3394 -24.9969
# 3 44.4373 26.0573 76.9623 1.4856 10.1945 -5.2244
# 4 -3.3149 -0.4083 1.4856 32.2081 -2.4742 4.4837
# 5 -8.3158 1.3394 10.1945 -2.4742 23.4452 -0.2909
# 6 -13.2482 -24.9969 -5.2244 4.4837 -0.2909 46.1930
#
#
#
# Elastic Compliance Matrix: (Units=1/GPa)
#
#
# Indices 1 2 3 4 5 6 
#
# 1 0.010527 -0.006089 -0.004971 0.001866 0.006428 -0.000978
# 2 -0.006089 0.016064 -0.001064 -0.001550 -0.002692 0.006960
# 3 -0.004971 -0.001064 0.017537 -0.002085 -0.009546 0.000124
# 4 0.001866 -0.001550 -0.002085 0.032207 0.005010 -0.003634
# 5 0.006428 -0.002692 -0.009546 0.005010 0.049755 -0.000866
# 6 -0.000978 0.006960 0.000124 -0.003634 -0.000866 0.025495
#
#
# Mechanical properties :
#
#
# Convention : Reuss Voigt Hill
#
# Bulk Modulus (GPa) = 50.30082 68.07000 59.18541
# Shear Modulus (GPa) = 27.40338 33.63601 30.51969
#
# Velocity S-wave (km/s) = 3.70111 4.10046 3.90589
# Velocity P-wave (km/s) = 6.58850 7.51297 7.06588
#
# Compressibility (1/GPa) = 0.01988039
#
# Stress axis : x y z
#
# Youngs Moduli (GPa) = 94.99333 62.25250 57.02268
#
# Poissons Ratio (x) = 0.37903 0.28344
# Poissons Ratio (y) = 0.57838 0.06069
# Poissons Ratio (z) = 0.47218 0.06626
#
# Static dielectric constant tensor:
#      x y z
#    x 2.197690 -3.987490 -3.124510 
#    y -3.987490 -5.695100 -7.665530 
#    z -3.124510 -7.665530 -2.930150 
# 
# 
# High freq. dielectric constant tensor:
#      x y z
#    x 1.773600 -0.010950 0.004940 
#    y -0.010950 1.795160 0.012180 
#    z 0.004940 0.012180 1.758170 
# 
# From -- ./inp_files/334676.got.cif
#   From: 2010.06.25/outbox.cif.g09.slc.cpg/sg2_168_cif.got.tgz:334676.got - 2010.06.27 13:26:56.
