data_PCOD8003820
_publ_section_title
;
Structure prediction by ZEFSAII (Michael W. Deem and Ramdas Pophale) SiO2 
 PCOD8003820
Probable space group: P -1
;
_chemical_formula_sum "Si O2"
_cell_formula_units_Z 16
_cell_length_a 12.605244
_cell_length_b 9.510442
_cell_length_c 9.025927
_cell_angle_alpha 81.617450
_cell_angle_beta 94.848185
_cell_angle_gamma 131.207443
_cell_volume 805.258077
_symmetry_space_group_name_H-M "P -1"
_symmetry_group_IT_number 2
_symmetry_cell_setting 'triclinic'
loop_
_space_group_symop_operation_xyz
x,y,z
-x,-y,-z
loop_
_atom_site_type_symbol
_atom_site_label
_atom_site_fract_x
_atom_site_fract_y
_atom_site_fract_z
Si Si1 0.369144 0.553968 0.047596
Si Si2 0.340066 0.245403 0.587677
Si Si3 0.649496 0.452318 0.607568
Si Si4 0.683838 0.771899 0.073492
Si Si5 0.950896 0.108011 0.425523
Si Si6 0.110089 0.472899 0.547642
Si Si7 0.075754 0.794774 0.902034
Si Si8 0.159649 0.554568 0.877061
O O1 0.334745 0.538815 0.217421
O O2 0.535558 0.705901 0.009530
O O3 0.289103 0.343947 0.005324
O O4 0.309225 0.641303 0.948345
O O5 0.486654 0.293974 0.559953
O O6 0.304218 0.350299 0.467852
O O7 0.336039 0.294990 0.749182
O O8 0.218696 0.024239 0.576432
O O9 0.749597 0.416019 0.557152
O O10 0.810430 0.998109 0.040934
O O11 0.000522 0.198652 0.251160
O O12 0.013971 0.253933 0.541783
O O13 0.000000 0.000000 0.500000
O O14 0.164015 0.521904 0.711456
O O15 0.000000 0.500000 0.500000
O O16 0.148843 0.713531 0.870651
O O17 0.960891 0.648540 0.031395
#
# Coordination Sequence:
#
# PCOD8003820 Si02
#       8
#     2   2   2   2   2   2   2   2
#     4  10  21  36  65  91 122 156 199 250 313 367
#     4   9  19  36  63  89 122 154 201 250 305 354
#     4  10  20  37  61  90 122 159 199 252 303 360
#     4   9  20  40  61  93 120 155 202 253 305 367
#     4  11  21  39  66  92 120 157 203 258 309 360
#     4  12  24  41  61  87 124 166 206 249 305 369
#     4  10  23  42  60  88 125 157 205 252 303 366
#     4  11  24  39  61  86 122 167 202 248 304 367
#
# _framework density 19.869408
#
# number of rings (size 3 to 8) (size 9 to 14) (size 15 to 20)
#    0.000    1.750    2.500    1.500    3.500    3.000 
#    0.000    0.625    0.000    0.000    0.000    0.000 
#    0.000    0.000    0.000    0.000    0.000    0.000 
#
# Total GULP energy -198278.802842 kJ/mol
# GULP energy per Si atom -12392.425178 kJ/mol
# Density = 1.982418 g / cm^3
# Si number density = 19.869408 Si / 1000 Ang^3
#
#
#
# Elastic Constant Matrix: (Units=GPa)
#
#
# Indices 1 2 3 4 5 6 
#
# 1 124.6181 14.2968 42.4311 0.9199 4.2263 -8.8657
# 2 14.2968 67.1756 5.8214 4.7844 3.4929 -4.8181
# 3 42.4311 5.8214 97.6916 2.2602 10.7700 -11.5596
# 4 0.9199 4.7844 2.2602 29.7927 -1.0804 0.2868
# 5 4.2263 3.4929 10.7700 -1.0804 36.2509 -2.6387
# 6 -8.8657 -4.8181 -11.5596 0.2868 -2.6387 28.2305
#
#
#
# Elastic Compliance Matrix: (Units=1/GPa)
#
#
# Indices 1 2 3 4 5 6 
#
# 1 0.009644 -0.001660 -0.003996 0.000273 0.000314 0.001135
# 2 -0.001660 0.015622 0.000247 -0.002544 -0.001304 0.002150
# 3 -0.003996 0.000247 0.012766 -0.001034 -0.003110 0.003734
# 4 0.000273 -0.002544 -0.001034 0.034106 0.001465 -0.000981
# 5 0.000314 -0.001304 -0.003110 0.001465 0.028735 0.001274
# 6 0.001135 0.002150 0.003734 -0.000981 0.001274 0.037804
#
#
# Mechanical properties :
#
#
# Convention : Reuss Voigt Hill
#
# Bulk Modulus (GPa) = 36.74776 46.06489 41.40633
# Shear Modulus (GPa) = 31.53252 33.98386 32.75819
#
# Velocity S-wave (km/s) = 3.98802 4.14014 4.06479
# Velocity P-wave (km/s) = 6.30401 6.78885 6.55092
#
# Compressibility (1/GPa) = 0.02721255
#
# Stress axis : x y z
#
# Youngs Moduli (GPa) = 103.69328 64.01420 78.33379
#
# Poissons Ratio (x) = 0.10629 0.31304
# Poissons Ratio (y) = 0.17218 -0.01938
# Poissons Ratio (z) = 0.41439 -0.01583
#
# Static dielectric constant tensor:
#      x y z
#    x 3.836590 0.214770 0.177560 
#    y 0.214770 3.679060 -0.013330 
#    z 0.177560 -0.013330 3.700920 
# 
# 
# High freq. dielectric constant tensor:
#      x y z
#    x 1.783490 0.013010 0.012100 
#    y 0.013010 1.764280 0.008470 
#    z 0.012100 0.008470 1.781020 
# 
# From -- ./inp_files/222225.got.cif
#   From: 2010.06.25/outbox.cif.g09.slc.cpg/sg2_112_cif.got.tgz:222225.got - 2010.06.27 13:26:56.
