data_PCOD8003596
_publ_section_title
;
Structure prediction by ZEFSAII (Michael W. Deem and Ramdas Pophale) SiO2 
 PCOD8003596
Probable space group: P -1
;
_chemical_formula_sum "Si O2"
_cell_formula_units_Z 16
_cell_length_a 29.471088
_cell_length_b 11.276688
_cell_length_c 9.715521
_cell_angle_alpha 138.930532
_cell_angle_beta 151.680911
_cell_angle_gamma 32.436171
_cell_volume 820.779365
_symmetry_space_group_name_H-M "P -1"
_symmetry_group_IT_number 2
_symmetry_cell_setting 'triclinic'
loop_
_space_group_symop_operation_xyz
x,y,z
-x,-y,-z
loop_
_atom_site_type_symbol
_atom_site_label
_atom_site_fract_x
_atom_site_fract_y
_atom_site_fract_z
Si Si1 0.245224 0.605281 0.820471
Si Si2 0.499145 0.186154 0.748514
Si Si3 0.983298 0.333511 0.659639
Si Si4 0.885509 0.097718 0.520791
Si Si5 0.701824 0.196316 0.615966
Si Si6 0.943587 0.775022 0.939630
Si Si7 0.509071 0.821772 0.966644
Si Si8 0.673294 0.314525 0.334109
O O1 0.192004 0.793203 0.727234
O O2 0.360761 0.395368 0.881700
O O3 0.152455 0.552178 0.565495
O O4 0.273175 0.678375 0.097777
O O5 0.518357 0.097447 0.878046
O O6 0.379875 0.434132 0.635381
O O7 0.500000 0.000000 0.500000
O O8 0.600835 0.217387 0.002976
O O9 0.995080 0.526778 0.813903
O O10 0.028687 0.165133 0.506437
O O11 0.061364 0.203982 0.889354
O O12 0.803445 0.150892 0.478440
O O13 0.967665 0.176940 0.845090
O O14 0.677778 0.317193 0.512484
O O15 0.813085 0.941920 0.678146
O O16 0.586198 0.217559 0.375083
O O17 0.500000 0.000000 0.000000
#
# Coordination Sequence:
#
# PCOD8003596 Si02
#       8
#     2   2   2   2   2   2   2   2
#     4  11  20  39  61  89 122 158 206 250 302 357
#     4  10  23  45  62  86 126 166 201 245 305 365
#     4  10  20  37  63  86 121 160 199 255 301 347
#     4  11  20  40  63  87 117 165 209 239 297 365
#     4  11  22  40  60  90 128 160 195 259 311 348
#     4  10  20  37  59  89 121 155 202 253 301 350
#     4  11  24  38  62  97 121 153 209 256 300 366
#     4  10  24  41  62  88 126 163 203 247 298 372
#
# _framework density 19.493666999999999
#
# number of rings (size 3 to 8) (size 9 to 14) (size 15 to 20)
#    0.000    1.500    3.750    1.875    1.750    2.500 
#    2.250    0.625    0.000    0.000    0.000    0.000 
#    0.000    0.000    0.000    0.000    0.000    0.000 
#
# Total GULP energy -198417.046864 kJ/mol
# GULP energy per Si atom -12401.065429 kJ/mol
# Density = 1.944930 g / cm^3
# Si number density = 19.493667 Si / 1000 Ang^3
#
#
#
# Elastic Constant Matrix: (Units=GPa)
#
#
# Indices 1 2 3 4 5 6 
#
# 1 77.2975 37.1487 26.8483 9.7569 13.7561 -1.1641
# 2 37.1487 91.0522 43.7689 2.3506 24.2971 -5.4567
# 3 26.8483 43.7689 93.6908 4.9094 7.3426 0.0464
# 4 9.7569 2.3506 4.9094 36.7014 -0.3387 5.4171
# 5 13.7561 24.2971 7.3426 -0.3387 28.5806 -8.9191
# 6 -1.1641 -5.4567 0.0464 5.4171 -8.9191 28.4647
#
#
#
# Elastic Compliance Matrix: (Units=1/GPa)
#
#
# Indices 1 2 3 4 5 6 
#
# 1 0.017201 -0.004918 -0.002128 -0.003907 -0.003812 -0.000687
# 2 -0.004918 0.019588 -0.006794 0.000932 -0.012715 -0.000597
# 3 -0.002128 -0.006794 0.014263 -0.000834 0.003030 -0.000304
# 4 -0.003907 0.000932 -0.000834 0.029157 -0.000086 -0.005555
# 5 -0.003812 -0.012715 0.003030 -0.000086 0.051038 0.013410
# 6 -0.000687 -0.000597 -0.000304 -0.005555 0.013410 0.040249
#
#
# Mechanical properties :
#
#
# Convention : Reuss Voigt Hill
#
# Bulk Modulus (GPa) = 42.78386 53.06362 47.92374
# Shear Modulus (GPa) = 24.15861 29.03433 26.59647
#
# Velocity S-wave (km/s) = 3.52420 3.86349 3.69774
# Velocity P-wave (km/s) = 6.20928 6.86893 6.54742
#
# Compressibility (1/GPa) = 0.02337330
#
# Stress axis : x y z
#
# Youngs Moduli (GPa) = 58.13651 51.05138 70.11033
#
# Poissons Ratio (x) = 0.25108 0.14918
# Poissons Ratio (y) = 0.28592 0.47630
# Poissons Ratio (z) = 0.12370 0.34682
#
# Static dielectric constant tensor:
#      x y z
#    x 3.426730 -0.197950 0.168580 
#    y -0.197950 8.885490 -1.864820 
#    z 0.168580 -1.864820 4.265770 
# 
# 
# High freq. dielectric constant tensor:
#      x y z
#    x 1.749470 0.000310 0.007670 
#    y 0.000310 1.760860 -0.007270 
#    z 0.007670 -0.007270 1.764930 
# 
# From -- ./inp_files/259243.got.cif
#   From: 2010.06.25/outbox.cif.g09.slc.cpg/sg2_130_cif.got.tgz:259243.got - 2010.06.27 13:26:56.
