data_PCOD8003005
_publ_section_title
;
Structure prediction by ZEFSAII (Michael W. Deem and Ramdas Pophale) SiO2 
 PCOD8003005
Probable space group: P -1
;
_chemical_formula_sum "Si O2"
_cell_formula_units_Z 16
_cell_length_a 23.857751
_cell_length_b 8.969687
_cell_length_c 6.552149
_cell_angle_alpha 51.775184
_cell_angle_beta 82.939005
_cell_angle_gamma 52.572387
_cell_volume 799.490360
_symmetry_space_group_name_H-M "P -1"
_symmetry_group_IT_number 2
_symmetry_cell_setting 'triclinic'
loop_
_space_group_symop_operation_xyz
x,y,z
-x,-y,-z
loop_
_atom_site_type_symbol
_atom_site_label
_atom_site_fract_x
_atom_site_fract_y
_atom_site_fract_z
Si Si1 0.841464 0.673413 0.896707
Si Si2 0.083825 0.468957 0.419223
Si Si3 0.333037 0.914818 0.282253
Si Si4 0.076598 0.212793 0.977416
Si Si5 0.446990 0.348461 0.605858
Si Si6 0.587788 0.991848 0.093432
Si Si7 0.072609 0.807452 0.477628
Si Si8 0.448772 0.771850 0.683285
O O1 0.849407 0.621484 0.692699
O O2 0.754856 0.935993 0.760836
O O3 0.900260 0.704771 0.914743
O O4 0.859134 0.436929 0.208472
O O5 0.115151 0.216346 0.751358
O O6 0.055930 0.702746 0.384456
O O7 0.014221 0.569520 0.214879
O O8 0.373146 0.652186 0.363062
O O9 0.378511 0.839344 0.535575
O O10 0.338548 0.085891 0.987917
O O11 0.100373 0.943108 0.251855
O O12 0.414458 0.219933 0.794133
O O13 0.494460 0.227675 0.476404
O O14 0.508853 0.279318 0.807188
O O15 0.593505 0.997432 0.328447
O O16 0.000000 0.000000 0.500000
O O17 0.500000 0.500000 0.000000
#
# Coordination Sequence:
#
# PCOD8003005 Si02
#       8
#     2   2   2   2   2   2   2   2
#     4  11  25  40  59  90 128 165 202 252 313 366
#     4  10  22  39  64  96 118 154 210 256 302 368
#     4  11  23  39  57  84 127 159 194 250 306 354
#     4  10  22  39  65  90 119 157 204 254 304 361
#     4  10  20  36  61  89 113 154 200 250 298 354
#     4  10  20  37  62  87 117 152 207 246 291 362
#     4  11  23  39  67  92 117 158 206 256 306 366
#     4  11  18  36  64  89 113 161 202 247 298 353
#
# _framework density 20.01275
#
# number of rings (size 3 to 8) (size 9 to 14) (size 15 to 20)
#    0.000    1.500    3.750    1.875    3.500    3.000 
#    0.000    0.000    0.000    0.000    0.000    0.000 
#    0.000    0.000    0.000    0.000    0.000    0.000 
#
# Total GULP energy -198308.628203 kJ/mol
# GULP energy per Si atom -12394.289263 kJ/mol
# Density = 1.996720 g / cm^3
# Si number density = 20.012750 Si / 1000 Ang^3
#
#
#
# Elastic Constant Matrix: (Units=GPa)
#
#
# Indices 1 2 3 4 5 6 
#
# 1 74.8382 53.8349 45.3749 5.3918 -17.9179 3.6013
# 2 53.8349 103.0679 41.9068 20.8266 6.9272 -6.9205
# 3 45.3749 41.9068 104.4102 9.5986 -21.4375 0.5638
# 4 5.3918 20.8266 9.5986 33.2814 2.3539 -1.3878
# 5 -17.9179 6.9272 -21.4375 2.3539 33.9987 -1.6009
# 6 3.6013 -6.9205 0.5638 -1.3878 -1.6009 20.7139
#
#
#
# Elastic Compliance Matrix: (Units=1/GPa)
#
#
# Indices 1 2 3 4 5 6 
#
# 1 0.034252 -0.019591 -0.003650 0.005992 0.018830 -0.010544
# 2 -0.019591 0.025562 -0.004410 -0.009917 -0.017153 0.010076
# 3 -0.003650 -0.004410 0.014800 -0.001539 0.008381 -0.000697
# 4 0.005992 -0.009917 -0.001539 0.035533 0.001663 -0.001804
# 5 0.018830 -0.017153 0.008381 0.001663 0.047745 -0.005431
# 6 -0.010544 0.010076 -0.000697 -0.001804 -0.005431 0.052955
#
#
# Mechanical properties :
#
#
# Convention : Reuss Voigt Hill
#
# Bulk Modulus (GPa) = 51.78275 62.72773 57.25524
# Shear Modulus (GPa) = 18.34287 27.01211 22.67749
#
# Velocity S-wave (km/s) = 3.03076 3.67787 3.36988
# Velocity P-wave (km/s) = 6.17887 7.03190 6.61914
#
# Compressibility (1/GPa) = 0.01931145
#
# Stress axis : x y z
#
# Youngs Moduli (GPa) = 29.19538 39.12113 67.56833
#
# Poissons Ratio (x) = 0.76642 0.24661
# Poissons Ratio (y) = 0.57197 0.29799
# Poissons Ratio (z) = 0.10656 0.17253
#
# Static dielectric constant tensor:
#      x y z
#    x 3.498080 0.064930 -0.202770 
#    y 0.064930 3.629590 0.354920 
#    z -0.202770 0.354920 3.943940 
# 
# 
# High freq. dielectric constant tensor:
#      x y z
#    x 1.767520 0.009320 -0.017810 
#    y 0.009320 1.767820 0.021890 
#    z -0.017810 0.021890 1.786650 
# 
# From -- ./inp_files/122823.got.cif
#   From: 2010.06.25/outbox.cif.g09.slc.cpg/sg2_62_cif.got.tgz:122823.got - 2010.06.27 13:26:56.
