data_PCOD8003399
_publ_section_title
;
Structure prediction by ZEFSAII (Michael W. Deem and Ramdas Pophale) SiO2 
 PCOD8003399
Probable space group: P -1
;
_chemical_formula_sum "Si O2"
_cell_formula_units_Z 16
_cell_length_a 9.723415
_cell_length_b 13.286393
_cell_length_c 21.986330
_cell_angle_alpha 132.932404
_cell_angle_beta 24.958591
_cell_angle_gamma 125.483357
_cell_volume 871.185373
_symmetry_space_group_name_H-M "P -1"
_symmetry_group_IT_number 2
_symmetry_cell_setting 'triclinic'
loop_
_space_group_symop_operation_xyz
x,y,z
-x,-y,-z
loop_
_atom_site_type_symbol
_atom_site_label
_atom_site_fract_x
_atom_site_fract_y
_atom_site_fract_z
Si Si1 0.938135 0.583647 0.120003
Si Si2 0.352967 0.832869 0.052224
Si Si3 0.546702 0.445315 0.391451
Si Si4 0.279820 0.150909 0.209957
Si Si5 0.753982 0.396165 0.533844
Si Si6 0.584139 0.155834 0.217286
Si Si7 0.658513 0.859159 0.069042
Si Si8 0.761197 0.581854 0.958240
O O1 0.554032 0.602097 0.297018
O O2 0.064800 0.734126 0.129540
O O3 0.143893 0.480311 0.040863
O O4 0.000000 0.500000 0.000000
O O5 0.571715 0.810968 0.016107
O O6 0.199861 0.992988 0.172669
O O7 0.575521 0.794367 0.887851
O O8 0.500000 0.500000 0.500000
O O9 0.359610 0.560833 0.470732
O O10 0.406488 0.295223 0.378069
O O11 0.928805 0.422410 0.212478
O O12 0.537810 0.172584 0.169638
O O13 0.932626 0.240653 0.398311
O O14 0.000000 0.500000 0.500000
O O15 0.450897 0.009698 0.229681
O O16 0.957619 0.131245 0.077729
O O17 0.588102 0.741674 0.097698
O O18 0.500000 0.500000 0.000000
#
# Coordination Sequence:
#
# PCOD8003399 Si02
#       8
#     2   2   2   2   2   2   2   2
#     4  11  24  38  57  84 117 151 192 238 285 340
#     4  10  21  37  60  87 112 152 193 236 285 342
#     4  10  22  35  56  83 112 144 187 233 280 338
#     4  10  21  37  60  86 116 148 195 236 282 344
#     4  11  22  38  57  82 116 154 189 238 285 335
#     4   9  18  35  55  83 112 145 184 233 279 328
#     4   9  18  33  59  81 111 145 185 232 282 328
#     4  10  20  37  56  84 109 145 185 234 282 334
#
# _framework density 18.365780000000001
#
# number of rings (size 3 to 8) (size 9 to 14) (size 15 to 20)
#    0.000    2.000    2.500    0.750    7.000    1.500 
#    0.000    0.000    0.000    0.750    0.000    0.000 
#    0.000    0.000    0.000    0.000    0.000    0.000 
#
# Total GULP energy -198256.193351 kJ/mol
# GULP energy per Si atom -12391.012084 kJ/mol
# Density = 1.832398 g / cm^3
# Si number density = 18.365780 Si / 1000 Ang^3
#
#
#
# Elastic Constant Matrix: (Units=GPa)
#
#
# Indices 1 2 3 4 5 6 
#
# 1 111.0796 55.9531 60.7126 -4.0155 8.0442 8.6278
# 2 55.9531 141.8676 53.9430 10.2971 3.1251 2.4832
# 3 60.7126 53.9430 89.2795 8.6263 2.4808 -2.0264
# 4 -4.0155 10.2971 8.6263 27.4493 2.2736 0.0581
# 5 8.0442 3.1251 2.4808 2.2736 31.2874 2.7308
# 6 8.6278 2.4832 -2.0264 0.0581 2.7308 27.8850
#
#
#
# Elastic Compliance Matrix: (Units=1/GPa)
#
#
# Indices 1 2 3 4 5 6 
#
# 1 0.017342 -0.003162 -0.010625 0.007352 -0.003351 -0.005543
# 2 -0.003162 0.009853 -0.003519 -0.003081 0.000348 -0.000182
# 3 -0.010625 -0.003519 0.021308 -0.007063 0.001469 0.005020
# 4 0.007352 -0.003081 -0.007063 0.041203 -0.003822 -0.002225
# 5 -0.003351 0.000348 0.001469 -0.003822 0.033135 -0.002125
# 6 -0.005543 -0.000182 0.005020 -0.002225 -0.002125 0.038170
#
#
# Mechanical properties :
#
#
# Convention : Reuss Voigt Hill
#
# Bulk Modulus (GPa) = 71.99456 75.93823 73.96640
# Shear Modulus (GPa) = 24.96810 28.76554 26.86682
#
# Velocity S-wave (km/s) = 3.69113 3.96189 3.82890
# Velocity P-wave (km/s) = 7.57967 7.89723 7.74008
#
# Compressibility (1/GPa) = 0.01388994
#
# Stress axis : x y z
#
# Youngs Moduli (GPa) = 57.66354 101.48885 46.93063
#
# Poissons Ratio (x) = 0.32095 0.49866
# Poissons Ratio (y) = 0.18235 0.16515
# Poissons Ratio (z) = 0.61270 0.35714
#
# Static dielectric constant tensor:
#      x y z
#    x 3.557220 -0.066910 -0.178780 
#    y -0.066910 4.026830 0.516720 
#    z -0.178780 0.516720 3.399390 
# 
# 
# High freq. dielectric constant tensor:
#      x y z
#    x 1.728190 0.001910 -0.012380 
#    y 0.001910 1.726800 0.030240 
#    z -0.012380 0.030240 1.680490 
# 
# From -- ./inp_files/199615.got.cif
#   From: 2010.06.25/outbox.cif.g09.slc.cpg/sg2_100_cif.got.tgz:199615.got - 2010.06.27 13:26:56.
