data_PCOD8003981
_publ_section_title
;
Structure prediction by ZEFSAII (Michael W. Deem and Ramdas Pophale) SiO2 
 PCOD8003981
Probable space group: P -1
;
_chemical_formula_sum "Si O2"
_cell_formula_units_Z 16
_cell_length_a 14.441595
_cell_length_b 8.417761
_cell_length_c 9.640172
_cell_angle_alpha 61.598758
_cell_angle_beta 43.367995
_cell_angle_gamma 88.870481
_cell_volume 595.880534
_symmetry_space_group_name_H-M "P -1"
_symmetry_group_IT_number 2
_symmetry_cell_setting 'triclinic'
loop_
_space_group_symop_operation_xyz
x,y,z
-x,-y,-z
loop_
_atom_site_type_symbol
_atom_site_label
_atom_site_fract_x
_atom_site_fract_y
_atom_site_fract_z
Si Si1 0.646056 0.073165 0.706363
Si Si2 0.917223 0.688382 0.462235
Si Si3 0.454659 0.157351 0.539583
Si Si4 0.372382 0.283278 0.316872
Si Si5 0.966487 0.446839 0.280974
Si Si6 0.302746 0.426163 0.019801
Si Si7 0.771958 0.866836 0.007131
Si Si8 0.792003 0.493787 0.218370
O O1 0.812843 0.200804 0.559960
O O2 0.654301 0.241296 0.508661
O O3 0.631235 0.867317 0.738772
O O4 0.500000 0.000000 0.000000
O O5 0.767562 0.670128 0.555018
O O6 0.983207 0.560279 0.364023
O O7 0.850498 0.589204 0.731116
O O8 0.052813 0.933807 0.236933
O O9 0.336907 0.156812 0.552606
O O10 0.620111 0.395383 0.263814
O O11 0.500000 0.000000 0.500000
O O12 0.361392 0.084547 0.817640
O O13 0.557199 0.502751 0.042204
O O14 0.933281 0.573431 0.145320
O O15 0.127108 0.462177 0.044741
O O16 0.255159 0.198297 0.099775
O O17 0.735988 0.660642 0.223323
#
# Coordination Sequence:
#
# PCOD8003981 Si02
#       8
#     2   2   2   2   2   2   2   2
#     4  10  20  37  62  97 133 171 214 278 339 392
#     4  12  24  44  71 106 134 178 241 283 345 396
#     4  10  26  46  70  99 139 180 233 274 354 418
#     4  10  24  42  73  99 138 174 230 286 338 409
#     4   9  21  38  63  97 140 167 215 293 334 393
#     4  10  26  46  65  99 144 187 222 281 347 416
#     4  12  25  44  73  97 137 190 224 287 339 412
#     4   9  22  39  64  98 139 165 229 270 351 397
#
# _framework density 26.851020999999999
#
# number of rings (size 3 to 8) (size 9 to 14) (size 15 to 20)
#    1.500    0.250    0.000    3.375    3.500    2.000 
#    4.500    3.750    0.000    0.000    0.000    0.000 
#    0.000    0.000    0.000    0.000    0.000    0.000 
#
# Total GULP energy -198338.179407 kJ/mol
# GULP energy per Si atom -12396.136213 kJ/mol
# Density = 2.678991 g / cm^3
# Si number density = 26.851021 Si / 1000 Ang^3
#
#
#
# Elastic Constant Matrix: (Units=GPa)
#
#
# Indices 1 2 3 4 5 6 
#
# 1 36.5627 25.0711 42.1741 3.0344 2.5140 16.8866
# 2 25.0711 182.2752 77.6591 15.3498 -5.5903 31.5316
# 3 42.1741 77.6591 192.9432 16.5587 -8.1030 13.8807
# 4 3.0344 15.3498 16.5587 65.4545 5.7750 -1.3957
# 5 2.5140 -5.5903 -8.1030 5.7750 43.1195 2.4846
# 6 16.8866 31.5316 13.8807 -1.3957 2.4846 35.6387
#
#
#
# Elastic Compliance Matrix: (Units=1/GPa)
#
#
# Indices 1 2 3 4 5 6 
#
# 1 0.046392 0.000698 -0.009197 -0.000102 -0.003246 -0.018795
# 2 0.000698 0.007761 -0.002661 -0.001403 0.001016 -0.006286
# 3 -0.009197 -0.002661 0.008187 -0.001098 0.001683 0.003363
# 4 -0.000102 -0.001403 -0.001098 0.016181 -0.002696 0.002539
# 5 -0.003246 0.001016 0.001683 -0.002696 0.024294 -0.001815
# 6 -0.018795 -0.006286 0.003363 0.002539 -0.001815 0.041443
#
#
# Mechanical properties :
#
#
# Convention : Reuss Voigt Hill
#
# Bulk Modulus (GPa) = 24.98751 77.95443 51.47097
# Shear Modulus (GPa) = 27.79041 46.63433 37.21237
#
# Velocity S-wave (km/s) = 3.22061 4.17199 3.72678
# Velocity P-wave (km/s) = 4.81206 7.23205 6.14241
#
# Compressibility (1/GPa) = 0.04002000
#
# Stress axis : x y z
#
# Youngs Moduli (GPa) = 21.55529 128.85526 122.14391
#
# Poissons Ratio (x) = -0.08989 1.12333
# Poissons Ratio (y) = -0.01504 0.32501
# Poissons Ratio (z) = 0.19824 0.34286
#
# Static dielectric constant tensor:
#      x y z
#    x 5.684030 0.042830 0.260820 
#    y 0.042830 4.739860 -0.087670 
#    z 0.260820 -0.087670 4.994560 
# 
# 
# High freq. dielectric constant tensor:
#      x y z
#    x 2.124990 0.014590 0.000160 
#    y 0.014590 2.075420 0.007650 
#    z 0.000160 0.007650 2.089490 
# 
# From -- ./inp_files/469973.got.cif
#   From: 2010.06.25/outbox.cif.g09.slc.cpg/sg2_235_cif.got.tgz:469973.got - 2010.06.27 13:26:56.
