data_PCOD8003293
_publ_section_title
;
Structure prediction by ZEFSAII (Michael W. Deem and Ramdas Pophale) SiO2 
 PCOD8003293
Probable space group: P -1
;
_chemical_formula_sum "Si O2"
_cell_formula_units_Z 12
_cell_length_a 13.922287
_cell_length_b 16.935944
_cell_length_c 10.888980
_cell_angle_alpha 26.352162
_cell_angle_beta 29.459372
_cell_angle_gamma 33.222921
_cell_volume 541.522870
_symmetry_space_group_name_H-M "P -1"
_symmetry_group_IT_number 2
_symmetry_cell_setting 'triclinic'
loop_
_space_group_symop_operation_xyz
x,y,z
-x,-y,-z
loop_
_atom_site_type_symbol
_atom_site_label
_atom_site_fract_x
_atom_site_fract_y
_atom_site_fract_z
Si Si1 0.955889 0.023521 0.158369
Si Si2 0.427334 0.749539 0.610943
Si Si3 0.816112 0.813020 0.134630
Si Si4 0.863266 0.676031 0.837158
Si Si5 0.780698 0.420035 0.099979
Si Si6 0.560477 0.162250 0.794687
O O1 0.991178 0.824588 0.461589
O O2 0.723254 0.136008 0.279903
O O3 0.100068 0.141225 0.891425
O O4 0.000000 0.000000 0.000000
O O5 0.652340 0.689309 0.503812
O O6 0.351194 0.574167 0.888464
O O7 0.434775 0.883825 0.294975
O O8 0.994522 0.707874 0.994489
O O9 0.695678 0.003349 0.946518
O O10 0.793476 0.616456 0.863710
O O11 0.669390 0.767420 0.005350
O O12 0.000000 0.500000 0.000000
O O13 0.672372 0.327187 0.454762
#
# Coordination Sequence:
#
# PCOD8003293 Si02
#       6
#     2   2   2   2   2   2
#     4  11  26  43  62  92 131 175 215 251 311 392
#     4   9  21  37  63  90 125 167 213 252 313 379
#     4  11  19  40  65  90 127 176 206 258 313 389
#     4  12  23  39  64 101 131 162 207 276 319 359
#     4   9  22  33  60  94 130 153 206 263 324 358
#     4  10  20  36  65  97 130 159 213 259 326 371
#
# _framework density 22.159728999999999
#
# number of rings (size 3 to 8) (size 9 to 14) (size 15 to 20)
#    1.000    0.667    1.667    3.500    2.333    0.667 
#    0.000    3.333    0.000    3.000    0.000    0.000 
#    0.000    0.000    0.000    0.000    0.000    0.000 
#
# Total GULP energy -148676.945651 kJ/mol
# GULP energy per Si atom -12389.745471 kJ/mol
# Density = 2.210929 g / cm^3
# Si number density = 22.159729 Si / 1000 Ang^3
#
#
#
# Elastic Constant Matrix: (Units=GPa)
#
#
# Indices 1 2 3 4 5 6 
#
# 1 96.3079 42.6830 45.4098 22.6501 -24.0200 17.8356
# 2 42.6830 97.7117 40.3389 26.7698 -5.4657 15.9058
# 3 45.4098 40.3389 55.7729 24.9175 -19.2162 -0.7564
# 4 22.6501 26.7698 24.9175 34.3131 3.2061 -2.4411
# 5 -24.0200 -5.4657 -19.2162 3.2061 44.6852 6.5173
# 6 17.8356 15.9058 -0.7564 -2.4411 6.5173 36.5234
#
#
#
# Elastic Compliance Matrix: (Units=1/GPa)
#
#
# Indices 1 2 3 4 5 6 
#
# 1 0.022892 -0.000122 -0.011448 -0.008611 0.009986 -0.013720
# 2 -0.000122 0.017533 -0.009606 -0.007173 -0.000343 -0.008193
# 3 -0.011448 -0.009606 0.048509 -0.020998 0.014036 0.006870
# 4 -0.008611 -0.007173 -0.020998 0.058656 -0.020865 0.014538
# 5 0.009986 -0.000343 0.014036 -0.020865 0.037053 -0.012443
# 6 -0.013720 -0.008193 0.006870 0.014538 -0.012443 0.040982
#
#
# Mechanical properties :
#
#
# Convention : Reuss Voigt Hill
#
# Bulk Modulus (GPa) = 21.46783 56.29510 38.88146
# Shear Modulus (GPa) = 17.63631 31.19507 24.41569
#
# Velocity S-wave (km/s) = 2.82418 3.75605 3.32295
# Velocity P-wave (km/s) = 4.51037 6.65357 5.68390
#
# Compressibility (1/GPa) = 0.04658133
#
# Stress axis : x y z
#
# Youngs Moduli (GPa) = 43.68248 57.03518 20.61472
#
# Poissons Ratio (x) = 0.00698 0.23600
# Poissons Ratio (y) = 0.00535 0.19802
# Poissons Ratio (z) = 0.50009 0.54787
#
# Static dielectric constant tensor:
#      x y z
#    x 4.117260 0.136370 -0.768290 
#    y 0.136370 3.882900 0.197730 
#    z -0.768290 0.197730 4.349030 
# 
# 
# High freq. dielectric constant tensor:
#      x y z
#    x 1.866160 0.018140 -0.039360 
#    y 0.018140 1.863040 0.017270 
#    z -0.039360 0.017270 1.868100 
# 
# From -- ./inp_files/75423.got.cif
#   From: 2010.06.25/outbox.cif.g09.slc.cpg/sg2_38_cif.got.tgz:75423.got - 2010.06.27 13:26:56.
