data_PCOD8003224
_publ_section_title
;
Structure prediction by ZEFSAII (Michael W. Deem and Ramdas Pophale) SiO2 
 PCOD8003224
Probable space group: P -1
;
_chemical_formula_sum "Si O2"
_cell_formula_units_Z 16
_cell_length_a 8.740067
_cell_length_b 15.417664
_cell_length_c 12.357121
_cell_angle_alpha 27.347585
_cell_angle_beta 85.894227
_cell_angle_gamma 95.794831
_cell_volume 712.076776
_symmetry_space_group_name_H-M "P -1"
_symmetry_group_IT_number 2
_symmetry_cell_setting 'triclinic'
loop_
_space_group_symop_operation_xyz
x,y,z
-x,-y,-z
loop_
_atom_site_type_symbol
_atom_site_label
_atom_site_fract_x
_atom_site_fract_y
_atom_site_fract_z
Si Si1 0.873856 0.668205 0.723088
Si Si2 0.910297 0.759667 0.863024
Si Si3 0.733440 0.220014 0.193755
Si Si4 0.773326 0.098714 0.546924
Si Si5 0.802259 0.909679 0.281034
Si Si6 0.445981 0.892693 0.883931
Si Si7 0.059050 0.346098 0.797478
Si Si8 0.784126 0.521697 0.577100
O O1 0.846159 0.646176 0.878886
O O2 0.809086 0.830937 0.490312
O O3 0.066581 0.711586 0.633845
O O4 0.770432 0.456216 0.910357
O O5 0.106886 0.834926 0.779573
O O6 0.857238 0.951861 0.653883
O O7 0.842473 0.627791 0.121978
O O8 0.677109 0.161557 0.384908
O O9 0.591459 0.108695 0.240462
O O10 0.645269 0.001129 0.759578
O O11 0.790651 0.733017 0.392993
O O12 0.642122 0.970927 0.203018
O O13 0.965252 0.108701 0.034660
O O14 0.388335 0.665445 0.187462
O O15 0.192966 0.449555 0.584727
O O16 0.928180 0.457725 0.691838
#
# Coordination Sequence:
#
# PCOD8003224 Si02
#       8
#     2   2   2   2   2   2   2   2
#     4  11  21  36  63  90 118 154 203 244 290 362
#     4  11  19  36  58  85 116 157 194 239 298 348
#     4  11  20  39  58  88 120 158 203 242 285 360
#     4  11  22  35  56  87 125 158 190 241 309 352
#     4  11  19  39  64  85 122 155 202 244 295 346
#     4  11  22  39  58  87 127 156 193 246 298 353
#     4  10  20  36  64  90 114 151 208 252 282 344
#     4  10  21  38  61  92 113 155 205 250 287 344
#
# _framework density 22.469486
#
# number of rings (size 3 to 8) (size 9 to 14) (size 15 to 20)
#    0.000    1.250    5.000    4.500    0.000    0.000 
#    4.500    1.875    0.000    0.750    0.000    0.000 
#    0.000    0.000    0.000    0.000    0.000    0.000 
#
# Total GULP energy -198299.207037 kJ/mol
# GULP energy per Si atom -12393.700440 kJ/mol
# Density = 2.241834 g / cm^3
# Si number density = 22.469486 Si / 1000 Ang^3
#
#
#
# Elastic Constant Matrix: (Units=GPa)
#
#
# Indices 1 2 3 4 5 6 
#
# 1 43.1611 11.6054 28.5278 -7.8257 -8.7715 -12.5322
# 2 11.6054 68.3775 29.0155 -1.1282 -2.9383 -7.7669
# 3 28.5278 29.0155 114.2639 4.1572 -1.9875 -14.4774
# 4 -7.8257 -1.1282 4.1572 36.6201 -7.7315 11.7440
# 5 -8.7715 -2.9383 -1.9875 -7.7315 26.3850 4.7433
# 6 -12.5322 -7.7669 -14.4774 11.7440 4.7433 17.9329
#
#
#
# Elastic Compliance Matrix: (Units=1/GPa)
#
#
# Indices 1 2 3 4 5 6 
#
# 1 0.034789 -0.001088 -0.007168 0.007254 0.011169 0.010350
# 2 -0.001088 0.016729 -0.003455 -0.000500 0.000390 0.003920
# 3 -0.007168 -0.003455 0.012942 -0.007774 -0.005979 0.010616
# 4 0.007254 -0.000500 -0.007774 0.046517 0.022188 -0.037756
# 5 0.011169 0.000390 -0.005979 0.022188 0.052238 -0.025200
# 6 0.010350 0.003920 0.010616 -0.037756 -0.025200 0.104656
#
#
# Mechanical properties :
#
#
# Convention : Reuss Voigt Hill
#
# Bulk Modulus (GPa) = 24.36641 40.45556 32.41098
# Shear Modulus (GPa) = 16.39489 26.63119 21.51304
#
# Velocity S-wave (km/s) = 2.70414 3.44643 3.09760
# Velocity P-wave (km/s) = 4.54066 5.82073 5.22008
#
# Compressibility (1/GPa) = 0.04104011
#
# Stress axis : x y z
#
# Youngs Moduli (GPa) = 28.74441 59.77578 77.26551
#
# Poissons Ratio (x) = 0.06502 0.55382
# Poissons Ratio (y) = 0.03127 0.26694
# Poissons Ratio (z) = 0.20603 0.20652
#
# Static dielectric constant tensor:
#      x y z
#    x 3.672720 -0.088220 0.135720 
#    y -0.088220 3.855790 0.168730 
#    z 0.135720 0.168730 4.371510 
# 
# 
# High freq. dielectric constant tensor:
#      x y z
#    x 1.845010 -0.014560 0.014570 
#    y -0.014560 1.870080 0.002500 
#    z 0.014570 0.002500 1.903070 
# 
# From -- ./inp_files/398175.got.cif
#   From: 2010.06.25/outbox.cif.g09.slc.cpg/sg2_200_cif.got.tgz:398175.got - 2010.06.27 13:26:56.
