data_PCOD8003143
_publ_section_title
;
Structure prediction by ZEFSAII (Michael W. Deem and Ramdas Pophale) SiO2 
 PCOD8003143
Probable space group: P -1
;
_chemical_formula_sum "Si O2"
_cell_formula_units_Z 16
_cell_length_a 8.839271
_cell_length_b 14.740250
_cell_length_c 13.277247
_cell_angle_alpha 66.447930
_cell_angle_beta 53.078457
_cell_angle_gamma 108.790240
_cell_volume 813.405139
_symmetry_space_group_name_H-M "P -1"
_symmetry_group_IT_number 2
_symmetry_cell_setting 'triclinic'
loop_
_space_group_symop_operation_xyz
x,y,z
-x,-y,-z
loop_
_atom_site_type_symbol
_atom_site_label
_atom_site_fract_x
_atom_site_fract_y
_atom_site_fract_z
Si Si1 0.604383 0.210942 0.064716
Si Si2 0.123815 0.056171 0.163950
Si Si3 0.575910 0.268127 0.729817
Si Si4 0.329003 0.664495 0.801593
Si Si5 0.641456 0.102048 0.668466
Si Si6 0.082379 0.416365 0.614851
Si Si7 0.501583 0.100473 0.509481
Si Si8 0.844262 0.745510 0.463125
O O1 0.333421 0.147137 0.137672
O O2 0.593946 0.269848 0.145255
O O3 0.557798 0.075901 0.164440
O O4 0.918737 0.345154 0.820449
O O5 0.288354 0.172910 0.952961
O O6 0.837899 0.006715 0.306002
O O7 0.027178 0.902374 0.258873
O O8 0.481940 0.131855 0.769077
O O9 0.658884 0.395903 0.569085
O O10 0.847590 0.353569 0.654563
O O11 0.315850 0.749038 0.693240
O O12 0.549865 0.669163 0.667997
O O13 0.000000 0.500000 0.000000
O O14 0.677048 0.152866 0.518494
O O15 0.962130 0.216268 0.538204
O O16 0.222367 0.367776 0.542278
O O17 0.500000 0.000000 0.500000
#
# Coordination Sequence:
#
# PCOD8003143 Si02
#       8
#     2   2   2   2   2   2   2   2
#     4  10  20  38  63  86 113 157 194 232 285 349
#     4   9  20  36  62  85 114 148 196 238 283 336
#     4   9  18  34  59  89 118 144 189 244 287 336
#     4  11  25  41  58  83 123 154 190 235 293 345
#     4  10  20  36  63  86 114 148 196 238 286 333
#     4   9  18  35  60  89 117 148 193 236 287 342
#     4  11  23  38  57  85 119 150 192 243 285 333
#     4   9  20  39  63  86 113 155 195 232 283 352
#
# _framework density 19.670393000000001
#
# number of rings (size 3 to 8) (size 9 to 14) (size 15 to 20)
#    0.000    2.250    1.250    0.750    3.500    6.000 
#    0.000    1.250    0.000    0.000    0.000    0.000 
#    0.000    0.000    0.000    0.000    0.000    0.000 
#
# Total GULP energy -198236.872889 kJ/mol
# GULP energy per Si atom -12389.804556 kJ/mol
# Density = 1.962562 g / cm^3
# Si number density = 19.670393 Si / 1000 Ang^3
#
#
#
# Elastic Constant Matrix: (Units=GPa)
#
#
# Indices 1 2 3 4 5 6 
#
# 1 72.1721 13.0455 30.6419 -4.3265 9.1293 -14.0389
# 2 13.0455 61.7788 31.4296 -1.6011 -6.3866 -22.8082
# 3 30.6419 31.4296 122.3363 -13.4046 11.3089 -15.3010
# 4 -4.3265 -1.6011 -13.4046 26.8855 4.6646 0.9683
# 5 9.1293 -6.3866 11.3089 4.6646 21.5946 3.4454
# 6 -14.0389 -22.8082 -15.3010 0.9683 3.4454 27.7024
#
#
#
# Elastic Compliance Matrix: (Units=1/GPa)
#
#
# Indices 1 2 3 4 5 6 
#
# 1 0.017730 -0.000281 -0.002218 0.002881 -0.008391 0.008472
# 2 -0.000281 0.026455 -0.005751 -0.003515 0.008926 0.017476
# 3 -0.002218 -0.005751 0.011948 0.006714 -0.008725 0.001591
# 4 0.002881 -0.003515 0.006714 0.043403 -0.015579 0.002695
# 5 -0.008391 0.008926 -0.008725 -0.015579 0.061845 -0.008870
# 6 0.008472 0.017476 0.001591 0.002695 -0.008870 0.056667
#
#
# Mechanical properties :
#
#
# Convention : Reuss Voigt Hill
#
# Bulk Modulus (GPa) = 25.23008 45.16903 35.19955
# Shear Modulus (GPa) = 20.18089 27.31450 23.74770
#
# Velocity S-wave (km/s) = 3.20652 3.73045 3.47836
# Velocity P-wave (km/s) = 5.15396 6.44731 5.83657
#
# Compressibility (1/GPa) = 0.03963524
#
# Stress axis : x y z
#
# Youngs Moduli (GPa) = 56.40063 37.79970 83.69335
#
# Poissons Ratio (x) = 0.01061 0.18561
# Poissons Ratio (y) = 0.01583 0.48131
# Poissons Ratio (z) = 0.12508 0.21738
#
# Static dielectric constant tensor:
#      x y z
#    x 4.633970 -0.649020 0.740090 
#    y -0.649020 3.915400 -0.223590 
#    z 0.740090 -0.223590 3.963100 
# 
# 
# High freq. dielectric constant tensor:
#      x y z
#    x 1.760950 -0.008820 0.008400 
#    y -0.008820 1.769670 0.002010 
#    z 0.008400 0.002010 1.769330 
# 
# From -- ./inp_files/209086.got.cif
#   From: 2010.06.25/outbox.cif.g09.slc.cpg/sg2_105_cif.got.tgz:209086.got - 2010.06.27 13:26:56.
