data_PCOD8003217
_publ_section_title
;
Structure prediction by ZEFSAII (Michael W. Deem and Ramdas Pophale) SiO2 
 PCOD8003217
Probable space group: P -1
;
_chemical_formula_sum "Si O2"
_cell_formula_units_Z 16
_cell_length_a 15.027076
_cell_length_b 9.570691
_cell_length_c 27.909433
_cell_angle_alpha 37.195229
_cell_angle_beta 161.181405
_cell_angle_gamma 140.332557
_cell_volume 780.176596
_symmetry_space_group_name_H-M "P -1"
_symmetry_group_IT_number 2
_symmetry_cell_setting 'triclinic'
loop_
_space_group_symop_operation_xyz
x,y,z
-x,-y,-z
loop_
_atom_site_type_symbol
_atom_site_label
_atom_site_fract_x
_atom_site_fract_y
_atom_site_fract_z
Si Si1 0.741909 0.029693 0.050675
Si Si2 0.413790 0.820369 0.763347
Si Si3 0.795721 0.723917 0.476355
Si Si4 0.698619 0.370551 0.603833
Si Si5 0.847312 0.448825 0.486750
Si Si6 0.385781 0.074447 0.370729
Si Si7 0.370063 0.338936 0.827116
Si Si8 0.711502 0.714526 0.036246
O O1 0.611969 0.807625 0.075296
O O2 0.682890 0.946124 0.989496
O O3 0.061242 0.106841 0.202574
O O4 0.577788 0.254346 0.916098
O O5 0.443280 0.615812 0.795611
O O6 0.102616 0.802364 0.631845
O O7 0.425915 0.084693 0.676552
O O8 0.655722 0.795304 0.931870
O O9 0.713306 0.488549 0.526824
O O10 0.807615 0.674442 0.438362
O O11 0.500000 0.500000 0.500000
O O12 0.986102 0.371692 0.778451
O O13 0.572796 0.112337 0.598770
O O14 0.548490 0.307414 0.369131
O O15 0.000000 0.500000 0.500000
O O16 0.054027 0.288846 0.663189
O O17 0.500000 0.000000 0.500000
O O18 0.500000 0.500000 0.000000
#
# Coordination Sequence:
#
# PCOD8003217 Si02
#       8
#     2   2   2   2   2   2   2   2
#     4  10  21  35  61  90 126 160 211 266 307 361
#     4  10  20  36  64  86 128 164 198 265 319 362
#     4  10  21  40  61  92 129 163 206 264 322 370
#     4  11  24  39  64  96 125 162 216 259 314 383
#     4  11  23  39  65  94 121 164 219 256 313 388
#     4  11  20  41  64  87 126 169 205 265 318 360
#     4  10  20  37  57  95 120 158 216 256 304 378
#     4  11  19  37  61  91 122 164 213 255 304 377
#
# _framework density 20.508179999999999
#
# number of rings (size 3 to 8) (size 9 to 14) (size 15 to 20)
#    0.000    1.500    5.000    1.500    1.750    5.000 
#    0.000    1.250    0.000    0.000    0.000    0.000 
#    0.000    0.000    0.000    0.000    0.000    0.000 
#
# Total GULP energy -198276.482130 kJ/mol
# GULP energy per Si atom -12392.280133 kJ/mol
# Density = 2.046150 g / cm^3
# Si number density = 20.508180 Si / 1000 Ang^3
#
#
#
# Elastic Constant Matrix: (Units=GPa)
#
#
# Indices 1 2 3 4 5 6 
#
# 1 65.9265 31.7925 29.8312 -0.1900 10.6958 -16.1833
# 2 31.7925 115.7168 67.2007 -4.3605 14.5106 -18.9450
# 3 29.8312 67.2007 109.2352 -1.4808 8.8704 -23.3117
# 4 -0.1900 -4.3605 -1.4808 41.4968 -5.4271 7.5083
# 5 10.6958 14.5106 8.8704 -5.4271 32.5077 -8.9125
# 6 -16.1833 -18.9450 -23.3117 7.5083 -8.9125 34.9944
#
#
#
# Elastic Compliance Matrix: (Units=1/GPa)
#
#
# Indices 1 2 3 4 5 6 
#
# 1 0.019389 -0.002839 -0.002120 -0.001720 -0.003300 0.005546
# 2 -0.002839 0.014400 -0.007739 0.000745 -0.003158 0.000363
# 3 -0.002120 -0.007739 0.015613 -0.001147 0.001292 0.005806
# 4 -0.001720 0.000745 -0.001147 0.025604 0.003223 -0.005829
# 5 -0.003300 -0.003158 0.001292 0.003223 0.035050 0.005860
# 6 0.005546 0.000363 0.005806 -0.005829 0.005860 0.037948
#
#
# Mechanical properties :
#
#
# Convention : Reuss Voigt Hill
#
# Bulk Modulus (GPa) = 41.65819 60.94749 51.30284
# Shear Modulus (GPa) = 27.56322 32.60337 30.08330
#
# Velocity S-wave (km/s) = 3.67005 3.99152 3.83416
# Velocity P-wave (km/s) = 6.19000 7.14326 6.68365
#
# Compressibility (1/GPa) = 0.02400488
#
# Stress axis : x y z
#
# Youngs Moduli (GPa) = 51.57685 69.44583 64.04769
#
# Poissons Ratio (x) = 0.19712 0.13581
# Poissons Ratio (y) = 0.14640 0.49569
# Poissons Ratio (z) = 0.10937 0.53747
#
# Static dielectric constant tensor:
#      x y z
#    x 3.664010 -0.097980 -0.164170 
#    y -0.097980 3.845040 -0.041900 
#    z -0.164170 -0.041900 4.066960 
# 
# 
# High freq. dielectric constant tensor:
#      x y z
#    x 1.776120 -0.018810 -0.003200 
#    y -0.018810 1.806640 -0.001000 
#    z -0.003200 -0.001000 1.804090 
# 
# From -- ./inp_files/619192.got.cif
#   From: 2010.06.25/outbox.cif.g09.slc.cpg/sg2_310_cif.got.tgz:619192.got - 2010.06.27 13:26:56.
