data_PCOD8003833
_publ_section_title
;
Structure prediction by ZEFSAII (Michael W. Deem and Ramdas Pophale) SiO2 
 PCOD8003833
Probable space group: P -1
;
_chemical_formula_sum "Si O2"
_cell_formula_units_Z 12
_cell_length_a 11.794741
_cell_length_b 20.360169
_cell_length_c 5.053909
_cell_angle_alpha 69.553649
_cell_angle_beta 58.032358
_cell_angle_gamma 35.070861
_cell_volume 582.752815
_symmetry_space_group_name_H-M "P -1"
_symmetry_group_IT_number 2
_symmetry_cell_setting 'triclinic'
loop_
_space_group_symop_operation_xyz
x,y,z
-x,-y,-z
loop_
_atom_site_type_symbol
_atom_site_label
_atom_site_fract_x
_atom_site_fract_y
_atom_site_fract_z
Si Si1 0.635357 0.553688 0.774255
Si Si2 0.826100 0.823049 0.767598
Si Si3 0.559130 0.816798 0.904143
Si Si4 0.243806 0.414244 0.919920
Si Si5 0.309859 0.602628 0.387052
Si Si6 0.429430 0.940411 0.382589
O O1 0.618139 0.612566 0.460698
O O2 0.746078 0.435462 0.700100
O O3 0.776630 0.525542 0.886227
O O4 0.391639 0.636684 0.073400
O O5 0.775618 0.776605 0.709432
O O6 0.086731 0.714942 0.664714
O O7 0.763965 0.921169 0.555829
O O8 0.668161 0.881829 0.140869
O O9 0.420649 0.893370 0.708833
O O10 0.632424 0.706048 0.960638
O O11 0.396283 0.901780 0.230312
O O12 0.000000 0.500000 0.000000
O O13 0.500000 0.500000 0.500000
#
# Coordination Sequence:
#
# PCOD8003833 Si02
#       6
#     2   2   2   2   2   2
#     4  11  25  42  57  93 125 163 210 241 313 370
#     4   9  21  36  65  93 120 157 204 259 308 350
#     4  10  20  37  61  91 123 152 196 261 309 361
#     4  12  24  40  63  89 128 165 203 255 310 369
#     4  11  23  43  64  90 130 165 206 254 302 377
#     4   9  20  38  60  97 117 152 209 255 312 346
#
# _framework density 20.591919000000001
#
# number of rings (size 3 to 8) (size 9 to 14) (size 15 to 20)
#    1.000    0.667    1.667    3.000    0.000    5.333 
#    0.000    0.000    0.000    6.000    0.000    0.000 
#    0.000    0.000    0.000    0.000    0.000    0.000 
#
# Total GULP energy -148678.626970 kJ/mol
# GULP energy per Si atom -12389.885581 kJ/mol
# Density = 2.054505 g / cm^3
# Si number density = 20.591919 Si / 1000 Ang^3
#
#
#
# Elastic Constant Matrix: (Units=GPa)
#
#
# Indices 1 2 3 4 5 6 
#
# 1 113.0294 47.0095 43.4396 -8.6915 14.9335 11.9100
# 2 47.0095 115.4270 49.0215 -4.5457 -8.6662 -10.3210
# 3 43.4396 49.0215 114.7800 -28.3388 16.8092 -1.9302
# 4 -8.6915 -4.5457 -28.3388 35.0566 1.4446 -3.9837
# 5 14.9335 -8.6662 16.8092 1.4446 32.6842 -6.0364
# 6 11.9100 -10.3210 -1.9302 -3.9837 -6.0364 18.3017
#
#
#
# Elastic Compliance Matrix: (Units=1/GPa)
#
#
# Indices 1 2 3 4 5 6 
#
# 1 0.017286 -0.009811 -0.000414 0.000841 -0.014266 -0.021347
# 2 -0.009811 0.018968 -0.007733 -0.004554 0.017582 0.021074
# 3 -0.000414 -0.007733 0.016981 0.012718 -0.011788 -0.003420
# 4 0.000841 -0.004554 0.012718 0.039227 -0.009176 0.003738
# 5 -0.014266 0.017582 -0.011788 -0.009176 0.054512 0.033938
# 6 -0.021347 0.021074 -0.003420 0.003738 0.033938 0.092062
#
#
# Mechanical properties :
#
#
# Convention : Reuss Voigt Hill
#
# Bulk Modulus (GPa) = 57.74003 69.13082 63.43543
# Shear Modulus (GPa) = 17.81104 30.79289 24.30197
#
# Velocity S-wave (km/s) = 2.94420 3.87122 3.43909
# Velocity P-wave (km/s) = 6.29752 7.32301 6.82954
#
# Compressibility (1/GPa) = 0.01731901
#
# Stress axis : x y z
#
# Youngs Moduli (GPa) = 57.85172 52.71944 58.89065
#
# Poissons Ratio (x) = 0.51722 0.02438
# Poissons Ratio (y) = 0.56757 0.45540
# Poissons Ratio (z) = 0.02395 0.40768
#
# Static dielectric constant tensor:
#      x y z
#    x 3.683730 0.221930 -0.031610 
#    y 0.221930 3.385120 -0.032420 
#    z -0.031610 -0.032420 3.884500 
# 
# 
# High freq. dielectric constant tensor:
#      x y z
#    x 1.789420 0.020770 0.010550 
#    y 0.020770 1.778040 -0.010690 
#    z 0.010550 -0.010690 1.811220 
# 
# From -- ./inp_files/83018.got.cif
#   From: 2010.06.25/outbox.cif.g09.slc.cpg/sg2_42_cif.got.tgz:83018.got - 2010.06.27 13:26:56.
