data_PCOD8003956
_publ_section_title
;
Structure prediction by ZEFSAII (Michael W. Deem and Ramdas Pophale) SiO2 
 PCOD8003956
Probable space group: P -1
;
_chemical_formula_sum "Si O2"
_cell_formula_units_Z 16
_cell_length_a 8.840144
_cell_length_b 12.453639
_cell_length_c 15.004102
_cell_angle_alpha 49.126728
_cell_angle_beta 107.132908
_cell_angle_gamma 69.210996
_cell_volume 778.601305
_symmetry_space_group_name_H-M "P -1"
_symmetry_group_IT_number 2
_symmetry_cell_setting 'triclinic'
loop_
_space_group_symop_operation_xyz
x,y,z
-x,-y,-z
loop_
_atom_site_type_symbol
_atom_site_label
_atom_site_fract_x
_atom_site_fract_y
_atom_site_fract_z
Si Si1 0.805083 0.887521 0.853179
Si Si2 0.529656 0.291216 0.703499
Si Si3 0.943376 0.925284 0.455887
Si Si4 0.637133 0.575266 0.203945
Si Si5 0.839432 0.112474 0.146826
Si Si6 0.008445 0.424740 0.796048
Si Si7 0.117369 0.708787 0.296499
Si Si8 0.412780 0.074707 0.544121
O O1 0.986062 0.873691 0.845816
O O2 0.633355 0.080127 0.790822
O O3 0.645760 0.924141 0.729308
O O4 0.956028 0.662782 0.051506
O O5 0.487714 0.287198 0.801678
O O6 0.275857 0.500005 0.499998
O O7 0.716252 0.294536 0.727038
O O8 0.741143 0.957016 0.439300
O O9 0.189365 0.675466 0.608623
O O10 0.840616 0.075839 0.270706
O O11 0.000000 0.000000 0.500000
O O12 0.781050 0.606058 0.168156
O O13 0.432698 0.662789 0.051497
O O14 0.922653 0.919880 0.209171
O O15 0.026772 0.287195 0.801679
O O16 0.743782 0.675477 0.608607
O O17 0.500000 0.000000 0.500000
#
# Coordination Sequence:
#
# PCOD8003956 Si02
#       8
#     2   2   2   2   2   2   2   2
#     4  11  23  40  65  93 124 163 204 248 301 361
#     4  10  20  37  62  92 126 163 202 244 298 363
#     4  11  25  44  65  89 120 160 207 256 306 359
#     4  11  24  40  62  93 127 161 200 250 307 363
#     4  11  23  40  65  93 124 163 204 248 301 361
#     4  11  24  40  62  93 127 161 200 250 307 363
#     4  10  20  37  62  92 126 163 202 244 298 363
#     4  11  25  44  65  89 120 160 207 256 306 359
#
# _framework density 20.549669000000002
#
# number of rings (size 3 to 8) (size 9 to 14) (size 15 to 20)
#    0.000    1.250    2.500    3.000    0.000    9.500 
#    0.000    0.000    0.000    0.000    0.000    0.000 
#    0.000    0.000    0.000    0.000    0.000    0.000 
#
# Total GULP energy -198524.754790 kJ/mol
# GULP energy per Si atom -12407.797174 kJ/mol
# Density = 2.050290 g / cm^3
# Si number density = 20.549669 Si / 1000 Ang^3
#
#
#
# Elastic Constant Matrix: (Units=GPa)
#
#
# Indices 1 2 3 4 5 6 
#
# 1 81.4158 47.3527 35.7318 12.6662 -0.9468 -1.1343
# 2 47.3527 102.1641 23.1474 31.4775 0.0896 -0.0795
# 3 35.7318 23.1474 95.3105 35.9750 -0.3881 -0.0460
# 4 12.6662 31.4775 35.9750 30.9728 -0.0808 -0.0823
# 5 -0.9468 0.0896 -0.3881 -0.0808 38.2000 8.5700
# 6 -1.1343 -0.0795 -0.0460 -0.0823 8.5700 37.7609
#
#
#
# Elastic Compliance Matrix: (Units=1/GPa)
#
#
# Indices 1 2 3 4 5 6 
#
# 1 0.022578 -0.013433 -0.012231 0.018628 0.000374 0.000591
# 2 -0.013433 0.022959 0.011028 -0.030651 -0.000261 -0.000349
# 3 -0.012231 0.011028 0.026250 -0.036696 -0.000055 -0.000380
# 4 0.018628 -0.030651 -0.036696 0.098443 0.000232 0.000612
# 5 0.000374 -0.000261 -0.000055 0.000232 0.027590 -0.006251
# 6 0.000591 -0.000349 -0.000380 0.000612 -0.006251 0.027919
#
#
# Mechanical properties :
#
#
# Convention : Reuss Voigt Hill
#
# Bulk Modulus (GPa) = 23.52159 54.59492 39.05825
# Shear Modulus (GPa) = 18.57469 32.89732 25.73600
#
# Velocity S-wave (km/s) = 3.00974 4.00543 3.54274
# Velocity P-wave (km/s) = 4.85274 6.92937 5.98186
#
# Compressibility (1/GPa) = 0.04251413
#
# Stress axis : x y z
#
# Youngs Moduli (GPa) = 44.29071 43.55535 38.09555
#
# Poissons Ratio (x) = 0.58507 0.46596
# Poissons Ratio (y) = 0.59495 -0.42011
# Poissons Ratio (z) = 0.54174 -0.48032
#
# Static dielectric constant tensor:
#      x y z
#    x 3.673830 0.002040 -0.003190 
#    y 0.002040 3.574240 -0.021490 
#    z -0.003190 -0.021490 3.927890 
# 
# 
# High freq. dielectric constant tensor:
#      x y z
#    x 1.807880 0.000000 -0.000320 
#    y 0.000000 1.800670 0.009170 
#    z -0.000320 0.009170 1.819490 
# 
# From -- ./inp_files/272321.got.cif
#   From: 2010.06.25/outbox.cif.g09.slc.cpg/sg2_137_cif.got.tgz:272321.got - 2010.06.27 13:26:56.
