data_PCOD8003320
_publ_section_title
;
Structure prediction by ZEFSAII (Michael W. Deem and Ramdas Pophale) SiO2 
 PCOD8003320
Probable space group: P -1
;
_chemical_formula_sum "Si O2"
_cell_formula_units_Z 14
_cell_length_a 18.727181
_cell_length_b 8.610319
_cell_length_c 12.546611
_cell_angle_alpha 130.682511
_cell_angle_beta 36.403050
_cell_angle_gamma 103.781618
_cell_volume 702.250291
_symmetry_space_group_name_H-M "P -1"
_symmetry_group_IT_number 2
_symmetry_cell_setting 'triclinic'
loop_
_space_group_symop_operation_xyz
x,y,z
-x,-y,-z
loop_
_atom_site_type_symbol
_atom_site_label
_atom_site_fract_x
_atom_site_fract_y
_atom_site_fract_z
Si Si1 0.219202 0.606334 0.629696
Si Si2 0.366069 0.137601 0.098339
Si Si3 0.137850 0.509499 0.357005
Si Si4 0.423333 0.274931 0.766604
Si Si5 0.500748 0.446530 0.349350
Si Si6 0.584165 0.195658 0.750612
Si Si7 0.891435 0.050631 0.293694
O O1 0.299219 0.303492 0.363936
O O2 0.324177 0.610373 0.592539
O O3 0.193380 0.776576 0.633917
O O4 0.049383 0.753335 0.950841
O O5 0.238605 0.301054 0.234667
O O6 0.522267 0.094582 0.862765
O O7 0.402175 0.859583 0.936188
O O8 0.072535 0.800934 0.602958
O O9 0.000000 0.500000 0.500000
O O10 0.246530 0.422554 0.083902
O O11 0.413648 0.466373 0.778069
O O12 0.546862 0.176995 0.667258
O O13 0.500000 0.000000 0.500000
O O14 0.500000 0.500000 0.500000
O O15 0.767919 0.022883 0.478074
O O16 0.500000 0.500000 0.000000
#
# Coordination Sequence:
#
# PCOD8003320 Si02
#       7
#     2   2   2   2   2   2   2
#     4  10  21  37  61  94 118 164 204 259 308 363
#     4  10  22  39  64  92 123 166 205 263 314 369
#     4  10  22  39  64  95 125 161 213 266 314 367
#     4  11  23  38  65  92 119 167 213 259 305 373
#     4  12  24  40  61  92 134 166 208 254 319 379
#     4  11  17  39  63  92 119 156 222 255 300 370
#     4  10  20  36  67  91 121 157 215 266 305 356
#
# _framework density 19.935911999999998
#
# number of rings (size 3 to 8) (size 9 to 14) (size 15 to 20)
#    0.000    1.429    5.714    2.143    4.000    1.143 
#    0.000    1.429    0.000    0.000    0.000    0.000 
#    0.000    0.000    0.000    0.000    0.000    0.000 
#
# Total GULP energy -173542.647812 kJ/mol
# GULP energy per Si atom -12395.903415 kJ/mol
# Density = 1.989054 g / cm^3
# Si number density = 19.935912 Si / 1000 Ang^3
#
#
#
# Elastic Constant Matrix: (Units=GPa)
#
#
# Indices 1 2 3 4 5 6 
#
# 1 128.5456 42.8605 78.9577 -9.2548 4.4468 22.5770
# 2 42.8605 117.1179 73.1737 -2.1154 6.7705 24.5439
# 3 78.9577 73.1737 150.9671 -21.6117 16.9383 20.7465
# 4 -9.2548 -2.1154 -21.6117 30.8357 16.4604 -5.0682
# 5 4.4468 6.7705 16.9383 16.4604 35.3581 -2.2824
# 6 22.5770 24.5439 20.7465 -5.0682 -2.2824 30.5838
#
#
#
# Elastic Compliance Matrix: (Units=1/GPa)
#
#
# Indices 1 2 3 4 5 6 
#
# 1 0.012375 0.000664 -0.006880 -0.003486 0.002889 -0.005363
# 2 0.000664 0.014443 -0.007834 -0.007703 0.003990 -0.007746
# 3 -0.006880 -0.007834 0.018122 0.018094 -0.014676 0.000976
# 4 -0.003486 -0.007703 0.018094 0.063476 -0.036026 0.004312
# 5 0.002889 0.003990 -0.014676 -0.036026 0.051116 0.002465
# 6 -0.005363 -0.007746 0.000976 0.004312 0.002465 0.043109
#
#
# Mechanical properties :
#
#
# Convention : Reuss Voigt Hill
#
# Bulk Modulus (GPa) = 59.38237 87.40158 73.39198
# Shear Modulus (GPa) = 21.15455 32.79812 26.97633
#
# Velocity S-wave (km/s) = 3.26103 4.06048 3.68251
# Velocity P-wave (km/s) = 6.63554 8.11910 7.41452
#
# Compressibility (1/GPa) = 0.01684001
#
# Stress axis : x y z
#
# Youngs Moduli (GPa) = 80.80704 69.23562 55.18050
#
# Poissons Ratio (x) = -0.04596 0.37966
# Poissons Ratio (y) = -0.05364 0.43228
# Poissons Ratio (z) = 0.55599 0.54238
#
# Static dielectric constant tensor:
#      x y z
#    x 3.515040 -0.037480 0.269200 
#    y -0.037480 3.402980 0.062660 
#    z 0.269200 0.062660 3.180620 
# 
# 
# High freq. dielectric constant tensor:
#      x y z
#    x 1.783900 0.011390 0.009460 
#    y 0.011390 1.762590 -0.003200 
#    z 0.009460 -0.003200 1.784620 
# 
# From -- ./inp_files/175060.got.cif
#   From: 2010.06.25/outbox.cif.g09.slc.cpg/sg2_88_cif.got.tgz:175060.got - 2010.06.27 13:26:56.
