data_PCOD8003375
_publ_section_title
;
Structure prediction by ZEFSAII (Michael W. Deem and Ramdas Pophale) SiO2 
 PCOD8003375
Probable space group: P -1
;
_chemical_formula_sum "Si O2"
_cell_formula_units_Z 14
_cell_length_a 15.337141
_cell_length_b 16.377149
_cell_length_c 9.180972
_cell_angle_alpha 44.720573
_cell_angle_beta 71.472770
_cell_angle_gamma 35.731809
_cell_volume 735.628998
_symmetry_space_group_name_H-M "P -1"
_symmetry_group_IT_number 2
_symmetry_cell_setting 'triclinic'
loop_
_space_group_symop_operation_xyz
x,y,z
-x,-y,-z
loop_
_atom_site_type_symbol
_atom_site_label
_atom_site_fract_x
_atom_site_fract_y
_atom_site_fract_z
Si Si1 0.801082 0.338585 0.063424
Si Si2 0.775033 0.526968 0.591602
Si Si3 0.276866 0.204069 0.533219
Si Si4 0.423456 0.842959 0.526404
Si Si5 0.994167 0.323593 0.449478
Si Si6 0.113024 0.019910 0.534308
Si Si7 0.297088 0.233328 0.168706
O O1 0.910214 0.244893 0.273782
O O2 0.814594 0.188618 0.206415
O O3 0.889342 0.313513 0.911420
O O4 0.577576 0.623385 0.842401
O O5 0.797625 0.634740 0.498011
O O6 0.546368 0.744246 0.442364
O O7 0.852083 0.428887 0.512567
O O8 0.251293 0.310608 0.264688
O O9 0.158395 0.216395 0.578089
O O10 0.504615 0.924779 0.785644
O O11 0.269381 0.913287 0.485731
O O12 0.311803 0.077068 0.353396
O O13 0.090881 0.109262 0.586734
O O14 0.877841 0.533100 0.134217
#
# Coordination Sequence:
#
# PCOD8003375 Si02
#       7
#     2   2   2   2   2   2   2
#     4   9  22  41  58  83 109 146 194 236 265 329
#     4   9  22  39  53  82 127 139 179 233 282 328
#     4  10  20  37  55  82 117 152 177 230 272 329
#     4   9  20  38  59  81 111 150 183 231 273 331
#     4  12  23  34  57  93 110 149 182 227 284 338
#     4  11  21  37  67  79 105 150 199 226 272 325
#     4  10  21  34  59  85 114 144 191 228 267 333
#
# _framework density 19.031333
#
# number of rings (size 3 to 8) (size 9 to 14) (size 15 to 20)
#    0.857    1.143    1.429    2.143    4.000    2.857 
#    2.571    0.000    0.000    1.714    0.000    0.000 
#    0.000    0.000    0.000    0.000    0.000    0.000 
#
# Total GULP energy -173530.836345 kJ/mol
# GULP energy per Si atom -12395.059739 kJ/mol
# Density = 1.898802 g / cm^3
# Si number density = 19.031333 Si / 1000 Ang^3
#
#
#
# Elastic Constant Matrix: (Units=GPa)
#
#
# Indices 1 2 3 4 5 6 
#
# 1 110.6693 36.4969 12.1884 -13.1678 -1.0095 2.7674
# 2 36.4969 81.0477 1.6294 2.2321 -8.2041 0.8483
# 3 12.1884 1.6294 50.7663 -13.1052 -5.4411 6.8605
# 4 -13.1678 2.2321 -13.1052 20.5310 -2.5214 2.1083
# 5 -1.0095 -8.2041 -5.4411 -2.5214 20.6069 -6.1289
# 6 2.7674 0.8483 6.8605 2.1083 -6.1289 20.1771
#
#
#
# Elastic Compliance Matrix: (Units=1/GPa)
#
#
# Indices 1 2 3 4 5 6 
#
# 1 0.011995 -0.005751 -0.000419 0.008122 -0.001590 -0.002593
# 2 -0.005751 0.015655 -0.000094 -0.004964 0.006069 0.002525
# 3 -0.000419 -0.000094 0.026428 0.018322 0.006528 -0.008856
# 4 0.008122 -0.004964 0.018322 0.068360 0.008110 -0.011815
# 5 -0.001590 0.006069 0.006528 0.008110 0.057889 0.014480
# 6 -0.002593 0.002525 -0.008856 -0.011815 0.014480 0.058454
#
#
# Mechanical properties :
#
#
# Convention : Reuss Voigt Hill
#
# Bulk Modulus (GPa) = 24.06656 38.12362 31.09509
# Shear Modulus (GPa) = 18.85668 25.07425 21.96546
#
# Velocity S-wave (km/s) = 3.15115 3.63371 3.40100
# Velocity P-wave (km/s) = 5.09047 6.13846 5.63886
#
# Compressibility (1/GPa) = 0.04155143
#
# Stress axis : x y z
#
# Youngs Moduli (GPa) = 83.36626 63.87898 37.83868
#
# Poissons Ratio (x) = 0.36735 0.01584
# Poissons Ratio (y) = 0.47941 0.00355
# Poissons Ratio (z) = 0.03489 0.00600
#
# Static dielectric constant tensor:
#      x y z
#    x 3.509400 -0.070790 0.002510 
#    y -0.070790 3.266740 -0.148750 
#    z 0.002510 -0.148750 3.275450 
# 
# 
# High freq. dielectric constant tensor:
#      x y z
#    x 1.744860 -0.005600 0.000730 
#    y -0.005600 1.721650 -0.016170 
#    z 0.000730 -0.016170 1.721740 
# 
# From -- ./inp_files/204594.got.cif
#   From: 2010.06.25/outbox.cif.g09.slc.cpg/sg2_103_cif.got.tgz:204594.got - 2010.06.27 13:26:56.
