data_PCOD8003953
_publ_section_title
;
Structure prediction by ZEFSAII (Michael W. Deem and Ramdas Pophale) SiO2 
 PCOD8003953
Probable space group: P -1
;
_chemical_formula_sum "Si O2"
_cell_formula_units_Z 14
_cell_length_a 9.129715
_cell_length_b 8.369190
_cell_length_c 20.026634
_cell_angle_alpha 53.522797
_cell_angle_beta 52.852601
_cell_angle_gamma 96.899366
_cell_volume 651.422762
_symmetry_space_group_name_H-M "P -1"
_symmetry_group_IT_number 2
_symmetry_cell_setting 'triclinic'
loop_
_space_group_symop_operation_xyz
x,y,z
-x,-y,-z
loop_
_atom_site_type_symbol
_atom_site_label
_atom_site_fract_x
_atom_site_fract_y
_atom_site_fract_z
Si Si1 0.917172 0.881733 0.256751
Si Si2 0.037099 0.306153 0.020012
Si Si3 0.643120 0.862378 0.695725
Si Si4 0.918782 0.131647 0.417358
Si Si5 0.666198 0.637846 0.521316
Si Si6 0.746741 0.228579 0.826027
Si Si7 0.441786 0.837082 0.255853
O O1 0.906266 0.867818 0.343317
O O2 0.620133 0.606451 0.375909
O O3 0.114362 0.869302 0.182941
O O4 0.039277 0.185473 0.118902
O O5 0.336328 0.524461 0.847546
O O6 0.000000 0.500000 0.000000
O O7 0.768375 0.035850 0.115789
O O8 0.838927 0.836007 0.665508
O O9 0.785083 0.075169 0.539617
O O10 0.618864 0.010240 0.723637
O O11 0.045658 0.441231 0.281289
O O12 0.667803 0.838914 0.515698
O O13 0.727235 0.485150 0.584872
O O14 0.654231 0.217090 0.780129
O O15 0.500000 0.000000 0.000000
#
# Coordination Sequence:
#
# PCOD8003953 Si02
#       7
#     2   2   2   2   2   2   2
#     4  10  22  41  64  91 125 161 202 251 301 361
#     4   9  20  39  65  91 117 157 206 250 296 358
#     4  10  20  37  62  92 119 156 207 247 295 359
#     4  11  23  36  58  90 124 157 199 253 298 354
#     4  10  22  41  65  92 121 161 207 249 302 359
#     4  12  26  41  59  91 127 160 202 252 307 361
#     4  10  21  41  66  87 121 168 203 245 304 365
#
# _framework density 21.491420000000002
#
# number of rings (size 3 to 8) (size 9 to 14) (size 15 to 20)
#    0.000    1.714    0.000    4.286    0.000    6.857 
#    0.000    8.571    0.000    0.000    0.000    0.000 
#    0.000    0.000    0.000    0.000    0.000    0.000 
#
# Total GULP energy -173480.865277 kJ/mol
# GULP energy per Si atom -12391.490377 kJ/mol
# Density = 2.144250 g / cm^3
# Si number density = 21.491420 Si / 1000 Ang^3
#
#
#
# Elastic Constant Matrix: (Units=GPa)
#
#
# Indices 1 2 3 4 5 6 
#
# 1 141.3056 6.7787 58.3499 14.6088 15.8584 44.6275
# 2 6.7787 109.0856 45.4063 -4.4337 21.4597 -24.8379
# 3 58.3499 45.4063 138.0569 -1.9136 14.5826 -16.6337
# 4 14.6088 -4.4337 -1.9136 37.6053 -11.4509 7.6267
# 5 15.8584 21.4597 14.5826 -11.4509 33.4333 -16.6654
# 6 44.6275 -24.8379 -16.6337 7.6267 -16.6654 72.4888
#
#
#
# Elastic Compliance Matrix: (Units=1/GPa)
#
#
# Indices 1 2 3 4 5 6 
#
# 1 0.018328 0.001869 -0.008556 -0.009397 -0.017135 -0.015557
# 2 0.001869 0.012216 -0.003985 -0.001841 -0.007303 0.000635
# 3 -0.008556 -0.003985 0.012492 0.003847 0.006389 0.007833
# 4 -0.009397 -0.001841 0.003847 0.034699 0.019240 0.006810
# 5 -0.017135 -0.007303 0.006389 0.019240 0.056767 0.020539
# 6 -0.015557 0.000635 0.007833 0.006810 0.020539 0.029393
#
#
# Mechanical properties :
#
#
# Convention : Reuss Voigt Hill
#
# Bulk Modulus (GPa) = 46.09888 67.72420 56.91154
# Shear Modulus (GPa) = 25.97793 47.23303 36.60548
#
# Velocity S-wave (km/s) = 3.48049 4.69312 4.13153
# Velocity P-wave (km/s) = 6.13582 7.80690 7.02125
#
# Compressibility (1/GPa) = 0.02169250
#
# Stress axis : x y z
#
# Youngs Moduli (GPa) = 54.56142 81.85672 80.04854
#
# Poissons Ratio (x) = -0.15299 0.68488
# Poissons Ratio (y) = -0.10198 0.31903
# Poissons Ratio (z) = 0.46682 0.32623
#
# Static dielectric constant tensor:
#      x y z
#    x 4.035350 0.201230 -0.246230 
#    y 0.201230 3.904380 -0.281470 
#    z -0.246230 -0.281470 4.633340 
# 
# 
# High freq. dielectric constant tensor:
#      x y z
#    x 1.842600 -0.006720 -0.005360 
#    y -0.006720 1.837170 -0.010210 
#    z -0.005360 -0.010210 1.861170 
# 
# From -- ./inp_files/174910.got.cif
#   From: 2010.06.25/outbox.cif.g09.slc.cpg/sg2_88_cif.got.tgz:174910.got - 2010.06.27 13:26:56.
