data_PCOD8003842
_publ_section_title
;
Structure prediction by ZEFSAII (Michael W. Deem and Ramdas Pophale) SiO2 
 PCOD8003842
Probable space group: P -1
;
_chemical_formula_sum "Si O2"
_cell_formula_units_Z 14
_cell_length_a 9.370703
_cell_length_b 12.768764
_cell_length_c 9.751620
_cell_angle_alpha 48.748478
_cell_angle_beta 73.149028
_cell_angle_gamma 50.622626
_cell_volume 661.317305
_symmetry_space_group_name_H-M "P -1"
_symmetry_group_IT_number 2
_symmetry_cell_setting 'triclinic'
loop_
_space_group_symop_operation_xyz
x,y,z
-x,-y,-z
loop_
_atom_site_type_symbol
_atom_site_label
_atom_site_fract_x
_atom_site_fract_y
_atom_site_fract_z
Si Si1 0.816536 0.157812 0.151089
Si Si2 0.434176 0.376086 0.957601
Si Si3 0.996723 0.234249 0.579260
Si Si4 0.282761 0.586506 0.259279
Si Si5 0.942892 0.260724 0.252522
Si Si6 0.670544 0.755871 0.543981
Si Si7 0.650510 0.861676 0.768910
O O1 0.910246 0.131797 0.296135
O O2 0.892388 0.969006 0.233332
O O3 0.586487 0.281989 0.123165
O O4 0.862623 0.255022 0.944670
O O5 0.524573 0.429456 0.772876
O O6 0.229654 0.543951 0.922310
O O7 0.408201 0.232149 0.032066
O O8 0.132657 0.287614 0.520848
O O9 0.809227 0.364002 0.608154
O O10 0.932249 0.255310 0.422435
O O11 0.331051 0.404670 0.353200
O O12 0.141009 0.207047 0.190616
O O13 0.647468 0.793690 0.678597
O O14 0.495352 0.926881 0.363619
#
# Coordination Sequence:
#
# PCOD8003842 Si02
#       7
#     2   2   2   2   2   2   2
#     4  10  22  40  64  90 120 160 203 248 301 358
#     4  10  22  39  63  88 125 157 202 243 306 361
#     4  11  22  41  62  91 124 159 204 248 301 360
#     4  10  23  37  66  86 123 168 198 241 301 374
#     4  11  23  37  64  96 120 152 205 261 297 345
#     4  10  20  37  61  92 124 158 201 248 307 355
#     4  10  21  37  63  92 122 156 201 257 299 351
#
# _framework density 21.169868999999998
#
# number of rings (size 3 to 8) (size 9 to 14) (size 15 to 20)
#    0.857    0.857    1.429    3.000    2.000    2.857 
#    0.000    0.000    0.000    2.571    0.000    0.000 
#    0.000    0.000    0.000    0.000    0.000    0.000 
#
# Total GULP energy -173490.380423 kJ/mol
# GULP energy per Si atom -12392.170030 kJ/mol
# Density = 2.112169 g / cm^3
# Si number density = 21.169869 Si / 1000 Ang^3
#
#
#
# Elastic Constant Matrix: (Units=GPa)
#
#
# Indices 1 2 3 4 5 6 
#
# 1 130.7423 34.7678 43.5893 -4.7443 -2.9778 -18.9517
# 2 34.7678 66.4115 35.9927 -14.2897 -3.5059 -1.3196
# 3 43.5893 35.9927 61.5181 -15.6703 -20.4290 6.3424
# 4 -4.7443 -14.2897 -15.6703 35.8061 4.1287 -4.6166
# 5 -2.9778 -3.5059 -20.4290 4.1287 31.8210 -3.2142
# 6 -18.9517 -1.3196 6.3424 -4.6166 -3.2142 24.9598
#
#
#
# Elastic Compliance Matrix: (Units=1/GPa)
#
#
# Indices 1 2 3 4 5 6 
#
# 1 0.013828 -0.000564 -0.013136 -0.001845 -0.005675 0.012735
# 2 -0.000564 0.024593 -0.015931 0.004259 -0.007646 0.004724
# 3 -0.013136 -0.015931 0.046615 0.007166 0.024172 -0.018223
# 4 -0.001845 0.004259 0.007166 0.032821 0.000961 0.003198
# 5 -0.005675 -0.007646 0.024172 0.000961 0.044952 -0.004889
# 6 0.012735 0.004724 -0.018223 0.003198 -0.004889 0.054576
#
#
# Mechanical properties :
#
#
# Convention : Reuss Voigt Hill
#
# Bulk Modulus (GPa) = 38.79704 54.15239 46.47472
# Shear Modulus (GPa) = 17.52929 28.13885 22.83407
#
# Velocity S-wave (km/s) = 2.88067 3.64977 3.28779
# Velocity P-wave (km/s) = 5.42501 6.58760 6.03437
#
# Compressibility (1/GPa) = 0.02577516
#
# Stress axis : x y z
#
# Youngs Moduli (GPa) = 72.31833 40.66161 21.45246
#
# Poissons Ratio (x) = 0.02291 0.28179
# Poissons Ratio (y) = 0.04075 0.34176
# Poissons Ratio (z) = 0.94996 0.64778
#
# Static dielectric constant tensor:
#      x y z
#    x 3.935490 -0.096670 -0.203880 
#    y -0.096670 3.541120 -0.271890 
#    z -0.203880 -0.271890 3.785540 
# 
# 
# High freq. dielectric constant tensor:
#      x y z
#    x 1.837470 -0.007300 -0.015620 
#    y -0.007300 1.807400 -0.030890 
#    z -0.015620 -0.030890 1.819810 
# 
# From -- ./inp_files/167176.got.cif
#   From: 2010.06.25/outbox.cif.g09.slc.cpg/sg2_84_cif.got.tgz:167176.got - 2010.06.27 13:26:56.
