data_PCOD8003592
_publ_section_title
;
Structure prediction by ZEFSAII (Michael W. Deem and Ramdas Pophale) SiO2 
 PCOD8003592
Probable space group: P -1
;
_chemical_formula_sum "Si O2"
_cell_formula_units_Z 14
_cell_length_a 11.143226
_cell_length_b 14.478251
_cell_length_c 14.856908
_cell_angle_alpha 152.408148
_cell_angle_beta 138.593541
_cell_angle_gamma 39.677229
_cell_volume 689.864782
_symmetry_space_group_name_H-M "P -1"
_symmetry_group_IT_number 2
_symmetry_cell_setting 'triclinic'
loop_
_space_group_symop_operation_xyz
x,y,z
-x,-y,-z
loop_
_atom_site_type_symbol
_atom_site_label
_atom_site_fract_x
_atom_site_fract_y
_atom_site_fract_z
Si Si1 0.855650 0.221843 0.216336
Si Si2 0.231021 0.494390 0.225411
Si Si3 0.533740 0.623003 0.403417
Si Si4 0.798849 0.000000 0.500003
Si Si5 0.887000 0.829086 0.216088
Si Si6 0.027096 0.623002 0.403422
Si Si7 0.866663 0.778156 0.783659
O O1 0.666501 0.416040 0.243781
O O2 0.893880 0.261292 0.375149
O O3 0.039073 0.215799 0.254874
O O4 0.820326 0.999999 0.999997
O O5 0.424729 0.538020 0.345991
O O6 0.054355 0.642825 0.197184
O O7 0.191218 0.538013 0.345988
O O8 0.242154 0.254933 0.997084
O O9 0.383081 0.790572 0.394696
O O10 0.666162 0.738710 0.624845
O O11 0.006245 0.032496 0.657955
O O12 0.755323 0.967506 0.342047
O O13 0.825175 0.790574 0.394705
O O14 0.988988 0.416042 0.243789
#
# Coordination Sequence:
#
# PCOD8003592 Si02
#       7
#     2   2   2   2   2   2   2
#     4  10  23  43  60  75 108 158 197 233 285 330
#     4   9  18  31  55  87 122 147 182 214 287 337
#     4  10  20  37  59  89 113 150 181 235 276 344
#     4   9  18  32  59  88 116 146 189 219 282 330
#     4   8  16  32  49  81 128 161 165 211 276 363
#     4  10  20  37  59  89 113 150 181 235 276 344
#     4  10  23  43  60  75 108 158 197 233 285 330
#
# _framework density 20.293831999999998
#
# number of rings (size 3 to 8) (size 9 to 14) (size 15 to 20)
#    0.000    2.571    0.000    2.571    4.000    2.286 
#    0.000    4.286    0.000    3.429    0.000    0.000 
#    0.000    0.000    0.000    0.000    0.000    0.000 
#
# Total GULP energy -173484.069425 kJ/mol
# GULP energy per Si atom -12391.719245 kJ/mol
# Density = 2.024764 g / cm^3
# Si number density = 20.293832 Si / 1000 Ang^3
#
#
#
# Elastic Constant Matrix: (Units=GPa)
#
#
# Indices 1 2 3 4 5 6 
#
# 1 76.3935 21.2701 63.8443 -6.5100 0.1351 0.2616
# 2 21.2701 115.5775 45.9930 22.9409 0.0199 -0.9503
# 3 63.8443 45.9930 163.5783 21.6108 0.0591 0.5452
# 4 -6.5100 22.9409 21.6108 27.8098 0.0514 -0.5413
# 5 0.1351 0.0199 0.0591 0.0514 21.0027 6.7518
# 6 0.2616 -0.9503 0.5452 -0.5413 6.7518 23.9374
#
#
#
# Elastic Compliance Matrix: (Units=1/GPa)
#
#
# Indices 1 2 3 4 5 6 
#
# 1 0.024662 -0.003625 -0.010883 0.017227 -0.000263 0.000298
# 2 -0.003625 0.011494 -0.000506 -0.009931 -0.000058 0.000299
# 3 -0.010883 -0.000506 0.012022 -0.011482 0.000225 -0.000498
# 4 0.017227 -0.009931 -0.011482 0.057130 -0.000573 0.001132
# 5 -0.000263 -0.000058 0.000225 -0.000573 0.052370 -0.014789
# 6 0.000298 0.000299 -0.000498 0.001132 -0.014789 0.045993
#
#
# Mechanical properties :
#
#
# Convention : Reuss Voigt Hill
#
# Bulk Modulus (GPa) = 55.09501 68.64045 61.86773
# Shear Modulus (GPa) = 20.85520 29.51277 25.18399
#
# Velocity S-wave (km/s) = 3.20919 3.81763 3.52656
# Velocity P-wave (km/s) = 6.39840 7.30268 6.86544
#
# Compressibility (1/GPa) = 0.01815046
#
# Stress axis : x y z
#
# Youngs Moduli (GPa) = 40.54786 86.99914 83.18197
#
# Poissons Ratio (x) = 0.31534 0.90529
# Poissons Ratio (y) = 0.14697 0.04210
# Poissons Ratio (z) = 0.44129 0.04403
#
# Static dielectric constant tensor:
#      x y z
#    x 3.568350 -0.001100 -0.009220 
#    y -0.001100 3.833820 0.540160 
#    z -0.009220 0.540160 4.009540 
# 
# 
# High freq. dielectric constant tensor:
#      x y z
#    x 1.769780 0.000070 -0.000560 
#    y 0.000070 1.780390 0.032170 
#    z -0.000560 0.032170 1.794760 
# 
# From -- ./inp_files/521141.got.cif
#   From: 2010.06.25/outbox.cif.g09.slc.cpg/sg2_261_cif.got.tgz:521141.got - 2010.06.27 13:26:56.
