data_PCOD8003898
_publ_section_title
;
Structure prediction by ZEFSAII (Michael W. Deem and Ramdas Pophale) SiO2 
 PCOD8003898
Probable space group: P -1
;
_chemical_formula_sum "Si O2"
_cell_formula_units_Z 16
_cell_length_a 17.465727
_cell_length_b 9.071719
_cell_length_c 9.634772
_cell_angle_alpha 58.222886
_cell_angle_beta 141.469535
_cell_angle_gamma 102.123691
_cell_volume 747.320101
_symmetry_space_group_name_H-M "P -1"
_symmetry_group_IT_number 2
_symmetry_cell_setting 'triclinic'
loop_
_space_group_symop_operation_xyz
x,y,z
-x,-y,-z
loop_
_atom_site_type_symbol
_atom_site_label
_atom_site_fract_x
_atom_site_fract_y
_atom_site_fract_z
Si Si1 0.237870 0.109465 0.627324
Si Si2 0.532601 0.404867 0.443536
Si Si3 0.357653 0.385735 0.724038
Si Si4 0.757363 0.001695 0.000888
Si Si5 0.376225 0.170890 0.295314
Si Si6 0.995809 0.966725 0.783338
Si Si7 0.614124 0.071991 0.333324
Si Si8 0.818786 0.235176 0.609543
O O1 0.260654 0.303315 0.548336
O O2 0.274275 0.032708 0.870864
O O3 0.087865 0.137221 0.361894
O O4 0.343144 0.958776 0.750915
O O5 0.500000 0.500000 0.500000
O O6 0.562785 0.539887 0.310021
O O7 0.402654 0.363655 0.228793
O O8 0.659447 0.210879 0.719849
O O9 0.262763 0.542164 0.616976
O O10 0.464167 0.226066 0.049780
O O11 0.908341 0.988496 0.210789
O O12 0.746159 0.836416 0.967140
O O13 0.500000 0.000000 0.500000
O O14 0.368531 0.124408 0.471252
O O15 0.078072 0.823254 0.088999
O O16 0.897833 0.164518 0.612748
O O17 0.710921 0.142186 0.525473
#
# Coordination Sequence:
#
# PCOD8003898 Si02
#       8
#     2   2   2   2   2   2   2   2
#     4  11  25  38  64  90 127 164 201 247 305 368
#     4  11  22  37  59  93 128 156 197 253 308 360
#     4  12  22  38  59  96 124 152 199 260 306 355
#     4  11  21  43  61  89 118 166 205 244 303 365
#     4  10  20  37  62  87 120 164 201 241 301 369
#     4  10  21  43  63  84 122 165 211 240 300 367
#     4  11  21  40  63  91 123 161 199 251 311 367
#     4  10  21  38  64  92 114 159 208 259 294 355
#
# _framework density 21.409835000000001
#
# number of rings (size 3 to 8) (size 9 to 14) (size 15 to 20)
#    0.000    1.250    2.500    4.875    0.000    1.500 
#    0.000    0.625    0.000    0.000    0.000    0.000 
#    0.000    0.000    0.000    0.000    0.000    0.000 
#
# Total GULP energy -198357.050400 kJ/mol
# GULP energy per Si atom -12397.315650 kJ/mol
# Density = 2.136111 g / cm^3
# Si number density = 21.409835 Si / 1000 Ang^3
#
#
#
# Elastic Constant Matrix: (Units=GPa)
#
#
# Indices 1 2 3 4 5 6 
#
# 1 96.6461 42.9275 37.2721 8.4446 2.6660 6.8069
# 2 42.9275 127.7162 39.1117 19.8829 10.2579 22.9090
# 3 37.2721 39.1117 75.2028 17.8558 1.5902 10.3270
# 4 8.4446 19.8829 17.8558 28.5650 -0.8748 8.1792
# 5 2.6660 10.2579 1.5902 -0.8748 39.4232 3.0260
# 6 6.8069 22.9090 10.3270 8.1792 3.0260 38.9826
#
#
#
# Elastic Compliance Matrix: (Units=1/GPa)
#
#
# Indices 1 2 3 4 5 6 
#
# 1 0.013773 -0.003291 -0.005569 0.001510 0.000131 0.000677
# 2 -0.003291 0.011360 -0.002655 -0.004101 -0.002383 -0.004352
# 3 -0.005569 -0.002655 0.019570 -0.008481 0.000158 -0.000885
# 4 0.001510 -0.004101 -0.008481 0.044260 0.002681 -0.005102
# 5 0.000131 -0.002383 0.000158 0.002681 0.026126 -0.001255
# 6 0.000677 -0.004352 -0.000885 -0.005102 -0.001255 0.029494
#
#
# Mechanical properties :
#
#
# Convention : Reuss Voigt Hill
#
# Bulk Modulus (GPa) = 46.14104 59.79862 52.96983
# Shear Modulus (GPa) = 28.59788 33.41109 31.00448
#
# Velocity S-wave (km/s) = 3.65874 3.95466 3.80957
# Velocity P-wave (km/s) = 6.28065 6.98882 6.64418
#
# Compressibility (1/GPa) = 0.02167268
#
# Stress axis : x y z
#
# Youngs Moduli (GPa) = 72.60425 88.03056 51.09846
#
# Poissons Ratio (x) = 0.28972 0.28457
# Poissons Ratio (y) = 0.23895 0.13567
# Poissons Ratio (z) = 0.40434 0.23372
#
# Static dielectric constant tensor:
#      x y z
#    x 4.199470 0.203340 -0.061750 
#    y 0.203340 4.273520 0.324750 
#    z -0.061750 0.324750 3.938540 
# 
# 
# High freq. dielectric constant tensor:
#      x y z
#    x 1.851140 0.005450 -0.001910 
#    y 0.005450 1.842560 0.025370 
#    z -0.001910 0.025370 1.817220 
# 
# From -- ./inp_files/242924.got.cif
#   From: 2010.06.25/outbox.cif.g09.slc.cpg/sg2_122_cif.got.tgz:242924.got - 2010.06.27 13:26:56.
