data_PCOD8003740
_publ_section_title
;
Structure prediction by ZEFSAII (Michael W. Deem and Ramdas Pophale) SiO2 
 PCOD8003740
Probable space group: P -1
;
_chemical_formula_sum "Si O2"
_cell_formula_units_Z 16
_cell_length_a 10.771289
_cell_length_b 11.319674
_cell_length_c 8.307714
_cell_angle_alpha 94.962308
_cell_angle_beta 70.195544
_cell_angle_gamma 60.095445
_cell_volume 784.581818
_symmetry_space_group_name_H-M "P -1"
_symmetry_group_IT_number 2
_symmetry_cell_setting 'triclinic'
loop_
_space_group_symop_operation_xyz
x,y,z
-x,-y,-z
loop_
_atom_site_type_symbol
_atom_site_label
_atom_site_fract_x
_atom_site_fract_y
_atom_site_fract_z
Si Si1 0.238899 0.972529 0.199128
Si Si2 0.527423 0.688267 0.925767
Si Si3 0.615187 0.465158 0.597155
Si Si4 0.920427 0.110591 0.191145
Si Si5 0.330975 0.337623 0.818220
Si Si6 0.885186 0.397299 0.261880
Si Si7 0.340059 0.818290 0.456311
Si Si8 0.754540 0.769469 0.881169
O O1 0.271091 0.945072 0.371701
O O2 0.293512 0.074077 0.126769
O O3 0.345136 0.826375 0.032715
O O4 0.051173 0.046423 0.268366
O O5 0.525931 0.579474 0.791873
O O6 0.647638 0.732701 0.817613
O O7 0.588512 0.620749 0.070902
O O8 0.500000 0.500000 0.500000
O O9 0.767662 0.463940 0.473987
O O10 0.678343 0.307221 0.615914
O O11 0.883325 0.264626 0.173586
O O12 0.760960 0.123125 0.325855
O O13 0.000000 0.000000 0.000000
O O14 0.176328 0.481026 0.833024
O O15 0.470112 0.248814 0.610622
O O16 0.281212 0.237826 0.912356
O O17 0.057980 0.349563 0.243080
#
# Coordination Sequence:
#
# PCOD8003740 Si02
#       8
#     2   2   2   2   2   2   2   2
#     4  10  20  38  62  81 120 153 193 243 286 347
#     4   9  22  34  61  87 113 156 194 239 287 347
#     4  11  22  37  56  87 120 149 195 247 298 338
#     4  10  23  35  57  86 119 154 190 235 294 355
#     4   9  19  36  61  86 114 152 197 238 290 345
#     4  10  20  37  61  80 121 155 186 251 289 339
#     4  10  21  36  59  86 114 152 191 239 298 339
#     4   9  20  39  60  87 115 158 200 233 295 336
#
# _framework density 20.39303
#
# number of rings (size 3 to 8) (size 9 to 14) (size 15 to 20)
#    0.750    1.500    1.250    1.125    3.500    3.500 
#    0.000    0.000    5.500    4.500    0.000    0.000 
#    0.000    0.000    0.000    0.000    0.000    0.000 
#
# Total GULP energy -198237.905067 kJ/mol
# GULP energy per Si atom -12389.869067 kJ/mol
# Density = 2.034661 g / cm^3
# Si number density = 20.393030 Si / 1000 Ang^3
#
#
#
# Elastic Constant Matrix: (Units=GPa)
#
#
# Indices 1 2 3 4 5 6 
#
# 1 46.6605 2.7817 17.2297 0.5176 -21.5941 -6.6775
# 2 2.7817 116.6113 28.6418 -10.4870 -2.4873 -4.8611
# 3 17.2297 28.6418 97.0894 8.9712 -19.5579 5.8299
# 4 0.5176 -10.4870 8.9712 29.3095 3.5194 -7.1190
# 5 -21.5941 -2.4873 -19.5579 3.5194 35.4179 -2.6267
# 6 -6.6775 -4.8611 5.8299 -7.1190 -2.6267 25.4464
#
#
#
# Elastic Compliance Matrix: (Units=1/GPa)
#
#
# Indices 1 2 3 4 5 6 
#
# 1 0.033170 0.001009 -0.003134 0.001324 0.019321 0.011980
# 2 0.001009 0.010384 -0.004402 0.006400 -0.001358 0.004907
# 3 -0.003134 -0.004402 0.014568 -0.008346 0.006157 -0.006700
# 4 0.001324 0.006400 -0.008346 0.043354 -0.006552 0.014935
# 5 0.019321 -0.001358 0.006157 -0.006552 0.044426 0.006153
# 6 0.011980 0.004907 -0.006700 0.014935 0.006153 0.049728
#
#
# Mechanical properties :
#
#
# Convention : Reuss Voigt Hill
#
# Bulk Modulus (GPa) = 22.18856 39.74084 30.96470
# Shear Modulus (GPa) = 22.35082 32.14863 27.24973
#
# Velocity S-wave (km/s) = 3.31419 3.97476 3.65941
# Velocity P-wave (km/s) = 5.05462 6.37140 5.75082
#
# Compressibility (1/GPa) = 0.04506828
#
# Stress axis : x y z
#
# Youngs Moduli (GPa) = 30.14811 96.30409 68.64208
#
# Poissons Ratio (x) = -0.09718 0.21511
# Poissons Ratio (y) = -0.03042 0.30216
# Poissons Ratio (z) = 0.09448 0.42393
#
# Static dielectric constant tensor:
#      x y z
#    x 3.593430 -0.126730 -0.462720 
#    y -0.126730 3.770840 -0.075410 
#    z -0.462720 -0.075410 3.537150 
# 
# 
# High freq. dielectric constant tensor:
#      x y z
#    x 1.777000 -0.014110 -0.041820 
#    y -0.014110 1.805100 -0.007420 
#    z -0.041820 -0.007420 1.778510 
# 
# From -- ./inp_files/254069.got.cif
#   From: 2010.06.25/outbox.cif.g09.slc.cpg/sg2_128_cif.got.tgz:254069.got - 2010.06.27 13:26:56.
