data_PCOD8003092
_publ_section_title
;
Structure prediction by ZEFSAII (Michael W. Deem and Ramdas Pophale) SiO2 
 PCOD8003092
Probable space group: P -1
;
_chemical_formula_sum "Si O2"
_cell_formula_units_Z 16
_cell_length_a 9.169874
_cell_length_b 12.048879
_cell_length_c 11.265261
_cell_angle_alpha 60.285454
_cell_angle_beta 80.838115
_cell_angle_gamma 44.633238
_cell_volume 720.267285
_symmetry_space_group_name_H-M "P -1"
_symmetry_group_IT_number 2
_symmetry_cell_setting 'triclinic'
loop_
_space_group_symop_operation_xyz
x,y,z
-x,-y,-z
loop_
_atom_site_type_symbol
_atom_site_label
_atom_site_fract_x
_atom_site_fract_y
_atom_site_fract_z
Si Si1 0.220834 0.535186 0.290298
Si Si2 0.346834 0.663587 0.028836
Si Si3 0.409044 0.873172 0.631720
Si Si4 0.952483 0.765154 0.647704
Si Si5 0.960963 0.074709 0.262680
Si Si6 0.375585 0.284549 0.073689
Si Si7 0.242994 0.655420 0.456495
Si Si8 0.972771 0.572799 0.115640
O O1 0.323966 0.596528 0.186111
O O2 0.391514 0.308431 0.377189
O O3 0.161193 0.604733 0.396166
O O4 0.992468 0.640399 0.199083
O O5 0.500000 0.500000 0.000000
O O6 0.110817 0.835851 0.907149
O O7 0.463536 0.723651 0.014424
O O8 0.238986 0.865295 0.674361
O O9 0.493762 0.866726 0.754294
O O10 0.281189 0.070426 0.478427
O O11 0.974953 0.609399 0.775078
O O12 0.954245 0.860600 0.706832
O O13 0.157759 0.661917 0.590540
O O14 0.157493 0.851126 0.336274
O O15 0.171230 0.495496 0.045777
O O16 0.264946 0.257262 0.006682
O O17 0.500000 0.500000 0.500000
#
# Coordination Sequence:
#
# PCOD8003092 Si02
#       8
#     2   2   2   2   2   2   2   2
#     4  11  22  37  61  90 124 156 196 240 310 351
#     4  11  18  35  66  89 116 155 202 256 288 344
#     4   9  18  35  57  87 114 154 201 251 285 350
#     4  11  22  36  62  87 122 156 202 248 297 351
#     4  10  20  36  62  91 112 155 209 250 292 343
#     4   9  19  33  56  88 115 149 200 242 289 343
#     4  11  24  39  58  87 126 158 198 250 296 357
#     4  10  21  34  58  92 118 157 195 245 300 360
#
# _framework density 22.213975999999999
#
# number of rings (size 3 to 8) (size 9 to 14) (size 15 to 20)
#    0.000    1.750    3.750    3.750    3.500    3.000 
#    0.000    0.000    0.000    8.250    0.000    0.000 
#    0.000    0.000    0.000    0.000    0.000    0.000 
#
# Total GULP energy -198336.337648 kJ/mol
# GULP energy per Si atom -12396.021103 kJ/mol
# Density = 2.216342 g / cm^3
# Si number density = 22.213976 Si / 1000 Ang^3
#
#
#
# Elastic Constant Matrix: (Units=GPa)
#
#
# Indices 1 2 3 4 5 6 
#
# 1 108.9788 32.6893 36.4122 -0.1066 46.0820 9.3676
# 2 32.6893 78.5039 20.1506 0.0029 7.3415 4.4428
# 3 36.4122 20.1506 76.0820 -12.8316 15.1291 0.2974
# 4 -0.1066 0.0029 -12.8316 20.7853 3.9568 9.1988
# 5 46.0820 7.3415 15.1291 3.9568 38.9929 1.4077
# 6 9.3676 4.4428 0.2974 9.1988 1.4077 29.6198
#
#
#
# Elastic Compliance Matrix: (Units=1/GPa)
#
#
# Indices 1 2 3 4 5 6 
#
# 1 0.023820 -0.006171 -0.003550 0.006072 -0.025967 -0.007224
# 2 -0.006171 0.015469 -0.002795 -0.002995 0.005757 0.000316
# 3 -0.003550 -0.002795 0.018585 0.013321 -0.003747 -0.002604
# 4 0.006072 -0.002995 0.013321 0.069714 -0.018046 -0.022398
# 5 -0.025967 0.005757 -0.003747 -0.018046 0.058166 0.010227
# 6 -0.007224 0.000316 -0.002604 -0.022398 0.010227 0.042494
#
#
# Mechanical properties :
#
#
# Convention : Reuss Voigt Hill
#
# Bulk Modulus (GPa) = 30.44776 49.11875 39.78325
# Shear Modulus (GPa) = 18.92309 29.50044 24.21177
#
# Velocity S-wave (km/s) = 2.92182 3.64814 3.30500
# Velocity P-wave (km/s) = 5.01189 6.31703 5.70193
#
# Compressibility (1/GPa) = 0.03284314
#
# Stress axis : x y z
#
# Youngs Moduli (GPa) = 41.98081 64.64556 53.80716
#
# Poissons Ratio (x) = 0.39891 0.19101
# Poissons Ratio (y) = 0.25905 0.15039
# Poissons Ratio (z) = 0.14903 0.18068
#
# Static dielectric constant tensor:
#      x y z
#    x 4.461990 -0.018960 0.207070 
#    y -0.018960 3.606250 -0.164880 
#    z 0.207070 -0.164880 4.752650 
# 
# 
# High freq. dielectric constant tensor:
#      x y z
#    x 1.884810 -0.000440 0.019250 
#    y -0.000440 1.821730 -0.007130 
#    z 0.019250 -0.007130 1.880680 
# 
# From -- ./inp_files/389407.got.cif
#   From: 2010.06.25/outbox.cif.g09.slc.cpg/sg2_195_cif.got.tgz:389407.got - 2010.06.27 13:26:56.
