data_PCOD8003670
_publ_section_title
;
Structure prediction by ZEFSAII (Michael W. Deem and Ramdas Pophale) SiO2 
 PCOD8003670
Probable space group: P -1
;
_chemical_formula_sum "Si O2"
_cell_formula_units_Z 16
_cell_length_a 9.117312
_cell_length_b 21.010360
_cell_length_c 6.660320
_cell_angle_alpha 73.487459
_cell_angle_beta 48.236503
_cell_angle_gamma 58.396362
_cell_volume 806.282956
_symmetry_space_group_name_H-M "P -1"
_symmetry_group_IT_number 2
_symmetry_cell_setting 'triclinic'
loop_
_space_group_symop_operation_xyz
x,y,z
-x,-y,-z
loop_
_atom_site_type_symbol
_atom_site_label
_atom_site_fract_x
_atom_site_fract_y
_atom_site_fract_z
Si Si1 0.418805 0.150983 0.078873
Si Si2 0.109748 0.317129 0.313957
Si Si3 0.899644 0.911486 0.687265
Si Si4 0.609174 0.660504 0.632658
Si Si5 0.130631 0.961252 0.113558
Si Si6 0.349233 0.780679 0.439299
Si Si7 0.209676 0.420728 0.849130
Si Si8 0.378542 0.653738 0.231848
O O1 0.224673 0.227132 0.279321
O O2 0.318156 0.097636 0.145110
O O3 0.618698 0.105777 0.097629
O O4 0.530780 0.169272 0.769418
O O5 0.193536 0.337709 0.422306
O O6 0.845652 0.351820 0.534983
O O7 0.165325 0.353309 0.036226
O O8 0.986569 0.927573 0.384121
O O9 0.091787 0.834841 0.677345
O O10 0.834905 0.979506 0.836239
O O11 0.463867 0.735890 0.574750
O O12 0.730988 0.591223 0.429982
O O13 0.436735 0.650764 0.946137
O O14 0.000000 0.000000 0.000000
O O15 0.365300 0.728097 0.282324
O O16 0.421264 0.418122 0.777076
O O17 0.000000 0.500000 0.000000
#
# Coordination Sequence:
#
# PCOD8003670 Si02
#       8
#     2   2   2   2   2   2   2   2
#     4  11  20  40  61  87 122 156 202 255 300 354
#     4  11  22  38  62  95 124 155 208 254 296 358
#     4  10  22  39  60  83 122 156 200 254 305 355
#     4  10  21  38  61  91 122 158 199 246 302 357
#     4  10  24  41  57  85 119 162 203 248 305 360
#     4  10  20  37  60  87 121 157 196 249 305 356
#     4  10  23  44  64  87 127 165 196 244 303 363
#     4  10  21  38  59  91 125 154 200 250 297 359
#
# _framework density 19.844152000000001
#
# number of rings (size 3 to 8) (size 9 to 14) (size 15 to 20)
#    0.000    1.750    5.000    0.375    1.750    6.000 
#    2.250    1.250    0.000    0.000    0.000    0.000 
#    0.000    0.000    0.000    0.000    0.000    0.000 
#
# Total GULP energy -198384.414836 kJ/mol
# GULP energy per Si atom -12399.025927 kJ/mol
# Density = 1.979899 g / cm^3
# Si number density = 19.844152 Si / 1000 Ang^3
#
#
#
# Elastic Constant Matrix: (Units=GPa)
#
#
# Indices 1 2 3 4 5 6 
#
# 1 106.3147 20.2505 53.6480 -4.3994 -13.2635 -19.3941
# 2 20.2505 77.7568 14.0821 12.4121 -0.0661 -23.3838
# 3 53.6480 14.0821 93.5300 9.4432 -0.9585 -4.1155
# 4 -4.3994 12.4121 9.4432 20.7819 -4.6101 -8.6792
# 5 -13.2635 -0.0661 -0.9585 -4.6101 34.1493 2.6686
# 6 -19.3941 -23.3838 -4.1155 -8.6792 2.6686 33.0578
#
#
#
# Elastic Compliance Matrix: (Units=1/GPa)
#
#
# Indices 1 2 3 4 5 6 
#
# 1 0.020556 -0.002085 -0.012712 0.018929 0.009144 0.013233
# 2 -0.002085 0.017444 -0.000300 -0.007378 -0.002511 0.009344
# 3 -0.012712 -0.000300 0.019219 -0.016350 -0.005895 -0.009094
# 4 0.018929 -0.007378 -0.016350 0.076916 0.015481 0.022794
# 5 0.009144 -0.002511 -0.005895 0.015481 0.034431 0.004140
# 6 0.013233 0.009344 -0.009094 0.022794 0.004140 0.049141
#
#
# Mechanical properties :
#
#
# Convention : Reuss Voigt Hill
#
# Bulk Modulus (GPa) = 37.00417 50.39585 43.70001
# Shear Modulus (GPa) = 19.46219 30.23921 24.85070
#
# Velocity S-wave (km/s) = 3.13509 3.90787 3.54261
# Velocity P-wave (km/s) = 5.63852 6.76852 6.22920
#
# Compressibility (1/GPa) = 0.02702398
#
# Stress axis : x y z
#
# Youngs Moduli (GPa) = 48.64748 57.32774 52.03292
#
# Poissons Ratio (x) = 0.11955 0.66144
# Poissons Ratio (y) = 0.10145 0.01560
# Poissons Ratio (z) = 0.61840 0.01719
#
# Static dielectric constant tensor:
#      x y z
#    x 3.645440 -0.248140 -0.100930 
#    y -0.248140 3.660800 0.072670 
#    z -0.100930 0.072670 3.526780 
# 
# 
# High freq. dielectric constant tensor:
#      x y z
#    x 1.775500 -0.017400 -0.011520 
#    y -0.017400 1.774210 0.008510 
#    z -0.011520 0.008510 1.766760 
# 
# From -- ./inp_files/47723.got.cif
#   From: 2010.06.25/outbox.cif.g09.slc.cpg/sg2_24_cif.got.tgz:47723.got - 2010.06.27 13:26:56.
