data_PCOD8003309
_publ_section_title
;
Structure prediction by ZEFSAII (Michael W. Deem and Ramdas Pophale) SiO2 
 PCOD8003309
Probable space group: P -1
;
_chemical_formula_sum "Si O2"
_cell_formula_units_Z 16
_cell_length_a 8.120520
_cell_length_b 19.216515
_cell_length_c 19.726104
_cell_angle_alpha 29.317361
_cell_angle_beta 149.349691
_cell_angle_gamma 140.643445
_cell_volume 765.087932
_symmetry_space_group_name_H-M "P -1"
_symmetry_group_IT_number 2
_symmetry_cell_setting 'triclinic'
loop_
_space_group_symop_operation_xyz
x,y,z
-x,-y,-z
loop_
_atom_site_type_symbol
_atom_site_label
_atom_site_fract_x
_atom_site_fract_y
_atom_site_fract_z
Si Si1 0.630352 0.446546 0.404701
Si Si2 0.687687 0.102915 0.533344
Si Si3 0.669303 0.318942 0.061049
Si Si4 0.599032 0.627175 0.763304
Si Si5 0.584548 0.745932 0.114072
Si Si6 0.630471 0.022433 0.342084
Si Si7 0.601950 0.980368 0.130697
Si Si8 0.314330 0.835373 0.275405
O O1 0.567546 0.393697 0.350946
O O2 0.464588 0.593309 0.237526
O O3 0.521340 0.314843 0.528517
O O4 0.000000 0.500000 0.500000
O O5 0.597231 0.265854 0.351666
O O6 0.072198 0.095031 0.675831
O O7 0.500000 0.000000 0.500000
O O8 0.579312 0.063931 0.603426
O O9 0.591036 0.191427 0.195302
O O10 0.032510 0.309090 0.170744
O O11 0.607408 0.475328 0.935097
O O12 0.423817 0.283280 0.943424
O O13 0.956265 0.811522 0.201758
O O14 0.344747 0.858603 0.958881
O O15 0.512878 0.964945 0.275561
O O16 0.000000 0.000000 0.500000
O O17 0.328062 0.883930 0.159737
O O18 0.500000 0.000000 0.000000
#
# Coordination Sequence:
#
# PCOD8003309 Si02
#       8
#     2   2   2   2   2   2   2   2
#     4   9  19  36  67  91 113 156 221 265 301 358
#     4  12  25  41  61  93 135 165 204 262 329 379
#     4  10  20  36  66  93 114 153 222 259 303 362
#     4  10  20  39  61  93 123 158 201 271 311 367
#     4  10  21  39  64  89 119 162 216 261 310 371
#     4  12  21  38  66  93 118 162 221 258 306 380
#     4  12  26  38  58  93 135 169 200 262 329 374
#     4  11  21  40  64  90 121 164 223 260 301 379
#
# _framework density 20.91263
#
# number of rings (size 3 to 8) (size 9 to 14) (size 15 to 20)
#    0.000    1.250    3.750    2.625    3.500    0.000 
#    0.000    2.500    0.000    0.000    0.000    0.000 
#    0.000    0.000    0.000    0.000    0.000    0.000 
#
# Total GULP energy -198241.839171 kJ/mol
# GULP energy per Si atom -12390.114948 kJ/mol
# Density = 2.086503 g / cm^3
# Si number density = 20.912630 Si / 1000 Ang^3
#
#
#
# Elastic Constant Matrix: (Units=GPa)
#
#
# Indices 1 2 3 4 5 6 
#
# 1 59.9073 20.3533 28.6409 -15.8723 -7.7198 -3.6423
# 2 20.3533 104.6036 51.9364 -14.3503 1.5116 -1.3698
# 3 28.6409 51.9364 141.1365 -40.7637 6.1708 -1.4794
# 4 -15.8723 -14.3503 -40.7637 58.2117 0.0220 -2.4070
# 5 -7.7198 1.5116 6.1708 0.0220 37.8490 -3.2797
# 6 -3.6423 -1.3698 -1.4794 -2.4070 -3.2797 22.0430
#
#
#
# Elastic Compliance Matrix: (Units=1/GPa)
#
#
# Indices 1 2 3 4 5 6 
#
# 1 0.020481 -0.002292 -0.002494 0.003445 0.005037 0.004200
# 2 -0.002292 0.011962 -0.004078 -0.000532 -0.000281 -0.000009
# 3 -0.002494 -0.004078 0.010914 0.005975 -0.002093 0.000408
# 4 0.003445 -0.000532 0.005975 0.022310 0.000029 0.003378
# 5 0.005037 -0.000281 -0.002093 0.000029 0.028223 0.004877
# 6 0.004200 -0.000009 0.000408 0.003378 0.004877 0.047181
#
#
# Mechanical properties :
#
#
# Convention : Reuss Voigt Hill
#
# Bulk Modulus (GPa) = 39.02055 56.38983 47.70519
# Shear Modulus (GPa) = 29.87904 37.26852 33.57378
#
# Velocity S-wave (km/s) = 3.78399 4.22608 4.01113
# Velocity P-wave (km/s) = 6.14742 7.12994 6.65683
#
# Compressibility (1/GPa) = 0.02562752
#
# Stress axis : x y z
#
# Youngs Moduli (GPa) = 48.82659 83.60081 91.62862
#
# Poissons Ratio (x) = 0.19161 0.22853
# Poissons Ratio (y) = 0.11191 0.37368
# Poissons Ratio (z) = 0.12178 0.34094
#
# Static dielectric constant tensor:
#      x y z
#    x 3.139110 0.062090 -0.301330 
#    y 0.062090 3.904480 -0.526860 
#    z -0.301330 -0.526860 4.552880 
# 
# 
# High freq. dielectric constant tensor:
#      x y z
#    x 1.760110 0.006690 -0.012450 
#    y 0.006690 1.834230 -0.007970 
#    z -0.012450 -0.007970 1.850520 
# 
# From -- ./inp_files/521664.got.cif
#   From: 2010.06.25/outbox.cif.g09.slc.cpg/sg2_261_cif.got.tgz:521664.got - 2010.06.27 13:26:56.
