data_PCOD8003697
_publ_section_title
;
Structure prediction by ZEFSAII (Michael W. Deem and Ramdas Pophale) SiO2 
 PCOD8003697
Probable space group: P -1
;
_chemical_formula_sum "Si O2"
_cell_formula_units_Z 16
_cell_length_a 12.334021
_cell_length_b 13.947167
_cell_length_c 8.652208
_cell_angle_alpha 141.071782
_cell_angle_beta 54.937794
_cell_angle_gamma 106.456316
_cell_volume 725.743482
_symmetry_space_group_name_H-M "P -1"
_symmetry_group_IT_number 2
_symmetry_cell_setting 'triclinic'
loop_
_space_group_symop_operation_xyz
x,y,z
-x,-y,-z
loop_
_atom_site_type_symbol
_atom_site_label
_atom_site_fract_x
_atom_site_fract_y
_atom_site_fract_z
Si Si1 0.270578 0.886129 0.835047
Si Si2 0.089077 0.229506 0.302937
Si Si3 0.464329 0.601544 0.900281
Si Si4 0.794609 0.366899 0.645986
Si Si5 0.464091 0.159062 0.629563
Si Si6 0.318573 0.680238 0.808395
Si Si7 0.157246 0.311436 0.027030
Si Si8 0.930002 0.455220 0.150612
O O1 0.217665 0.755851 0.627643
O O2 0.425910 0.867761 0.631127
O O3 0.267668 0.851908 0.978006
O O4 0.170702 0.065065 0.112483
O O5 0.105818 0.220541 0.092715
O O6 0.145729 0.374215 0.490131
O O7 0.924391 0.271635 0.531327
O O8 0.398072 0.701069 0.925264
O O9 0.579328 0.437897 0.548246
O O10 0.344258 0.560373 0.046488
O O11 0.536136 0.699516 0.073462
O O12 0.837238 0.510484 0.708670
O O13 0.500000 0.000000 0.500000
O O14 0.314525 0.199543 0.718837
O O15 0.189344 0.621658 0.889012
O O16 0.051973 0.328531 0.991557
O O17 0.000000 0.500000 0.000000
#
# Coordination Sequence:
#
# PCOD8003697 Si02
#       8
#     2   2   2   2   2   2   2   2
#     4  11  22  36  60  95 124 163 200 265 314 359
#     4  11  21  37  59  92 127 161 204 258 309 365
#     4  10  23  41  66  88 122 170 211 257 305 368
#     4  10  20  37  60  89 121 161 215 250 302 369
#     4  11  22  41  63  92 128 158 213 262 307 361
#     4  11  22  42  65  91 126 165 211 250 311 379
#     4  11  21  39  66  91 120 169 208 254 305 365
#     4  11  24  42  65  92 124 165 208 252 307 377
#
# _framework density 22.046358999999999
#
# number of rings (size 3 to 8) (size 9 to 14) (size 15 to 20)
#    0.000    1.250    1.250    7.125    0.000    3.000 
#    2.250    1.875    0.000    0.000    0.000    0.000 
#    0.000    0.000    0.000    0.000    0.000    0.000 
#
# Total GULP energy -198386.436984 kJ/mol
# GULP energy per Si atom -12399.152312 kJ/mol
# Density = 2.199618 g / cm^3
# Si number density = 22.046359 Si / 1000 Ang^3
#
#
#
# Elastic Constant Matrix: (Units=GPa)
#
#
# Indices 1 2 3 4 5 6 
#
# 1 82.9745 28.8656 25.1349 -0.5842 -27.2450 -10.9541
# 2 28.8656 122.9451 17.8100 -2.5253 -14.0341 -19.6036
# 3 25.1349 17.8100 48.7304 -1.3410 -27.5134 -4.0966
# 4 -0.5842 -2.5253 -1.3410 31.4172 -7.6451 -10.7475
# 5 -27.2450 -14.0341 -27.5134 -7.6451 32.6702 -0.8045
# 6 -10.9541 -19.6036 -4.0966 -10.7475 -0.8045 39.9037
#
#
#
# Elastic Compliance Matrix: (Units=1/GPa)
#
#
# Indices 1 2 3 4 5 6 
#
# 1 0.019160 -0.001317 0.002318 0.007534 0.019307 0.007269
# 2 -0.001317 0.009879 -0.000049 0.003666 0.004099 0.005557
# 3 0.002318 -0.000049 0.045972 0.016552 0.044763 0.010692
# 4 0.007534 0.003666 0.016552 0.047625 0.033411 0.019069
# 5 0.019307 0.004099 0.044763 0.033411 0.094548 0.022814
# 6 0.007269 0.005557 0.010692 0.019069 0.022814 0.036479
#
#
# Mechanical properties :
#
#
# Convention : Reuss Voigt Hill
#
# Bulk Modulus (GPa) = 13.00142 44.25233 28.62688
# Shear Modulus (GPa) = 18.02467 32.98753 25.50610
#
# Velocity S-wave (km/s) = 2.86244 3.87237 3.40506
# Velocity P-wave (km/s) = 4.10303 6.33322 5.33594
#
# Compressibility (1/GPa) = 0.07691466
#
# Stress axis : x y z
#
# Youngs Moduli (GPa) = 52.19210 101.22274 21.75257
#
# Poissons Ratio (x) = 0.13326 -0.05041
# Poissons Ratio (y) = 0.06871 0.00107
# Poissons Ratio (z) = -0.12096 0.00497
#
# Static dielectric constant tensor:
#      x y z
#    x 4.045780 -0.055050 -0.264780 
#    y -0.055050 4.028360 -0.054370 
#    z -0.264780 -0.054370 3.926550 
# 
# 
# High freq. dielectric constant tensor:
#      x y z
#    x 1.872350 -0.002810 -0.026930 
#    y -0.002810 1.876790 -0.005060 
#    z -0.026930 -0.005060 1.848450 
# 
# From -- ./inp_files/271180.got.cif
#   From: 2010.06.25/outbox.cif.g09.slc.cpg/sg2_136_cif.got.tgz:271180.got - 2010.06.27 13:26:56.
