data_PCOD8003033
_publ_section_title
;
Structure prediction by ZEFSAII (Michael W. Deem and Ramdas Pophale) SiO2 
 PCOD8003033
Probable space group: P -1
;
_chemical_formula_sum "Si O2"
_cell_formula_units_Z 16
_cell_length_a 9.112643
_cell_length_b 14.327907
_cell_length_c 18.772918
_cell_angle_alpha 138.688114
_cell_angle_beta 30.128448
_cell_angle_gamma 136.578899
_cell_volume 790.151505
_symmetry_space_group_name_H-M "P -1"
_symmetry_group_IT_number 2
_symmetry_cell_setting 'triclinic'
loop_
_space_group_symop_operation_xyz
x,y,z
-x,-y,-z
loop_
_atom_site_type_symbol
_atom_site_label
_atom_site_fract_x
_atom_site_fract_y
_atom_site_fract_z
Si Si1 0.753974 0.767881 0.598572
Si Si2 0.108361 0.818277 0.913699
Si Si3 0.915125 0.063138 0.644050
Si Si4 0.785343 0.645585 0.361134
Si Si5 0.245882 0.448989 0.021176
Si Si6 0.356834 0.135265 0.974127
Si Si7 0.343250 0.577236 0.912830
Si Si8 0.260925 0.448848 0.401406
O O1 0.394630 0.751621 0.738583
O O2 0.842024 0.692727 0.446766
O O3 0.858581 0.696324 0.584606
O O4 0.923151 0.939878 0.629769
O O5 0.201286 0.986666 0.996811
O O6 0.914379 0.721622 0.001967
O O7 0.902535 0.802944 0.919965
O O8 0.577259 0.089616 0.796494
O O9 0.148102 0.218092 0.644159
O O10 0.000000 0.000000 0.500000
O O11 0.436174 0.568414 0.452214
O O12 0.998320 0.542173 0.189152
O O13 0.420960 0.481287 0.890760
O O14 0.500000 0.500000 0.000000
O O15 0.566122 0.252212 0.005287
O O16 0.510933 0.572774 0.766979
O O17 0.000000 0.500000 0.000000
O O18 0.000000 0.500000 0.500000
#
# Coordination Sequence:
#
# PCOD8003033 Si02
#       8
#     2   2   2   2   2   2   2   2
#     4  10  22  39  65  88 122 161 209 258 314 372
#     4  10  20  37  60  96 120 152 217 259 312 367
#     4   9  18  37  62  92 121 152 202 260 314 360
#     4  11  21  40  65  91 120 162 210 263 311 368
#     4  12  22  36  65  92 119 159 217 259 312 374
#     4  10  20  36  61  92 126 159 199 267 315 368
#     4  12  23  42  62  88 132 165 208 256 318 381
#     4  12  27  41  59  92 130 170 209 253 317 374
#
# _framework density 20.249281
#
# number of rings (size 3 to 8) (size 9 to 14) (size 15 to 20)
#    0.000    1.250    5.000    0.375    3.500    0.000 
#    0.000    7.500    0.000    0.000    0.000    0.000 
#    0.000    0.000    0.000    0.000    0.000    0.000 
#
# Total GULP energy -198211.436621 kJ/mol
# GULP energy per Si atom -12388.214789 kJ/mol
# Density = 2.020319 g / cm^3
# Si number density = 20.249281 Si / 1000 Ang^3
#
#
#
# Elastic Constant Matrix: (Units=GPa)
#
#
# Indices 1 2 3 4 5 6 
#
# 1 108.9096 53.2573 30.6122 1.8586 -4.6118 -15.5157
# 2 53.2573 186.1748 24.0515 -3.4902 4.1929 -22.5070
# 3 30.6122 24.0515 65.8010 -1.0017 1.0972 -9.0192
# 4 1.8586 -3.4902 -1.0017 22.7398 -6.3733 4.8017
# 5 -4.6118 4.1929 1.0972 -6.3733 33.3774 -6.2579
# 6 -15.5157 -22.5070 -9.0192 4.8017 -6.2579 43.6868
#
#
#
# Elastic Compliance Matrix: (Units=1/GPa)
#
#
# Indices 1 2 3 4 5 6 
#
# 1 0.012233 -0.002702 -0.004417 -0.001482 0.002369 0.002543
# 2 -0.002702 0.006527 -0.000824 0.000560 -0.000670 0.002075
# 3 -0.004417 -0.000824 0.017781 0.000497 -0.000711 0.001521
# 4 -0.001482 0.000560 0.000497 0.047321 0.007958 -0.004196
# 5 0.002369 -0.000670 -0.000711 0.007958 0.032694 0.004158
# 6 0.002543 0.002075 0.001521 -0.004196 0.004158 0.026233
#
#
# Mechanical properties :
#
#
# Convention : Reuss Voigt Hill
#
# Bulk Modulus (GPa) = 48.41635 64.08079 56.24857
# Shear Modulus (GPa) = 30.20017 36.82511 33.51264
#
# Velocity S-wave (km/s) = 3.86608 4.26912 4.07259
# Velocity P-wave (km/s) = 6.62502 7.48433 7.06774
#
# Compressibility (1/GPa) = 0.02065418
#
# Stress axis : x y z
#
# Youngs Moduli (GPa) = 81.74802 153.20152 56.23863
#
# Poissons Ratio (x) = 0.41402 0.24839
# Poissons Ratio (y) = 0.22092 0.04637
# Poissons Ratio (z) = 0.36106 0.12631
#
# Static dielectric constant tensor:
#      x y z
#    x 3.403700 0.083730 -0.910360 
#    y 0.083730 1.350230 7.219800 
#    z -0.910360 7.219800 -12.515130 
# 
# 
# High freq. dielectric constant tensor:
#      x y z
#    x 1.761260 -0.014910 -0.004080 
#    y -0.014910 1.821050 -0.011070 
#    z -0.004080 -0.011070 1.779890 
# 
# From -- ./inp_files/561380.got.cif
#   From: 2010.06.25/outbox.cif.g09.slc.cpg/sg2_281_cif.got.tgz:561380.got - 2010.06.27 13:26:56.
