data_PCOD8003464
_publ_section_title
;
Structure prediction by ZEFSAII (Michael W. Deem and Ramdas Pophale) SiO2 
 PCOD8003464
Probable space group: P -1
;
_chemical_formula_sum "Si O2"
_cell_formula_units_Z 16
_cell_length_a 17.327867
_cell_length_b 17.169781
_cell_length_c 8.441091
_cell_angle_alpha 54.188841
_cell_angle_beta 54.232811
_cell_angle_gamma 22.999404
_cell_volume 787.348137
_symmetry_space_group_name_H-M "P -1"
_symmetry_group_IT_number 2
_symmetry_cell_setting 'triclinic'
loop_
_space_group_symop_operation_xyz
x,y,z
-x,-y,-z
loop_
_atom_site_type_symbol
_atom_site_label
_atom_site_fract_x
_atom_site_fract_y
_atom_site_fract_z
Si Si1 0.987468 0.166502 0.037445
Si Si2 0.031617 0.159624 0.642620
Si Si3 0.768743 0.571731 0.493692
Si Si4 0.360239 0.844354 0.201258
Si Si5 0.624835 0.030162 0.688474
Si Si6 0.884402 0.621656 0.832608
Si Si7 0.732402 0.574104 0.889151
Si Si8 0.857959 0.099716 0.411415
O O1 0.822795 0.229935 0.201356
O O2 0.050057 0.093059 0.869535
O O3 0.912157 0.341120 0.936215
O O4 0.174444 0.994773 0.131590
O O5 0.836898 0.401908 0.573289
O O6 0.233940 0.039604 0.519959
O O7 0.016579 0.089076 0.616183
O O8 0.680691 0.658445 0.674482
O O9 0.962206 0.468176 0.370113
O O10 0.602797 0.754748 0.350961
O O11 0.348778 0.764953 0.436045
O O12 0.349709 0.952506 0.184326
O O13 0.553754 0.672478 0.064413
O O14 0.691885 0.859657 0.813185
O O15 0.797422 0.601249 0.893083
O O16 0.000000 0.500000 0.000000
O O17 0.000000 0.000000 0.500000
#
# Coordination Sequence:
#
# PCOD8003464 Si02
#       8
#     2   2   2   2   2   2   2   2
#     4  10  20  37  58  81 113 148 186 230 278 327
#     4   9  19  37  59  83 112 146 185 229 275 329
#     4  10  22  39  58  83 113 146 186 228 277 330
#     4  10  21  36  56  83 112 145 187 229 276 330
#     4  10  21  37  58  83 113 149 184 228 277 327
#     4  11  23  38  58  84 113 146 187 229 276 330
#     4  11  23  37  57  83 112 149 187 230 276 328
#     4   9  19  35  58  84 112 147 183 228 280 328
#
# _framework density 20.321379
#
# number of rings (size 3 to 8) (size 9 to 14) (size 15 to 20)
#    0.000    2.000    0.000    3.000    0.000    8.000 
#    0.000    3.750    0.000   13.500    0.000    0.000 
#    0.000    0.000    0.000    0.000    0.000    0.000 
#
# Total GULP energy -198343.408060 kJ/mol
# GULP energy per Si atom -12396.463004 kJ/mol
# Density = 2.027513 g / cm^3
# Si number density = 20.321379 Si / 1000 Ang^3
#
#
#
# Elastic Constant Matrix: (Units=GPa)
#
#
# Indices 1 2 3 4 5 6 
#
# 1 117.1373 31.6577 33.2165 -2.0966 1.2567 8.1487
# 2 31.6577 68.6287 24.4634 0.4528 5.2094 -8.1402
# 3 33.2165 24.4634 96.4346 10.9744 6.7885 1.7203
# 4 -2.0966 0.4528 10.9744 38.7406 3.2067 0.3068
# 5 1.2567 5.2094 6.7885 3.2067 30.7730 -0.1166
# 6 8.1487 -8.1402 1.7203 0.3068 -0.1166 23.0494
#
#
#
# Elastic Compliance Matrix: (Units=1/GPa)
#
#
# Indices 1 2 3 4 5 6 
#
# 1 0.010994 -0.004827 -0.002680 0.001388 0.000794 -0.005406
# 2 -0.004827 0.019164 -0.003252 0.000562 -0.002355 0.008698
# 3 -0.002680 -0.003252 0.012665 -0.003539 -0.001769 -0.001108
# 4 0.001388 0.000562 -0.003539 0.027069 -0.002193 -0.000399
# 5 0.000794 -0.002355 -0.001769 -0.002193 0.033478 -0.000782
# 6 -0.005406 0.008698 -0.001108 -0.000399 -0.000782 0.048452
#
#
# Mechanical properties :
#
#
# Convention : Reuss Voigt Hill
#
# Bulk Modulus (GPa) = 46.93729 51.20842 49.07286
# Shear Modulus (GPa) = 27.71008 31.37013 29.54010
#
# Velocity S-wave (km/s) = 3.69669 3.93326 3.81681
# Velocity P-wave (km/s) = 6.43182 6.77358 6.60491
#
# Compressibility (1/GPa) = 0.02130502
#
# Stress axis : x y z
#
# Youngs Moduli (GPa) = 90.96123 52.18211 78.95864
#
# Poissons Ratio (x) = 0.25187 0.21158
# Poissons Ratio (y) = 0.43904 0.25679
# Poissons Ratio (z) = 0.24375 0.16971
#
# Static dielectric constant tensor:
#      x y z
#    x 3.734290 0.127190 -0.184020 
#    y 0.127190 3.538200 0.231280 
#    z -0.184020 0.231280 4.343060 
# 
# 
# High freq. dielectric constant tensor:
#      x y z
#    x 1.797090 0.010490 -0.001080 
#    y 0.010490 1.772620 0.013390 
#    z -0.001080 0.013390 1.814860 
# 
# From -- ./inp_files/38082.got.cif
#   From: 2010.06.25/outbox.cif.g09.slc.cpg/sg2_20_cif.got.tgz:38082.got - 2010.06.27 13:26:56.
