data_PCOD8003552
_publ_section_title
;
Structure prediction by ZEFSAII (Michael W. Deem and Ramdas Pophale) SiO2 
 PCOD8003552
Probable space group: P -1
;
_chemical_formula_sum "Si O2"
_cell_formula_units_Z 16
_cell_length_a 6.544167
_cell_length_b 15.226364
_cell_length_c 14.761495
_cell_angle_alpha 38.888856
_cell_angle_beta 58.920330
_cell_angle_gamma 71.439007
_cell_volume 781.288419
_symmetry_space_group_name_H-M "P -1"
_symmetry_group_IT_number 2
_symmetry_cell_setting 'triclinic'
loop_
_space_group_symop_operation_xyz
x,y,z
-x,-y,-z
loop_
_atom_site_type_symbol
_atom_site_label
_atom_site_fract_x
_atom_site_fract_y
_atom_site_fract_z
Si Si1 0.268440 0.428226 0.223025
Si Si2 0.209617 0.597854 0.927081
Si Si3 0.217250 0.957385 0.105214
Si Si4 0.365327 0.772604 0.360043
Si Si5 0.937189 0.147044 0.488890
Si Si6 0.770200 0.082121 0.379749
Si Si7 0.900946 0.800728 0.155002
Si Si8 0.042544 0.507241 0.593352
O O1 0.552921 0.426833 0.162777
O O2 0.150318 0.279566 0.326443
O O3 0.175317 0.447784 0.332242
O O4 0.213710 0.552270 0.068141
O O5 0.185128 0.764314 0.801568
O O6 0.000000 0.500000 0.000000
O O7 0.180991 0.864659 0.277989
O O8 0.124089 0.857243 0.122666
O O9 0.500000 0.000000 0.000000
O O10 0.089147 0.099294 0.017598
O O11 0.295263 0.797889 0.458093
O O12 0.650153 0.818230 0.248191
O O13 0.290201 0.612227 0.471405
O O14 0.830731 0.097156 0.458242
O O15 0.042500 0.018791 0.619862
O O16 0.500000 0.000000 0.500000
O O17 0.913361 0.641022 0.255476
O O18 0.000000 0.500000 0.500000
#
# Coordination Sequence:
#
# PCOD8003552 Si02
#       8
#     2   2   2   2   2   2   2   2
#     4  10  23  41  64  92 127 162 206 259 307 378
#     4  11  22  43  66  92 126 165 207 256 325 368
#     4   9  19  37  58  78 113 159 200 251 297 347
#     4  10  21  38  60  87 123 159 199 254 304 366
#     4  10  22  38  60  95 120 154 207 251 313 375
#     4  11  22  39  66  90 121 158 203 264 310 376
#     4  10  20  37  59  84 117 162 204 248 303 360
#     4  11  22  40  62  93 126 162 208 254 304 364
#
# _framework density 20.478992999999999
#
# number of rings (size 3 to 8) (size 9 to 14) (size 15 to 20)
#    0.000    1.750    3.750    0.375    0.000    3.000 
#    2.250    6.250    0.000    0.000    0.000    0.000 
#    0.000    0.000    0.000    0.000    0.000    0.000 
#
# Total GULP energy -198230.360981 kJ/mol
# GULP energy per Si atom -12389.397561 kJ/mol
# Density = 2.043238 g / cm^3
# Si number density = 20.478993 Si / 1000 Ang^3
#
#
#
# Elastic Constant Matrix: (Units=GPa)
#
#
# Indices 1 2 3 4 5 6 
#
# 1 107.9674 42.4724 37.9551 -9.0842 -15.5098 1.7822
# 2 42.4724 90.0360 38.5542 -13.2917 -4.4028 1.8249
# 3 37.9551 38.5542 103.0248 -33.3569 0.0819 -1.9218
# 4 -9.0842 -13.2917 -33.3569 45.6381 -6.8932 3.1901
# 5 -15.5098 -4.4028 0.0819 -6.8932 38.0073 -6.3199
# 6 1.7822 1.8249 -1.9218 3.1901 -6.3199 21.8519
#
#
#
# Elastic Compliance Matrix: (Units=1/GPa)
#
#
# Indices 1 2 3 4 5 6 
#
# 1 0.012779 -0.004522 -0.003136 -0.000388 0.004707 0.000478
# 2 -0.004522 0.014961 -0.003690 0.000829 -0.000183 -0.001379
# 3 -0.003136 -0.003690 0.015319 0.009470 0.000068 0.000549
# 4 -0.000388 0.000829 0.009470 0.029899 0.004986 -0.002127
# 5 0.004707 -0.000183 0.000068 0.004986 0.030395 0.007700
# 6 0.000478 -0.001379 0.000549 -0.002127 0.007700 0.048425
#
#
# Mechanical properties :
#
#
# Convention : Reuss Voigt Hill
#
# Bulk Modulus (GPa) = 49.10945 59.88797 54.49871
# Shear Modulus (GPa) = 27.58445 33.23592 30.41018
#
# Velocity S-wave (km/s) = 3.67408 4.03293 3.85768
# Velocity P-wave (km/s) = 6.48313 7.14095 6.81997
#
# Compressibility (1/GPa) = 0.02036268
#
# Stress axis : x y z
#
# Youngs Moduli (GPa) = 78.25319 66.83876 65.27892
#
# Poissons Ratio (x) = 0.30225 0.20472
# Poissons Ratio (y) = 0.35387 0.24089
# Poissons Ratio (z) = 0.24541 0.24664
#
# Static dielectric constant tensor:
#      x y z
#    x 3.988000 -0.212140 0.153810 
#    y -0.212140 3.704720 -0.250030 
#    z 0.153810 -0.250030 4.355550 
# 
# 
# High freq. dielectric constant tensor:
#      x y z
#    x 1.807280 -0.002840 0.000250 
#    y -0.002840 1.784500 -0.023450 
#    z 0.000250 -0.023450 1.814500 
# 
# From -- ./inp_files/98388.got.cif
#   From: 2010.06.25/outbox.cif.g09.slc.cpg/sg2_50_cif.got.tgz:98388.got - 2010.06.27 13:26:56.
