data_PCOD8003630
_publ_section_title
;
Structure prediction by ZEFSAII (Michael W. Deem and Ramdas Pophale) SiO2 
 PCOD8003630
Probable space group: P -1
;
_chemical_formula_sum "Si O2"
_cell_formula_units_Z 16
_cell_length_a 16.433299
_cell_length_b 7.625675
_cell_length_c 19.632939
_cell_angle_alpha 44.305269
_cell_angle_beta 29.392255
_cell_angle_gamma 61.351920
_cell_volume 765.287318
_symmetry_space_group_name_H-M "P -1"
_symmetry_group_IT_number 2
_symmetry_cell_setting 'triclinic'
loop_
_space_group_symop_operation_xyz
x,y,z
-x,-y,-z
loop_
_atom_site_type_symbol
_atom_site_label
_atom_site_fract_x
_atom_site_fract_y
_atom_site_fract_z
Si Si1 0.837357 0.241864 0.560848
Si Si2 0.040127 0.891338 0.251288
Si Si3 0.734440 0.272504 0.028691
Si Si4 0.043578 0.113906 0.328768
Si Si5 0.026204 0.031677 0.076207
Si Si6 0.676751 0.039250 0.277512
Si Si7 0.440615 0.128823 0.847645
Si Si8 0.629931 0.442465 0.302138
O O1 0.623690 0.173636 0.741448
O O2 0.959535 0.563073 0.394721
O O3 0.884603 0.146187 0.479878
O O4 0.879383 0.079141 0.635971
O O5 0.965739 0.979049 0.349380
O O6 0.979708 0.024111 0.193415
O O7 0.262006 0.011182 0.059249
O O8 0.647518 0.183456 0.191245
O O9 0.587238 0.091183 0.131045
O O10 0.785898 0.592037 0.889010
O O11 0.918342 0.222122 0.904742
O O12 0.863367 0.997101 0.153884
O O13 0.197992 0.319224 0.852815
O O14 0.694036 0.236217 0.273406
O O15 0.512239 0.736148 0.487131
O O16 0.468018 0.423728 0.714334
#
# Coordination Sequence:
#
# PCOD8003630 Si02
#       8
#     2   2   2   2   2   2   2   2
#     4  11  23  44  65  93 127 162 210 257 317 369
#     4  10  21  44  64  93 129 161 208 260 309 367
#     4  10  21  40  58  91 124 160 208 252 304 367
#     4  11  23  42  67  94 125 163 210 261 306 380
#     4  10  20  37  60  82 124 164 194 253 306 356
#     4  11  20  37  58  85 122 160 206 249 299 364
#     4  10  22  42  63  86 131 166 198 268 308 364
#     4   9  21  35  55  85 116 157 205 251 294 363
#
# _framework density 20.907181999999999
#
# number of rings (size 3 to 8) (size 9 to 14) (size 15 to 20)
#    0.000    2.000    2.500    3.375    0.000    3.000 
#   11.250    0.000    0.000    0.000    0.000    0.000 
#    0.000    0.000    0.000    0.000    0.000    0.000 
#
# Total GULP energy -198397.705438 kJ/mol
# GULP energy per Si atom -12399.856590 kJ/mol
# Density = 2.085960 g / cm^3
# Si number density = 20.907182 Si / 1000 Ang^3
#
#
#
# Elastic Constant Matrix: (Units=GPa)
#
#
# Indices 1 2 3 4 5 6 
#
# 1 43.6872 2.8962 27.5494 -4.5977 6.2497 6.8001
# 2 2.8962 50.4188 24.9664 -14.1499 -7.7679 5.2295
# 3 27.5494 24.9664 109.5666 -20.1236 4.2839 -3.4052
# 4 -4.5977 -14.1499 -20.1236 33.7405 -1.9798 9.1400
# 5 6.2497 -7.7679 4.2839 -1.9798 19.1160 4.7438
# 6 6.8001 5.2295 -3.4052 9.1400 4.7438 25.3051
#
#
#
# Elastic Compliance Matrix: (Units=1/GPa)
#
#
# Indices 1 2 3 4 5 6 
#
# 1 0.030216 0.003790 -0.007990 0.003611 -0.003539 -0.010619
# 2 0.003790 0.032353 -0.006687 0.016150 0.019572 -0.018107
# 3 -0.007990 -0.006687 0.013437 0.002460 -0.004159 0.005228
# 4 0.003611 0.016150 0.002460 0.045587 0.015339 -0.023318
# 5 -0.003539 0.019572 -0.004159 0.015339 0.069456 -0.022214
# 6 -0.010619 -0.018107 0.005228 -0.023318 -0.022214 0.059403
#
#
# Mechanical properties :
#
#
# Convention : Reuss Voigt Hill
#
# Bulk Modulus (GPa) = 18.43894 34.94405 26.69149
# Shear Modulus (GPa) = 17.22339 25.51637 21.36988
#
# Velocity S-wave (km/s) = 2.87331 3.49730 3.20055
# Velocity P-wave (km/s) = 4.45494 5.74964 5.14319
#
# Compressibility (1/GPa) = 0.05423307
#
# Stress axis : x y z
#
# Youngs Moduli (GPa) = 33.09480 30.90861 74.42395
#
# Poissons Ratio (x) = -0.11715 0.59463
# Poissons Ratio (y) = -0.12544 0.49768
# Poissons Ratio (z) = 0.26442 0.20669
#
# Static dielectric constant tensor:
#      x y z
#    x 3.538610 0.075590 0.203370 
#    y 0.075590 3.775520 -0.077840 
#    z 0.203370 -0.077840 3.854160 
# 
# 
# High freq. dielectric constant tensor:
#      x y z
#    x 1.799370 0.008190 0.012740 
#    y 0.008190 1.820560 -0.012290 
#    z 0.012740 -0.012290 1.823690 
# 
# From -- ./inp_files/599174.got.cif
#   From: 2010.06.25/outbox.cif.g09.slc.cpg/sg2_300_cif.got.tgz:599174.got - 2010.06.27 13:26:56.
