data_PCOD8003822
_publ_section_title
;
Structure prediction by ZEFSAII (Michael W. Deem and Ramdas Pophale) SiO2 
 PCOD8003822
Probable space group: P -1
;
_chemical_formula_sum "Si O2"
_cell_formula_units_Z 16
_cell_length_a 8.531659
_cell_length_b 20.448474
_cell_length_c 14.464787
_cell_angle_alpha 19.754131
_cell_angle_beta 84.394393
_cell_angle_gamma 75.162096
_cell_volume 740.889218
_symmetry_space_group_name_H-M "P -1"
_symmetry_group_IT_number 2
_symmetry_cell_setting 'triclinic'
loop_
_space_group_symop_operation_xyz
x,y,z
-x,-y,-z
loop_
_atom_site_type_symbol
_atom_site_label
_atom_site_fract_x
_atom_site_fract_y
_atom_site_fract_z
Si Si1 0.152730 0.538331 0.897012
Si Si2 0.747625 0.430412 0.830778
Si Si3 0.971775 0.048886 0.215205
Si Si4 0.918345 0.493455 0.261862
Si Si5 0.197739 0.047251 0.808052
Si Si6 0.609493 0.723318 0.610949
Si Si7 0.546684 0.654725 0.356447
Si Si8 0.734017 0.818312 0.991101
O O1 0.179771 0.464115 0.887951
O O2 0.101067 0.794171 0.570739
O O3 0.335174 0.390561 0.140264
O O4 0.000000 0.500000 0.000000
O O5 0.615447 0.537597 0.784318
O O6 0.633838 0.560119 0.575194
O O7 0.926563 0.441182 0.829996
O O8 0.830745 0.168732 0.149856
O O9 0.079593 0.179720 0.009622
O O10 0.853052 0.093872 0.070451
O O11 0.019597 0.227626 0.634148
O O12 0.757508 0.643690 0.141113
O O13 0.255943 0.191471 0.546825
O O14 0.357497 0.880598 0.087221
O O15 0.412611 0.930829 0.358724
O O16 0.500000 0.500000 0.500000
O O17 0.680812 0.727408 0.204442
#
# Coordination Sequence:
#
# PCOD8003822 Si02
#       8
#     2   2   2   2   2   2   2   2
#     4  11  19  39  68  89 120 163 202 240 300 363
#     4  10  20  38  62  90 119 155 212 244 296 362
#     4  10  20  37  61  90 124 153 199 253 296 357
#     4   9  20  38  61  89 124 159 194 249 302 355
#     4   9  18  38  61  86 121 157 204 238 296 362
#     4  10  21  39  64  88 123 160 198 255 291 359
#     4  11  22  40  65  88 118 165 204 249 301 358
#     4  10  24  41  58  92 129 152 199 262 300 347
#
# _framework density 21.595670999999999
#
# number of rings (size 3 to 8) (size 9 to 14) (size 15 to 20)
#    0.000    2.000    5.000    0.000    0.000    8.000 
#    4.500    0.625    0.000    0.000    0.000    0.000 
#    0.000    0.000    0.000    0.000    0.000    0.000 
#
# Total GULP energy -198211.290390 kJ/mol
# GULP energy per Si atom -12388.205649 kJ/mol
# Density = 2.154652 g / cm^3
# Si number density = 21.595671 Si / 1000 Ang^3
#
#
#
# Elastic Constant Matrix: (Units=GPa)
#
#
# Indices 1 2 3 4 5 6 
#
# 1 36.1767 27.8652 25.2911 -10.3865 0.7054 0.0698
# 2 27.8652 122.0485 46.6383 -26.0944 25.3076 14.3045
# 3 25.2911 46.6383 84.9123 -3.7137 20.1661 12.8895
# 4 -10.3865 -26.0944 -3.7137 43.7382 0.8275 4.5218
# 5 0.7054 25.3076 20.1661 0.8275 35.0619 -2.9065
# 6 0.0698 14.3045 12.8895 4.5218 -2.9065 23.7745
#
#
#
# Elastic Compliance Matrix: (Units=1/GPa)
#
#
# Indices 1 2 3 4 5 6 
#
# 1 0.044751 -0.009206 -0.013883 0.002193 0.014866 0.014335
# 2 -0.009206 0.016843 -0.001175 0.009322 -0.012576 -0.012780
# 3 -0.013883 -0.001175 0.021229 -0.000716 -0.012069 -0.012101
# 4 0.002193 0.009322 -0.000716 0.030275 -0.008068 -0.011972
# 5 0.014866 -0.012576 -0.012069 -0.008068 0.046193 0.021248
# 6 0.014335 -0.012780 -0.012101 -0.011972 0.021248 0.061145
#
#
# Mechanical properties :
#
#
# Convention : Reuss Voigt Hill
#
# Bulk Modulus (GPa) = 29.15867 49.19186 39.17526
# Shear Modulus (GPa) = 17.83199 30.07110 23.95155
#
# Velocity S-wave (km/s) = 2.87665 3.73562 3.33391
# Velocity P-wave (km/s) = 4.95630 6.43696 5.74454
#
# Compressibility (1/GPa) = 0.03429512
#
# Stress axis : x y z
#
# Youngs Moduli (GPa) = 22.34594 59.37273 47.10486
#
# Poissons Ratio (x) = 0.54658 0.65398
# Poissons Ratio (y) = 0.20571 0.05533
# Poissons Ratio (z) = 0.31024 0.06974
#
# Static dielectric constant tensor:
#      x y z
#    x 3.748720 0.136810 0.234170 
#    y 0.136810 4.347820 -0.487760 
#    z 0.234170 -0.487760 4.274380 
# 
# 
# High freq. dielectric constant tensor:
#      x y z
#    x 1.832910 0.019900 0.018350 
#    y 0.019900 1.843960 -0.027820 
#    z 0.018350 -0.027820 1.852390 
# 
# From -- ./inp_files/297643.got.cif
#   From: 2010.06.25/outbox.cif.g09.slc.cpg/sg2_149_cif.got.tgz:297643.got - 2010.06.27 13:26:56.
