data_PCOD8003213
_publ_section_title
;
Structure prediction by ZEFSAII (Michael W. Deem and Ramdas Pophale) SiO2 
 PCOD8003213
Probable space group: P -1
;
_chemical_formula_sum "Si O2"
_cell_formula_units_Z 16
_cell_length_a 9.624787
_cell_length_b 8.602844
_cell_length_c 11.765393
_cell_angle_alpha 93.452059
_cell_angle_beta 56.133984
_cell_angle_gamma 98.341582
_cell_volume 800.094301
_symmetry_space_group_name_H-M "P -1"
_symmetry_group_IT_number 2
_symmetry_cell_setting 'triclinic'
loop_
_space_group_symop_operation_xyz
x,y,z
-x,-y,-z
loop_
_atom_site_type_symbol
_atom_site_label
_atom_site_fract_x
_atom_site_fract_y
_atom_site_fract_z
Si Si1 0.489010 0.293191 0.862833
Si Si2 0.144288 0.340011 0.744740
Si Si3 0.191919 0.052144 0.058704
Si Si4 0.162308 0.011484 0.816789
Si Si5 0.588426 0.775184 0.531291
Si Si6 0.236283 0.726859 0.086670
Si Si7 0.362618 0.577126 0.804996
Si Si8 0.529325 0.093735 0.620731
O O1 0.637751 0.340843 0.886331
O O2 0.450739 0.449343 0.827239
O O3 0.549334 0.174144 0.737514
O O4 0.325192 0.209278 0.003148
O O5 0.152436 0.198922 0.823699
O O6 0.249963 0.308002 0.581958
O O7 0.219995 0.499899 0.779909
O O8 0.951870 0.352637 0.798559
O O9 0.255053 0.917076 0.102607
O O10 0.161310 0.966099 0.947093
O O11 0.999542 0.084309 0.181131
O O12 0.343478 0.986073 0.682551
O O13 0.503854 0.682166 0.672485
O O14 0.462021 0.776030 0.478428
O O15 0.651315 0.958562 0.547397
O O16 0.279246 0.684443 0.936470
#
# Coordination Sequence:
#
# PCOD8003213 Si02
#       8
#     2   2   2   2   2   2   2   2
#     4  11  21  37  55  84 121 150 182 233 289 340
#     4  10  20  38  57  85 114 147 191 240 274 327
#     4   9  16  31  54  76 110 145 183 224 278 319
#     4   8  14  29  53  81 106 136 180 237 269 310
#     4  10  20  36  64  86 106 146 195 239 275 330
#     4  11  24  36  56  85 118 153 187 229 285 340
#     4  12  21  37  60  83 113 152 193 229 282 334
#     4   9  18  36  60  86 109 141 194 237 280 329
#
# _framework density 19.997641999999999
#
# number of rings (size 3 to 8) (size 9 to 14) (size 15 to 20)
#    0.000    2.000    3.750    3.000    0.000    0.000 
#    2.250    1.250    0.000    1.500    0.000    0.000 
#    0.000    0.000    0.000    0.000    0.000    0.000 
#
# Total GULP energy -198246.108021 kJ/mol
# GULP energy per Si atom -12390.381751 kJ/mol
# Density = 1.995213 g / cm^3
# Si number density = 19.997642 Si / 1000 Ang^3
#
#
#
# Elastic Constant Matrix: (Units=GPa)
#
#
# Indices 1 2 3 4 5 6 
#
# 1 90.9230 29.7428 34.6079 -1.5467 -15.9086 -3.2984
# 2 29.7428 62.5471 32.7247 -10.2278 -4.7407 -3.5137
# 3 34.6079 32.7247 96.2185 2.1368 -12.5305 6.3486
# 4 -1.5467 -10.2278 2.1368 29.6026 0.1527 6.1718
# 5 -15.9086 -4.7407 -12.5305 0.1527 14.7853 0.4226
# 6 -3.2984 -3.5137 6.3486 6.1718 0.4226 15.7315
#
#
#
# Elastic Compliance Matrix: (Units=1/GPa)
#
#
# Indices 1 2 3 4 5 6 
#
# 1 0.016164 -0.005503 -0.002366 -0.001666 0.013542 0.003405
# 2 -0.005503 0.023371 -0.006997 0.007464 -0.004551 0.004084
# 3 -0.002366 -0.006997 0.015266 -0.002097 0.008388 -0.007622
# 4 -0.001666 0.007464 -0.002097 0.039177 -0.001204 -0.013173
# 5 0.013542 -0.004551 0.008388 -0.001204 0.087965 -0.003453
# 6 0.003405 0.004084 -0.007622 -0.013173 -0.003453 0.073530
#
#
# Mechanical properties :
#
#
# Convention : Reuss Voigt Hill
#
# Bulk Modulus (GPa) = 39.89273 49.31548 44.60411
# Shear Modulus (GPa) = 17.03227 22.19810 19.61519
#
# Velocity S-wave (km/s) = 2.92158 3.33533 3.13529
# Velocity P-wave (km/s) = 5.60115 6.28862 5.95482
#
# Compressibility (1/GPa) = 0.02506722
#
# Stress axis : x y z
#
# Youngs Moduli (GPa) = 61.86725 42.78866 65.50621
#
# Poissons Ratio (x) = 0.23546 0.15501
# Poissons Ratio (y) = 0.34045 0.45836
# Poissons Ratio (z) = 0.14640 0.29940
#
# Static dielectric constant tensor:
#      x y z
#    x 3.508100 -0.101480 -0.252620 
#    y -0.101480 3.490010 -0.050980 
#    z -0.252620 -0.050980 3.803460 
# 
# 
# High freq. dielectric constant tensor:
#      x y z
#    x 1.748980 -0.014840 -0.011220 
#    y -0.014840 1.770900 -0.007030 
#    z -0.011220 -0.007030 1.779480 
# 
# From -- ./inp_files/382225.got.cif
#   From: 2010.06.25/outbox.cif.g09.slc.cpg/sg2_192_cif.got.tgz:382225.got - 2010.06.27 13:26:56.
