data_PCOD8003516
_publ_section_title
;
Structure prediction by ZEFSAII (Michael W. Deem and Ramdas Pophale) SiO2 
 PCOD8003516
Probable space group: P -1
;
_chemical_formula_sum "Si O2"
_cell_formula_units_Z 16
_cell_length_a 14.383453
_cell_length_b 15.042068
_cell_length_c 12.019623
_cell_angle_alpha 140.731962
_cell_angle_beta 29.585788
_cell_angle_gamma 142.603045
_cell_volume 749.070720
_symmetry_space_group_name_H-M "P -1"
_symmetry_group_IT_number 2
_symmetry_cell_setting 'triclinic'
loop_
_space_group_symop_operation_xyz
x,y,z
-x,-y,-z
loop_
_atom_site_type_symbol
_atom_site_label
_atom_site_fract_x
_atom_site_fract_y
_atom_site_fract_z
Si Si1 0.523084 0.085806 0.233376
Si Si2 0.549652 0.377154 0.602707
Si Si3 0.172230 0.641500 0.517199
Si Si4 0.891324 0.800500 0.020758
Si Si5 0.759909 0.948836 0.706605
Si Si6 0.918438 0.858886 0.793650
Si Si7 0.696957 0.200119 0.683829
Si Si8 0.414446 0.305584 0.195030
O O1 0.604134 0.259955 0.356281
O O2 0.325414 0.043489 0.319010
O O3 0.453009 0.975840 0.307729
O O4 0.706216 0.061668 0.954489
O O5 0.693633 0.419109 0.602043
O O6 0.314737 0.312941 0.819209
O O7 0.593190 0.529113 0.633153
O O8 0.324915 0.755131 0.377702
O O9 0.000000 0.500000 0.500000
O O10 0.065176 0.732773 0.788759
O O11 0.846750 0.818361 0.955449
O O12 0.964764 0.959456 0.163778
O O13 0.658581 0.774738 0.688027
O O14 0.000000 0.000000 0.500000
O O15 0.723764 0.801238 0.861891
O O16 0.068211 0.776759 0.519248
O O17 0.640721 0.310620 0.934707
#
# Coordination Sequence:
#
# PCOD8003516 Si02
#       8
#     2   2   2   2   2   2   2   2
#     4  10  23  41  64  92 117 155 208 259 311 364
#     4  12  24  40  61  95 131 162 202 256 299 369
#     4  11  24  37  58  93 135 171 203 243 299 360
#     4  10  22  35  60  89 127 167 207 247 291 357
#     4  10  23  44  67  88 115 156 205 266 314 372
#     4  10  20  37  58  91 122 166 213 244 287 363
#     4  10  20  39  61  86 126 164 204 247 295 364
#     4  11  24  38  65  88 123 166 202 251 320 356
#
# _framework density 21.359797
#
# number of rings (size 3 to 8) (size 9 to 14) (size 15 to 20)
#    0.000    1.500    1.250    3.750    3.500    2.500 
#    0.000    0.625    0.000    0.000    0.000    0.000 
#    0.000    0.000    0.000    0.000    0.000    0.000 
#
# Total GULP energy -198446.891261 kJ/mol
# GULP energy per Si atom -12402.930704 kJ/mol
# Density = 2.131118 g / cm^3
# Si number density = 21.359797 Si / 1000 Ang^3
#
#
#
# Elastic Constant Matrix: (Units=GPa)
#
#
# Indices 1 2 3 4 5 6 
#
# 1 48.8173 41.3462 34.9804 0.8417 -2.1096 -7.1907
# 2 41.3462 122.7034 59.8704 14.6068 -0.2382 -15.6853
# 3 34.9804 59.8704 114.7591 -1.3701 -8.9490 -9.3138
# 4 0.8417 14.6068 -1.3701 37.7535 -0.5955 -4.1439
# 5 -2.1096 -0.2382 -8.9490 -0.5955 25.1073 4.2545
# 6 -7.1907 -15.6853 -9.3138 -4.1439 4.2545 32.7489
#
#
#
# Elastic Compliance Matrix: (Units=1/GPa)
#
#
# Indices 1 2 3 4 5 6 
#
# 1 0.031233 -0.008113 -0.005076 0.002461 0.000496 0.001776
# 2 -0.008113 0.014413 -0.005070 -0.005253 -0.003055 0.003412
# 3 -0.005076 -0.005070 0.013275 0.002625 0.004319 0.000003
# 4 0.002461 -0.005253 0.002625 0.028828 0.001397 0.002237
# 5 0.000496 -0.003055 0.004319 0.001397 0.042338 -0.005449
# 6 0.001776 0.003412 0.000003 0.002237 -0.005449 0.033551
#
#
# Mechanical properties :
#
#
# Convention : Reuss Voigt Hill
#
# Bulk Modulus (GPa) = 44.63676 62.07486 53.35581
# Shear Modulus (GPa) = 24.08197 29.12746 26.60471
#
# Velocity S-wave (km/s) = 3.36139 3.69678 3.53307
# Velocity P-wave (km/s) = 6.00068 6.88086 6.45579
#
# Compressibility (1/GPa) = 0.02240306
#
# Stress axis : x y z
#
# Youngs Moduli (GPa) = 32.01702 69.38165 75.33080
#
# Poissons Ratio (x) = 0.56288 0.38236
# Poissons Ratio (y) = 0.25975 0.38196
# Poissons Ratio (z) = 0.16251 0.35180
#
# Static dielectric constant tensor:
#      x y z
#    x 3.750010 -0.293390 -0.139710 
#    y -0.293390 3.818950 0.065280 
#    z -0.139710 0.065280 3.978180 
# 
# 
# High freq. dielectric constant tensor:
#      x y z
#    x 1.820740 -0.018540 -0.017900 
#    y -0.018540 1.832670 0.000470 
#    z -0.017900 0.000470 1.849360 
# 
# From -- ./inp_files/226738.got.cif
#   From: 2010.06.25/outbox.cif.g09.slc.cpg/sg2_114_cif.got.tgz:226738.got - 2010.06.27 13:26:56.
