data_PCOD8003200
_publ_section_title
;
Structure prediction by ZEFSAII (Michael W. Deem and Ramdas Pophale) SiO2 
 PCOD8003200
Probable space group: P -1
;
_chemical_formula_sum "Si O2"
_cell_formula_units_Z 14
_cell_length_a 14.613233
_cell_length_b 12.163904
_cell_length_c 8.718040
_cell_angle_alpha 63.007325
_cell_angle_beta 116.260811
_cell_angle_gamma 149.025535
_cell_volume 705.846804
_symmetry_space_group_name_H-M "P -1"
_symmetry_group_IT_number 2
_symmetry_cell_setting 'triclinic'
loop_
_space_group_symop_operation_xyz
x,y,z
-x,-y,-z
loop_
_atom_site_type_symbol
_atom_site_label
_atom_site_fract_x
_atom_site_fract_y
_atom_site_fract_z
Si Si1 0.067046 0.388239 0.155842
Si Si2 0.238647 0.787081 0.137309
Si Si3 0.509514 0.221328 0.166234
Si Si4 0.753367 0.296498 0.468187
Si Si5 0.834862 0.691299 0.964997
Si Si6 0.083620 0.756954 0.532851
Si Si7 0.802070 0.940203 0.808874
O O1 0.953155 0.250178 0.311962
O O2 0.236569 0.647685 0.151972
O O3 0.141001 0.334653 0.174724
O O4 0.943717 0.327558 0.973504
O O5 0.242016 0.783908 0.326683
O O6 0.413309 0.045309 0.069110
O O7 0.567925 0.183469 0.368923
O O8 0.371117 0.184144 0.150219
O O9 0.685274 0.460715 0.081927
O O10 0.794263 0.245189 0.388082
O O11 0.902230 0.550969 0.434631
O O12 0.766506 0.762551 0.856684
O O13 0.021910 0.867963 0.079995
O O14 0.178673 0.970234 0.395078
#
# Coordination Sequence:
#
# PCOD8003200 Si02
#       7
#     2   2   2   2   2   2   2
#     4  10  22  40  60  92 129 160 198 248 312 370
#     4  10  21  37  61  92 128 153 197 251 306 365
#     4  12  22  38  67  96 118 157 210 258 296 363
#     4  10  20  36  63  96 122 156 201 255 305 359
#     4  11  24  42  64  87 124 168 206 250 298 360
#     4  10  20  38  65  90 123 162 201 248 309 363
#     4  11  23  43  65  87 120 168 213 248 291 362
#
# _framework density 19.834332
#
# number of rings (size 3 to 8) (size 9 to 14) (size 15 to 20)
#    0.000    1.429    4.286    0.857    6.000    1.143 
#    0.000    0.000    0.000    4.286    0.000    0.000 
#    0.000    0.000    0.000    0.000    0.000    0.000 
#
# Total GULP energy -173537.604843 kJ/mol
# GULP energy per Si atom -12395.543203 kJ/mol
# Density = 1.978919 g / cm^3
# Si number density = 19.834332 Si / 1000 Ang^3
#
#
#
# Elastic Constant Matrix: (Units=GPa)
#
#
# Indices 1 2 3 4 5 6 
#
# 1 131.6768 56.7513 52.1411 11.3487 -7.2516 -7.3615
# 2 56.7513 91.5350 35.4786 7.7605 -2.2857 -7.4444
# 3 52.1411 35.4786 83.6007 -3.9860 -5.9220 -4.0582
# 4 11.3487 7.7605 -3.9860 18.4010 5.6321 2.3766
# 5 -7.2516 -2.2857 -5.9220 5.6321 27.1935 3.8911
# 6 -7.3615 -7.4444 -4.0582 2.3766 3.8911 32.8347
#
#
#
# Elastic Compliance Matrix: (Units=1/GPa)
#
#
# Indices 1 2 3 4 5 6 
#
# 1 0.013149 -0.004797 -0.006277 -0.008637 0.003337 0.001314
# 2 -0.004797 0.016041 -0.003941 -0.004941 -0.000116 0.002446
# 3 -0.006277 -0.003941 0.017968 0.009510 0.000049 -0.000774
# 4 -0.008637 -0.004941 0.009510 0.068819 -0.014159 -0.005185
# 5 0.003337 -0.000116 0.000049 -0.014159 0.041042 -0.003111
# 6 0.001314 0.002446 -0.000774 -0.005185 -0.003111 0.031953
#
#
# Mechanical properties :
#
#
# Convention : Reuss Voigt Hill
#
# Bulk Modulus (GPa) = 58.37983 66.17271 62.27627
# Shear Modulus (GPa) = 22.25080 26.51527 24.38303
#
# Velocity S-wave (km/s) = 3.35301 3.66024 3.50999
# Velocity P-wave (km/s) = 6.66992 7.16229 6.92048
#
# Compressibility (1/GPa) = 0.01712920
#
# Stress axis : x y z
#
# Youngs Moduli (GPa) = 76.05211 62.33937 55.65402
#
# Poissons Ratio (x) = 0.29904 0.34933
# Poissons Ratio (y) = 0.36481 0.21933
# Poissons Ratio (z) = 0.47736 0.24567
#
# Static dielectric constant tensor:
#      x y z
#    x 3.587400 -0.107690 0.065310 
#    y -0.107690 3.860120 -0.031250 
#    z 0.065310 -0.031250 3.429190 
# 
# 
# High freq. dielectric constant tensor:
#      x y z
#    x 1.765830 -0.002110 0.004230 
#    y -0.002110 1.782660 -0.004340 
#    z 0.004230 -0.004340 1.758060 
# 
# From -- ./inp_files/272457.got.cif
#   From: 2010.06.25/outbox.cif.g09.slc.cpg/sg2_137_cif.got.tgz:272457.got - 2010.06.27 13:26:56.
