data_PCOD8003893
_publ_section_title
;
Structure prediction by ZEFSAII (Michael W. Deem and Ramdas Pophale) SiO2 
 PCOD8003893
Probable space group: P -1
;
_chemical_formula_sum "Si O2"
_cell_formula_units_Z 16
_cell_length_a 15.603109
_cell_length_b 13.814253
_cell_length_c 6.846375
_cell_angle_alpha 125.039355
_cell_angle_beta 98.718770
_cell_angle_gamma 47.183202
_cell_volume 813.319887
_symmetry_space_group_name_H-M "P -1"
_symmetry_group_IT_number 2
_symmetry_cell_setting 'triclinic'
loop_
_space_group_symop_operation_xyz
x,y,z
-x,-y,-z
loop_
_atom_site_type_symbol
_atom_site_label
_atom_site_fract_x
_atom_site_fract_y
_atom_site_fract_z
Si Si1 0.300482 0.889174 0.931335
Si Si2 0.690201 0.859581 0.764456
Si Si3 0.397985 0.186758 0.978180
Si Si4 0.147319 0.737645 0.208771
Si Si5 0.297818 0.357349 0.738360
Si Si6 0.622985 0.368380 0.031989
Si Si7 0.071851 0.961837 0.785567
Si Si8 0.445201 0.339593 0.452924
O O1 0.361554 0.773319 0.017814
O O2 0.190791 0.920812 0.840459
O O3 0.404538 0.800643 0.693794
O O4 0.247562 0.073999 0.173751
O O5 0.764838 0.683334 0.464482
O O6 0.544236 0.002612 0.807875
O O7 0.687042 0.826089 0.952831
O O8 0.349065 0.239769 0.806286
O O9 0.381051 0.332727 0.243980
O O10 0.117770 0.798864 0.495551
O O11 0.193432 0.557492 0.996452
O O12 0.250957 0.729601 0.161305
O O13 0.019442 0.871982 0.193522
O O14 0.416013 0.301295 0.601719
O O15 0.612345 0.471639 0.328104
O O16 0.500000 0.500000 0.000000
O O17 0.000000 0.000000 0.000000
#
# Coordination Sequence:
#
# PCOD8003893 Si02
#       8
#     2   2   2   2   2   2   2   2
#     4  11  22  38  61  85 129 164 189 250 295 357
#     4   9  20  35  52  91 119 158 201 227 302 355
#     4   9  18  35  56  83 125 163 194 233 289 366
#     4  10  24  40  63  90 112 157 209 244 296 357
#     4  10  20  37  62  86 125 157 191 250 292 356
#     4  11  22  36  58  96 125 153 192 249 309 362
#     4  11  23  45  62  83 117 160 207 248 296 347
#     4   9  21  33  56  92 121 155 195 234 301 356
#
# _framework density 19.672456
#
# number of rings (size 3 to 8) (size 9 to 14) (size 15 to 20)
#    0.000    2.000    1.250    2.250    8.750    1.000 
#    2.250    0.625    0.000    1.500    0.000    0.000 
#    0.000    0.000    0.000    0.000    0.000    0.000 
#
# Total GULP energy -198332.497273 kJ/mol
# GULP energy per Si atom -12395.781080 kJ/mol
# Density = 1.962768 g / cm^3
# Si number density = 19.672456 Si / 1000 Ang^3
#
#
#
# Elastic Constant Matrix: (Units=GPa)
#
#
# Indices 1 2 3 4 5 6 
#
# 1 81.6101 43.0949 43.5499 -2.3682 10.9662 11.7690
# 2 43.0949 77.3882 34.6721 -14.2672 -4.2432 4.6072
# 3 43.5499 34.6721 131.7442 5.1002 2.9831 13.8960
# 4 -2.3682 -14.2672 5.1002 28.5982 3.6712 2.2942
# 5 10.9662 -4.2432 2.9831 3.6712 24.2001 3.7042
# 6 11.7690 4.6072 13.8960 2.2942 3.7042 32.8152
#
#
#
# Elastic Compliance Matrix: (Units=1/GPa)
#
#
# Indices 1 2 3 4 5 6 
#
# 1 0.022089 -0.011327 -0.003653 -0.001508 -0.010787 -0.003462
# 2 -0.011327 0.022727 -0.002849 0.009854 0.007898 0.000498
# 3 -0.003653 -0.002849 0.009908 -0.003407 0.000809 -0.002339
# 4 -0.001508 0.009854 -0.003407 0.040915 -0.003083 -0.001912
# 5 -0.010787 0.007898 0.000809 -0.003083 0.048396 -0.002830
# 6 -0.003462 0.000498 -0.002339 -0.001912 -0.002830 0.033089
#
#
# Mechanical properties :
#
#
# Convention : Reuss Voigt Hill
#
# Bulk Modulus (GPa) = 52.45472 59.26403 55.85938
# Shear Modulus (GPa) = 22.81655 28.41772 25.61714
#
# Velocity S-wave (km/s) = 3.40931 3.80484 3.61249
# Velocity P-wave (km/s) = 6.49768 7.03514 6.77174
#
# Compressibility (1/GPa) = 0.01906406
#
# Stress axis : x y z
#
# Youngs Moduli (GPa) = 45.27089 44.00144 100.92644
#
# Poissons Ratio (x) = 0.49842 0.36869
# Poissons Ratio (y) = 0.51280 0.28759
# Poissons Ratio (z) = 0.16538 0.12538
#
# Static dielectric constant tensor:
#      x y z
#    x 2.842140 0.203100 0.104280 
#    y 0.203100 3.438700 0.090950 
#    z 0.104280 0.090950 3.929440 
# 
# 
# High freq. dielectric constant tensor:
#      x y z
#    x 1.748690 0.022580 0.007050 
#    y 0.022580 1.748150 -0.002840 
#    z 0.007050 -0.002840 1.782260 
# 
# From -- ./inp_files/69888.got.cif
#   From: 2010.06.25/outbox.cif.g09.slc.cpg/sg2_35_cif.got.tgz:69888.got - 2010.06.27 13:26:56.
