data_PCOD8003993
_publ_section_title
;
Structure prediction by ZEFSAII (Michael W. Deem and Ramdas Pophale) SiO2 
 PCOD8003993
Probable space group: P -1
;
_chemical_formula_sum "Si O2"
_cell_formula_units_Z 16
_cell_length_a 8.768055
_cell_length_b 24.986771
_cell_length_c 13.342275
_cell_angle_alpha 31.204957
_cell_angle_beta 132.559581
_cell_angle_gamma 152.030586
_cell_volume 671.634649
_symmetry_space_group_name_H-M "P -1"
_symmetry_group_IT_number 2
_symmetry_cell_setting 'triclinic'
loop_
_space_group_symop_operation_xyz
x,y,z
-x,-y,-z
loop_
_atom_site_type_symbol
_atom_site_label
_atom_site_fract_x
_atom_site_fract_y
_atom_site_fract_z
Si Si1 0.796100 0.339609 0.484905
Si Si2 0.442454 0.480481 0.634144
Si Si3 0.191775 0.695404 0.055839
Si Si4 0.151231 0.005919 0.829215
Si Si5 0.602638 0.817407 0.638864
Si Si6 0.496108 0.120279 0.300250
Si Si7 0.871558 0.735125 0.979620
Si Si8 0.252635 0.238449 0.797045
O O1 0.629979 0.241385 0.462891
O O2 0.126456 0.403727 0.553806
O O3 0.879224 0.494352 0.267144
O O4 0.523897 0.206650 0.665502
O O5 0.486463 0.384445 0.757663
O O6 0.764538 0.687172 0.423552
O O7 0.362323 0.439166 0.781881
O O8 0.549020 0.786590 0.107413
O O9 0.217344 0.727425 0.896431
O O10 0.133601 0.779344 0.953381
O O11 0.875785 0.987747 0.727176
O O12 0.095204 0.896840 0.893572
O O13 0.112879 0.936416 0.033972
O O14 0.431926 0.808042 0.671800
O O15 0.603379 0.694941 0.858758
O O16 0.000000 0.000000 0.500000
O O17 0.500000 0.000000 0.500000
#
# Coordination Sequence:
#
# PCOD8003993 Si02
#       8
#     2   2   2   2   2   2   2   2
#     4  11  22  37  63  94 121 152 205 254 291 349
#     4   9  19  37  65  87 116 162 204 244 292 358
#     4  10  22  36  61  92 122 154 203 251 292 350
#     4   9  19  37  61  83 117 159 200 238 295 363
#     4  11  21  40  62  89 120 162 198 241 305 371
#     4  10  20  37  63  81 116 166 201 234 302 365
#     4  10  20  37  63  89 116 168 197 234 302 369
#     4   8  17  36  58  81 116 158 197 235 298 353
#
# _framework density 23.822476999999999
#
# number of rings (size 3 to 8) (size 9 to 14) (size 15 to 20)
#    0.000    2.250    2.500    1.500    0.000    5.000 
#    0.000    0.000    2.750    4.500    0.000    0.000 
#    0.000    0.000    0.000    0.000    0.000    0.000 
#
# Total GULP energy -198248.328236 kJ/mol
# GULP energy per Si atom -12390.520515 kJ/mol
# Density = 2.376826 g / cm^3
# Si number density = 23.822477 Si / 1000 Ang^3
#
#
#
# Elastic Constant Matrix: (Units=GPa)
#
#
# Indices 1 2 3 4 5 6 
#
# 1 157.2660 6.0869 62.5156 4.9901 -0.8656 9.8142
# 2 6.0869 37.9770 22.1586 7.6033 -2.8437 2.7824
# 3 62.5156 22.1586 181.3243 1.4690 -31.3414 4.5497
# 4 4.9901 7.6033 1.4690 33.1691 6.3582 -3.5301
# 5 -0.8656 -2.8437 -31.3414 6.3582 52.4182 6.1289
# 6 9.8142 2.7824 4.5497 -3.5301 6.1289 12.6356
#
#
#
# Elastic Compliance Matrix: (Units=1/GPa)
#
#
# Indices 1 2 3 4 5 6 
#
# 1 0.007819 0.001081 -0.002782 -0.001768 -0.000618 -0.005504
# 2 0.001081 0.030719 -0.003526 -0.008387 0.001705 -0.009505
# 3 -0.002782 -0.003526 0.007775 -0.000254 0.004701 -0.002214
# 4 -0.001768 -0.008387 -0.000254 0.035425 -0.006867 0.016540
# 5 -0.000618 0.001705 0.004701 -0.006867 0.024609 -0.015444
# 6 -0.005504 -0.009505 -0.002214 0.016540 -0.015444 0.098419
#
#
# Mechanical properties :
#
#
# Convention : Reuss Voigt Hill
#
# Bulk Modulus (GPa) = 27.88657 62.00995 44.94826
# Shear Modulus (GPa) = 22.00973 38.69830 30.35402
#
# Velocity S-wave (km/s) = 3.04288 4.03481 3.57343
# Velocity P-wave (km/s) = 4.90682 6.91323 5.99457
#
# Compressibility (1/GPa) = 0.03585956
#
# Stress axis : x y z
#
# Youngs Moduli (GPa) = 127.89429 32.55355 128.61238
#
# Poissons Ratio (x) = -0.03520 0.35783
# Poissons Ratio (y) = -0.13827 0.45343
# Poissons Ratio (z) = 0.35583 0.11477
#
# Static dielectric constant tensor:
#      x y z
#    x 4.303360 0.129400 -0.327740 
#    y 0.129400 3.681790 0.251780 
#    z -0.327740 0.251780 5.063270 
# 
# 
# High freq. dielectric constant tensor:
#      x y z
#    x 1.950350 0.014120 -0.015770 
#    y 0.014120 1.878320 0.016630 
#    z -0.015770 0.016630 1.976210 
# 
# From -- ./inp_files/508916.got.cif
#   From: 2010.06.25/outbox.cif.g09.slc.cpg/sg2_255_cif.got.tgz:508916.got - 2010.06.27 13:26:56.
