data_PCOD8003240
_publ_section_title
;
Structure prediction by ZEFSAII (Michael W. Deem and Ramdas Pophale) SiO2 
 PCOD8003240
Probable space group: P -1
;
_chemical_formula_sum "Si O2"
_cell_formula_units_Z 16
_cell_length_a 8.316329
_cell_length_b 13.807107
_cell_length_c 11.989620
_cell_angle_alpha 96.172186
_cell_angle_beta 77.194503
_cell_angle_gamma 150.985642
_cell_volume 640.198528
_symmetry_space_group_name_H-M "P -1"
_symmetry_group_IT_number 2
_symmetry_cell_setting 'triclinic'
loop_
_space_group_symop_operation_xyz
x,y,z
-x,-y,-z
loop_
_atom_site_type_symbol
_atom_site_label
_atom_site_fract_x
_atom_site_fract_y
_atom_site_fract_z
Si Si1 0.070238 0.091172 0.785433
Si Si2 0.574801 0.200181 0.807696
Si Si3 0.032412 0.617084 0.446094
Si Si4 0.416956 0.500894 0.342740
Si Si5 0.806256 0.192584 0.223488
Si Si6 0.410193 0.097386 0.443487
Si Si7 0.421905 0.850157 0.962988
Si Si8 0.274309 0.220161 0.383139
O O1 0.379186 0.200749 0.819557
O O2 0.228266 0.263855 0.714360
O O3 0.774212 0.976083 0.897144
O O4 0.922458 0.935440 0.704355
O O5 0.898730 0.355721 0.693407
O O6 0.284921 0.965623 0.811552
O O7 0.735423 0.282903 0.918795
O O8 0.392861 0.843405 0.472016
O O9 0.000000 0.500000 0.500000
O O10 0.725052 0.531123 0.519997
O O11 0.493465 0.425166 0.330649
O O12 0.141702 0.377174 0.270754
O O13 0.475626 0.065544 0.321953
O O14 0.842833 0.280017 0.117319
O O15 0.518751 0.268540 0.416919
O O16 0.005527 0.883650 0.499821
O O17 0.500000 0.000000 0.000000
#
# Coordination Sequence:
#
# PCOD8003240 Si02
#       8
#     2   2   2   2   2   2   2   2
#     4  12  22  44  68  97 131 176 221 270 325 395
#     4  11  21  40  69  92 129 183 217 262 331 389
#     4  11  20  39  63 100 137 168 215 269 328 395
#     4  11  23  39  70 104 134 167 219 275 330 394
#     4  10  20  40  66  96 130 174 218 268 326 393
#     4  10  20  36  64  92 135 177 217 263 330 399
#     4  10  24  44  68  92 128 182 225 268 327 390
#     4  11  21  39  63  99 135 177 214 272 337 384
#
# _framework density 24.992248
#
# number of rings (size 3 to 8) (size 9 to 14) (size 15 to 20)
#    0.000    1.250    5.000    1.125    0.000    2.000 
#    4.500    6.250    0.000    0.000    0.000    0.000 
#    0.000    0.000    0.000    0.000    0.000    0.000 
#
# Total GULP energy -198364.710520 kJ/mol
# GULP energy per Si atom -12397.794407 kJ/mol
# Density = 2.493536 g / cm^3
# Si number density = 24.992248 Si / 1000 Ang^3
#
#
#
# Elastic Constant Matrix: (Units=GPa)
#
#
# Indices 1 2 3 4 5 6 
#
# 1 87.5074 25.3026 30.5869 -3.6464 8.6110 -10.5825
# 2 25.3026 51.6265 28.2229 -9.4460 5.3750 -11.8657
# 3 30.5869 28.2229 169.5086 -1.2404 22.4196 6.4614
# 4 -3.6464 -9.4460 -1.2404 30.1460 -1.4384 8.4736
# 5 8.6110 5.3750 22.4196 -1.4384 34.8898 2.3961
# 6 -10.5825 -11.8657 6.4614 8.4736 2.3961 44.9379
#
#
#
# Elastic Compliance Matrix: (Units=1/GPa)
#
#
# Indices 1 2 3 4 5 6 
#
# 1 0.013944 -0.005467 -0.001454 -0.000822 -0.001857 0.002303
# 2 -0.005467 0.026252 -0.003457 0.005977 -0.000574 0.005045
# 3 -0.001454 -0.003457 0.007297 -0.000573 -0.003683 -0.002000
# 4 -0.000822 0.005977 -0.000573 0.036542 0.001535 -0.005505
# 5 -0.001857 -0.000574 -0.003683 0.001535 0.031779 -0.002043
# 6 0.002303 0.005045 -0.002000 -0.005505 -0.002043 0.025562
#
#
# Mechanical properties :
#
#
# Convention : Reuss Voigt Hill
#
# Bulk Modulus (GPa) = 37.40236 52.98526 45.19381
# Shear Modulus (GPa) = 29.23233 36.96342 33.09787
#
# Velocity S-wave (km/s) = 3.42373 3.84994 3.64308
# Velocity P-wave (km/s) = 5.53420 6.40386 5.98485
#
# Compressibility (1/GPa) = 0.02673628
#
# Stress axis : x y z
#
# Youngs Moduli (GPa) = 71.71777 38.09234 137.04961
#
# Poissons Ratio (x) = 0.20824 0.19928
# Poissons Ratio (y) = 0.39206 0.47380
# Poissons Ratio (z) = 0.10428 0.13169
#
# Static dielectric constant tensor:
#      x y z
#    x 5.185890 0.270810 0.036260 
#    y 0.270810 4.712800 -0.030520 
#    z 0.036260 -0.030520 5.645980 
# 
# 
# High freq. dielectric constant tensor:
#      x y z
#    x 2.016080 -0.002150 0.012750 
#    y -0.002150 1.986510 0.016620 
#    z 0.012750 0.016620 1.989030 
# 
# From -- ./inp_files/399113.got.cif
#   From: 2010.06.25/outbox.cif.g09.slc.cpg/sg2_200_cif.got.tgz:399113.got - 2010.06.27 13:26:56.
