data_PCOD8003369
_publ_section_title
;
Structure prediction by ZEFSAII (Michael W. Deem and Ramdas Pophale) SiO2 
 PCOD8003369
Probable space group: P -1
;
_chemical_formula_sum "Si O2"
_cell_formula_units_Z 14
_cell_length_a 15.835994
_cell_length_b 9.449994
_cell_length_c 9.464375
_cell_angle_alpha 60.852661
_cell_angle_beta 90.402889
_cell_angle_gamma 135.001528
_cell_volume 732.597500
_symmetry_space_group_name_H-M "P -1"
_symmetry_group_IT_number 2
_symmetry_cell_setting 'triclinic'
loop_
_space_group_symop_operation_xyz
x,y,z
-x,-y,-z
loop_
_atom_site_type_symbol
_atom_site_label
_atom_site_fract_x
_atom_site_fract_y
_atom_site_fract_z
Si Si1 0.339689 0.775553 0.557714
Si Si2 0.894703 0.138911 0.275140
Si Si3 0.661884 0.199529 0.900641
Si Si4 0.965400 0.221827 0.560643
Si Si5 0.186357 0.637991 0.892340
Si Si6 0.236639 0.851964 0.306646
Si Si7 0.808016 0.656497 0.465008
O O1 0.234115 0.612720 0.768334
O O2 0.335505 0.940392 0.392739
O O3 0.288316 0.547813 0.568769
O O4 0.500000 0.000000 0.500000
O O5 0.955356 0.233559 0.387808
O O6 0.797985 0.146376 0.243554
O O7 0.795763 0.829970 0.396217
O O8 0.024241 0.340064 0.068052
O O9 0.684790 0.063742 0.882032
O O10 0.750784 0.480540 0.691566
O O11 0.709116 0.248012 0.036565
O O12 0.500000 0.000000 0.000000
O O13 0.814407 0.039240 0.723463
O O14 0.092361 0.526023 0.476873
O O15 0.020967 0.126457 0.647345
#
# Coordination Sequence:
#
# PCOD8003369 Si02
#       7
#     2   2   2   2   2   2   2
#     4  10  20  37  55  79 113 154 190 226 279 343
#     4  11  21  35  58  89 118 139 187 245 288 328
#     4  10  20  37  58  82 109 151 198 226 264 342
#     4   9  16  32  57  80 109 140 186 226 277 340
#     4  11  21  34  60  86 114 146 187 238 286 326
#     4   9  17  32  56  83 103 152 187 220 281 338
#     4  10  22  37  60  83 112 154 186 231 290 333
#
# _framework density 19.110084000000001
#
# number of rings (size 3 to 8) (size 9 to 14) (size 15 to 20)
#    0.000    2.286    4.286    2.143    0.000    0.571 
#    0.000    2.857    0.000    0.857    0.000    0.000 
#    0.000    0.000    0.000    0.000    0.000    0.000 
#
# Total GULP energy -173486.419065 kJ/mol
# GULP energy per Si atom -12391.887076 kJ/mol
# Density = 1.906659 g / cm^3
# Si number density = 19.110084 Si / 1000 Ang^3
#
#
#
# Elastic Constant Matrix: (Units=GPa)
#
#
# Indices 1 2 3 4 5 6 
#
# 1 93.4191 45.4369 22.9876 -9.0672 1.6993 4.8536
# 2 45.4369 81.0989 32.7748 12.8419 19.7040 11.8684
# 3 22.9876 32.7748 48.4375 10.8761 4.5397 -7.5774
# 4 -9.0672 12.8419 10.8761 26.1998 0.7377 4.6065
# 5 1.6993 19.7040 4.5397 0.7377 31.5793 2.2380
# 6 4.8536 11.8684 -7.5774 4.6065 2.2380 29.3049
#
#
#
# Elastic Compliance Matrix: (Units=1/GPa)
#
#
# Indices 1 2 3 4 5 6 
#
# 1 0.019762 -0.012901 -0.005226 0.015545 0.007546 -0.002419
# 2 -0.012901 0.032636 -0.013372 -0.012453 -0.016655 -0.011309
# 3 -0.005226 -0.013372 0.038024 -0.014299 0.002204 0.018192
# 4 0.015545 -0.012453 -0.014299 0.057263 0.008422 -0.010873
# 5 0.007546 -0.016655 0.002204 0.008422 0.041025 0.001608
# 6 -0.002419 -0.011309 0.018192 -0.010873 0.001608 0.045395
#
#
# Mechanical properties :
#
#
# Convention : Reuss Voigt Hill
#
# Bulk Modulus (GPa) = 36.46447 47.26158 41.86302
# Shear Modulus (GPa) = 16.32684 25.53387 20.93036
#
# Velocity S-wave (km/s) = 2.92611 3.65930 3.31305
# Velocity P-wave (km/s) = 5.52620 6.52984 6.04887
#
# Compressibility (1/GPa) = 0.02742396
#
# Stress axis : x y z
#
# Youngs Moduli (GPa) = 50.60124 30.64061 26.29948
#
# Poissons Ratio (x) = 0.39530 0.13743
# Poissons Ratio (y) = 0.65282 0.35169
# Poissons Ratio (z) = 0.26442 0.40974
#
# Static dielectric constant tensor:
#      x y z
#    x 4.333610 -0.138410 -0.140350 
#    y -0.138410 3.330920 0.329570 
#    z -0.140350 0.329570 3.290500 
# 
# 
# High freq. dielectric constant tensor:
#      x y z
#    x 1.759720 0.006900 -0.009820 
#    y 0.006900 1.725680 0.037090 
#    z -0.009820 0.037090 1.712570 
# 
# From -- ./inp_files/201372.got.cif
#   From: 2010.06.25/outbox.cif.g09.slc.cpg/sg2_101_cif.got.tgz:201372.got - 2010.06.27 13:26:56.
