data_PCOD8003488
_publ_section_title
;
Structure prediction by ZEFSAII (Michael W. Deem and Ramdas Pophale) SiO2 
 PCOD8003488
Probable space group: P -1
;
_chemical_formula_sum "Si O2"
_cell_formula_units_Z 16
_cell_length_a 20.388405
_cell_length_b 12.260549
_cell_length_c 17.184443
_cell_angle_alpha 39.269812
_cell_angle_beta 19.178908
_cell_angle_gamma 35.596862
_cell_volume 821.002075
_symmetry_space_group_name_H-M "P -1"
_symmetry_group_IT_number 2
_symmetry_cell_setting 'triclinic'
loop_
_space_group_symop_operation_xyz
x,y,z
-x,-y,-z
loop_
_atom_site_type_symbol
_atom_site_label
_atom_site_fract_x
_atom_site_fract_y
_atom_site_fract_z
Si Si1 0.671450 0.058167 0.732536
Si Si2 0.491756 0.586654 0.190617
Si Si3 0.115708 0.322594 0.346135
Si Si4 0.529615 0.021528 0.316149
Si Si5 0.376427 0.458182 0.233746
Si Si6 0.693402 0.974031 0.589433
Si Si7 0.959958 0.960785 0.936412
Si Si8 0.718404 0.201256 0.210013
O O1 0.687020 0.233640 0.663745
O O2 0.888644 0.862458 0.593588
O O3 0.601289 0.114065 0.689424
O O4 0.500000 0.000000 0.000000
O O5 0.397967 0.578851 0.215556
O O6 0.524362 0.403971 0.306740
O O7 0.729604 0.593317 0.916673
O O8 0.224488 0.242780 0.352961
O O9 0.876849 0.479718 0.536654
O O10 0.471498 0.241367 0.271329
O O11 0.498918 0.980727 0.282753
O O12 0.376222 0.956002 0.577803
O O13 0.778426 0.906052 0.127263
O O14 0.500000 0.500000 0.000000
O O15 0.904403 0.993783 0.307489
O O16 0.847313 0.144308 0.015663
O O17 0.118635 0.793541 0.906303
#
# Coordination Sequence:
#
# PCOD8003488 Si02
#       8
#     2   2   2   2   2   2   2   2
#     4   8  19  42  60  81 116 160 198 239 292 336
#     4  11  22  39  61  85 116 157 201 239 285 351
#     4   9  22  38  58  84 120 152 189 242 292 340
#     4  11  22  37  58  86 127 148 189 240 292 358
#     4  12  25  34  59  99 117 151 192 238 302 361
#     4   9  20  39  59  84 114 158 187 242 296 338
#     4  10  20  37  58  85 116 156 191 235 297 348
#     4  10  23  36  58  87 118 158 191 237 296 350
#
# _framework density 19.488378999999998
#
# number of rings (size 3 to 8) (size 9 to 14) (size 15 to 20)
#    0.750    1.250    1.250    1.875    5.250    1.500 
#    0.000    3.750    0.000    1.500    0.000    0.000 
#    0.000    0.000    0.000    0.000    0.000    0.000 
#
# Total GULP energy -198230.901373 kJ/mol
# GULP energy per Si atom -12389.431336 kJ/mol
# Density = 1.944402 g / cm^3
# Si number density = 19.488379 Si / 1000 Ang^3
#
#
#
# Elastic Constant Matrix: (Units=GPa)
#
#
# Indices 1 2 3 4 5 6 
#
# 1 129.4242 29.8216 48.2250 -1.2425 0.0140 9.6880
# 2 29.8216 54.4289 17.7116 -12.1667 9.4802 3.3431
# 3 48.2250 17.7116 85.7698 1.4758 3.2750 -0.4391
# 4 -1.2425 -12.1667 1.4758 17.4039 -3.0074 -0.3411
# 5 0.0140 9.4802 3.2750 -3.0074 37.9995 4.9886
# 6 9.6880 3.3431 -0.4391 -0.3411 4.9886 34.1847
#
#
#
# Elastic Compliance Matrix: (Units=1/GPa)
#
#
# Indices 1 2 3 4 5 6 
#
# 1 0.011015 -0.004913 -0.005234 -0.001932 0.001915 -0.003007
# 2 -0.004913 0.026887 -0.002908 0.017821 -0.004997 -0.000368
# 3 -0.005234 -0.002908 0.015325 -0.003868 -0.001175 0.002097
# 4 -0.001932 0.017821 -0.003868 0.070361 0.001558 -0.000770
# 5 0.001915 -0.004997 -0.001175 0.001558 0.028336 -0.004189
# 6 -0.003007 -0.000368 0.002097 -0.000770 -0.004189 0.030772
#
#
# Mechanical properties :
#
#
# Convention : Reuss Voigt Hill
#
# Bulk Modulus (GPa) = 36.87625 51.23769 44.05697
# Shear Modulus (GPa) = 22.95220 29.50862 26.23041
#
# Velocity S-wave (km/s) = 3.43554 3.89545 3.67270
# Velocity P-wave (km/s) = 5.89071 6.82504 6.37502
#
# Compressibility (1/GPa) = 0.02711772
#
# Stress axis : x y z
#
# Youngs Moduli (GPa) = 90.78413 37.19272 65.25417
#
# Poissons Ratio (x) = 0.18271 0.34155
# Poissons Ratio (y) = 0.44599 0.18974
# Poissons Ratio (z) = 0.47518 0.10815
#
# Static dielectric constant tensor:
#      x y z
#    x 3.775690 0.284140 0.078550 
#    y 0.284140 4.908490 0.012660 
#    z 0.078550 0.012660 3.404880 
# 
# 
# High freq. dielectric constant tensor:
#      x y z
#    x 1.767340 -0.007440 0.009490 
#    y -0.007440 1.732030 -0.004670 
#    z 0.009490 -0.004670 1.749860 
# 
# From -- ./inp_files/577776.got.cif
#   From: 2010.06.25/outbox.cif.g09.slc.cpg/sg2_289_cif.got.tgz:577776.got - 2010.06.27 13:26:56.
