data_PCOD8003118
_publ_section_title
;
Structure prediction by ZEFSAII (Michael W. Deem and Ramdas Pophale) SiO2 
 PCOD8003118
Probable space group: P -1
;
_chemical_formula_sum "Si O2"
_cell_formula_units_Z 16
_cell_length_a 12.422882
_cell_length_b 8.806883
_cell_length_c 14.112725
_cell_angle_alpha 52.712059
_cell_angle_beta 69.215889
_cell_angle_gamma 38.844424
_cell_volume 749.005105
_symmetry_space_group_name_H-M "P -1"
_symmetry_group_IT_number 2
_symmetry_cell_setting 'triclinic'
loop_
_space_group_symop_operation_xyz
x,y,z
-x,-y,-z
loop_
_atom_site_type_symbol
_atom_site_label
_atom_site_fract_x
_atom_site_fract_y
_atom_site_fract_z
Si Si1 0.730425 0.125289 0.658328
Si Si2 0.747348 0.077760 0.371367
Si Si3 0.720041 0.510132 0.127839
Si Si4 0.326047 0.103666 0.704188
Si Si5 0.912962 0.813507 0.913085
Si Si6 0.631420 0.024121 0.051291
Si Si7 0.007033 0.771233 0.560620
Si Si8 0.516304 0.733169 0.458940
O O1 0.705033 0.388131 0.551249
O O2 0.548460 0.255978 0.629338
O O3 0.777799 0.019462 0.791127
O O4 0.877299 0.844138 0.652301
O O5 0.705097 0.351980 0.263307
O O6 0.604915 0.173438 0.451118
O O7 0.748900 0.963277 0.315544
O O8 0.939621 0.816357 0.457751
O O9 0.691957 0.736043 0.112190
O O10 0.917754 0.255912 0.113399
O O11 0.565902 0.683419 0.033234
O O12 0.385363 0.928405 0.848603
O O13 0.188870 0.440121 0.647428
O O14 0.476165 0.044595 0.628955
O O15 0.780208 0.987260 0.979546
O O16 0.000000 0.500000 0.000000
O O17 0.000000 0.000000 0.500000
#
# Coordination Sequence:
#
# PCOD8003118 Si02
#       8
#     2   2   2   2   2   2   2   2
#     4  10  20  36  62  95 116 153 218 263 308 361
#     4  11  24  41  60  93 129 165 206 250 321 391
#     4  10  22  40  66  90 124 163 215 267 310 366
#     4  12  24  40  60  90 132 168 201 255 322 379
#     4  10  20  37  62  93 125 153 207 272 311 356
#     4  10  23  39  65  92 122 164 219 261 309 368
#     4  11  20  38  63  90 119 156 207 258 307 366
#     4  10  23  36  63  89 126 164 205 258 316 375
#
# _framework density 21.361671000000001
#
# number of rings (size 3 to 8) (size 9 to 14) (size 15 to 20)
#    0.000    1.500    1.250    4.500    8.750    0.500 
#    0.000    0.625    0.000    0.000    0.000    0.000 
#    0.000    0.000    0.000    0.000    0.000    0.000 
#
# Total GULP energy -198279.545291 kJ/mol
# GULP energy per Si atom -12392.471581 kJ/mol
# Density = 2.131305 g / cm^3
# Si number density = 21.361671 Si / 1000 Ang^3
#
#
#
# Elastic Constant Matrix: (Units=GPa)
#
#
# Indices 1 2 3 4 5 6 
#
# 1 80.1572 28.2714 36.8338 17.2744 8.4272 -17.1182
# 2 28.2714 58.8815 28.9919 11.3729 4.4449 -17.1566
# 3 36.8338 28.9919 126.6999 18.9455 9.7959 -18.5856
# 4 17.2744 11.3729 18.9455 32.6091 -2.5673 2.0825
# 5 8.4272 4.4449 9.7959 -2.5673 32.5842 0.5026
# 6 -17.1182 -17.1566 -18.5856 2.0825 0.5026 28.0868
#
#
#
# Elastic Compliance Matrix: (Units=1/GPa)
#
#
# Indices 1 2 3 4 5 6 
#
# 1 0.018755 -0.003573 -0.001681 -0.008647 -0.004676 0.008861
# 2 -0.003573 0.024575 -0.001551 -0.006778 -0.002687 0.012359
# 3 -0.001681 -0.001551 0.010564 -0.005294 -0.003031 0.005466
# 4 -0.008647 -0.006778 -0.005294 0.042379 0.008342 -0.016205
# 5 -0.004676 -0.002687 -0.003031 0.008342 0.033953 -0.007723
# 6 0.008861 0.012359 0.005466 -0.016205 -0.007723 0.053510
#
#
# Mechanical properties :
#
#
# Convention : Reuss Voigt Hill
#
# Bulk Modulus (GPa) = 24.82200 50.43698 37.62949
# Shear Modulus (GPa) = 23.72224 30.09878 26.91051
#
# Velocity S-wave (km/s) = 3.33604 3.75775 3.55316
# Velocity P-wave (km/s) = 5.14626 6.51842 5.87255
#
# Compressibility (1/GPa) = 0.04028684
#
# Stress axis : x y z
#
# Youngs Moduli (GPa) = 53.31822 40.69153 94.66325
#
# Poissons Ratio (x) = 0.14537 0.15909
# Poissons Ratio (y) = 0.19048 0.14678
# Poissons Ratio (z) = 0.08961 0.06309
#
# Static dielectric constant tensor:
#      x y z
#    x 4.018430 -0.589140 -0.053480 
#    y -0.589140 4.145540 0.146550 
#    z -0.053480 0.146550 4.096890 
# 
# 
# High freq. dielectric constant tensor:
#      x y z
#    x 1.825000 -0.029000 0.003980 
#    y -0.029000 1.820640 0.004760 
#    z 0.003980 0.004760 1.851750 
# 
# From -- ./inp_files/298630.got.cif
#   From: 2010.06.25/outbox.cif.g09.slc.cpg/sg2_150_cif.got.tgz:298630.got - 2010.06.27 13:26:56.
