data_PCOD8003157
_publ_section_title
;
Structure prediction by ZEFSAII (Michael W. Deem and Ramdas Pophale) SiO2 
 PCOD8003157
Probable space group: P -1
;
_chemical_formula_sum "Si O2"
_cell_formula_units_Z 14
_cell_length_a 18.392223
_cell_length_b 7.388917
_cell_length_c 11.329677
_cell_angle_alpha 92.477124
_cell_angle_beta 138.892730
_cell_angle_gamma 58.067122
_cell_volume 662.401276
_symmetry_space_group_name_H-M "P -1"
_symmetry_group_IT_number 2
_symmetry_cell_setting 'triclinic'
loop_
_space_group_symop_operation_xyz
x,y,z
-x,-y,-z
loop_
_atom_site_type_symbol
_atom_site_label
_atom_site_fract_x
_atom_site_fract_y
_atom_site_fract_z
Si Si1 0.507941 0.594887 0.132205
Si Si2 0.179256 0.775616 0.066874
Si Si3 0.207943 0.698319 0.364875
Si Si4 0.207919 0.033896 0.932995
Si Si5 0.642801 0.797443 0.335694
Si Si6 0.887134 0.496627 0.428947
Si Si7 0.305388 0.327323 0.024694
O O1 0.665669 0.337207 0.400569
O O2 0.500000 0.500000 0.000000
O O3 0.334667 0.774083 0.993504
O O4 0.527834 0.783897 0.132157
O O5 0.223298 0.921834 0.076811
O O6 0.261043 0.655384 0.292292
O O7 0.255701 0.527580 0.070066
O O8 0.978498 0.995926 0.833783
O O9 0.233298 0.453869 0.423874
O O10 0.019871 0.216192 0.660150
O O11 0.251956 0.192188 0.999937
O O12 0.754993 0.751218 0.368089
O O13 0.508336 0.095704 0.243961
O O14 0.000000 0.500000 0.500000
O O15 0.788364 0.505186 0.208454
#
# Coordination Sequence:
#
# PCOD8003157 Si02
#       7
#     2   2   2   2   2   2   2
#     4   9  20  36  62  88 127 162 201 254 322 360
#     4  11  22  41  68  89 121 174 213 248 320 370
#     4   9  22  41  63  89 126 165 211 260 306 379
#     4  10  21  40  59  93 130 156 209 271 295 377
#     4   9  19  41  59  89 130 160 203 270 309 364
#     4  10  20  36  63  88 127 162 204 262 314 368
#     4  10  23  37  62  96 122 165 210 253 322 371
#
# _framework density 21.135224000000001
#
# number of rings (size 3 to 8) (size 9 to 14) (size 15 to 20)
#    0.857    1.429    1.429    0.429    4.000    1.714 
#    0.000    2.857    0.000    0.000    0.000    0.000 
#    0.000    0.000    0.000    0.000    0.000    0.000 
#
# Total GULP energy -173453.187154 kJ/mol
# GULP energy per Si atom -12389.513368 kJ/mol
# Density = 2.108712 g / cm^3
# Si number density = 21.135224 Si / 1000 Ang^3
#
#
#
# Elastic Constant Matrix: (Units=GPa)
#
#
# Indices 1 2 3 4 5 6 
#
# 1 119.5185 42.8202 42.0412 0.5678 -13.8735 -31.5608
# 2 42.8202 99.6856 52.7131 2.1098 3.0392 -33.0200
# 3 42.0412 52.7131 117.0506 6.1270 -2.4209 -24.3461
# 4 0.5678 2.1098 6.1270 25.7376 -11.5638 2.0804
# 5 -13.8735 3.0392 -2.4209 -11.5638 30.6206 -5.5689
# 6 -31.5608 -33.0200 -24.3461 2.0804 -5.5689 34.8035
#
#
#
# Elastic Compliance Matrix: (Units=1/GPa)
#
#
# Indices 1 2 3 4 5 6 
#
# 1 0.013521 -0.001635 -0.001896 0.003679 0.009470 0.010680
# 2 -0.001635 0.017019 -0.004667 -0.001801 -0.001428 0.011280
# 3 -0.001896 -0.004667 0.011956 -0.002617 -0.000007 0.002373
# 4 0.003679 -0.001801 -0.002617 0.048510 0.019975 0.000093
# 5 0.009470 -0.001428 -0.000007 0.019975 0.047101 0.013571
# 6 0.010680 0.011280 0.002373 0.000093 0.013571 0.052945
#
#
# Mechanical properties :
#
#
# Convention : Reuss Voigt Hill
#
# Bulk Modulus (GPa) = 38.30963 67.93374 53.12169
# Shear Modulus (GPa) = 23.13231 31.47769 27.30500
#
# Velocity S-wave (km/s) = 3.31190 3.86339 3.59823
# Velocity P-wave (km/s) = 5.72627 7.21895 6.51550
#
# Compressibility (1/GPa) = 0.02610309
#
# Stress axis : x y z
#
# Youngs Moduli (GPa) = 73.95677 58.75696 83.63996
#
# Poissons Ratio (x) = 0.09605 0.15855
# Poissons Ratio (y) = 0.12089 0.39031
# Poissons Ratio (z) = 0.14019 0.27419
#
# Static dielectric constant tensor:
#      x y z
#    x 3.902430 -0.294210 -0.037120 
#    y -0.294210 3.414510 -0.283830 
#    z -0.037120 -0.283830 4.381120 
# 
# 
# High freq. dielectric constant tensor:
#      x y z
#    x 1.834650 -0.030360 -0.003110 
#    y -0.030360 1.793650 -0.018930 
#    z -0.003110 -0.018930 1.833110 
# 
# From -- ./inp_files/328902.got.cif
#   From: 2010.06.25/outbox.cif.g09.slc.cpg/sg2_165_cif.got.tgz:328902.got - 2010.06.27 13:26:56.
