data_PCOD8003478
_publ_section_title
;
Structure prediction by ZEFSAII (Michael W. Deem and Ramdas Pophale) SiO2 
 PCOD8003478
Probable space group: P -1
;
_chemical_formula_sum "Si O2"
_cell_formula_units_Z 16
_cell_length_a 22.967783
_cell_length_b 18.733212
_cell_length_c 8.317947
_cell_angle_alpha 133.181617
_cell_angle_beta 45.084625
_cell_angle_gamma 165.479868
_cell_volume 635.415487
_symmetry_space_group_name_H-M "P -1"
_symmetry_group_IT_number 2
_symmetry_cell_setting 'triclinic'
loop_
_space_group_symop_operation_xyz
x,y,z
-x,-y,-z
loop_
_atom_site_type_symbol
_atom_site_label
_atom_site_fract_x
_atom_site_fract_y
_atom_site_fract_z
Si Si1 0.722054 0.109952 0.464795
Si Si2 0.644409 0.220171 0.925491
Si Si3 0.456034 0.144791 0.910246
Si Si4 0.946481 0.015257 0.990327
Si Si5 0.980550 0.699873 0.614297
Si Si6 0.442336 0.549550 0.675019
Si Si7 0.201280 0.274566 0.421565
Si Si8 0.803337 0.518540 0.349398
O O1 0.730963 0.099193 0.238329
O O2 0.473352 0.797445 0.546113
O O3 0.773850 0.284106 0.658485
O O4 0.930603 0.286332 0.423121
O O5 0.463778 0.082847 0.956362
O O6 0.834463 0.498999 0.085425
O O7 0.500000 0.000000 0.000000
O O8 0.713141 0.429575 0.765963
O O9 0.382568 0.174267 0.155969
O O10 0.183784 0.288131 0.841977
O O11 0.737707 0.735279 0.853544
O O12 0.862775 0.026778 0.238872
O O13 0.000000 0.000000 0.000000
O O14 0.973084 0.662090 0.380427
O O15 0.500000 0.500000 0.500000
O O16 0.435318 0.560656 0.513127
O O17 0.110398 0.273275 0.515526
O O18 0.000000 0.000000 0.500000
#
# Coordination Sequence:
#
# PCOD8003478 Si02
#       8
#     2   2   2   2   2   2   2   2
#     4  10  23  39  64  92 118 159 212 254 307 370
#     4  10  21  41  65  89 124 162 203 257 312 359
#     4  10  21  42  64  85 127 162 198 260 310 363
#     4  10  20  37  58  84 123 159 198 253 302 360
#     4  10  22  39  61  91 121 161 208 250 308 372
#     4  10  22  37  58  90 121 161 205 246 312 376
#     4  10  20  37  58  83 123 165 200 245 315 366
#     4  10  20  41  62  86 127 161 201 261 310 362
#
# _framework density 25.180374
#
# number of rings (size 3 to 8) (size 9 to 14) (size 15 to 20)
#    0.000    2.000    2.500    0.375    1.750    2.000 
#    0.000    3.750    0.000    0.000    0.000    0.000 
#    0.000    0.000    0.000    0.000    0.000    0.000 
#
# Total GULP energy -198220.456582 kJ/mol
# GULP energy per Si atom -12388.778536 kJ/mol
# Density = 2.512306 g / cm^3
# Si number density = 25.180374 Si / 1000 Ang^3
#
#
#
# Elastic Constant Matrix: (Units=GPa)
#
#
# Indices 1 2 3 4 5 6 
#
# 1 182.1432 16.9873 76.5443 32.9050 9.6360 14.8148
# 2 16.9873 18.7577 43.3674 23.5920 4.0588 2.1898
# 3 76.5443 43.3674 159.3087 54.5159 3.1024 23.7836
# 4 32.9050 23.5920 54.5159 43.6930 9.8413 3.6583
# 5 9.6360 4.0588 3.1024 9.8413 56.6071 10.2066
# 6 14.8148 2.1898 23.7836 3.6583 10.2066 39.9660
#
#
#
# Elastic Compliance Matrix: (Units=1/GPa)
#
#
# Indices 1 2 3 4 5 6 
#
# 1 0.007519 0.012172 -0.004923 -0.005910 -0.000900 0.000246
# 2 0.012172 0.292542 -0.054915 -0.098959 -0.006977 0.022979
# 3 -0.004923 -0.054915 0.024062 0.003158 0.004896 -0.011024
# 4 -0.005910 -0.098959 0.003158 0.078103 -0.005655 0.000029
# 5 -0.000900 -0.006977 0.004896 -0.005655 0.020270 -0.006857
# 6 0.000246 0.022979 -0.011024 0.000029 -0.006857 0.031980
#
#
# Mechanical properties :
#
#
# Convention : Reuss Voigt Hill
#
# Bulk Modulus (GPa) = 4.37082 70.44529 37.40806
# Shear Modulus (GPa) = 7.98631 42.94059 25.46345
#
# Velocity S-wave (km/s) = 1.78284 4.13403 3.18345
# Velocity P-wave (km/s) = 2.44491 7.12909 5.32924
#
# Compressibility (1/GPa) = 0.22878993
#
# Stress axis : x y z
#
# Youngs Moduli (GPa) = 132.99426 3.41831 41.55992
#
# Poissons Ratio (x) = -0.04161 0.20459
# Poissons Ratio (y) = -1.61877 2.28228
# Poissons Ratio (z) = 0.65471 0.18772
#
# Static dielectric constant tensor:
#      x y z
#    x 4.649860 0.042440 0.570550 
#    y 0.042440 4.313260 0.840140 
#    z 0.570550 0.840140 5.978500 
# 
# 
# High freq. dielectric constant tensor:
#      x y z
#    x 2.008550 -0.010550 0.017080 
#    y -0.010550 1.978940 0.026600 
#    z 0.017080 0.026600 2.022900 
# 
# From -- ./inp_files/348879.got.cif
#   From: 2010.06.25/outbox.cif.g09.slc.cpg/sg2_175_cif.got.tgz:348879.got - 2010.06.27 13:26:56.
