data_PCOD8003051
_publ_section_title
;
Structure prediction by ZEFSAII (Michael W. Deem and Ramdas Pophale) SiO2 
 PCOD8003051
Probable space group: P -1
;
_chemical_formula_sum "Si O2"
_cell_formula_units_Z 16
_cell_length_a 15.899327
_cell_length_b 8.127216
_cell_length_c 13.656378
_cell_angle_alpha 46.530498
_cell_angle_beta 37.539219
_cell_angle_gamma 45.608754
_cell_volume 731.442945
_symmetry_space_group_name_H-M "P -1"
_symmetry_group_IT_number 2
_symmetry_cell_setting 'triclinic'
loop_
_space_group_symop_operation_xyz
x,y,z
-x,-y,-z
loop_
_atom_site_type_symbol
_atom_site_label
_atom_site_fract_x
_atom_site_fract_y
_atom_site_fract_z
Si Si1 0.776466 0.321624 0.003763
Si Si2 0.196914 0.131857 0.939563
Si Si3 0.300371 0.912829 0.644789
Si Si4 0.927675 0.670422 0.224342
Si Si5 0.068967 0.144667 0.260183
Si Si6 0.663830 0.889763 0.852630
Si Si7 0.221223 0.879967 0.508643
Si Si8 0.593884 0.627216 0.420630
O O1 0.701903 0.603182 0.932562
O O2 0.953362 0.237254 0.870720
O O3 0.733733 0.273203 0.173149
O O4 0.734110 0.157747 0.028142
O O5 0.081302 0.262302 0.908963
O O6 0.329700 0.236818 0.777570
O O7 0.108401 0.201034 0.092454
O O8 0.228487 0.908016 0.607055
O O9 0.478166 0.831632 0.510997
O O10 0.232019 0.187380 0.637426
O O11 0.982408 0.384225 0.303529
O O12 0.224120 0.015732 0.225135
O O13 0.950168 0.006099 0.418189
O O14 0.678524 0.984925 0.690847
O O15 0.500000 0.000000 0.000000
O O16 0.283246 0.589512 0.544747
O O17 0.500000 0.500000 0.500000
#
# Coordination Sequence:
#
# PCOD8003051 Si02
#       8
#     2   2   2   2   2   2   2   2
#     4  10  22  40  65  95 128 168 213 260 325 380
#     4  11  21  39  66  98 130 161 217 265 322 377
#     4  10  21  38  64  95 132 159 213 260 320 374
#     4  10  20  36  62 100 127 160 207 266 323 373
#     4  11  23  39  68  93 126 172 221 262 317 384
#     4  11  26  44  65  90 133 175 213 265 327 386
#     4  11  22  42  65  95 128 172 218 261 317 381
#     4  10  23  35  65  97 130 164 214 262 329 371
#
# _framework density 21.874569999999999
#
# number of rings (size 3 to 8) (size 9 to 14) (size 15 to 20)
#    0.000    1.500    1.250    4.500   10.500    2.000 
#    2.250    7.500    0.000    0.000    0.000    0.000 
#    0.000    0.000    0.000    0.000    0.000    0.000 
#
# Total GULP energy -198262.447287 kJ/mol
# GULP energy per Si atom -12391.402955 kJ/mol
# Density = 2.182478 g / cm^3
# Si number density = 21.874570 Si / 1000 Ang^3
#
#
#
# Elastic Constant Matrix: (Units=GPa)
#
#
# Indices 1 2 3 4 5 6 
#
# 1 65.0721 26.4344 25.3671 4.5410 -8.3426 -0.7465
# 2 26.4344 100.1857 49.3334 14.1174 4.1775 -0.3304
# 3 25.3671 49.3334 137.1702 8.1857 -5.0552 4.5456
# 4 4.5410 14.1174 8.1857 36.8562 -2.5053 -6.3878
# 5 -8.3426 4.1775 -5.0552 -2.5053 36.0762 6.8669
# 6 -0.7465 -0.3304 4.5456 -6.3878 6.8669 27.4183
#
#
#
# Elastic Compliance Matrix: (Units=1/GPa)
#
#
# Indices 1 2 3 4 5 6 
#
# 1 0.018310 -0.004181 -0.001698 -0.000041 0.004558 -0.000421
# 2 -0.004181 0.013823 -0.004114 -0.003987 -0.003553 0.000696
# 3 -0.001698 -0.004114 0.009253 -0.000531 0.001761 -0.002195
# 4 -0.000041 -0.003987 -0.000531 0.030031 0.001180 0.006740
# 5 0.004558 -0.003553 0.001761 0.001180 0.030978 -0.007694
# 6 -0.000421 0.000696 -0.002195 0.006740 -0.007694 0.040330
#
#
# Mechanical properties :
#
#
# Convention : Reuss Voigt Hill
#
# Bulk Modulus (GPa) = 46.72935 56.07753 51.40344
# Shear Modulus (GPa) = 29.43869 33.48968 31.46419
#
# Velocity S-wave (km/s) = 3.67249 3.91703 3.79673
# Velocity P-wave (km/s) = 6.27628 6.79331 6.53991
#
# Compressibility (1/GPa) = 0.02139983
#
# Stress axis : x y z
#
# Youngs Moduli (GPa) = 54.61420 72.34435 108.06969
#
# Poissons Ratio (x) = 0.30245 0.18352
# Poissons Ratio (y) = 0.22833 0.44464
# Poissons Ratio (z) = 0.09274 0.29765
#
# Static dielectric constant tensor:
#      x y z
#    x 3.981630 -0.093410 -0.249890 
#    y -0.093410 4.254180 0.280400 
#    z -0.249890 0.280400 4.013280 
# 
# 
# High freq. dielectric constant tensor:
#      x y z
#    x 1.850900 0.000840 -0.014910 
#    y 0.000840 1.855750 0.013530 
#    z -0.014910 0.013530 1.861410 
# 
# From -- ./inp_files/474298.got.cif
#   From: 2010.06.25/outbox.cif.g09.slc.cpg/sg2_238_cif.got.tgz:474298.got - 2010.06.27 13:26:56.
