data_PCOD8003525
_publ_section_title
;
Structure prediction by ZEFSAII (Michael W. Deem and Ramdas Pophale) SiO2 
 PCOD8003525
Probable space group: P -1
;
_chemical_formula_sum "Si O2"
_cell_formula_units_Z 14
_cell_length_a 25.424127
_cell_length_b 7.640487
_cell_length_c 7.636830
_cell_angle_alpha 56.721150
_cell_angle_beta 52.345950
_cell_angle_gamma 35.750226
_cell_volume 681.690154
_symmetry_space_group_name_H-M "P -1"
_symmetry_group_IT_number 2
_symmetry_cell_setting 'triclinic'
loop_
_space_group_symop_operation_xyz
x,y,z
-x,-y,-z
loop_
_atom_site_type_symbol
_atom_site_label
_atom_site_fract_x
_atom_site_fract_y
_atom_site_fract_z
Si Si1 0.390118 0.307836 0.073187
Si Si2 0.373873 0.363449 0.699373
Si Si3 0.797564 0.511694 0.155116
Si Si4 0.127998 0.397821 0.359033
Si Si5 0.535000 0.647117 0.793256
Si Si6 0.224074 0.406694 0.465084
Si Si7 0.086266 0.018340 0.571123
O O1 0.355660 0.497037 0.858365
O O2 0.383723 0.473892 0.163102
O O3 0.326097 0.247023 0.269202
O O4 0.500000 0.000000 0.000000
O O5 0.277476 0.496009 0.739788
O O6 0.414896 0.457078 0.442463
O O7 0.446199 0.005600 0.770752
O O8 0.762971 0.707033 0.298497
O O9 0.896487 0.163975 0.190442
O O10 0.811582 0.643702 0.900369
O O11 0.181993 0.320140 0.474378
O O12 0.121759 0.168339 0.463026
O O13 0.023603 0.738669 0.395296
O O14 0.500000 0.500000 0.000000
O O15 0.151291 0.773056 0.416264
#
# Coordination Sequence:
#
# PCOD8003525 Si02
#       7
#     2   2   2   2   2   2   2
#     4  10  20  38  59  83 118 155 196 241 293 354
#     4  10  20  37  59  80 117 154 190 248 298 345
#     4  10  21  37  60  89 118 159 196 246 303 357
#     4  11  20  43  62  88 123 162 189 260 304 347
#     4  10  21  37  59  83 114 150 200 250 291 352
#     4  10  21  39  62  89 121 159 201 248 299 357
#     4   9  23  39  62  93 122 149 213 241 298 380
#
# _framework density 20.537189999999999
#
# number of rings (size 3 to 8) (size 9 to 14) (size 15 to 20)
#    0.857    1.143    2.857    0.857    0.000    2.857 
#    2.571    2.857    0.000    0.000    0.000    0.000 
#    0.000    0.000    0.000    0.000    0.000    0.000 
#
# Total GULP energy -173465.163392 kJ/mol
# GULP energy per Si atom -12390.368814 kJ/mol
# Density = 2.049045 g / cm^3
# Si number density = 20.537190 Si / 1000 Ang^3
#
#
#
# Elastic Constant Matrix: (Units=GPa)
#
#
# Indices 1 2 3 4 5 6 
#
# 1 117.7193 7.7986 46.8845 1.0088 3.9387 -16.1428
# 2 7.7986 19.8185 4.6105 10.6019 3.2826 -3.1925
# 3 46.8845 4.6105 111.5426 4.5998 15.2775 2.2297
# 4 1.0088 10.6019 4.5998 29.8935 -4.9121 -3.4930
# 5 3.9387 3.2826 15.2775 -4.9121 37.7114 1.4134
# 6 -16.1428 -3.1925 2.2297 -3.4930 1.4134 24.1259
#
#
#
# Elastic Compliance Matrix: (Units=1/GPa)
#
#
# Indices 1 2 3 4 5 6 
#
# 1 0.011952 -0.003954 -0.005334 0.003012 0.001337 0.008325
# 2 -0.003954 0.067166 0.001125 -0.025026 -0.009264 0.003058
# 3 -0.005334 0.001125 0.012037 -0.003396 -0.004681 -0.004750
# 4 0.003012 -0.025026 -0.003396 0.044791 0.008887 0.004982
# 5 0.001337 -0.009264 -0.004681 0.008887 0.030252 -0.000384
# 6 0.008325 0.003058 -0.004750 0.004982 -0.000384 0.048607
#
#
# Mechanical properties :
#
#
# Convention : Reuss Voigt Hill
#
# Bulk Modulus (GPa) = 13.36368 40.85197 27.10783
# Shear Modulus (GPa) = 19.52557 30.99861 25.26209
#
# Velocity S-wave (km/s) = 3.08676 3.88930 3.51103
# Velocity P-wave (km/s) = 4.38466 6.33275 5.44651
#
# Compressibility (1/GPa) = 0.07482967
#
# Stress axis : x y z
#
# Youngs Moduli (GPa) = 83.66639 14.88843 83.07747
#
# Poissons Ratio (x) = 0.05887 0.44315
# Poissons Ratio (y) = 0.33083 -0.09350
# Poissons Ratio (z) = 0.44629 -0.01676
#
# Static dielectric constant tensor:
#      x y z
#    x 4.195140 -0.171390 0.420150 
#    y -0.171390 3.492060 0.190850 
#    z 0.420150 0.190850 3.795490 
# 
# 
# High freq. dielectric constant tensor:
#      x y z
#    x 1.815190 -0.020030 0.008520 
#    y -0.020030 1.777370 0.015390 
#    z 0.008520 0.015390 1.800470 
# 
# From -- ./inp_files/351329.got.cif
#   From: 2010.06.25/outbox.cif.g09.slc.cpg/sg2_176_cif.got.tgz:351329.got - 2010.06.27 13:26:56.
