data_PCOD8003520
_publ_section_title
;
Structure prediction by ZEFSAII (Michael W. Deem and Ramdas Pophale) SiO2 
 PCOD8003520
Probable space group: P -1
;
_chemical_formula_sum "Si O2"
_cell_formula_units_Z 16
_cell_length_a 11.981534
_cell_length_b 8.748010
_cell_length_c 10.845377
_cell_angle_alpha 82.966209
_cell_angle_beta 82.037083
_cell_angle_gamma 41.129643
_cell_volume 740.221062
_symmetry_space_group_name_H-M "P -1"
_symmetry_group_IT_number 2
_symmetry_cell_setting 'triclinic'
loop_
_space_group_symop_operation_xyz
x,y,z
-x,-y,-z
loop_
_atom_site_type_symbol
_atom_site_label
_atom_site_fract_x
_atom_site_fract_y
_atom_site_fract_z
Si Si1 0.557769 0.813976 0.714661
Si Si2 0.290671 0.023671 0.382560
Si Si3 0.968482 0.854750 0.995770
Si Si4 0.766167 0.813740 0.142244
Si Si5 0.313033 0.355432 0.016170
Si Si6 0.386451 0.444143 0.757399
Si Si7 0.433352 0.685636 0.594486
Si Si8 0.036505 0.656739 0.753076
O O1 0.579545 0.643279 0.638732
O O2 0.668983 0.835566 0.635708
O O3 0.357336 0.060897 0.731624
O O4 0.596173 0.737352 0.858331
O O5 0.432178 0.798113 0.297812
O O6 0.298431 0.939963 0.525782
O O7 0.095743 0.200934 0.352920
O O8 0.121094 0.597072 0.050853
O O9 0.950663 0.849378 0.852635
O O10 0.806191 0.948614 0.082443
O O11 0.000000 0.000000 0.000000
O O12 0.677326 0.819796 0.037225
O O13 0.937031 0.544995 0.181773
O O14 0.388038 0.409325 0.906694
O O15 0.356892 0.657045 0.717500
O O16 0.226971 0.523293 0.705911
O O17 0.500000 0.500000 0.500000
#
# Coordination Sequence:
#
# PCOD8003520 Si02
#       8
#     2   2   2   2   2   2   2   2
#     4  12  22  37  69  93 122 165 213 257 312 371
#     4  11  21  42  68  88 119 172 217 250 311 361
#     4  10  21  34  54  90 134 165 198 247 314 384
#     4  10  20  37  58  93 132 156 201 261 309 374
#     4  10  21  38  62  94 127 159 201 256 313 383
#     4   9  21  42  61  97 129 158 204 257 322 366
#     4  10  25  43  63  86 130 168 210 266 303 367
#     4  10  21  39  65  87 128 165 204 261 306 371
#
# _framework density 21.615164
#
# number of rings (size 3 to 8) (size 9 to 14) (size 15 to 20)
#    0.000    2.000    2.500    3.750    5.250    3.000 
#    0.000    0.625    5.500    0.000    0.000    0.000 
#    0.000    0.000    0.000    0.000    0.000    0.000 
#
# Total GULP energy -198226.011949 kJ/mol
# GULP energy per Si atom -12389.125747 kJ/mol
# Density = 2.156597 g / cm^3
# Si number density = 21.615164 Si / 1000 Ang^3
#
#
#
# Elastic Constant Matrix: (Units=GPa)
#
#
# Indices 1 2 3 4 5 6 
#
# 1 104.3781 41.7401 44.6681 -25.1063 -0.0599 29.0830
# 2 41.7401 46.5108 32.8472 -4.3215 9.9656 11.0819
# 3 44.6681 32.8472 101.2527 -34.5874 7.1201 25.2949
# 4 -25.1063 -4.3215 -34.5874 35.3304 6.2601 -2.2041
# 5 -0.0599 9.9656 7.1201 6.2601 36.3158 -6.5507
# 6 29.0830 11.0819 25.2949 -2.2041 -6.5507 40.4866
#
#
#
# Elastic Compliance Matrix: (Units=1/GPa)
#
#
# Indices 1 2 3 4 5 6 
#
# 1 0.024131 -0.020722 0.007327 0.021204 -0.002149 -0.015433
# 2 -0.020722 0.048297 -0.017157 -0.024280 -0.003855 0.010440
# 3 0.007327 -0.017157 0.027878 0.030935 -0.009290 -0.017803
# 4 0.021204 -0.024280 0.030935 0.071960 -0.016584 -0.026679
# 5 -0.002149 -0.003855 -0.009290 -0.016584 0.035664 0.013270
# 6 -0.015433 0.010440 -0.017803 -0.026679 0.013270 0.044746
#
#
# Mechanical properties :
#
#
# Convention : Reuss Voigt Hill
#
# Bulk Modulus (GPa) = 25.50992 54.51695 40.01344
# Shear Modulus (GPa) = 15.29762 31.28565 23.29163
#
# Velocity S-wave (km/s) = 2.66320 3.80859 3.28618
# Velocity P-wave (km/s) = 4.61349 6.67958 5.74026
#
# Compressibility (1/GPa) = 0.03920043
#
# Stress axis : x y z
#
# Youngs Moduli (GPa) = 41.44057 20.70536 35.87067
#
# Poissons Ratio (x) = 0.42907 -0.26281
# Poissons Ratio (y) = 0.85875 0.61543
# Poissons Ratio (z) = -0.30362 0.35524
#
# Static dielectric constant tensor:
#      x y z
#    x 4.084830 0.230240 -0.217030 
#    y 0.230240 3.914820 -0.207710 
#    z -0.217030 -0.207710 3.958090 
# 
# 
# High freq. dielectric constant tensor:
#      x y z
#    x 1.847670 0.009820 -0.009550 
#    y 0.009820 1.834470 -0.011460 
#    z -0.009550 -0.011460 1.837130 
# 
# From -- ./inp_files/417139.got.cif
#   From: 2010.06.25/outbox.cif.g09.slc.cpg/sg2_209_cif.got.tgz:417139.got - 2010.06.27 13:26:56.
