data_PCOD8003518
_publ_section_title
;
Structure prediction by ZEFSAII (Michael W. Deem and Ramdas Pophale) SiO2 
 PCOD8003518
Probable space group: P -1
;
_chemical_formula_sum "Si O2"
_cell_formula_units_Z 16
_cell_length_a 9.262040
_cell_length_b 8.089188
_cell_length_c 17.143669
_cell_angle_alpha 127.203332
_cell_angle_beta 109.447178
_cell_angle_gamma 104.113876
_cell_volume 776.972329
_symmetry_space_group_name_H-M "P -1"
_symmetry_group_IT_number 2
_symmetry_cell_setting 'triclinic'
loop_
_space_group_symop_operation_xyz
x,y,z
-x,-y,-z
loop_
_atom_site_type_symbol
_atom_site_label
_atom_site_fract_x
_atom_site_fract_y
_atom_site_fract_z
Si Si1 0.810799 0.495010 0.622024
Si Si2 0.257592 0.417945 0.862420
Si Si3 0.452924 0.765589 0.371380
Si Si4 0.424251 0.117248 0.848078
Si Si5 0.525199 0.939346 0.669893
Si Si6 0.193438 0.598829 0.741224
Si Si7 0.811318 0.798940 0.456764
Si Si8 0.866601 0.951590 0.688608
O O1 0.702852 0.486115 0.678853
O O2 0.668974 0.288733 0.472432
O O3 0.923961 0.780795 0.689418
O O4 0.966119 0.449942 0.663248
O O5 0.318868 0.223069 0.814867
O O6 0.266914 0.537333 0.814061
O O7 0.386228 0.646325 0.010475
O O8 0.043347 0.251727 0.810777
O O9 0.634518 0.778779 0.383283
O O10 0.500000 0.000000 0.500000
O O11 0.374812 0.791358 0.282978
O O12 0.481019 0.981941 0.760115
O O13 0.298370 0.902747 0.831371
O O14 0.679830 0.879686 0.680412
O O15 0.230993 0.479728 0.639644
O O16 0.822005 0.872722 0.568528
O O17 0.000000 0.000000 0.500000
#
# Coordination Sequence:
#
# PCOD8003518 Si02
#       8
#     2   2   2   2   2   2   2   2
#     4  11  23  38  63  99 134 167 205 262 338 395
#     4  11  25  47  68  90 131 173 226 276 315 373
#     4  10  20  37  58  92 133 170 200 250 329 393
#     4  11  26  46  67  96 124 177 230 267 317 378
#     4  11  23  40  64  93 134 169 207 266 326 393
#     4  12  24  41  70  98 132 167 218 272 326 389
#     4  12  22  35  65 101 131 166 210 261 333 395
#     4  12  23  40  62  94 136 170 209 266 328 390
#
# _framework density 20.592755
#
# number of rings (size 3 to 8) (size 9 to 14) (size 15 to 20)
#    0.000    0.750    5.000    4.500    3.500    1.500 
#    0.000    0.000    0.000    1.500    0.000    0.000 
#    0.000    0.000    0.000    0.000    0.000    0.000 
#
# Total GULP energy -198331.376422 kJ/mol
# GULP energy per Si atom -12395.711026 kJ/mol
# Density = 2.054588 g / cm^3
# Si number density = 20.592755 Si / 1000 Ang^3
#
#
#
# Elastic Constant Matrix: (Units=GPa)
#
#
# Indices 1 2 3 4 5 6 
#
# 1 119.0761 35.1203 33.6388 -7.2279 1.7006 -7.8956
# 2 35.1203 124.5020 38.8967 3.2636 1.5012 -5.0215
# 3 33.6388 38.8967 79.9224 3.0871 12.1792 1.5970
# 4 -7.2279 3.2636 3.0871 26.0506 -0.4755 4.4642
# 5 1.7006 1.5012 12.1792 -0.4755 21.8315 -4.5260
# 6 -7.8956 -5.0215 1.5970 4.4642 -4.5260 32.2716
#
#
#
# Elastic Compliance Matrix: (Units=1/GPa)
#
#
# Indices 1 2 3 4 5 6 
#
# 1 0.010349 -0.001675 -0.004032 0.003199 0.002110 0.002324
# 2 -0.001675 0.009995 -0.004493 -0.001467 0.002310 0.001895
# 3 -0.004032 -0.004493 0.018128 -0.002255 -0.010310 -0.003717
# 4 0.003199 -0.001467 -0.002255 0.040567 0.000997 -0.004806
# 5 0.002110 0.002310 -0.010310 0.000997 0.053057 0.008689
# 6 0.002324 0.001895 -0.003717 -0.004806 0.008689 0.033918
#
#
# Mechanical properties :
#
#
# Convention : Reuss Voigt Hill
#
# Bulk Modulus (GPa) = 55.33246 59.86800 57.60023
# Shear Modulus (GPa) = 25.98223 30.42038 28.20131
#
# Velocity S-wave (km/s) = 3.55592 3.84765 3.70466
# Velocity P-wave (km/s) = 6.61722 6.99105 6.80670
#
# Compressibility (1/GPa) = 0.01807257
#
# Stress axis : x y z
#
# Youngs Moduli (GPa) = 96.62420 100.04846 55.16256
#
# Poissons Ratio (x) = 0.16760 0.22243
# Poissons Ratio (y) = 0.16187 0.24782
# Poissons Ratio (z) = 0.38961 0.44948
#
# Static dielectric constant tensor:
#      x y z
#    x 4.173120 0.139040 0.098320 
#    y 0.139040 4.285390 0.026290 
#    z 0.098320 0.026290 3.468960 
# 
# 
# High freq. dielectric constant tensor:
#      x y z
#    x 1.813650 -0.002610 0.010290 
#    y -0.002610 1.827560 0.001830 
#    z 0.010290 0.001830 1.768610 
# 
# From -- ./inp_files/179212.got.cif
#   From: 2010.06.25/outbox.cif.g09.slc.cpg/sg2_90_cif.got.tgz:179212.got - 2010.06.27 13:26:56.
