data_PCOD8003043
_publ_section_title
;
Structure prediction by ZEFSAII (Michael W. Deem and Ramdas Pophale) SiO2 
 PCOD8003043
Probable space group: P -1
;
_chemical_formula_sum "Si O2"
_cell_formula_units_Z 16
_cell_length_a 12.069391
_cell_length_b 8.185447
_cell_length_c 12.392003
_cell_angle_alpha 91.325805
_cell_angle_beta 57.429318
_cell_angle_gamma 128.844817
_cell_volume 705.281027
_symmetry_space_group_name_H-M "P -1"
_symmetry_group_IT_number 2
_symmetry_cell_setting 'triclinic'
loop_
_space_group_symop_operation_xyz
x,y,z
-x,-y,-z
loop_
_atom_site_type_symbol
_atom_site_label
_atom_site_fract_x
_atom_site_fract_y
_atom_site_fract_z
Si Si1 0.658940 0.976287 0.804727
Si Si2 0.199906 0.730295 0.451071
Si Si3 0.803439 0.762815 0.771800
Si Si4 0.823544 0.726850 0.360361
Si Si5 0.753149 0.468978 0.987998
Si Si6 0.782678 0.759417 0.143259
Si Si7 0.397924 0.579869 0.326013
Si Si8 0.008449 0.549659 0.248866
O O1 0.682887 0.820576 0.842370
O O2 0.719447 0.032624 0.645289
O O3 0.787983 0.236215 0.793155
O O4 0.435006 0.814707 0.931710
O O5 0.366951 0.745629 0.349082
O O6 0.000000 0.500000 0.500000
O O7 0.145534 0.698427 0.605423
O O8 0.759358 0.616512 0.897596
O O9 0.750641 0.619828 0.688821
O O10 0.027148 0.015275 0.656799
O O11 0.748836 0.735541 0.288677
O O12 0.654626 0.544981 0.531736
O O13 0.921630 0.646172 0.268867
O O14 0.937295 0.514312 0.883082
O O15 0.745288 0.545820 0.110626
O O16 0.619663 0.736891 0.182602
O O17 0.000000 0.000000 0.000000
#
# Coordination Sequence:
#
# PCOD8003043 Si02
#       8
#     2   2   2   2   2   2   2   2
#     4  10  20  36  61  96 131 160 210 271 325 379
#     4   9  19  40  61  97 133 160 207 271 333 374
#     4  11  21  38  67  99 126 160 222 275 325 376
#     4  10  23  44  65  92 129 171 215 270 324 381
#     4  12  23  39  62  95 131 172 213 263 323 390
#     4  12  26  45  62  93 139 177 216 263 320 390
#     4  11  23  41  72  95 125 172 221 271 322 380
#     4   9  21  38  63  91 128 166 210 271 323 376
#
# _framework density 22.685991999999999
#
# number of rings (size 3 to 8) (size 9 to 14) (size 15 to 20)
#    0.000    1.500    2.500    3.750    0.000    2.500 
#    0.000    0.000    0.000    3.000    0.000    0.000 
#    0.000    0.000    0.000    0.000    0.000    0.000 
#
# Total GULP energy -198261.061735 kJ/mol
# GULP energy per Si atom -12391.316358 kJ/mol
# Density = 2.263436 g / cm^3
# Si number density = 22.685992 Si / 1000 Ang^3
#
#
#
# Elastic Constant Matrix: (Units=GPa)
#
#
# Indices 1 2 3 4 5 6 
#
# 1 53.9115 24.0621 21.0673 -7.6962 -11.9353 10.1967
# 2 24.0621 48.4469 25.0677 0.7249 -9.2201 5.0613
# 3 21.0673 25.0677 81.2607 -8.3459 -16.0684 2.5670
# 4 -7.6962 0.7249 -8.3459 38.2748 -4.1032 6.9220
# 5 -11.9353 -9.2201 -16.0684 -4.1032 48.4106 0.0761
# 6 10.1967 5.0613 2.5670 6.9220 0.0761 18.5486
#
#
#
# Elastic Compliance Matrix: (Units=1/GPa)
#
#
# Indices 1 2 3 4 5 6 
#
# 1 0.030032 -0.011394 -0.001677 0.009507 0.005510 -0.016739
# 2 -0.011394 0.029790 -0.006654 -0.004402 0.000282 0.000697
# 3 -0.001677 -0.006654 0.016004 0.003873 0.003961 -0.000939
# 4 0.009507 -0.004402 0.003873 0.032593 0.005580 -0.016747
# 5 0.005510 0.000282 0.003961 0.005580 0.023866 -0.005834
# 6 -0.016739 0.000697 -0.000939 -0.016747 -0.005834 0.069328
#
#
# Mechanical properties :
#
#
# Convention : Reuss Voigt Hill
#
# Bulk Modulus (GPa) = 27.48951 36.00149 31.74550
# Shear Modulus (GPa) = 19.74819 28.60827 24.17823
#
# Velocity S-wave (km/s) = 2.95363 3.55499 3.26817
# Velocity P-wave (km/s) = 4.87602 5.72315 5.31649
#
# Compressibility (1/GPa) = 0.03637752
#
# Stress axis : x y z
#
# Youngs Moduli (GPa) = 33.29749 33.56861 62.48351
#
# Poissons Ratio (x) = 0.38246 0.10476
# Poissons Ratio (y) = 0.37938 0.41578
# Poissons Ratio (z) = 0.05583 0.22338
#
# Static dielectric constant tensor:
#      x y z
#    x 4.008810 -0.018120 0.118040 
#    y -0.018120 3.895690 -0.091960 
#    z 0.118040 -0.091960 4.326780 
# 
# 
# High freq. dielectric constant tensor:
#      x y z
#    x 1.885410 -0.008480 -0.003910 
#    y -0.008480 1.865320 -0.005680 
#    z -0.003910 -0.005680 1.907600 
# 
# From -- ./inp_files/404829.got.cif
#   From: 2010.06.25/outbox.cif.g09.slc.cpg/sg2_203_cif.got.tgz:404829.got - 2010.06.27 13:26:56.
