data_PCOD8003801
_publ_section_title
;
Structure prediction by ZEFSAII (Michael W. Deem and Ramdas Pophale) SiO2 
 PCOD8003801
Probable space group: P -1
;
_chemical_formula_sum "Si O2"
_cell_formula_units_Z 16
_cell_length_a 12.524641
_cell_length_b 12.078872
_cell_length_c 8.805567
_cell_angle_alpha 92.068308
_cell_angle_beta 44.430074
_cell_angle_gamma 116.916938
_cell_volume 738.285097
_symmetry_space_group_name_H-M "P -1"
_symmetry_group_IT_number 2
_symmetry_cell_setting 'triclinic'
loop_
_space_group_symop_operation_xyz
x,y,z
-x,-y,-z
loop_
_atom_site_type_symbol
_atom_site_label
_atom_site_fract_x
_atom_site_fract_y
_atom_site_fract_z
Si Si1 0.281352 0.199906 0.069808
Si Si2 0.341866 0.563549 0.464742
Si Si3 0.482516 0.061767 0.370773
Si Si4 0.605331 0.614521 0.769263
Si Si5 0.678136 0.036776 0.919542
Si Si6 0.013797 0.550358 0.660195
Si Si7 0.085369 0.835919 0.591823
Si Si8 0.351049 0.631431 0.794883
O O1 0.275151 0.239867 0.253774
O O2 0.073860 0.140717 0.206777
O O3 0.329890 0.092750 0.022712
O O4 0.437947 0.325560 0.807157
O O5 0.265531 0.412159 0.465380
O O6 0.220733 0.610045 0.519571
O O7 0.321173 0.549529 0.666459
O O8 0.513059 0.204825 0.378055
O O9 0.500000 0.000000 0.500000
O O10 0.274076 0.946611 0.503638
O O11 0.665032 0.105909 0.085667
O O12 0.450711 0.601285 0.817392
O O13 0.500000 0.500000 0.000000
O O14 0.869572 0.140707 0.633018
O O15 0.500000 0.000000 0.000000
O O16 0.997083 0.675405 0.700934
O O17 0.000000 0.500000 0.500000
O O18 0.851904 0.423373 0.926137
#
# Coordination Sequence:
#
# PCOD8003801 Si02
#       8
#     2   2   2   2   2   2   2   2
#     4  11  21  40  63  93 129 168 217 273 327 387
#     4  11  23  40  63  94 131 171 212 268 330 391
#     4  11  24  44  66  94 132 173 215 265 327 394
#     4  10  21  38  61  90 126 166 210 262 323 385
#     4  10  20  37  61  88 121 166 213 264 316 374
#     4  12  23  41  67  96 126 170 224 272 323 389
#     4  11  23  40  64  94 126 167 216 271 322 384
#     4  12  24  42  65  95 132 173 215 269 329 390
#
# _framework density 21.671842999999999
#
# number of rings (size 3 to 8) (size 9 to 14) (size 15 to 20)
#    0.000    1.000    0.000   10.125    0.000    0.000 
#    0.000    3.750    0.000    0.000    0.000    0.000 
#    0.000    0.000    0.000    0.000    0.000    0.000 
#
# Total GULP energy -198342.255541 kJ/mol
# GULP energy per Si atom -12396.390971 kJ/mol
# Density = 2.162252 g / cm^3
# Si number density = 21.671843 Si / 1000 Ang^3
#
#
#
# Elastic Constant Matrix: (Units=GPa)
#
#
# Indices 1 2 3 4 5 6 
#
# 1 125.7495 29.1734 53.2127 7.7084 0.3538 -2.0627
# 2 29.1734 89.6289 14.6090 12.1306 2.6433 -1.8831
# 3 53.2127 14.6090 111.9599 12.2638 3.0342 9.4368
# 4 7.7084 12.1306 12.2638 36.3870 1.6887 4.2594
# 5 0.3538 2.6433 3.0342 1.6887 39.2894 9.5402
# 6 -2.0627 -1.8831 9.4368 4.2594 9.5402 38.9834
#
#
#
# Elastic Compliance Matrix: (Units=1/GPa)
#
#
# Indices 1 2 3 4 5 6 
#
# 1 0.010644 -0.002652 -0.004857 0.000077 0.000069 0.001585
# 2 -0.002652 0.012579 -0.000044 -0.003704 -0.000929 0.001110
# 3 -0.004857 -0.000044 0.011768 -0.002591 -0.000069 -0.002808
# 4 0.000077 -0.003704 -0.002591 0.029907 -0.000163 -0.002775
# 5 0.000069 -0.000929 -0.000069 -0.000163 0.027141 -0.006649
# 6 0.001585 0.001110 -0.002808 -0.002775 -0.006649 0.028399
#
#
# Mechanical properties :
#
#
# Convention : Reuss Voigt Hill
#
# Bulk Modulus (GPa) = 50.28505 57.92539 54.10522
# Shear Modulus (GPa) = 35.16865 38.28818 36.72842
#
# Velocity S-wave (km/s) = 4.03275 4.20780 4.12120
# Velocity P-wave (km/s) = 6.70353 7.09887 6.90403
#
# Compressibility (1/GPa) = 0.01988663
#
# Stress axis : x y z
#
# Youngs Moduli (GPa) = 93.95079 79.49455 84.97512
#
# Poissons Ratio (x) = 0.21082 0.41271
# Poissons Ratio (y) = 0.24916 0.00370
# Poissons Ratio (z) = 0.45630 0.00346
#
# Static dielectric constant tensor:
#      x y z
#    x 3.939630 0.028510 0.189160 
#    y 0.028510 4.211600 0.431330 
#    z 0.189160 0.431330 4.676160 
# 
# 
# High freq. dielectric constant tensor:
#      x y z
#    x 1.858140 -0.010790 0.002120 
#    y -0.010790 1.851610 0.012430 
#    z 0.002120 0.012430 1.849880 
# 
# From -- ./inp_files/184073.got.cif
#   From: 2010.06.25/outbox.cif.g09.slc.cpg/sg2_93_cif.got.tgz:184073.got - 2010.06.27 13:26:56.
