data_PCOD8003965
_publ_section_title
;
Structure prediction by ZEFSAII (Michael W. Deem and Ramdas Pophale) SiO2 
 PCOD8003965
Probable space group: P -1
;
_chemical_formula_sum "Si O2"
_cell_formula_units_Z 12
_cell_length_a 5.097915
_cell_length_b 9.448308
_cell_length_c 19.269127
_cell_angle_alpha 39.329770
_cell_angle_beta 70.578162
_cell_angle_gamma 74.955854
_cell_volume 554.755593
_symmetry_space_group_name_H-M "P -1"
_symmetry_group_IT_number 2
_symmetry_cell_setting 'triclinic'
loop_
_space_group_symop_operation_xyz
x,y,z
-x,-y,-z
loop_
_atom_site_type_symbol
_atom_site_label
_atom_site_fract_x
_atom_site_fract_y
_atom_site_fract_z
Si Si1 0.157758 0.365960 0.253930
Si Si2 0.323716 0.809537 0.122948
Si Si3 0.311891 0.609213 0.533086
Si Si4 0.712357 0.012272 0.708747
Si Si5 0.536438 0.401334 0.326204
Si Si6 0.096740 0.150242 0.744897
O O1 0.220133 0.632398 0.140546
O O2 0.301493 0.278577 0.346771
O O3 0.832867 0.316369 0.304576
O O4 0.286684 0.241874 0.222642
O O5 0.509966 0.671853 0.215463
O O6 0.060589 0.922110 0.143354
O O7 0.500000 0.000000 0.000000
O O8 0.500000 0.500000 0.500000
O O9 0.199890 0.837481 0.422820
O O10 0.492952 0.659483 0.567012
O O11 0.074361 0.424713 0.641735
O O12 0.415695 0.070047 0.747192
O O13 0.950327 0.041368 0.733294
#
# Coordination Sequence:
#
# PCOD8003965 Si02
#       6
#     2   2   2   2   2   2
#     4  10  23  41  60  91 129 155 205 249 303 367
#     4  10  23  43  68  87 118 163 209 259 305 350
#     4  10  20  37  62  93 125 163 199 245 302 362
#     4  11  24  39  64  90 133 163 192 250 312 357
#     4  10  21  39  61  88 126 151 212 245 295 365
#     4  11  22  41  61  94 122 161 212 247 290 375
#
# _framework density 21.631146000000001
#
# number of rings (size 3 to 8) (size 9 to 14) (size 15 to 20)
#    1.000    0.667    1.667    3.500    0.000    6.000 
#    0.000    1.667    0.000    0.000    0.000    0.000 
#    0.000    0.000    0.000    0.000    0.000    0.000 
#
# Total GULP energy -148718.521565 kJ/mol
# GULP energy per Si atom -12393.210130 kJ/mol
# Density = 2.158191 g / cm^3
# Si number density = 21.631146 Si / 1000 Ang^3
#
#
#
# Elastic Constant Matrix: (Units=GPa)
#
#
# Indices 1 2 3 4 5 6 
#
# 1 79.4117 12.5583 -4.0467 2.2721 -11.3853 0.4676
# 2 12.5583 96.6322 7.2026 1.8507 -2.7867 1.7508
# 3 -4.0467 7.2026 78.5376 7.8400 -14.8066 -11.8048
# 4 2.2721 1.8507 7.8400 18.5271 -4.1412 -5.4234
# 5 -11.3853 -2.7867 -14.8066 -4.1412 20.1855 5.2766
# 6 0.4676 1.7508 -11.8048 -5.4234 5.2766 34.8516
#
#
#
# Elastic Compliance Matrix: (Units=1/GPa)
#
#
# Indices 1 2 3 4 5 6 
#
# 1 0.014470 -0.001768 0.002745 -0.000764 0.009985 -0.000806
# 2 -0.001768 0.010691 -0.001205 -0.000695 -0.000290 -0.000986
# 3 0.002745 -0.001205 0.015986 -0.003473 0.011574 0.003146
# 4 -0.000764 -0.000695 -0.003473 0.059278 0.007259 0.006994
# 5 0.009985 -0.000290 0.011574 0.007259 0.066452 -0.005131
# 6 -0.000806 -0.000986 0.003146 0.006994 -0.005131 0.031684
#
#
# Mechanical properties :
#
#
# Convention : Reuss Voigt Hill
#
# Bulk Modulus (GPa) = 24.57480 31.77887 28.17683
# Shear Modulus (GPa) = 23.52045 30.63733 27.07889
#
# Velocity S-wave (km/s) = 3.30106 3.76753 3.54198
# Velocity P-wave (km/s) = 5.09066 5.80076 5.45728
#
# Compressibility (1/GPa) = 0.04069209
#
# Stress axis : x y z
#
# Youngs Moduli (GPa) = 69.10699 93.53745 62.55381
#
# Poissons Ratio (x) = 0.16537 -0.17173
# Poissons Ratio (y) = 0.12218 0.07538
# Poissons Ratio (z) = -0.18972 0.11272
#
# Static dielectric constant tensor:
#      x y z
#    x 3.880420 0.031240 -0.086310 
#    y 0.031240 3.862350 -0.052590 
#    z -0.086310 -0.052590 3.829280 
# 
# 
# High freq. dielectric constant tensor:
#      x y z
#    x 1.852830 0.003070 -0.013210 
#    y 0.003070 1.854970 0.014050 
#    z -0.013210 0.014050 1.805950 
# 
# From -- ./inp_files/40673.got.cif
#   From: 2010.06.25/outbox.cif.g09.slc.cpg/sg2_21_cif.got.tgz:40673.got - 2010.06.27 13:26:56.
