data_PCOD8003964
_publ_section_title
;
Structure prediction by ZEFSAII (Michael W. Deem and Ramdas Pophale) SiO2 
 PCOD8003964
Probable space group: P -1
;
_chemical_formula_sum "Si O2"
_cell_formula_units_Z 16
_cell_length_a 19.047952
_cell_length_b 6.449488
_cell_length_c 11.276969
_cell_angle_alpha 85.774934
_cell_angle_beta 127.812385
_cell_angle_gamma 127.988003
_cell_volume 753.052342
_symmetry_space_group_name_H-M "P -1"
_symmetry_group_IT_number 2
_symmetry_cell_setting 'triclinic'
loop_
_space_group_symop_operation_xyz
x,y,z
-x,-y,-z
loop_
_atom_site_type_symbol
_atom_site_label
_atom_site_fract_x
_atom_site_fract_y
_atom_site_fract_z
Si Si1 0.253511 0.755067 0.943879
Si Si2 0.873300 0.276358 0.799235
Si Si3 0.834171 0.903086 0.577013
Si Si4 0.753139 0.896429 0.899751
Si Si5 0.579290 0.243163 0.741442
Si Si6 0.925399 0.927612 0.231090
Si Si7 0.691694 0.341681 0.596808
Si Si8 0.135598 0.848425 0.643338
O O1 0.135704 0.403213 0.813795
O O2 0.248489 0.898389 0.818187
O O3 0.382367 0.839378 0.102772
O O4 0.236481 0.864809 0.037644
O O5 0.817568 0.410837 0.710042
O O6 0.903411 0.199889 0.714212
O O7 0.764434 0.959377 0.769380
O O8 0.000000 0.500000 0.000000
O O9 0.715377 0.597885 0.538960
O O10 0.796252 0.956511 0.414325
O O11 0.924474 0.861174 0.638899
O O12 0.619761 0.548511 0.803770
O O13 0.875046 0.964648 0.062685
O O14 0.660629 0.324798 0.703757
O O15 0.427998 0.976882 0.575942
O O16 0.895451 0.003231 0.315660
O O17 0.000000 0.500000 0.500000
#
# Coordination Sequence:
#
# PCOD8003964 Si02
#       8
#     2   2   2   2   2   2   2   2
#     4  10  20  40  66  89 122 167 213 258 307 372
#     4  12  25  37  61  97 137 162 197 263 322 382
#     4  12  25  39  60  96 132 166 207 256 321 375
#     4  10  20  37  62  93 123 166 211 252 311 375
#     4  10  22  43  64  89 126 172 218 253 309 369
#     4  10  22  38  63  92 127 167 206 259 314 379
#     4  11  25  40  62  93 130 170 208 262 310 374
#     4  11  24  39  64  96 126 168 210 257 312 380
#
# _framework density 21.246863999999999
#
# number of rings (size 3 to 8) (size 9 to 14) (size 15 to 20)
#    0.000    1.250    3.750    1.875    5.250    2.500 
#    0.000    0.625    0.000    7.500    0.000    0.000 
#    0.000    0.000    0.000    0.000    0.000    0.000 
#
# Total GULP energy -198285.774076 kJ/mol
# GULP energy per Si atom -12392.860880 kJ/mol
# Density = 2.119851 g / cm^3
# Si number density = 21.246864 Si / 1000 Ang^3
#
#
#
# Elastic Constant Matrix: (Units=GPa)
#
#
# Indices 1 2 3 4 5 6 
#
# 1 66.0260 40.9842 32.2813 1.4196 -17.1617 -11.9924
# 2 40.9842 112.2042 51.3734 -9.9449 -10.8913 -6.8760
# 3 32.2813 51.3734 107.2783 -4.7160 -7.7673 4.0667
# 4 1.4196 -9.9449 -4.7160 39.0248 0.2682 -10.8438
# 5 -17.1617 -10.8913 -7.7673 0.2682 34.2056 1.4056
# 6 -11.9924 -6.8760 4.0667 -10.8438 1.4056 29.6016
#
#
#
# Elastic Compliance Matrix: (Units=1/GPa)
#
#
# Indices 1 2 3 4 5 6 
#
# 1 0.024840 -0.005642 -0.004453 -0.000517 0.009300 0.008734
# 2 -0.005642 0.013733 -0.004797 0.003956 0.000298 0.002998
# 3 -0.004453 -0.004797 0.013068 -0.000868 -0.000582 -0.005004
# 4 -0.000517 0.003956 -0.000868 0.029810 0.000087 0.011745
# 5 0.009300 0.000298 -0.000582 0.000087 0.033767 0.002345
# 6 0.008734 0.002998 -0.005004 0.011745 0.002345 0.042895
#
#
# Mechanical properties :
#
#
# Convention : Reuss Voigt Hill
#
# Bulk Modulus (GPa) = 45.75256 59.42069 52.58663
# Shear Modulus (GPa) = 25.61720 31.29104 28.45412
#
# Velocity S-wave (km/s) = 3.47608 3.84179 3.66350
# Velocity P-wave (km/s) = 6.13933 6.90700 6.53445
#
# Compressibility (1/GPa) = 0.02185670
#
# Stress axis : x y z
#
# Youngs Moduli (GPa) = 40.25829 72.81896 76.52276
#
# Poissons Ratio (x) = 0.41084 0.34076
# Poissons Ratio (y) = 0.22714 0.36706
# Poissons Ratio (z) = 0.17927 0.34929
#
# Static dielectric constant tensor:
#      x y z
#    x 3.525650 -0.201780 -0.212200 
#    y -0.201780 4.140330 -0.215630 
#    z -0.212200 -0.215630 3.940780 
# 
# 
# High freq. dielectric constant tensor:
#      x y z
#    x 1.800130 -0.023830 -0.017680 
#    y -0.023830 1.848620 -0.012130 
#    z -0.017680 -0.012130 1.833310 
# 
# From -- ./inp_files/69125.got.cif
#   From: 2010.06.25/outbox.cif.g09.slc.cpg/sg2_35_cif.got.tgz:69125.got - 2010.06.27 13:26:56.
