data_PCOD8003715
_publ_section_title
;
Structure prediction by ZEFSAII (Michael W. Deem and Ramdas Pophale) SiO2 
 PCOD8003715
Probable space group: P -1
;
_chemical_formula_sum "Si O2"
_cell_formula_units_Z 14
_cell_length_a 20.055108
_cell_length_b 6.979887
_cell_length_c 6.361429
_cell_angle_alpha 68.586745
_cell_angle_beta 113.210700
_cell_angle_gamma 72.945063
_cell_volume 654.955489
_symmetry_space_group_name_H-M "P -1"
_symmetry_group_IT_number 2
_symmetry_cell_setting 'triclinic'
loop_
_space_group_symop_operation_xyz
x,y,z
-x,-y,-z
loop_
_atom_site_type_symbol
_atom_site_label
_atom_site_fract_x
_atom_site_fract_y
_atom_site_fract_z
Si Si1 0.835378 0.999278 0.745063
Si Si2 0.737725 0.432796 0.749720
Si Si3 0.686991 0.954146 0.446030
Si Si4 0.019101 0.119693 0.783819
Si Si5 0.386393 0.687573 0.144497
Si Si6 0.471262 0.808270 0.550743
Si Si7 0.124997 0.785306 0.673906
O O1 0.797010 0.253382 0.715410
O O2 0.769774 0.907114 0.695128
O O3 0.859824 0.037245 0.526210
O O4 0.918217 0.800510 0.063775
O O5 0.663396 0.379807 0.723551
O O6 0.697349 0.700231 0.502539
O O7 0.786481 0.418683 0.035428
O O8 0.602118 0.114477 0.404071
O O9 0.680749 0.100960 0.171139
O O10 0.927789 0.313293 0.488209
O O11 0.068640 0.929250 0.742135
O O12 0.000000 0.000000 0.000000
O O13 0.439616 0.785569 0.290641
O O14 0.449364 0.450492 0.183200
O O15 0.500000 0.000000 0.500000
#
# Coordination Sequence:
#
# PCOD8003715 Si02
#       7
#     2   2   2   2   2   2   2
#     4  10  20  37  60  90 126 161 202 252 301 356
#     4  11  22  38  60  92 122 159 209 246 302 367
#     4  12  24  39  64  91 121 164 203 251 308 360
#     4   8  16  32  62  92 120 166 201 240 305 353
#     4  11  24  42  62  88 122 157 203 258 304 361
#     4  11  24  44  64  87 120 161 206 252 308 367
#     4   9  17  35  61  88 126 164 197 250 301 349
#
# _framework density 21.375499000000001
#
# number of rings (size 3 to 8) (size 9 to 14) (size 15 to 20)
#    0.000    1.714    4.286    0.429    0.000    2.857 
#    0.000    0.714    0.000   29.143    0.000    0.000 
#    0.000    0.000    0.000    0.000    0.000    0.000 
#
# Total GULP energy -173444.314787 kJ/mol
# GULP energy per Si atom -12388.879628 kJ/mol
# Density = 2.132685 g / cm^3
# Si number density = 21.375499 Si / 1000 Ang^3
#
#
#
# Elastic Constant Matrix: (Units=GPa)
#
#
# Indices 1 2 3 4 5 6 
#
# 1 119.5474 33.1126 34.0679 8.9975 2.9785 9.2052
# 2 33.1126 85.2622 28.7093 2.8532 -3.4434 21.3038
# 3 34.0679 28.7093 83.8308 10.0545 11.7387 23.6697
# 4 8.9975 2.8532 10.0545 18.7530 0.9525 -4.7323
# 5 2.9785 -3.4434 11.7387 0.9525 38.6171 10.9317
# 6 9.2052 21.3038 23.6697 -4.7323 10.9317 29.9679
#
#
#
# Elastic Compliance Matrix: (Units=1/GPa)
#
#
# Indices 1 2 3 4 5 6 
#
# 1 0.010221 -0.003212 -0.003091 -0.002386 -0.000466 0.001379
# 2 -0.003212 0.016975 -0.001222 -0.003935 0.005876 -0.012880
# 3 -0.003091 -0.001222 0.019572 -0.012596 -0.001210 -0.015188
# 4 -0.002386 -0.003935 -0.012596 0.068746 -0.005489 0.026337
# 5 -0.000466 0.005876 -0.001210 -0.005489 0.031308 -0.015365
# 6 0.001379 -0.012880 -0.015188 0.026337 -0.015365 0.063862
#
#
# Mechanical properties :
#
#
# Convention : Reuss Voigt Hill
#
# Bulk Modulus (GPa) = 31.52947 53.38000 42.45474
# Shear Modulus (GPa) = 21.15901 30.31764 25.73832
#
# Velocity S-wave (km/s) = 3.14964 3.77017 3.47378
# Velocity P-wave (km/s) = 5.29238 6.63166 5.99951
#
# Compressibility (1/GPa) = 0.03171636
#
# Stress axis : x y z
#
# Youngs Moduli (GPa) = 97.84250 58.91148 51.09306
#
# Poissons Ratio (x) = 0.18922 0.15795
# Poissons Ratio (y) = 0.31426 0.06244
# Poissons Ratio (z) = 0.30247 0.07200
#
# Static dielectric constant tensor:
#      x y z
#    x 4.175500 -0.055040 0.458500 
#    y -0.055040 3.455310 0.211770 
#    z 0.458500 0.211770 4.329370 
# 
# 
# High freq. dielectric constant tensor:
#      x y z
#    x 1.863630 -0.003960 0.017390 
#    y -0.003960 1.794360 0.018000 
#    z 0.017390 0.018000 1.847010 
# 
# From -- ./inp_files/7392.got.cif
#   From: 2010.06.25/outbox.cif.g09.slc.cpg/sg2_4_cif.got.tgz:7392.got - 2010.06.27 13:26:56.
