data_PCOD8003255
_publ_section_title
;
Structure prediction by ZEFSAII (Michael W. Deem and Ramdas Pophale) SiO2 
 PCOD8003255
Probable space group: P -1
;
_chemical_formula_sum "Si O2"
_cell_formula_units_Z 16
_cell_length_a 12.302242
_cell_length_b 15.823951
_cell_length_c 8.550379
_cell_angle_alpha 80.557584
_cell_angle_beta 90.054535
_cell_angle_gamma 151.438846
_cell_volume 747.980974
_symmetry_space_group_name_H-M "P -1"
_symmetry_group_IT_number 2
_symmetry_cell_setting 'triclinic'
loop_
_space_group_symop_operation_xyz
x,y,z
-x,-y,-z
loop_
_atom_site_type_symbol
_atom_site_label
_atom_site_fract_x
_atom_site_fract_y
_atom_site_fract_z
Si Si1 0.311599 0.263746 0.354999
Si Si2 0.255672 0.851207 0.130221
Si Si3 0.800275 0.975640 0.408024
Si Si4 0.129110 0.539635 0.853740
Si Si5 0.864550 0.063801 0.025270
Si Si6 0.471373 0.283816 0.048953
Si Si7 0.450460 0.052334 0.393282
Si Si8 0.391666 0.390302 0.873130
O O1 0.309372 0.216733 0.199746
O O2 0.515198 0.480798 0.302740
O O3 0.064224 0.139379 0.419996
O O4 0.357443 0.220738 0.495917
O O5 0.075357 0.643463 0.204599
O O6 0.306369 0.925630 0.277025
O O7 0.116504 0.821094 0.028496
O O8 0.500000 0.000000 0.000000
O O9 0.789802 0.986815 0.222323
O O10 0.711401 0.997010 0.491820
O O11 0.275885 0.564338 0.923981
O O12 0.299290 0.724008 0.704910
O O13 0.000000 0.500000 0.000000
O O14 0.107159 0.188289 0.936158
O O15 0.658127 0.892223 0.956123
O O16 0.490450 0.361746 0.874779
O O17 0.500000 0.000000 0.500000
O O18 0.500000 0.500000 0.000000
#
# Coordination Sequence:
#
# PCOD8003255 Si02
#       8
#     2   2   2   2   2   2   2   2
#     4  10  21  41  64  91 141 182 223 283 346 397
#     4  12  24  46  75 101 128 183 239 283 345 414
#     4  11  23  39  65  98 142 180 214 288 356 400
#     4  12  25  45  76 101 135 182 237 291 336 417
#     4  12  22  38  72  97 134 186 234 278 342 410
#     4  11  21  42  67 100 137 178 239 282 333 411
#     4  12  27  48  70 103 144 178 224 295 357 411
#     4  10  20  36  64  96 127 184 231 279 322 404
#
# _framework density 21.390919
#
# number of rings (size 3 to 8) (size 9 to 14) (size 15 to 20)
#    0.000    0.750    6.250    2.625    0.000    0.500 
#    0.000    1.875    0.000    0.000    0.000    0.000 
#    0.000    0.000    0.000    0.000    0.000    0.000 
#
# Total GULP energy -198334.296606 kJ/mol
# GULP energy per Si atom -12395.893538 kJ/mol
# Density = 2.134223 g / cm^3
# Si number density = 21.390919 Si / 1000 Ang^3
#
#
#
# Elastic Constant Matrix: (Units=GPa)
#
#
# Indices 1 2 3 4 5 6 
#
# 1 154.9121 34.6785 61.3834 -16.8764 8.9062 -1.1179
# 2 34.6785 133.4046 47.7166 -17.0673 3.4202 -8.3589
# 3 61.3834 47.7166 118.6036 -20.9907 15.8097 -9.7824
# 4 -16.8764 -17.0673 -20.9907 23.6502 -0.5101 7.1321
# 5 8.9062 3.4202 15.8097 -0.5101 43.4270 -7.1664
# 6 -1.1179 -8.3589 -9.7824 7.1321 -7.1664 29.8682
#
#
#
# Elastic Compliance Matrix: (Units=1/GPa)
#
#
# Indices 1 2 3 4 5 6 
#
# 1 0.008372 -0.000606 -0.003660 0.002843 -0.000614 -0.001881
# 2 -0.000606 0.009121 -0.002750 0.003434 0.000605 0.000954
# 3 -0.003660 -0.002750 0.013182 0.006744 -0.003598 0.000937
# 4 0.002843 0.003434 0.006744 0.056052 -0.004496 -0.011187
# 5 -0.000614 0.000605 -0.003598 -0.004496 0.025374 0.006130
# 6 -0.001881 0.000954 0.000937 -0.011187 0.006130 0.038126
#
#
# Mechanical properties :
#
#
# Convention : Reuss Voigt Hill
#
# Bulk Modulus (GPa) = 60.07918 77.16414 68.62166
# Shear Modulus (GPa) = 29.44523 36.93189 33.18856
#
# Velocity S-wave (km/s) = 3.71419 4.15965 3.94321
# Velocity P-wave (km/s) = 6.82209 7.69558 7.27196
#
# Compressibility (1/GPa) = 0.01664470
#
# Stress axis : x y z
#
# Youngs Moduli (GPa) = 119.43945 109.63985 75.85957
#
# Poissons Ratio (x) = 0.06642 0.27761
# Poissons Ratio (y) = 0.07236 0.20862
# Poissons Ratio (z) = 0.43709 0.30152
#
# Static dielectric constant tensor:
#      x y z
#    x 4.181850 -0.467430 0.260720 
#    y -0.467430 4.210430 -0.506240 
#    z 0.260720 -0.506240 4.059690 
# 
# 
# High freq. dielectric constant tensor:
#      x y z
#    x 1.859850 -0.010410 0.010370 
#    y -0.010410 1.834580 -0.016900 
#    z 0.010370 -0.016900 1.827660 
# 
# From -- ./inp_files/272939.got.cif
#   From: 2010.06.25/outbox.cif.g09.slc.cpg/sg2_137_cif.got.tgz:272939.got - 2010.06.27 13:26:56.
