data_PCOD8003943
_publ_section_title
;
Structure prediction by ZEFSAII (Michael W. Deem and Ramdas Pophale) SiO2 
 PCOD8003943
Probable space group: P -1
;
_chemical_formula_sum "Si O2"
_cell_formula_units_Z 16
_cell_length_a 15.309250
_cell_length_b 11.505572
_cell_length_c 11.341959
_cell_angle_alpha 33.780390
_cell_angle_beta 97.293207
_cell_angle_gamma 120.638559
_cell_volume 749.811297
_symmetry_space_group_name_H-M "P -1"
_symmetry_group_IT_number 2
_symmetry_cell_setting 'triclinic'
loop_
_space_group_symop_operation_xyz
x,y,z
-x,-y,-z
loop_
_atom_site_type_symbol
_atom_site_label
_atom_site_fract_x
_atom_site_fract_y
_atom_site_fract_z
Si Si1 0.859043 0.243106 0.246640
Si Si2 0.999396 0.712194 0.464221
Si Si3 0.721369 0.590708 0.852161
Si Si4 0.815270 0.333130 0.532959
Si Si5 0.792199 0.325499 0.942886
Si Si6 0.474340 0.213650 0.744960
Si Si7 0.468260 0.083113 0.108227
Si Si8 0.834213 0.607789 0.077286
O O1 0.861917 0.427351 0.187734
O O2 0.806020 0.947470 0.553431
O O3 0.767672 0.124182 0.217401
O O4 0.000000 0.500000 0.000000
O O5 0.900036 0.543895 0.481277
O O6 0.928172 0.523488 0.732448
O O7 0.121058 0.768194 0.421858
O O8 0.042816 0.027182 0.216641
O O9 0.792257 0.556693 0.803520
O O10 0.569069 0.342294 0.004884
O O11 0.723552 0.519863 0.049500
O O12 0.802366 0.508244 0.293033
O O13 0.666776 0.032712 0.797068
O O14 0.679359 0.094804 0.024076
O O15 0.500000 0.500000 0.500000
O O16 0.541426 0.190374 0.670841
O O17 0.528971 0.243706 0.856101
#
# Coordination Sequence:
#
# PCOD8003943 Si02
#       8
#     2   2   2   2   2   2   2   2
#     4  11  21  37  61  93 123 160 203 253 310 362
#     4  11  23  42  62  90 126 161 209 258 301 362
#     4  10  22  39  64  91 126 157 202 259 305 367
#     4  11  24  42  62  88 125 166 210 248 303 366
#     4  10  20  37  62  91 120 157 200 253 313 356
#     4  10  20  38  62  90 122 156 199 253 307 366
#     4  10  22  41  61  91 123 161 204 251 307 364
#     4  11  23  40  60  88 123 164 208 251 302 364
#
# _framework density 21.338704
#
# number of rings (size 3 to 8) (size 9 to 14) (size 15 to 20)
#    0.000    1.500    1.250    4.125    0.000    3.500 
#    4.500    2.500    0.000    0.000    0.000    0.000 
#    0.000    0.000    0.000    0.000    0.000    0.000 
#
# Total GULP energy -198258.436696 kJ/mol
# GULP energy per Si atom -12391.152294 kJ/mol
# Density = 2.129014 g / cm^3
# Si number density = 21.338704 Si / 1000 Ang^3
#
#
#
# Elastic Constant Matrix: (Units=GPa)
#
#
# Indices 1 2 3 4 5 6 
#
# 1 110.8579 30.5422 46.7094 -12.7493 -7.7406 8.1384
# 2 30.5422 99.9457 43.8664 -1.4358 4.6714 12.5714
# 3 46.7094 43.8664 100.0877 -5.1624 19.2702 -1.2698
# 4 -12.7493 -1.4358 -5.1624 36.6418 -0.8401 1.4228
# 5 -7.7406 4.6714 19.2702 -0.8401 38.7864 -3.4545
# 6 8.1384 12.5714 -1.2698 1.4228 -3.4545 29.0345
#
#
#
# Elastic Compliance Matrix: (Units=1/GPa)
#
#
# Indices 1 2 3 4 5 6 
#
# 1 0.013189 -0.000907 -0.006733 0.003860 0.005895 -0.003086
# 2 -0.000907 0.013463 -0.005663 -0.000352 0.000491 -0.005747
# 3 -0.006733 -0.005663 0.017362 -0.000481 -0.008937 0.004059
# 4 0.003860 -0.000352 -0.000481 0.028671 0.001478 -0.002180
# 5 0.005895 0.000491 -0.008937 0.001478 0.031498 0.001419
# 6 -0.003086 -0.005747 0.004059 -0.002180 0.001419 0.038248
#
#
# Mechanical properties :
#
#
# Convention : Reuss Voigt Hill
#
# Bulk Modulus (GPa) = 57.44090 61.45859 59.44975
# Shear Modulus (GPa) = 28.59735 33.54409 31.07072
#
# Velocity S-wave (km/s) = 3.66480 3.96913 3.81999
# Velocity P-wave (km/s) = 6.69961 7.06182 6.88309
#
# Compressibility (1/GPa) = 0.01740920
#
# Stress axis : x y z
#
# Youngs Moduli (GPa) = 75.81794 74.27793 57.59555
#
# Poissons Ratio (x) = 0.06740 0.38777
# Poissons Ratio (y) = 0.06880 0.32615
# Poissons Ratio (z) = 0.51046 0.42061
#
# Static dielectric constant tensor:
#      x y z
#    x 4.499260 0.843140 0.046440 
#    y 0.843140 4.807560 -0.147580 
#    z 0.046440 -0.147580 3.692370 
# 
# 
# High freq. dielectric constant tensor:
#      x y z
#    x 1.828060 0.011440 0.015810 
#    y 0.011440 1.865780 0.001970 
#    z 0.015810 0.001970 1.818580 
# 
# From -- ./inp_files/363855.got.cif
#   From: 2010.06.25/outbox.cif.g09.slc.cpg/sg2_182_cif.got.tgz:363855.got - 2010.06.27 13:26:56.
