data_PCOD8003967
_publ_section_title
;
Structure prediction by ZEFSAII (Michael W. Deem and Ramdas Pophale) SiO2 
 PCOD8003967
Probable space group: P -1
;
_chemical_formula_sum "Si O2"
_cell_formula_units_Z 16
_cell_length_a 19.151223
_cell_length_b 7.814158
_cell_length_c 9.425486
_cell_angle_alpha 64.009567
_cell_angle_beta 43.252044
_cell_angle_gamma 88.416621
_cell_volume 765.268189
_symmetry_space_group_name_H-M "P -1"
_symmetry_group_IT_number 2
_symmetry_cell_setting 'triclinic'
loop_
_space_group_symop_operation_xyz
x,y,z
-x,-y,-z
loop_
_atom_site_type_symbol
_atom_site_label
_atom_site_fract_x
_atom_site_fract_y
_atom_site_fract_z
Si Si1 0.245630 0.368686 0.045100
Si Si2 0.673768 0.779680 0.547830
Si Si3 0.829597 0.103564 0.567337
Si Si4 0.971067 0.547911 0.678401
Si Si5 0.842962 0.249447 0.207697
Si Si6 0.736424 0.552885 0.324172
Si Si7 0.585373 0.420992 0.041176
Si Si8 0.388289 0.816312 0.165414
O O1 0.134150 0.401350 0.197253
O O2 0.347466 0.552465 0.920472
O O3 0.208636 0.139608 0.251360
O O4 0.292630 0.383872 0.809538
O O5 0.768203 0.752938 0.315700
O O6 0.646178 0.652557 0.785416
O O7 0.725690 0.036851 0.407079
O O8 0.550429 0.677284 0.685944
O O9 0.894940 0.175551 0.290976
O O10 0.717145 0.132219 0.700935
O O11 0.913625 0.248220 0.512815
O O12 0.000000 0.500000 0.500000
O O13 0.936128 0.341319 0.908973
O O14 0.824983 0.454632 0.208897
O O15 0.626668 0.371701 0.635337
O O16 0.595403 0.240439 0.997757
O O17 0.500000 0.000000 0.000000
#
# Coordination Sequence:
#
# PCOD8003967 Si02
#       8
#     2   2   2   2   2   2   2   2
#     4  11  23  41  61  93 129 158 206 264 318 365
#     4  10  20  38  64  93 123 170 207 250 309 378
#     4  11  22  41  66  88 122 169 210 252 317 371
#     4  11  25  43  63  89 125 164 210 267 313 368
#     4  10  21  43  65  90 124 165 215 254 312 376
#     4   9  22  37  61  90 131 157 205 258 311 367
#     4  10  20  37  62  93 127 159 209 254 303 380
#     4  10  21  40  66  91 124 168 211 251 311 377
#
# _framework density 20.907702
#
# number of rings (size 3 to 8) (size 9 to 14) (size 15 to 20)
#    0.000    1.750    1.250    3.000    5.250    0.500 
#    0.000    3.750    0.000    0.000    0.000    0.000 
#    0.000    0.000    0.000    0.000    0.000    0.000 
#
# Total GULP energy -198225.726989 kJ/mol
# GULP energy per Si atom -12389.107937 kJ/mol
# Density = 2.086011 g / cm^3
# Si number density = 20.907702 Si / 1000 Ang^3
#
#
#
# Elastic Constant Matrix: (Units=GPa)
#
#
# Indices 1 2 3 4 5 6 
#
# 1 111.3255 31.0742 20.8098 1.1444 2.4818 17.4341
# 2 31.0742 88.8867 33.7813 4.3066 6.6806 10.9035
# 3 20.8098 33.7813 56.7961 15.2312 16.2799 9.5223
# 4 1.1444 4.3066 15.2312 28.1929 6.2094 3.8160
# 5 2.4818 6.6806 16.2799 6.2094 43.6529 -2.4514
# 6 17.4341 10.9035 9.5223 3.8160 -2.4514 35.2173
#
#
#
# Elastic Compliance Matrix: (Units=1/GPa)
#
#
# Indices 1 2 3 4 5 6 
#
# 1 0.010718 -0.002478 -0.002259 0.001688 0.000142 -0.004101
# 2 -0.002478 0.015526 -0.008989 0.002627 0.000666 -0.001388
# 3 -0.002259 -0.008989 0.030036 -0.012512 -0.008110 -0.003429
# 4 0.001688 0.002627 -0.012512 0.042624 -0.002065 -0.003028
# 5 0.000142 0.000666 -0.008110 -0.002065 0.026340 0.003974
# 6 -0.004101 -0.001388 -0.003429 -0.003028 0.003974 0.032387
#
#
# Mechanical properties :
#
#
# Convention : Reuss Voigt Hill
#
# Bulk Modulus (GPa) = 34.68835 47.59321 41.14078
# Shear Modulus (GPa) = 25.68161 32.83550 29.25856
#
# Velocity S-wave (km/s) = 3.50856 3.96725 3.74493
# Velocity P-wave (km/s) = 5.74809 6.61803 6.19834
#
# Compressibility (1/GPa) = 0.02882812
#
# Stress axis : x y z
#
# Youngs Moduli (GPa) = 93.29813 64.40908 33.29350
#
# Poissons Ratio (x) = 0.15960 0.07521
# Poissons Ratio (y) = 0.23118 0.29928
# Poissons Ratio (z) = 0.21076 0.57897
#
# Static dielectric constant tensor:
#      x y z
#    x 3.884170 0.147740 0.308380 
#    y 0.147740 3.201560 0.567160 
#    z 0.308380 0.567160 4.173550 
# 
# 
# High freq. dielectric constant tensor:
#      x y z
#    x 1.809070 0.012540 0.012430 
#    y 0.012540 1.825190 0.001050 
#    z 0.012430 0.001050 1.819310 
# 
# From -- ./inp_files/221793.got.cif
#   From: 2010.06.25/outbox.cif.g09.slc.cpg/sg2_111_cif.got.tgz:221793.got - 2010.06.27 13:26:56.
