data_PCOD8003579
_publ_section_title
;
Structure prediction by ZEFSAII (Michael W. Deem and Ramdas Pophale) SiO2 
 PCOD8003579
Probable space group: P -1
;
_chemical_formula_sum "Si O2"
_cell_formula_units_Z 16
_cell_length_a 22.289009
_cell_length_b 14.034133
_cell_length_c 8.731318
_cell_angle_alpha 128.052461
_cell_angle_beta 31.924095
_cell_angle_gamma 147.873097
_cell_volume 715.318935
_symmetry_space_group_name_H-M "P -1"
_symmetry_group_IT_number 2
_symmetry_cell_setting 'triclinic'
loop_
_space_group_symop_operation_xyz
x,y,z
-x,-y,-z
loop_
_atom_site_type_symbol
_atom_site_label
_atom_site_fract_x
_atom_site_fract_y
_atom_site_fract_z
Si Si1 0.931995 0.853300 0.131689
Si Si2 0.280567 0.102641 0.809196
Si Si3 0.855114 0.421957 0.617698
Si Si4 0.772090 0.896023 0.756289
Si Si5 0.755841 0.192564 0.319176
Si Si6 0.615085 0.314891 0.605194
Si Si7 0.662552 0.419872 0.254382
Si Si8 0.954777 0.668378 0.383479
O O1 0.802037 0.808866 0.492881
O O2 0.813838 0.646363 0.115322
O O3 0.000000 0.000000 0.000000
O O4 0.111660 0.947111 0.910636
O O5 0.460919 0.302730 0.535801
O O6 0.335013 0.016005 0.681366
O O7 0.234898 0.154399 0.101304
O O8 0.789012 0.260742 0.489567
O O9 0.000000 0.500000 0.500000
O O10 0.950577 0.604791 0.494700
O O11 0.689109 0.333881 0.990806
O O12 0.949111 0.125743 0.589518
O O13 0.585285 0.809038 0.035095
O O14 0.632898 0.188367 0.491329
O O15 0.942434 0.332284 0.961341
O O16 0.668205 0.378831 0.376428
O O17 0.751921 0.512158 0.602775
#
# Coordination Sequence:
#
# PCOD8003579 Si02
#       8
#     2   2   2   2   2   2   2   2
#     4  12  26  44  63  87 124 163 207 259 302 352
#     4  10  24  43  64  92 122 159 207 251 300 364
#     4  11  20  33  58  88 124 165 197 240 302 361
#     4  10  23  40  65  89 116 162 206 251 304 356
#     4  10  21  39  64  92 126 161 196 248 304 366
#     4  10  21  39  64  94 125 156 200 249 302 367
#     4  11  24  40  62  93 124 160 204 250 305 362
#     4  10  20  37  59  87 121 159 202 245 296 359
#
# _framework density 22.367643000000001
#
# number of rings (size 3 to 8) (size 9 to 14) (size 15 to 20)
#    0.000    1.500    0.000    6.375    0.000   11.500 
#    0.000    0.000    0.000    0.000    0.000    0.000 
#    0.000    0.000    0.000    0.000    0.000    0.000 
#
# Total GULP energy -198321.989454 kJ/mol
# GULP energy per Si atom -12395.124341 kJ/mol
# Density = 2.231673 g / cm^3
# Si number density = 22.367643 Si / 1000 Ang^3
#
#
#
# Elastic Constant Matrix: (Units=GPa)
#
#
# Indices 1 2 3 4 5 6 
#
# 1 81.5341 23.4242 43.6325 -8.7699 4.5563 -1.5673
# 2 23.4242 67.8696 40.5706 -10.9012 -6.2834 11.3217
# 3 43.6325 40.5706 106.2566 -7.6982 8.6195 10.7212
# 4 -8.7699 -10.9012 -7.6982 41.1021 10.7301 -0.6340
# 5 4.5563 -6.2834 8.6195 10.7301 39.9361 -1.2448
# 6 -1.5673 11.3217 10.7212 -0.6340 -1.2448 25.7155
#
#
#
# Elastic Compliance Matrix: (Units=1/GPa)
#
#
# Indices 1 2 3 4 5 6 
#
# 1 0.016666 -0.002742 -0.005995 0.002163 -0.001473 0.004705
# 2 -0.002742 0.021538 -0.006572 0.002701 0.004187 -0.006641
# 3 -0.005995 -0.006572 0.015160 0.000789 -0.003958 -0.003965
# 4 0.002163 0.002701 0.000789 0.027580 -0.007436 -0.001066
# 5 -0.001473 0.004187 -0.003958 -0.007436 0.028748 0.000925
# 6 0.004705 -0.006641 -0.003965 -0.001066 0.000925 0.043769
#
#
# Mechanical properties :
#
#
# Convention : Reuss Voigt Hill
#
# Bulk Modulus (GPa) = 43.96169 52.32387 48.14278
# Shear Modulus (GPa) = 26.08762 31.21961 28.65362
#
# Velocity S-wave (km/s) = 3.41883 3.74003 3.58303
# Velocity P-wave (km/s) = 5.93981 6.48798 6.21994
#
# Compressibility (1/GPa) = 0.02274708
#
# Stress axis : x y z
#
# Youngs Moduli (GPa) = 60.00116 46.42947 65.96115
#
# Poissons Ratio (x) = 0.12732 0.39545
# Poissons Ratio (y) = 0.16453 0.43347
# Poissons Ratio (z) = 0.35972 0.30511
#
# Static dielectric constant tensor:
#      x y z
#    x 4.032700 0.194090 0.044880 
#    y 0.194090 4.150690 0.196580 
#    z 0.044880 0.196580 3.639130 
# 
# 
# High freq. dielectric constant tensor:
#      x y z
#    x 1.876530 0.012620 0.003770 
#    y 0.012620 1.881680 -0.005130 
#    z 0.003770 -0.005130 1.889130 
# 
# From -- ./inp_files/354571.got.cif
#   From: 2010.06.25/outbox.cif.g09.slc.cpg/sg2_178_cif.got.tgz:354571.got - 2010.06.27 13:26:56.
