data_PCOD8003357
_publ_section_title
;
Structure prediction by ZEFSAII (Michael W. Deem and Ramdas Pophale) SiO2 
 PCOD8003357
Probable space group: P -1
;
_chemical_formula_sum "Si O2"
_cell_formula_units_Z 12
_cell_length_a 15.638017
_cell_length_b 5.056288
_cell_length_c 13.669718
_cell_angle_alpha 72.723699
_cell_angle_beta 141.166371
_cell_angle_gamma 116.469573
_cell_volume 604.287483
_symmetry_space_group_name_H-M "P -1"
_symmetry_group_IT_number 2
_symmetry_cell_setting 'triclinic'
loop_
_space_group_symop_operation_xyz
x,y,z
-x,-y,-z
loop_
_atom_site_type_symbol
_atom_site_label
_atom_site_fract_x
_atom_site_fract_y
_atom_site_fract_z
Si Si1 0.795671 0.652811 0.024749
Si Si2 0.076632 0.673825 0.954508
Si Si3 0.032408 0.468232 0.328933
Si Si4 0.270650 0.709105 0.660686
Si Si5 0.427231 0.276358 0.046420
Si Si6 0.810712 0.951315 0.281608
O O1 0.636794 0.573099 0.941581
O O2 0.792892 0.436536 0.954748
O O3 0.912681 0.629961 0.213435
O O4 0.851472 0.982875 0.993978
O O5 0.955096 0.609331 0.765814
O O6 0.000000 0.500000 0.000000
O O7 0.187861 0.681276 0.486048
O O8 0.975163 0.165783 0.377527
O O9 0.206800 0.391875 0.693250
O O10 0.241533 0.956843 0.673040
O O11 0.444949 0.821654 0.783646
O O12 0.291998 0.009085 0.905314
O O13 0.500000 0.500000 0.000000
#
# Coordination Sequence:
#
# PCOD8003357 Si02
#       6
#     2   2   2   2   2   2
#     4  10  21  36  60  80 112 143 191 227 282 330
#     4  10  22  38  63  82 103 142 198 244 279 320
#     4  10  22  35  59  81 114 142 195 235 280 316
#     4  11  24  32  55  83 120 152 185 224 274 330
#     4  10  20  37  54  83 119 157 184 214 270 349
#     4  11  21  35  52  81 118 159 188 216 267 340
#
# _framework density 19.858098999999999
#
# number of rings (size 3 to 8) (size 9 to 14) (size 15 to 20)
#    1.000    0.667    1.667    4.000    2.333    4.000 
#    0.000    0.000    0.000    2.000    0.000    0.000 
#    0.000    0.000    0.000    0.000    0.000    0.000 
#
# Total GULP energy -148708.172772 kJ/mol
# GULP energy per Si atom -12392.347731 kJ/mol
# Density = 1.981290 g / cm^3
# Si number density = 19.858099 Si / 1000 Ang^3
#
#
#
# Elastic Constant Matrix: (Units=GPa)
#
#
# Indices 1 2 3 4 5 6 
#
# 1 82.8535 -2.4940 7.8605 -5.8698 -6.8968 1.1269
# 2 -2.4940 54.2397 -12.6449 -8.6892 -2.5008 -7.2158
# 3 7.8605 -12.6449 55.2919 17.4194 5.3192 3.9407
# 4 -5.8698 -8.6892 17.4194 29.5989 4.8992 -2.2047
# 5 -6.8968 -2.5008 5.3192 4.8992 24.9314 0.0885
# 6 1.1269 -7.2158 3.9407 -2.2047 0.0885 27.4082
#
#
#
# Elastic Compliance Matrix: (Units=1/GPa)
#
#
# Indices 1 2 3 4 5 6 
#
# 1 0.013003 0.000711 -0.003395 0.004231 0.003559 0.000469
# 2 0.000711 0.020623 0.002600 0.004950 0.000719 0.005422
# 3 -0.003395 0.002600 0.024092 -0.013857 -0.003082 -0.003745
# 4 0.004231 0.004950 -0.013857 0.045455 -0.004333 0.006792
# 5 0.003559 0.000719 -0.003082 -0.004333 0.042676 0.000000
# 6 0.000469 0.005422 -0.003745 0.006792 0.000000 0.038978
#
#
# Mechanical properties :
#
#
# Convention : Reuss Voigt Hill
#
# Bulk Modulus (GPa) = 17.37604 19.75870 18.56737
# Shear Modulus (GPa) = 24.48841 29.69860 27.09351
#
# Velocity S-wave (km/s) = 3.51546 3.87142 3.69773
# Velocity P-wave (km/s) = 5.02465 5.47315 5.25369
#
# Compressibility (1/GPa) = 0.05755050
#
# Stress axis : x y z
#
# Youngs Moduli (GPa) = 76.90762 48.48952 41.50732
#
# Poissons Ratio (x) = -0.03447 0.14091
# Poissons Ratio (y) = -0.05467 -0.10793
# Poissons Ratio (z) = 0.26108 -0.12609
#
# Static dielectric constant tensor:
#      x y z
#    x 3.433540 -0.086520 0.291130 
#    y -0.086520 3.605220 0.258090 
#    z 0.291130 0.258090 3.937860 
# 
# 
# High freq. dielectric constant tensor:
#      x y z
#    x 1.754070 -0.020490 0.011270 
#    y -0.020490 1.771680 0.005650 
#    z 0.011270 0.005650 1.749180 
# 
# From -- ./inp_files/63081.got.cif
#   From: 2010.06.25/outbox.cif.g09.slc.cpg/sg2_32_cif.got.tgz:63081.got - 2010.06.27 13:26:56.
