data_PCOD8003987
_publ_section_title
;
Structure prediction by ZEFSAII (Michael W. Deem and Ramdas Pophale) SiO2 
 PCOD8003987
Probable space group: P -1
;
_chemical_formula_sum "Si O2"
_cell_formula_units_Z 16
_cell_length_a 14.799324
_cell_length_b 16.163874
_cell_length_c 12.728816
_cell_angle_alpha 143.466917
_cell_angle_beta 123.018207
_cell_angle_gamma 28.957304
_cell_volume 733.655263
_symmetry_space_group_name_H-M "P -1"
_symmetry_group_IT_number 2
_symmetry_cell_setting 'triclinic'
loop_
_space_group_symop_operation_xyz
x,y,z
-x,-y,-z
loop_
_atom_site_type_symbol
_atom_site_label
_atom_site_fract_x
_atom_site_fract_y
_atom_site_fract_z
Si Si1 0.097723 0.494466 0.453090
Si Si2 0.491288 0.392610 0.799547
Si Si3 0.584678 0.310139 0.115529
Si Si4 0.150709 0.464795 0.878080
Si Si5 0.053506 0.714444 0.862237
Si Si6 0.863230 0.294860 0.702679
Si Si7 0.637778 0.968505 0.708225
Si Si8 0.047341 0.274876 0.615923
O O1 0.086983 0.610513 0.662850
O O2 0.298491 0.158497 0.261693
O O3 0.856171 0.685340 0.486973
O O4 0.120736 0.544798 0.407472
O O5 0.483950 0.466888 0.753690
O O6 0.264764 0.571829 0.869263
O O7 0.702454 0.052135 0.591582
O O8 0.500000 0.500000 0.000000
O O9 0.392345 0.467702 0.231357
O O10 0.607937 0.168098 0.893472
O O11 0.820952 0.063419 0.072557
O O12 0.035371 0.630570 0.863724
O O13 0.052370 0.428044 0.818166
O O14 0.418083 0.141865 0.702945
O O15 0.104140 0.640359 0.110951
O O16 0.940018 0.291377 0.646332
O O17 0.000000 0.000000 0.500000
#
# Coordination Sequence:
#
# PCOD8003987 Si02
#       8
#     2   2   2   2   2   2   2   2
#     4  10  20  37  62  99 134 169 209 274 339 396
#     4  12  23  38  66  98 135 175 215 267 338 403
#     4  10  21  40  60  91 126 175 216 268 321 384
#     4  11  23  42  68  98 128 176 226 276 326 390
#     4  11  23  40  66  99 137 165 217 275 339 397
#     4  11  24  48  68  89 132 184 230 271 320 390
#     4   9  18  36  62  90 134 165 210 267 336 387
#     4  12  24  40  69  99 133 175 225 269 327 394
#
# _framework density 21.808608
#
# number of rings (size 3 to 8) (size 9 to 14) (size 15 to 20)
#    0.000    1.250    1.250    7.500    0.000    1.500 
#    0.000    8.750    0.000    0.000    0.000    0.000 
#    0.000    0.000    0.000    0.000    0.000    0.000 
#
# Total GULP energy -198280.474294 kJ/mol
# GULP energy per Si atom -12392.529643 kJ/mol
# Density = 2.175897 g / cm^3
# Si number density = 21.808608 Si / 1000 Ang^3
#
#
#
# Elastic Constant Matrix: (Units=GPa)
#
#
# Indices 1 2 3 4 5 6 
#
# 1 121.7635 22.3639 26.4082 -0.5862 5.8785 16.6694
# 2 22.3639 84.7604 22.5228 8.4420 0.3541 23.8594
# 3 26.4082 22.5228 92.7062 -0.8932 9.1581 5.9000
# 4 -0.5862 8.4420 -0.8932 29.5079 5.6171 -1.6981
# 5 5.8785 0.3541 9.1581 5.6171 30.6952 9.9946
# 6 16.6694 23.8594 5.9000 -1.6981 9.9946 35.7826
#
#
#
# Elastic Compliance Matrix: (Units=1/GPa)
#
#
# Indices 1 2 3 4 5 6 
#
# 1 0.009325 -0.000968 -0.002201 0.000221 -0.000083 -0.003302
# 2 -0.000968 0.017297 -0.003837 -0.007052 0.006526 -0.012607
# 3 -0.002201 -0.003837 0.012650 0.002505 -0.004723 0.002936
# 4 0.000221 -0.007052 0.002505 0.038540 -0.010692 0.009001
# 5 -0.000083 0.006526 -0.004723 -0.010692 0.040922 -0.015471
# 6 -0.003302 -0.012607 0.002936 0.009001 -0.015471 0.042156
#
#
# Mechanical properties :
#
#
# Convention : Reuss Voigt Hill
#
# Bulk Modulus (GPa) = 39.58713 49.09111 44.33912
# Shear Modulus (GPa) = 27.27476 34.39283 30.83379
#
# Velocity S-wave (km/s) = 3.54028 3.97549 3.76418
# Velocity P-wave (km/s) = 5.90787 6.60542 6.26636
#
# Compressibility (1/GPa) = 0.02526074
#
# Stress axis : x y z
#
# Youngs Moduli (GPa) = 107.24086 57.81447 79.05389
#
# Poissons Ratio (x) = 0.05595 0.17397
# Poissons Ratio (y) = 0.10379 0.30331
# Poissons Ratio (z) = 0.23600 0.22182
#
# Static dielectric constant tensor:
#      x y z
#    x 4.159320 0.069290 0.162730 
#    y 0.069290 4.264070 0.383320 
#    z 0.162730 0.383320 3.923600 
# 
# 
# High freq. dielectric constant tensor:
#      x y z
#    x 1.854560 0.004860 0.021030 
#    y 0.004860 1.866340 0.014620 
#    z 0.021030 0.014620 1.843320 
# 
# From -- ./inp_files/455953.got.cif
#   From: 2010.06.25/outbox.cif.g09.slc.cpg/sg2_228_cif.got.tgz:455953.got - 2010.06.27 13:26:56.
