data_PCOD8003951
_publ_section_title
;
Structure prediction by ZEFSAII (Michael W. Deem and Ramdas Pophale) SiO2 
 PCOD8003951
Probable space group: P -1
;
_chemical_formula_sum "Si O2"
_cell_formula_units_Z 16
_cell_length_a 8.944791
_cell_length_b 8.993810
_cell_length_c 14.626390
_cell_angle_alpha 143.637150
_cell_angle_beta 82.930780
_cell_angle_gamma 99.394521
_cell_volume 688.210655
_symmetry_space_group_name_H-M "P -1"
_symmetry_group_IT_number 2
_symmetry_cell_setting 'triclinic'
loop_
_space_group_symop_operation_xyz
x,y,z
-x,-y,-z
loop_
_atom_site_type_symbol
_atom_site_label
_atom_site_fract_x
_atom_site_fract_y
_atom_site_fract_z
Si Si1 0.111309 0.386874 0.071751
Si Si2 0.736253 0.645223 0.225346
Si Si3 0.389066 0.103066 0.328442
Si Si4 0.688884 0.359259 0.385499
Si Si5 0.125829 0.769002 0.112500
Si Si6 0.076323 0.497526 0.696821
Si Si7 0.793097 0.216860 0.496891
Si Si8 0.393993 0.656865 0.249760
O O1 0.079176 0.658713 0.162362
O O2 0.292882 0.416727 0.088976
O O3 0.029382 0.345207 0.154919
O O4 0.028454 0.175024 0.903413
O O5 0.811829 0.643077 0.318086
O O6 0.556462 0.568655 0.213400
O O7 0.770877 0.927032 0.323425
O O8 0.794697 0.447407 0.053276
O O9 0.545450 0.146303 0.279699
O O10 0.359629 0.368845 0.506430
O O11 0.245700 0.015446 0.230530
O O12 0.409781 0.900842 0.304731
O O13 0.824194 0.305040 0.279501
O O14 0.746688 0.379425 0.495297
O O15 0.970008 0.291827 0.544388
O O16 0.684843 0.266321 0.613752
#
# Coordination Sequence:
#
# PCOD8003951 Si02
#       8
#     2   2   2   2   2   2   2   2
#     4   8  18  37  59  83 116 148 188 244 283 340
#     4  11  21  35  64  93 113 151 192 246 291 344
#     4  10  22  38  60  87 118 157 189 244 284 346
#     4  11  23  38  60  85 119 158 195 233 292 345
#     4   9  19  38  61  87 115 150 197 236 295 338
#     4  10  22  38  59  88 120 152 195 238 291 345
#     4  11  22  38  61  90 118 149 194 249 289 337
#     4  10  20  37  62  92 116 145 198 246 291 330
#
# _framework density 23.248694
#
# number of rings (size 3 to 8) (size 9 to 14) (size 15 to 20)
#    0.000    2.000    1.250    1.875    3.500    7.000 
#    0.000    2.500    0.000    4.500    0.000    0.000 
#    0.000    0.000    0.000    0.000    0.000    0.000 
#
# Total GULP energy -198268.023080 kJ/mol
# GULP energy per Si atom -12391.751443 kJ/mol
# Density = 2.319578 g / cm^3
# Si number density = 23.248694 Si / 1000 Ang^3
#
#
#
# Elastic Constant Matrix: (Units=GPa)
#
#
# Indices 1 2 3 4 5 6 
#
# 1 129.6137 43.1515 16.7403 7.0657 42.2424 16.0281
# 2 43.1515 108.9171 23.4912 -8.5310 10.2353 36.6971
# 3 16.7403 23.4912 43.0290 -1.8692 21.4840 11.3542
# 4 7.0657 -8.5310 -1.8692 15.6307 3.5692 -0.2432
# 5 42.2424 10.2353 21.4840 3.5692 45.2792 5.7201
# 6 16.0281 36.6971 11.3542 -0.2432 5.7201 40.1141
#
#
#
# Elastic Compliance Matrix: (Units=1/GPa)
#
#
# Indices 1 2 3 4 5 6 
#
# 1 0.013482 -0.005545 0.003774 -0.005761 -0.012710 0.000395
# 2 -0.005545 0.017164 -0.005957 0.009846 0.004915 -0.012442
# 3 0.003774 -0.005957 0.035492 0.003542 -0.018865 -0.003393
# 4 -0.005761 0.009846 0.003542 0.073057 -0.003435 -0.006776
# 5 -0.012710 0.004915 -0.018865 -0.003435 0.042066 -0.000098
# 6 0.000395 -0.012442 -0.003393 -0.006776 -0.000098 0.037086
#
#
# Mechanical properties :
#
#
# Convention : Reuss Voigt Hill
#
# Bulk Modulus (GPa) = 19.73076 49.81398 34.77237
# Shear Modulus (GPa) = 19.94434 33.41657 26.68045
#
# Velocity S-wave (km/s) = 2.93212 3.79536 3.39132
# Velocity P-wave (km/s) = 4.46859 6.37804 5.50671
#
# Compressibility (1/GPa) = 0.05068229
#
# Stress axis : x y z
#
# Youngs Moduli (GPa) = 74.17572 58.26073 28.17507
#
# Poissons Ratio (x) = 0.32307 -0.10633
# Poissons Ratio (y) = 0.41132 0.16783
# Poissons Ratio (z) = -0.27994 0.34704
#
# Static dielectric constant tensor:
#      x y z
#    x 4.691870 0.306190 0.552620 
#    y 0.306190 4.150570 -0.126420 
#    z 0.552620 -0.126420 3.870370 
# 
# 
# High freq. dielectric constant tensor:
#      x y z
#    x 1.938840 0.020910 0.031050 
#    y 0.020910 1.913560 -0.014840 
#    z 0.031050 -0.014840 1.885610 
# 
# From -- ./inp_files/175370.got.cif
#   From: 2010.06.25/outbox.cif.g09.slc.cpg/sg2_88_cif.got.tgz:175370.got - 2010.06.27 13:26:56.
