data_PCOD8003332
_publ_section_title
;
Structure prediction by ZEFSAII (Michael W. Deem and Ramdas Pophale) SiO2 
 PCOD8003332
Probable space group: P -1
;
_chemical_formula_sum "Si O2"
_cell_formula_units_Z 14
_cell_length_a 10.950453
_cell_length_b 8.855282
_cell_length_c 19.342111
_cell_angle_alpha 131.026285
_cell_angle_beta 148.030155
_cell_angle_gamma 70.772810
_cell_volume 615.756714
_symmetry_space_group_name_H-M "P -1"
_symmetry_group_IT_number 2
_symmetry_cell_setting 'triclinic'
loop_
_space_group_symop_operation_xyz
x,y,z
-x,-y,-z
loop_
_atom_site_type_symbol
_atom_site_label
_atom_site_fract_x
_atom_site_fract_y
_atom_site_fract_z
Si Si1 0.184404 0.027227 0.032226
Si Si2 0.768864 0.145716 0.402895
Si Si3 0.816498 0.534130 0.620547
Si Si4 0.750636 0.539860 0.893331
Si Si5 0.922315 0.223475 0.761836
Si Si6 0.819596 0.919967 0.492444
Si Si7 0.494921 0.275699 0.519048
O O1 0.476154 0.075842 0.210847
O O2 0.218624 0.246364 0.072084
O O3 0.000000 0.000000 0.000000
O O4 0.035827 0.780996 0.840677
O O5 0.949641 0.419497 0.605278
O O6 0.950457 0.139223 0.426599
O O7 0.718406 0.957975 0.382374
O O8 0.587569 0.314313 0.494556
O O9 0.643033 0.575626 0.491712
O O10 0.446045 0.298380 0.659135
O O11 0.000000 0.500000 0.000000
O O12 0.771294 0.614556 0.007615
O O13 0.773465 0.372835 0.729099
O O14 0.950098 0.148570 0.675813
O O15 0.729482 0.007465 0.658929
#
# Coordination Sequence:
#
# PCOD8003332 Si02
#       7
#     2   2   2   2   2   2   2
#     4  12  27  42  70 107 137 176 229 283 338 403
#     4  11  27  48  69  97 138 186 229 274 338 410
#     4  11  23  42  64 101 138 179 217 282 336 403
#     4  12  27  42  70 107 137 176 229 283 338 403
#     4  11  23  42  64 101 138 179 217 282 336 403
#     4  11  27  48  69  97 138 186 229 274 338 410
#     4  10  20  36  68  94 136 172 216 272 346 382
#
# _framework density 22.736253000000001
#
# number of rings (size 3 to 8) (size 9 to 14) (size 15 to 20)
#    0.000    0.857    2.857    4.286   10.000    1.714 
#    0.000    4.286    0.000    0.000    0.000    0.000 
#    0.000    0.000    0.000    0.000    0.000    0.000 
#
# Total GULP energy -173477.976949 kJ/mol
# GULP energy per Si atom -12391.284068 kJ/mol
# Density = 2.268450 g / cm^3
# Si number density = 22.736253 Si / 1000 Ang^3
#
#
#
# Elastic Constant Matrix: (Units=GPa)
#
#
# Indices 1 2 3 4 5 6 
#
# 1 89.5673 48.7238 46.6297 -7.6659 5.5405 -17.0147
# 2 48.7238 137.8021 34.5774 -21.9681 6.1375 -10.1248
# 3 46.6297 34.5774 88.2214 -18.2376 -7.8665 -18.0632
# 4 -7.6659 -21.9681 -18.2376 40.5685 -0.3861 -2.2618
# 5 5.5405 6.1375 -7.8665 -0.3861 29.2580 -5.6792
# 6 -17.0147 -10.1248 -18.0632 -2.2618 -5.6792 34.9559
#
#
#
# Elastic Compliance Matrix: (Units=1/GPa)
#
#
# Indices 1 2 3 4 5 6 
#
# 1 0.018518 -0.004465 -0.008472 -0.002632 -0.004406 0.002457
# 2 -0.004465 0.009740 -0.000628 0.004158 -0.001236 0.000392
# 3 -0.008472 -0.000628 0.020043 0.007597 0.008772 0.007968
# 4 -0.002632 0.004158 0.007597 0.030204 0.003298 0.006339
# 5 -0.004406 -0.001236 0.008772 0.003298 0.039351 0.008637
# 6 0.002457 0.000392 0.007968 0.006339 0.008637 0.035848
#
#
# Mechanical properties :
#
#
# Convention : Reuss Voigt Hill
#
# Bulk Modulus (GPa) = 47.23182 63.93918 55.58550
# Shear Modulus (GPa) = 26.61135 33.33380 29.97258
#
# Velocity S-wave (km/s) = 3.42488 3.83313 3.63474
# Velocity P-wave (km/s) = 6.03810 6.91185 6.48970
#
# Compressibility (1/GPa) = 0.02117217
#
# Stress axis : x y z
#
# Youngs Moduli (GPa) = 54.00160 102.67318 49.89199
#
# Poissons Ratio (x) = 0.45840 0.42268
# Poissons Ratio (y) = 0.24110 0.03133
# Poissons Ratio (z) = 0.45749 0.06447
#
# Static dielectric constant tensor:
#      x y z
#    x 4.083050 -0.018110 -0.392470 
#    y -0.018110 4.629440 -0.141800 
#    z -0.392470 -0.141800 4.270000 
# 
# 
# High freq. dielectric constant tensor:
#      x y z
#    x 1.883640 0.004000 -0.031960 
#    y 0.004000 1.927210 -0.007550 
#    z -0.031960 -0.007550 1.886970 
# 
# From -- ./inp_files/593784.got.cif
#   From: 2010.06.25/outbox.cif.g09.slc.cpg/sg2_297_cif.got.tgz:593784.got - 2010.06.27 13:26:56.
