data_PCOD8003704
_publ_section_title
;
Structure prediction by ZEFSAII (Michael W. Deem and Ramdas Pophale) SiO2 
 PCOD8003704
Probable space group: P -1
;
_chemical_formula_sum "Si O2"
_cell_formula_units_Z 12
_cell_length_a 15.368257
_cell_length_b 11.567686
_cell_length_c 10.160994
_cell_angle_alpha 39.895451
_cell_angle_beta 25.480205
_cell_angle_gamma 35.124040
_cell_volume 444.053154
_symmetry_space_group_name_H-M "P -1"
_symmetry_group_IT_number 2
_symmetry_cell_setting 'triclinic'
loop_
_space_group_symop_operation_xyz
x,y,z
-x,-y,-z
loop_
_atom_site_type_symbol
_atom_site_label
_atom_site_fract_x
_atom_site_fract_y
_atom_site_fract_z
Si Si1 0.413899 0.904867 0.425730
Si Si2 0.210622 0.526742 0.638356
Si Si3 0.857184 0.153405 0.342933
Si Si4 0.613834 0.094001 0.156088
Si Si5 0.242467 0.503184 0.318342
Si Si6 0.010172 0.760390 0.176695
O O1 0.560039 0.676134 0.475014
O O2 0.327670 0.929472 0.368150
O O3 0.554869 0.031405 0.147791
O O4 0.177357 0.002278 0.750911
O O5 0.224144 0.711355 0.534438
O O6 0.160326 0.589489 0.500357
O O7 0.000000 0.500000 0.000000
O O8 0.834267 0.283120 0.127515
O O9 0.117996 0.989268 0.135802
O O10 0.515068 0.339422 0.089628
O O11 0.500000 0.000000 0.500000
O O12 0.136847 0.358108 0.541249
O O13 0.172262 0.681417 0.152644
#
# Coordination Sequence:
#
# PCOD8003704 Si02
#       6
#     2   2   2   2   2   2
#     4  11  22  38  60  88 117 153 199 235 282 351
#     4  12  20  39  60  85 117 154 195 236 291 345
#     4  12  22  37  64  89 113 157 196 236 283 348
#     4  11  18  38  61  85 116 152 197 234 283 342
#     4  10  20  37  61  87 119 151 189 245 290 338
#     4  10  20  37  60  90 116 149 197 240 287 338
#
# _framework density 27.023793000000001
#
# number of rings (size 3 to 8) (size 9 to 14) (size 15 to 20)
#    0.000    1.000    8.333    1.000    0.000    0.000 
#    0.000    6.667    0.000    0.000    0.000    0.000 
#    0.000    0.000    0.000    0.000    0.000    0.000 
#
# Total GULP energy -148734.171429 kJ/mol
# GULP energy per Si atom -12394.514286 kJ/mol
# Density = 2.696229 g / cm^3
# Si number density = 27.023793 Si / 1000 Ang^3
#
#
#
# Elastic Constant Matrix: (Units=GPa)
#
#
# Indices 1 2 3 4 5 6 
#
# 1 223.6543 73.4340 46.7537 24.3278 7.1549 -6.2408
# 2 73.4340 161.2060 36.4733 23.9660 13.8870 -13.1644
# 3 46.7537 36.4733 61.1542 12.8001 -0.7322 -17.0694
# 4 24.3278 23.9660 12.8001 23.8816 2.9934 -2.1292
# 5 7.1549 13.8870 -0.7322 2.9934 44.0767 9.4409
# 6 -6.2408 -13.1644 -17.0694 -2.1292 9.4409 52.7982
#
#
#
# Elastic Compliance Matrix: (Units=1/GPa)
#
#
# Indices 1 2 3 4 5 6 
#
# 1 0.005966 -0.001629 -0.003248 -0.002759 -0.000143 -0.000837
# 2 -0.001629 0.008595 -0.002426 -0.005238 -0.002426 0.001389
# 3 -0.003248 -0.002426 0.023332 -0.006312 0.000789 0.006159
# 4 -0.002759 -0.005238 -0.006312 0.053380 -0.001358 -0.001277
# 5 -0.000143 -0.002426 0.000789 -0.001358 0.024613 -0.004823
# 6 -0.000837 0.001389 0.006159 -0.001277 -0.004823 0.021989
#
#
# Mechanical properties :
#
#
# Convention : Reuss Voigt Hill
#
# Bulk Modulus (GPa) = 42.94043 84.37073 63.65558
# Shear Modulus (GPa) = 31.20248 43.44151 37.32199
#
# Velocity S-wave (km/s) = 3.40167 4.01375 3.72032
# Velocity P-wave (km/s) = 5.59936 7.26422 6.48544
#
# Compressibility (1/GPa) = 0.02328808
#
# Stress axis : x y z
#
# Youngs Moduli (GPa) = 167.61017 116.34342 42.86045
#
# Poissons Ratio (x) = 0.18951 0.13919
# Poissons Ratio (y) = 0.27301 0.10398
# Poissons Ratio (z) = 0.54432 0.28226
#
# Static dielectric constant tensor:
#      x y z
#    x 6.147870 0.172660 -0.535260 
#    y 0.172660 5.243260 0.186030 
#    z -0.535260 0.186030 4.720460 
# 
# 
# High freq. dielectric constant tensor:
#      x y z
#    x 2.135730 0.017850 -0.038030 
#    y 0.017850 2.089800 0.008270 
#    z -0.038030 0.008270 2.060900 
# 
# From -- ./inp_files/155925.got.cif
#   From: 2010.06.25/outbox.cif.g09.slc.cpg/sg2_78_cif.got.tgz:155925.got - 2010.06.27 13:26:56.
