data_PCOD8003597
_publ_section_title
;
Structure prediction by ZEFSAII (Michael W. Deem and Ramdas Pophale) SiO2 
 PCOD8003597
Probable space group: P -1
;
_chemical_formula_sum "Si O2"
_cell_formula_units_Z 14
_cell_length_a 8.851668
_cell_length_b 12.089913
_cell_length_c 14.243687
_cell_angle_alpha 61.152554
_cell_angle_beta 149.628157
_cell_angle_gamma 119.696181
_cell_volume 664.198368
_symmetry_space_group_name_H-M "P -1"
_symmetry_group_IT_number 2
_symmetry_cell_setting 'triclinic'
loop_
_space_group_symop_operation_xyz
x,y,z
-x,-y,-z
loop_
_atom_site_type_symbol
_atom_site_label
_atom_site_fract_x
_atom_site_fract_y
_atom_site_fract_z
Si Si1 0.503708 0.876756 0.368617
Si Si2 0.907280 0.361760 0.961323
Si Si3 0.645089 0.790981 0.666566
Si Si4 0.879335 0.706882 0.094532
Si Si5 0.114399 0.557830 0.436797
Si Si6 0.260624 0.302919 0.571213
Si Si7 0.607756 0.158033 0.298585
O O1 0.647306 0.893384 0.542917
O O2 0.660478 0.765790 0.452643
O O3 0.140846 0.832730 0.193725
O O4 0.589312 0.014149 0.305744
O O5 0.544435 0.313080 0.790252
O O6 0.049279 0.369907 0.928897
O O7 0.000000 0.500000 0.000000
O O8 0.032633 0.254356 0.133113
O O9 0.402064 0.664832 0.565972
O O10 0.579004 0.860532 0.697744
O O11 0.867998 0.617346 0.218319
O O12 0.553470 0.753149 0.893777
O O13 0.209300 0.447631 0.466523
O O14 0.000000 0.500000 0.500000
O O15 0.952114 0.221740 0.481345
#
# Coordination Sequence:
#
# PCOD8003597 Si02
#       7
#     2   2   2   2   2   2   2
#     4  10  22  40  63  87 122 161 203 243 290 359
#     4  10  20  37  59  89 123 154 196 244 300 361
#     4  10  21  38  62  89 116 166 199 241 297 360
#     4   9  23  38  64  89 114 166 200 240 301 359
#     4  11  21  40  61  91 124 149 200 255 305 352
#     4  11  23  37  62  89 125 153 195 255 305 342
#     4  11  21  42  60  90 122 160 202 243 294 357
#
# _framework density 21.078042
#
# number of rings (size 3 to 8) (size 9 to 14) (size 15 to 20)
#    0.000    1.714    2.857    1.286    2.000    2.286 
#    2.571    0.714    0.000    0.000    0.000    0.000 
#    0.000    0.000    0.000    0.000    0.000    0.000 
#
# Total GULP energy -173544.340301 kJ/mol
# GULP energy per Si atom -12396.024307 kJ/mol
# Density = 2.103007 g / cm^3
# Si number density = 21.078042 Si / 1000 Ang^3
#
#
#
# Elastic Constant Matrix: (Units=GPa)
#
#
# Indices 1 2 3 4 5 6 
#
# 1 50.2036 22.2237 49.3232 -11.8640 -7.1446 -0.8199
# 2 22.2237 99.1119 46.6085 -9.9382 -0.7281 -4.8924
# 3 49.3232 46.6085 162.0749 -5.3651 -1.0336 9.1943
# 4 -11.8640 -9.9382 -5.3651 29.5102 2.3640 0.5457
# 5 -7.1446 -0.7281 -1.0336 2.3640 35.2927 1.4444
# 6 -0.8199 -4.8924 9.1943 0.5457 1.4444 25.3883
#
#
#
# Elastic Compliance Matrix: (Units=1/GPa)
#
#
# Indices 1 2 3 4 5 6 
#
# 1 0.033345 -0.001744 -0.009466 0.010583 0.005580 0.003624
# 2 -0.001744 0.012414 -0.003142 0.002886 -0.000523 0.003441
# 3 -0.009466 -0.003142 0.010103 -0.002840 -0.001313 -0.004434
# 4 0.010583 0.002886 -0.002840 0.038618 -0.000514 0.001126
# 5 0.005580 -0.000523 -0.001313 -0.000514 0.029495 -0.001112
# 6 0.003624 0.003441 -0.004434 0.001126 -0.001112 0.041813
#
#
# Mechanical properties :
#
#
# Convention : Reuss Voigt Hill
#
# Bulk Modulus (GPa) = 36.82171 60.85571 48.83871
# Shear Modulus (GPa) = 24.56459 30.92056 27.74258
#
# Velocity S-wave (km/s) = 3.41752 3.83424 3.63186
# Velocity P-wave (km/s) = 5.75150 6.96679 6.38811
#
# Compressibility (1/GPa) = 0.02715789
#
# Stress axis : x y z
#
# Youngs Moduli (GPa) = 29.98938 80.55562 98.97702
#
# Poissons Ratio (x) = 0.14053 0.93689
# Poissons Ratio (y) = 0.05232 0.31099
# Poissons Ratio (z) = 0.28387 0.25311
#
# Static dielectric constant tensor:
#      x y z
#    x 3.697770 -0.165660 -0.110040 
#    y -0.165660 3.832080 -0.098770 
#    z -0.110040 -0.098770 4.216280 
# 
# 
# High freq. dielectric constant tensor:
#      x y z
#    x 1.797610 -0.020900 0.000280 
#    y -0.020900 1.829120 -0.001050 
#    z 0.000280 -0.001050 1.838630 
# 
# From -- ./inp_files/173149.got.cif
#   From: 2010.06.25/outbox.cif.g09.slc.cpg/sg2_87_cif.got.tgz:173149.got - 2010.06.27 13:26:56.
