data_PCOD8003460
_publ_section_title
;
Structure prediction by ZEFSAII (Michael W. Deem and Ramdas Pophale) SiO2 
 PCOD8003460
Probable space group: P -1
;
_chemical_formula_sum "Si O2"
_cell_formula_units_Z 16
_cell_length_a 8.668156
_cell_length_b 7.519137
_cell_length_c 22.582878
_cell_angle_alpha 118.132626
_cell_angle_beta 139.132731
_cell_angle_gamma 51.551759
_cell_volume 754.243586
_symmetry_space_group_name_H-M "P -1"
_symmetry_group_IT_number 2
_symmetry_cell_setting 'triclinic'
loop_
_space_group_symop_operation_xyz
x,y,z
-x,-y,-z
loop_
_atom_site_type_symbol
_atom_site_label
_atom_site_fract_x
_atom_site_fract_y
_atom_site_fract_z
Si Si1 0.191838 0.645377 0.002730
Si Si2 0.784098 0.776947 0.813032
Si Si3 0.523055 0.280149 0.589974
Si Si4 0.951686 0.139941 0.882713
Si Si5 0.697285 0.198532 0.379936
Si Si6 0.981690 0.270499 0.786638
Si Si7 0.313762 0.949745 0.518249
Si Si8 0.493202 0.831967 0.036961
O O1 0.193841 0.684602 0.079144
O O2 0.340259 0.766971 0.032104
O O3 0.333018 0.378521 0.989018
O O4 0.885125 0.766192 0.908552
O O5 0.469351 0.859166 0.727420
O O6 0.935625 0.519440 0.790963
O O7 0.872186 0.935781 0.825366
O O8 0.356305 0.542888 0.599180
O O9 0.831753 0.179913 0.683950
O O10 0.380789 0.158550 0.565513
O O11 0.520465 0.238502 0.512462
O O12 0.854799 0.283015 0.817028
O O13 0.274190 0.035678 0.966071
O O14 0.002672 0.032822 0.430906
O O15 0.598861 0.161534 0.409719
O O16 0.299196 0.104222 0.857328
#
# Coordination Sequence:
#
# PCOD8003460 Si02
#       8
#     2   2   2   2   2   2   2   2
#     4   9  19  34  54  77 107 144 178 215 261 306
#     4   9  19  34  53  78 107 136 173 218 259 304
#     4  10  21  38  55  79 112 136 168 223 268 307
#     4  11  20  35  56  76 107 147 177 215 262 302
#     4  10  20  37  58  80 106 137 175 217 261 318
#     4  10  21  35  55  80 107 140 179 218 259 311
#     4  10  21  36  59  82 102 138 177 210 268 328
#     4   9  18  34  52  77 107 140 180 218 256 308
#
# _framework density 21.213307
#
# number of rings (size 3 to 8) (size 9 to 14) (size 15 to 20)
#    0.000    2.250    0.000    4.125    0.000    4.000 
#    0.000    3.750    0.000   12.000    0.000    0.000 
#    0.000    0.000    0.000    0.000    0.000    0.000 
#
# Total GULP energy -198354.808717 kJ/mol
# GULP energy per Si atom -12397.175545 kJ/mol
# Density = 2.116502 g / cm^3
# Si number density = 21.213307 Si / 1000 Ang^3
#
#
#
# Elastic Constant Matrix: (Units=GPa)
#
#
# Indices 1 2 3 4 5 6 
#
# 1 56.6154 23.2129 35.8453 12.1384 1.6769 12.6853
# 2 23.2129 46.4415 11.1658 -2.4892 -1.5608 5.0427
# 3 35.8453 11.1658 87.5265 1.1594 8.0600 5.8383
# 4 12.1384 -2.4892 1.1594 23.9576 -2.3599 3.4688
# 5 1.6769 -1.5608 8.0600 -2.3599 33.2864 0.0583
# 6 12.6853 5.0427 5.8383 3.4688 0.0583 26.9927
#
#
#
# Elastic Compliance Matrix: (Units=1/GPa)
#
#
# Indices 1 2 3 4 5 6 
#
# 1 0.038944 -0.016371 -0.012848 -0.019465 -0.000981 -0.009961
# 2 -0.016371 0.029796 0.002521 0.011493 0.002426 0.000100
# 3 -0.012848 0.002521 0.016466 0.005507 -0.002834 0.001304
# 4 -0.019465 0.011493 0.005507 0.053067 0.003950 -0.001019
# 5 -0.000981 0.002426 -0.002834 0.003950 0.031172 0.000046
# 6 -0.009961 0.000100 0.001304 -0.001019 0.000046 0.041558
#
#
# Mechanical properties :
#
#
# Convention : Reuss Voigt Hill
#
# Bulk Modulus (GPa) = 31.43630 36.78126 34.10878
# Shear Modulus (GPa) = 18.18167 24.87132 21.52649
#
# Velocity S-wave (km/s) = 2.93078 3.42780 3.18899
# Velocity P-wave (km/s) = 5.12874 5.74829 5.44733
#
# Compressibility (1/GPa) = 0.03181036
#
# Stress axis : x y z
#
# Youngs Moduli (GPa) = 25.67781 33.56174 60.73050
#
# Poissons Ratio (x) = 0.54945 0.78026
# Poissons Ratio (y) = 0.42038 -0.15312
# Poissons Ratio (z) = 0.32991 -0.08462
#
# Static dielectric constant tensor:
#      x y z
#    x 3.718550 0.224080 0.210420 
#    y 0.224080 3.630190 -0.060280 
#    z 0.210420 -0.060280 4.049200 
# 
# 
# High freq. dielectric constant tensor:
#      x y z
#    x 1.827480 0.021100 0.012920 
#    y 0.021100 1.817380 -0.001250 
#    z 0.012920 -0.001250 1.835900 
# 
# From -- ./inp_files/335716.got.cif
#   From: 2010.06.25/outbox.cif.g09.slc.cpg/sg2_168_cif.got.tgz:335716.got - 2010.06.27 13:26:56.
