data_PCOD8003742
_publ_section_title
;
Structure prediction by ZEFSAII (Michael W. Deem and Ramdas Pophale) SiO2 
 PCOD8003742
Probable space group: P -1
;
_chemical_formula_sum "Si O2"
_cell_formula_units_Z 16
_cell_length_a 20.926363
_cell_length_b 8.780149
_cell_length_c 9.018988
_cell_angle_alpha 72.916234
_cell_angle_beta 149.722959
_cell_angle_gamma 106.320841
_cell_volume 797.339631
_symmetry_space_group_name_H-M "P -1"
_symmetry_group_IT_number 2
_symmetry_cell_setting 'triclinic'
loop_
_space_group_symop_operation_xyz
x,y,z
-x,-y,-z
loop_
_atom_site_type_symbol
_atom_site_label
_atom_site_fract_x
_atom_site_fract_y
_atom_site_fract_z
Si Si1 0.254945 0.865831 0.467019
Si Si2 0.101386 0.653223 0.021375
Si Si3 0.566657 0.995569 0.430185
Si Si4 0.592146 0.417932 0.096171
Si Si5 0.277969 0.035413 0.763090
Si Si6 0.538475 0.337772 0.687782
Si Si7 0.176827 0.375738 0.449571
Si Si8 0.732632 0.182939 0.942642
O O1 0.123989 0.790386 0.154955
O O2 0.355228 0.731774 0.671702
O O3 0.322427 0.011894 0.469710
O O4 0.236989 0.907993 0.589434
O O5 0.156874 0.483111 0.229816
O O6 0.160211 0.720812 0.965852
O O7 0.950326 0.629089 0.705123
O O8 0.552088 0.811891 0.505935
O O9 0.615971 0.110052 0.629611
O O10 0.431432 0.051636 0.080406
O O11 0.709412 0.540858 0.249999
O O12 0.500000 0.500000 0.000000
O O13 0.524820 0.351957 0.832648
O O14 0.218354 0.198611 0.547069
O O15 0.216403 0.963492 0.814260
O O16 0.500000 0.500000 0.500000
O O17 0.679469 0.306446 0.920126
#
# Coordination Sequence:
#
# PCOD8003742 Si02
#       8
#     2   2   2   2   2   2   2   2
#     4  10  20  37  61  81 116 153 201 241 291 346
#     4   9  22  44  59  81 117 162 197 243 299 348
#     4  10  21  37  57  87 121 157 186 241 300 355
#     4  11  23  37  59  89 118 152 191 243 293 354
#     4  11  20  34  62  88 116 149 200 252 288 345
#     4  11  24  34  56  90 126 149 193 236 300 358
#     4  10  23  38  65  83 115 156 208 239 290 351
#     4  10  22  41  60  84 125 159 188 245 302 348
#
# _framework density 20.066732999999999
#
# number of rings (size 3 to 8) (size 9 to 14) (size 15 to 20)
#    0.000    1.750    2.500    2.625   10.500    1.000 
#    0.000    0.625    0.000    0.000    0.000    0.000 
#    0.000    0.000    0.000    0.000    0.000    0.000 
#
# Total GULP energy -198247.924266 kJ/mol
# GULP energy per Si atom -12390.495267 kJ/mol
# Density = 2.002106 g / cm^3
# Si number density = 20.066733 Si / 1000 Ang^3
#
#
#
# Elastic Constant Matrix: (Units=GPa)
#
#
# Indices 1 2 3 4 5 6 
#
# 1 118.8029 48.5029 34.8839 14.4957 -5.8717 11.7084
# 2 48.5029 108.7519 36.0245 -13.2442 13.0813 10.2553
# 3 34.8839 36.0245 58.0938 1.3252 5.9888 4.8596
# 4 14.4957 -13.2442 1.3252 26.3937 1.7018 -0.7528
# 5 -5.8717 13.0813 5.9888 1.7018 26.2207 7.5820
# 6 11.7084 10.2553 4.8596 -0.7528 7.5820 37.7573
#
#
#
# Elastic Compliance Matrix: (Units=1/GPa)
#
#
# Indices 1 2 3 4 5 6 
#
# 1 0.015603 -0.007749 -0.004989 -0.013021 0.010642 -0.004488
# 2 -0.007749 0.017291 -0.005391 0.013884 -0.010244 0.000734
# 3 -0.004989 -0.005391 0.023929 -0.000885 -0.004045 0.000726
# 4 -0.013021 0.013884 -0.000885 0.053098 -0.014335 0.004318
# 5 0.010642 -0.010244 -0.004045 -0.014335 0.050500 -0.010424
# 6 -0.004488 0.000734 0.000726 0.004318 -0.010424 0.029763
#
#
# Mechanical properties :
#
#
# Convention : Reuss Voigt Hill
#
# Bulk Modulus (GPa) = 48.62670 58.27458 53.45064
# Shear Modulus (GPa) = 21.43193 29.15683 25.29438
#
# Velocity S-wave (km/s) = 3.27162 3.81595 3.55422
# Velocity P-wave (km/s) = 6.20938 6.96554 6.59830
#
# Compressibility (1/GPa) = 0.02056483
#
# Stress axis : x y z
#
# Youngs Moduli (GPa) = 64.09094 57.83358 41.79077
#
# Poissons Ratio (x) = 0.44815 0.20847
# Poissons Ratio (y) = 0.49664 0.22531
# Poissons Ratio (z) = 0.31972 0.31180
#
# Static dielectric constant tensor:
#      x y z
#    x 3.638880 0.217100 -0.107100 
#    y 0.217100 3.849470 0.011460 
#    z -0.107100 0.011460 3.503040 
# 
# 
# High freq. dielectric constant tensor:
#      x y z
#    x 1.777280 0.014370 -0.007130 
#    y 0.014370 1.794060 0.004330 
#    z -0.007130 0.004330 1.756800 
# 
# From -- ./inp_files/222744.got.cif
#   From: 2010.06.25/outbox.cif.g09.slc.cpg/sg2_112_cif.got.tgz:222744.got - 2010.06.27 13:26:56.
