data_PCOD8003470
_publ_section_title
;
Structure prediction by ZEFSAII (Michael W. Deem and Ramdas Pophale) SiO2 
 PCOD8003470
Probable space group: P -1
;
_chemical_formula_sum "Si O2"
_cell_formula_units_Z 16
_cell_length_a 9.103423
_cell_length_b 6.690944
_cell_length_c 23.211429
_cell_angle_alpha 125.147806
_cell_angle_beta 130.823773
_cell_angle_gamma 46.269410
_cell_volume 753.018316
_symmetry_space_group_name_H-M "P -1"
_symmetry_group_IT_number 2
_symmetry_cell_setting 'triclinic'
loop_
_space_group_symop_operation_xyz
x,y,z
-x,-y,-z
loop_
_atom_site_type_symbol
_atom_site_label
_atom_site_fract_x
_atom_site_fract_y
_atom_site_fract_z
Si Si1 0.631825 0.192010 0.417567
Si Si2 0.700209 0.787181 0.271823
Si Si3 0.775487 0.101775 0.924250
Si Si4 0.631176 0.871426 0.136012
Si Si5 0.865350 0.509884 0.811522
Si Si6 0.587112 0.501912 0.842328
Si Si7 0.160901 0.664323 0.351196
Si Si8 0.047045 0.193651 0.475403
O O1 0.392846 0.478592 0.415811
O O2 0.829440 0.258533 0.467633
O O3 0.578406 0.055782 0.326668
O O4 0.718907 0.970693 0.456022
O O5 0.664472 0.910065 0.218484
O O6 0.602589 0.583618 0.226261
O O7 0.971456 0.607998 0.321726
O O8 0.777018 0.845489 0.846001
O O9 0.560361 0.219184 0.932095
O O10 0.742300 0.345956 0.911929
O O11 0.000000 0.000000 0.000000
O O12 0.867686 0.638000 0.130838
O O13 0.544950 0.160970 0.126555
O O14 0.749265 0.415823 0.814425
O O15 0.810243 0.411138 0.721299
O O16 0.076595 0.998751 0.394685
O O17 0.000000 0.500000 0.500000
#
# Coordination Sequence:
#
# PCOD8003470 Si02
#       8
#     2   2   2   2   2   2   2   2
#     4  10  20  37  58  82 112 150 193 233 280 339
#     4   9  20  36  58  85 117 149 187 239 287 332
#     4  10  22  40  59  83 119 155 187 231 284 337
#     4   9  20  37  56  86 120 148 190 238 279 335
#     4  10  22  38  59  89 116 145 192 239 281 337
#     4  10  20  37  60  85 115 152 189 230 286 339
#     4  10  20  39  61  83 115 149 189 239 283 336
#     4  10  23  39  55  81 117 151 187 235 287 334
#
# _framework density 21.247823
#
# number of rings (size 3 to 8) (size 9 to 14) (size 15 to 20)
#    0.000    2.250    0.000    2.625    0.000   11.000 
#    0.000    7.500    0.000    0.000    0.000    0.000 
#    0.000    0.000    0.000    0.000    0.000    0.000 
#
# Total GULP energy -198327.204966 kJ/mol
# GULP energy per Si atom -12395.450310 kJ/mol
# Density = 2.119946 g / cm^3
# Si number density = 21.247823 Si / 1000 Ang^3
#
#
#
# Elastic Constant Matrix: (Units=GPa)
#
#
# Indices 1 2 3 4 5 6 
#
# 1 98.7355 55.2928 17.7697 -12.1453 15.6036 -2.3302
# 2 55.2928 130.6920 25.1331 -18.7741 4.5977 4.1653
# 3 17.7697 25.1331 63.4790 -13.5513 15.5422 0.0406
# 4 -12.1453 -18.7741 -13.5513 30.5595 -10.9623 5.9029
# 5 15.6036 4.5977 15.5422 -10.9623 24.9418 -7.4287
# 6 -2.3302 4.1653 0.0406 5.9029 -7.4287 41.7025
#
#
#
# Elastic Compliance Matrix: (Units=1/GPa)
#
#
# Indices 1 2 3 4 5 6 
#
# 1 0.014769 -0.006114 0.000208 -0.000894 -0.008627 0.000025
# 2 -0.006114 0.011457 -0.003027 0.005540 0.005659 -0.001259
# 3 0.000208 -0.003027 0.020462 0.003645 -0.011391 -0.002251
# 4 -0.000894 0.005540 0.003645 0.043639 0.015234 -0.004070
# 5 -0.008627 0.005659 -0.011391 0.015234 0.060500 0.007585
# 6 0.000025 -0.001259 -0.002251 -0.004070 0.007585 0.026036
#
#
# Mechanical properties :
#
#
# Convention : Reuss Voigt Hill
#
# Bulk Modulus (GPa) = 34.69569 54.36644 44.53106
# Shear Modulus (GPa) = 24.46957 32.42150 28.44553
#
# Velocity S-wave (km/s) = 3.39724 3.91048 3.66286
# Velocity P-wave (km/s) = 5.63497 6.78465 6.23636
#
# Compressibility (1/GPa) = 0.02882202
#
# Stress axis : x y z
#
# Youngs Moduli (GPa) = 67.71163 87.28152 48.87087
#
# Poissons Ratio (x) = 0.53363 -0.01016
# Poissons Ratio (y) = 0.41399 0.14792
# Poissons Ratio (z) = -0.01408 0.26419
#
# Static dielectric constant tensor:
#      x y z
#    x 4.021690 -0.269580 0.235180 
#    y -0.269580 3.817450 -0.191440 
#    z 0.235180 -0.191440 3.802100 
# 
# 
# High freq. dielectric constant tensor:
#      x y z
#    x 1.832840 -0.019430 0.013580 
#    y -0.019430 1.831110 -0.011840 
#    z 0.013580 -0.011840 1.830020 
# 
# From -- ./inp_files/48472.got.cif
#   From: 2010.06.25/outbox.cif.g09.slc.cpg/sg2_25_cif.got.tgz:48472.got - 2010.06.27 13:26:56.
