data_PCOD8003499
_publ_section_title
;
Structure prediction by ZEFSAII (Michael W. Deem and Ramdas Pophale) SiO2 
 PCOD8003499
Probable space group: P -1
;
_chemical_formula_sum "Si O2"
_cell_formula_units_Z 16
_cell_length_a 16.249355
_cell_length_b 21.943421
_cell_length_c 11.759623
_cell_angle_alpha 149.635544
_cell_angle_beta 130.674664
_cell_angle_gamma 26.686649
_cell_volume 810.285886
_symmetry_space_group_name_H-M "P -1"
_symmetry_group_IT_number 2
_symmetry_cell_setting 'triclinic'
loop_
_space_group_symop_operation_xyz
x,y,z
-x,-y,-z
loop_
_atom_site_type_symbol
_atom_site_label
_atom_site_fract_x
_atom_site_fract_y
_atom_site_fract_z
Si Si1 0.863149 0.808472 0.443077
Si Si2 0.782406 0.312670 0.943655
Si Si3 0.191905 0.058303 0.910239
Si Si4 0.343730 0.818700 0.315303
Si Si5 0.279405 0.271650 0.961213
Si Si6 0.239389 0.115477 0.273967
Si Si7 0.160567 0.344057 0.221890
Si Si8 0.567597 0.691762 0.514250
O O1 0.756096 0.788775 0.269477
O O2 0.780742 0.918067 0.671817
O O3 0.790385 0.993698 0.604223
O O4 0.121171 0.540032 0.238656
O O5 0.801045 0.151928 0.719217
O O6 0.580812 0.537573 0.039105
O O7 0.734372 0.425647 0.203712
O O8 0.009026 0.146615 0.833935
O O9 0.164664 0.087735 0.069539
O O10 0.173963 0.209611 0.087543
O O11 0.431583 0.782398 0.649202
O O12 0.389915 0.873488 0.544081
O O13 0.520711 0.082278 0.862045
O O14 0.237392 0.250827 0.011818
O O15 0.088312 0.377988 0.552044
O O16 0.312194 0.297300 0.343930
#
# Coordination Sequence:
#
# PCOD8003499 Si02
#       8
#     2   2   2   2   2   2   2   2
#     4  10  22  39  56  82 118 158 188 230 281 346
#     4   9  22  40  59  90 110 148 198 241 284 331
#     4  12  22  33  61  91 114 150 191 235 295 341
#     4   9  20  43  61  80 119 152 189 243 285 326
#     4  10  22  39  55  86 120 151 192 228 287 345
#     4  11  22  35  56  83 119 151 188 231 280 353
#     4  11  22  34  59  90 117 149 185 240 295 340
#     4  10  20  37  58  86 118 143 183 247 286 333
#
# _framework density 19.746117000000002
#
# number of rings (size 3 to 8) (size 9 to 14) (size 15 to 20)
#    0.750    1.000    2.500    1.875    3.500    0.500 
#    2.250    0.625    0.000    1.500    0.000    0.000 
#    0.000    0.000    0.000    0.000    0.000    0.000 
#
# Total GULP energy -198257.152136 kJ/mol
# GULP energy per Si atom -12391.072009 kJ/mol
# Density = 1.970117 g / cm^3
# Si number density = 19.746117 Si / 1000 Ang^3
#
#
#
# Elastic Constant Matrix: (Units=GPa)
#
#
# Indices 1 2 3 4 5 6 
#
# 1 94.7152 65.7138 39.7034 8.8791 0.7796 -4.3949
# 2 65.7138 102.6632 31.1071 2.1839 2.9034 -9.6108
# 3 39.7034 31.1071 43.5448 12.0439 -4.0760 6.7689
# 4 8.8791 2.1839 12.0439 27.5113 -1.4510 -9.1767
# 5 0.7796 2.9034 -4.0760 -1.4510 32.0177 -0.3170
# 6 -4.3949 -9.6108 6.7689 -9.1767 -0.3170 45.6673
#
#
#
# Elastic Compliance Matrix: (Units=1/GPa)
#
#
# Indices 1 2 3 4 5 6 
#
# 1 0.024573 -0.010842 -0.015269 0.000336 -0.001520 0.002403
# 2 -0.010842 0.019061 -0.006518 0.006479 -0.001949 0.005223
# 3 -0.015269 -0.006518 0.050191 -0.021021 0.006257 -0.014461
# 4 0.000336 0.006479 -0.021021 0.049718 -0.000875 0.014496
# 5 -0.001520 -0.001949 0.006257 -0.000875 0.032189 -0.001436
# 6 0.002403 0.005223 -0.014461 0.014496 -0.001436 0.028274
#
#
# Mechanical properties :
#
#
# Convention : Reuss Voigt Hill
#
# Bulk Modulus (GPa) = 35.00411 57.10797 46.05604
# Shear Modulus (GPa) = 17.93488 27.99917 22.96702
#
# Velocity S-wave (km/s) = 3.01703 3.76966 3.41415
# Velocity P-wave (km/s) = 5.46829 6.92323 6.23832
#
# Compressibility (1/GPa) = 0.02856807
#
# Stress axis : x y z
#
# Youngs Moduli (GPa) = 40.69486 52.46231 19.92394
#
# Poissons Ratio (x) = 0.56877 0.30422
# Poissons Ratio (y) = 0.44120 0.12986
# Poissons Ratio (z) = 0.62138 0.34194
#
# Static dielectric constant tensor:
#      x y z
#    x 3.305450 -0.038060 -0.302870 
#    y -0.038060 3.788820 -0.010330 
#    z -0.302870 -0.010330 3.694100 
# 
# 
# High freq. dielectric constant tensor:
#      x y z
#    x 1.739800 -0.013940 -0.022150 
#    y -0.013940 1.775430 -0.000260 
#    z -0.022150 -0.000260 1.766180 
# 
# From -- ./inp_files/457751.got.cif
#   From: 2010.06.25/outbox.cif.g09.slc.cpg/sg2_229_cif.got.tgz:457751.got - 2010.06.27 13:26:56.
