data_PCOD8003557
_publ_section_title
;
Structure prediction by ZEFSAII (Michael W. Deem and Ramdas Pophale) SiO2 
 PCOD8003557
Probable space group: P -1
;
_chemical_formula_sum "Si O2"
_cell_formula_units_Z 16
_cell_length_a 20.734982
_cell_length_b 15.154772
_cell_length_c 12.260559
_cell_angle_alpha 151.064445
_cell_angle_beta 150.460532
_cell_angle_gamma 29.681851
_cell_volume 820.623969
_symmetry_space_group_name_H-M "P -1"
_symmetry_group_IT_number 2
_symmetry_cell_setting 'triclinic'
loop_
_space_group_symop_operation_xyz
x,y,z
-x,-y,-z
loop_
_atom_site_type_symbol
_atom_site_label
_atom_site_fract_x
_atom_site_fract_y
_atom_site_fract_z
Si Si1 0.174685 0.935936 0.870415
Si Si2 0.183906 0.574029 0.366958
Si Si3 0.101100 0.487298 0.736918
Si Si4 0.689694 0.884943 0.466671
Si Si5 0.488309 0.337969 0.650998
Si Si6 0.516683 0.709609 0.162534
Si Si7 0.028242 0.083549 0.019806
Si Si8 0.982366 0.597514 0.910699
O O1 0.157866 0.802518 0.604056
O O2 0.342008 0.840912 0.053457
O O3 0.069856 0.932263 0.813395
O O4 0.126417 0.163828 0.004090
O O5 0.355634 0.418064 0.456686
O O6 0.096778 0.508644 0.254114
O O7 0.128522 0.572779 0.161979
O O8 0.257236 0.285912 0.736551
O O9 0.029321 0.476984 0.735075
O O10 0.000000 0.500000 0.500000
O O11 0.114140 0.701211 0.983905
O O12 0.587877 0.839763 0.351717
O O13 0.832565 0.868324 0.719918
O O14 0.602990 0.112587 0.535822
O O15 0.425402 0.334944 0.676348
O O16 0.561484 0.494532 0.932422
O O17 0.000000 0.000000 0.000000
#
# Coordination Sequence:
#
# PCOD8003557 Si02
#       8
#     2   2   2   2   2   2   2   2
#     4  10  20  37  59  85 114 149 187 244 282 336
#     4  10  22  35  62  81 114 154 185 243 273 342
#     4   9  22  35  55  82 113 150 180 238 276 340
#     4  11  21  35  55  80 118 154 179 238 283 336
#     4  10  21  34  55  84 115 149 189 236 276 342
#     4  10  21  34  55  88 115 146 190 233 289 331
#     4  10  22  34  54  87 118 150 187 231 295 338
#     4  10  21  40  55  86 114 147 198 226 288 337
#
# _framework density 19.49736
#
# number of rings (size 3 to 8) (size 9 to 14) (size 15 to 20)
#    0.000    2.000    1.250    1.500   10.500    0.000 
#    0.000    0.625    0.000    3.000    0.000    0.000 
#    0.000    0.000    0.000    0.000    0.000    0.000 
#
# Total GULP energy -198290.404701 kJ/mol
# GULP energy per Si atom -12393.150294 kJ/mol
# Density = 1.945298 g / cm^3
# Si number density = 19.497360 Si / 1000 Ang^3
#
#
#
# Elastic Constant Matrix: (Units=GPa)
#
#
# Indices 1 2 3 4 5 6 
#
# 1 71.8015 21.4829 18.5394 6.5177 -8.4380 -0.4108
# 2 21.4829 121.3235 28.1942 19.6053 -10.8936 -15.2000
# 3 18.5394 28.1942 60.5142 -0.0447 -6.0151 -4.3524
# 4 6.5177 19.6053 -0.0447 28.7321 4.9184 -8.3452
# 5 -8.4380 -10.8936 -6.0151 4.9184 28.5152 6.0127
# 6 -0.4108 -15.2000 -4.3524 -8.3452 6.0127 27.7619
#
#
#
# Elastic Compliance Matrix: (Units=1/GPa)
#
#
# Indices 1 2 3 4 5 6 
#
# 1 0.016386 -0.001115 -0.004254 -0.004892 0.005132 -0.003617
# 2 -0.001115 0.011303 -0.004375 -0.007418 0.003833 0.002426
# 3 -0.004254 -0.004375 0.020024 0.004559 0.000079 0.002034
# 4 -0.004892 -0.007418 0.004559 0.047527 -0.014470 0.014001
# 5 0.005132 0.003833 0.000079 -0.014470 0.042983 -0.011472
# 6 -0.003617 0.002426 0.002034 0.014001 -0.011472 0.044308
#
#
# Mechanical properties :
#
#
# Convention : Reuss Voigt Hill
#
# Bulk Modulus (GPa) = 35.42857 43.34137 39.38497
# Shear Modulus (GPa) = 23.64885 29.36335 26.50610
#
# Velocity S-wave (km/s) = 3.48649 3.88495 3.69110
# Velocity P-wave (km/s) = 5.86667 6.51164 6.19755
#
# Compressibility (1/GPa) = 0.02822580
#
# Stress axis : x y z
#
# Youngs Moduli (GPa) = 61.02882 88.46907 49.93962
#
# Poissons Ratio (x) = 0.09861 0.21246
# Poissons Ratio (y) = 0.06802 0.21848
# Poissons Ratio (z) = 0.25964 0.38704
#
# Static dielectric constant tensor:
#      x y z
#    x 3.428070 -0.217070 -0.186050 
#    y -0.217070 4.041050 0.361060 
#    z -0.186050 0.361060 3.652810 
# 
# 
# High freq. dielectric constant tensor:
#      x y z
#    x 1.735650 -0.003950 -0.000450 
#    y -0.003950 1.771770 0.025600 
#    z -0.000450 0.025600 1.746010 
# 
# From -- ./inp_files/424909.got.cif
#   From: 2010.06.25/outbox.cif.g09.slc.cpg/sg2_213_cif.got.tgz:424909.got - 2010.06.27 13:26:56.
