data_PCOD8003459
_publ_section_title
;
Structure prediction by ZEFSAII (Michael W. Deem and Ramdas Pophale) SiO2 
 PCOD8003459
Probable space group: P -1
;
_chemical_formula_sum "Si O2"
_cell_formula_units_Z 12
_cell_length_a 17.771088
_cell_length_b 7.677271
_cell_length_c 9.341119
_cell_angle_alpha 68.106009
_cell_angle_beta 48.109738
_cell_angle_gamma 39.442489
_cell_volume 574.615435
_symmetry_space_group_name_H-M "P -1"
_symmetry_group_IT_number 2
_symmetry_cell_setting 'triclinic'
loop_
_space_group_symop_operation_xyz
x,y,z
-x,-y,-z
loop_
_atom_site_type_symbol
_atom_site_label
_atom_site_fract_x
_atom_site_fract_y
_atom_site_fract_z
Si Si1 0.016410 0.299405 0.800374
Si Si2 0.785513 0.631989 0.510498
Si Si3 0.723913 0.745306 0.238560
Si Si4 0.182716 0.634237 0.178689
Si Si5 0.451938 0.233213 0.764731
Si Si6 0.271870 0.836163 0.833434
O O1 0.073991 0.420079 0.634804
O O2 0.967704 0.242886 0.744167
O O3 0.152543 0.001673 0.802608
O O4 0.875921 0.529158 0.016134
O O5 0.766438 0.590769 0.384061
O O6 0.820979 0.401908 0.636019
O O7 0.629670 0.954369 0.664817
O O8 0.583400 0.831631 0.317098
O O9 0.671856 0.034640 0.240453
O O10 0.337350 0.319974 0.009350
O O11 0.189396 0.849280 0.071823
O O12 0.418814 0.502374 0.700890
#
# Coordination Sequence:
#
# PCOD8003459 Si02
#       6
#     2   2   2   2   2   2
#     4  10  20  37  58  79 111 146 181 220 269 324
#     4  11  19  35  58  84 109 142 180 227 273 313
#     4  10  21  37  58  80 109 146 183 219 268 323
#     4   9  20  35  58  80 110 143 180 223 273 316
#     4   9  21  36  61  76 112 145 179 220 273 324
#     4   9  19  36  61  78 108 142 188 214 271 321
#
# _framework density 20.883533
#
# number of rings (size 3 to 8) (size 9 to 14) (size 15 to 20)
#    1.000    1.333    0.000    4.000    0.000    2.667 
#    0.000    4.167   14.667    0.000    0.000    0.000 
#    0.000    0.000    0.000    0.000    0.000    0.000 
#
# Total GULP energy -148716.627932 kJ/mol
# GULP energy per Si atom -12393.052328 kJ/mol
# Density = 2.083600 g / cm^3
# Si number density = 20.883533 Si / 1000 Ang^3
#
#
#
# Elastic Constant Matrix: (Units=GPa)
#
#
# Indices 1 2 3 4 5 6 
#
# 1 79.9148 20.7293 24.3061 -20.1746 10.4889 8.3118
# 2 20.7293 75.1488 16.0040 -21.2665 9.0325 -0.1351
# 3 24.3061 16.0040 72.6932 -38.1056 5.5267 -12.1408
# 4 -20.1746 -21.2665 -38.1056 45.0925 -8.1679 -0.5896
# 5 10.4889 9.0325 5.5267 -8.1679 20.3173 1.2894
# 6 8.3118 -0.1351 -12.1408 -0.5896 1.2894 20.6594
#
#
#
# Elastic Compliance Matrix: (Units=1/GPa)
#
#
# Indices 1 2 3 4 5 6 
#
# 1 0.016894 -0.002760 -0.006574 -0.000376 -0.005200 -0.010365
# 2 -0.002760 0.016189 0.002055 0.007543 -0.003480 0.002856
# 3 -0.006574 0.002055 0.033168 0.026864 0.002815 0.022741
# 4 -0.000376 0.007543 0.026864 0.050042 0.008580 0.016880
# 5 -0.005200 -0.003480 0.002815 0.008580 0.056105 0.000467
# 6 -0.010365 0.002856 0.022741 0.016880 0.000467 0.066409
#
#
# Mechanical properties :
#
#
# Convention : Reuss Voigt Hill
#
# Bulk Modulus (GPa) = 19.34520 38.87062 29.10791
# Shear Modulus (GPa) = 18.47761 28.32834 23.40298
#
# Velocity S-wave (km/s) = 2.97777 3.68705 3.35123
# Velocity P-wave (km/s) = 4.59416 6.06459 5.37985
#
# Compressibility (1/GPa) = 0.05169242
#
# Stress axis : x y z
#
# Youngs Moduli (GPa) = 59.19134 61.77098 30.14920
#
# Poissons Ratio (x) = 0.17050 0.19820
# Poissons Ratio (y) = 0.16338 -0.06194
# Poissons Ratio (z) = 0.38912 -0.12691
#
# Static dielectric constant tensor:
#      x y z
#    x 3.630620 -0.078420 -0.105640 
#    y -0.078420 3.512130 -0.062440 
#    z -0.105640 -0.062440 3.827320 
# 
# 
# High freq. dielectric constant tensor:
#      x y z
#    x 1.798520 -0.008180 -0.011160 
#    y -0.008180 1.801850 -0.001400 
#    z -0.011160 -0.001400 1.826190 
# 
# From -- ./inp_files/145822.got.cif
#   From: 2010.06.25/outbox.cif.g09.slc.cpg/sg2_73_cif.got.tgz:145822.got - 2010.06.27 13:26:56.
