data_PCOD8003839
_publ_section_title
;
Structure prediction by ZEFSAII (Michael W. Deem and Ramdas Pophale) SiO2 
 PCOD8003839
Probable space group: P -1
;
_chemical_formula_sum "Si O2"
_cell_formula_units_Z 14
_cell_length_a 14.439508
_cell_length_b 12.200418
_cell_length_c 12.344921
_cell_angle_alpha 70.566817
_cell_angle_beta 19.474922
_cell_angle_gamma 79.264095
_cell_volume 625.110981
_symmetry_space_group_name_H-M "P -1"
_symmetry_group_IT_number 2
_symmetry_cell_setting 'triclinic'
loop_
_space_group_symop_operation_xyz
x,y,z
-x,-y,-z
loop_
_atom_site_type_symbol
_atom_site_label
_atom_site_fract_x
_atom_site_fract_y
_atom_site_fract_z
Si Si1 0.378994 0.454262 0.892155
Si Si2 0.937957 0.419687 0.203247
Si Si3 0.016863 0.973738 0.245438
Si Si4 0.704670 0.146878 0.453354
Si Si5 0.122420 0.270242 0.422563
Si Si6 0.154329 0.912276 0.898616
Si Si7 0.308008 0.618051 0.091556
O O1 0.707763 0.452108 0.521086
O O2 0.246582 0.454285 0.918673
O O3 0.160025 0.328321 0.241050
O O4 0.418971 0.586053 0.864166
O O5 0.803049 0.270485 0.376596
O O6 0.000000 0.500000 0.000000
O O7 0.784141 0.038489 0.459380
O O8 0.342517 0.088897 0.860106
O O9 0.913663 0.877048 0.493247
O O10 0.007516 0.870181 0.193828
O O11 0.870952 0.187961 0.137052
O O12 0.805252 0.267078 0.825394
O O13 0.426900 0.359324 0.121431
O O14 0.500000 0.000000 0.500000
O O15 0.000000 0.000000 0.000000
O O16 0.000000 0.500000 0.500000
#
# Coordination Sequence:
#
# PCOD8003839 Si02
#       7
#     2   2   2   2   2   2   2
#     4  11  23  42  62  90 125 160 206 258 301 359
#     4  12  26  44  63  85 117 168 217 256 298 355
#     4  10  20  37  61  92 121 153 193 247 311 371
#     4  10  21  39  58  84 123 158 201 253 293 351
#     4  11  21  38  65  97 127 158 195 249 317 378
#     4   8  16  31  53  78 110 148 187 236 293 340
#     4  10  20  37  62  92 125 159 194 247 307 358
#
# _framework density 22.396023
#
# number of rings (size 3 to 8) (size 9 to 14) (size 15 to 20)
#    0.000    1.714    0.000    6.429    0.000    2.286 
#    0.000   10.000    0.000    0.000    0.000    0.000 
#    0.000    0.000    0.000    0.000    0.000    0.000 
#
# Total GULP energy -173458.647307 kJ/mol
# GULP energy per Si atom -12389.903379 kJ/mol
# Density = 2.234505 g / cm^3
# Si number density = 22.396023 Si / 1000 Ang^3
#
#
#
# Elastic Constant Matrix: (Units=GPa)
#
#
# Indices 1 2 3 4 5 6 
#
# 1 101.6703 20.2455 8.7367 -0.2193 -6.8826 -8.5225
# 2 20.2455 78.6154 16.9031 11.1583 7.6798 -3.2703
# 3 8.7367 16.9031 43.7365 18.8431 -1.6950 -3.1312
# 4 -0.2193 11.1583 18.8431 33.8674 -9.0782 -1.2106
# 5 -6.8826 7.6798 -1.6950 -9.0782 36.6541 -2.8593
# 6 -8.5225 -3.2703 -3.1312 -1.2106 -2.8593 34.5484
#
#
#
# Elastic Compliance Matrix: (Units=1/GPa)
#
#
# Indices 1 2 3 4 5 6 
#
# 1 0.011125 -0.003135 -0.002130 0.003376 0.003692 0.002678
# 2 -0.003135 0.015432 -0.003628 -0.004464 -0.005113 -0.000221
# 3 -0.002130 -0.003628 0.032135 -0.017279 -0.002336 0.001245
# 4 0.003376 -0.004464 -0.017279 0.043826 0.011730 0.001351
# 5 0.003692 -0.005113 -0.002336 0.011730 0.032100 0.003283
# 6 0.002678 -0.000221 0.001245 0.001351 0.003283 0.030016
#
#
# Mechanical properties :
#
#
# Convention : Reuss Voigt Hill
#
# Bulk Modulus (GPa) = 24.44738 35.08809 29.76774
# Shear Modulus (GPa) = 25.50294 32.88978 29.19636
#
# Velocity S-wave (km/s) = 3.37816 3.83633 3.61451
# Velocity P-wave (km/s) = 5.11426 5.94343 5.54437
#
# Compressibility (1/GPa) = 0.04090417
#
# Stress axis : x y z
#
# Youngs Moduli (GPa) = 89.88896 64.80220 31.11867
#
# Poissons Ratio (x) = 0.20318 0.06628
# Poissons Ratio (y) = 0.28183 0.11291
# Poissons Ratio (z) = 0.19147 0.23512
#
# Static dielectric constant tensor:
#      x y z
#    x 4.195090 -0.055900 -0.047490 
#    y -0.055900 4.291170 0.495510 
#    z -0.047490 0.495510 4.063410 
# 
# 
# High freq. dielectric constant tensor:
#      x y z
#    x 1.888190 -0.013390 -0.015690 
#    y -0.013390 1.874250 0.019790 
#    z -0.015690 0.019790 1.877060 
# 
# From -- ./inp_files/452236.got.cif
#   From: 2010.06.25/outbox.cif.g09.slc.cpg/sg2_227_cif.got.tgz:452236.got - 2010.06.27 13:26:56.
