data_PCOD8003367
_publ_section_title
;
Structure prediction by ZEFSAII (Michael W. Deem and Ramdas Pophale) SiO2 
 PCOD8003367
Probable space group: P -1
;
_chemical_formula_sum "Si O2"
_cell_formula_units_Z 16
_cell_length_a 15.521062
_cell_length_b 15.457675
_cell_length_c 8.969311
_cell_angle_alpha 91.353961
_cell_angle_beta 112.299028
_cell_angle_gamma 30.519232
_cell_volume 772.301972
_symmetry_space_group_name_H-M "P -1"
_symmetry_group_IT_number 2
_symmetry_cell_setting 'triclinic'
loop_
_space_group_symop_operation_xyz
x,y,z
-x,-y,-z
loop_
_atom_site_type_symbol
_atom_site_label
_atom_site_fract_x
_atom_site_fract_y
_atom_site_fract_z
Si Si1 0.646918 0.797949 0.664468
Si Si2 0.212760 0.960853 0.969750
Si Si3 0.986544 0.909578 0.478489
Si Si4 0.304871 0.560610 0.256653
Si Si5 0.489113 0.438800 0.697938
Si Si6 0.578348 0.164354 0.342835
Si Si7 0.835219 0.683897 0.109990
Si Si8 0.558221 0.086174 0.017069
O O1 0.477894 0.856703 0.563617
O O2 0.880303 0.576087 0.708448
O O3 0.500000 0.000000 0.500000
O O4 0.729007 0.756699 0.879904
O O5 0.414590 0.864077 0.091573
O O6 0.313980 0.791108 0.111015
O O7 0.139019 0.001231 0.756499
O O8 0.981634 0.191208 0.917274
O O9 0.250119 0.642452 0.649644
O O10 0.000000 0.000000 0.500000
O O11 0.832173 0.999014 0.516531
O O12 0.430820 0.454708 0.495934
O O13 0.403789 0.556636 0.227984
O O14 0.369284 0.415593 0.211748
O O15 0.592903 0.098566 0.199701
O O16 0.775925 0.832483 0.123342
O O17 0.703494 0.735108 0.148651
#
# Coordination Sequence:
#
# PCOD8003367 Si02
#       8
#     2   2   2   2   2   2   2   2
#     4  10  21  36  60  88 109 143 184 226 274 330
#     4  10  21  35  57  83 107 143 196 222 273 335
#     4  10  20  38  55  76 114 147 179 230 278 320
#     4  10  20  37  55  76 114 146 184 233 275 321
#     4  10  21  36  56  79 107 151 188 228 277 322
#     4  10  20  37  58  81 112 149 184 224 281 328
#     4   9  19  39  60  78 118 143 176 228 281 325
#     4   9  19  37  58  82 110 150 178 226 280 329
#
# _framework density 20.717285
#
# number of rings (size 3 to 8) (size 9 to 14) (size 15 to 20)
#    0.000    2.250    1.250    1.125    0.000    2.500 
#    0.000    5.625    0.000    0.000    0.000    0.000 
#    0.000    0.000    0.000    0.000    0.000    0.000 
#
# Total GULP energy -198329.006762 kJ/mol
# GULP energy per Si atom -12395.562923 kJ/mol
# Density = 2.067013 g / cm^3
# Si number density = 20.717285 Si / 1000 Ang^3
#
#
#
# Elastic Constant Matrix: (Units=GPa)
#
#
# Indices 1 2 3 4 5 6 
#
# 1 182.7736 71.0912 38.4429 -33.5095 2.8043 -7.1389
# 2 71.0912 150.1295 32.2087 -32.9793 2.5698 2.2276
# 3 38.4429 32.2087 43.4398 -25.2520 -8.3980 -7.1916
# 4 -33.5095 -32.9793 -25.2520 25.5737 5.9598 10.5766
# 5 2.8043 2.5698 -8.3980 5.9598 23.7533 -6.4833
# 6 -7.1389 2.2276 -7.1916 10.5766 -6.4833 39.5580
#
#
#
# Elastic Compliance Matrix: (Units=1/GPa)
#
#
# Indices 1 2 3 4 5 6 
#
# 1 0.007984 -0.001440 -0.002599 0.007685 -0.004091 -0.001676
# 2 -0.001440 0.011339 0.000851 0.018015 -0.007112 -0.006726
# 3 -0.002599 0.000851 0.056220 0.053376 0.005708 -0.003632
# 4 0.007685 0.018015 0.053376 0.146085 -0.029885 -0.033881
# 5 -0.004091 -0.007112 0.005708 -0.029885 0.057827 0.018168
# 6 -0.001676 -0.006726 -0.003632 -0.033881 0.018168 0.036732
#
#
# Mechanical properties :
#
#
# Convention : Reuss Voigt Hill
#
# Bulk Modulus (GPa) = 14.45785 73.31425 43.88605
# Shear Modulus (GPa) = 14.46675 33.41701 23.94188
#
# Velocity S-wave (km/s) = 2.64539 4.02058 3.40317
# Velocity P-wave (km/s) = 4.04037 7.55104 6.05569
#
# Compressibility (1/GPa) = 0.06916659
#
# Stress axis : x y z
#
# Youngs Moduli (GPa) = 125.24518 88.18909 17.78722
#
# Poissons Ratio (x) = 0.12701 0.04623
# Poissons Ratio (y) = 0.18038 -0.01514
# Poissons Ratio (z) = 0.32554 -0.07504
#
# Static dielectric constant tensor:
#      x y z
#    x 3.928910 -0.122940 0.082180 
#    y -0.122940 4.016740 -0.074400 
#    z 0.082180 -0.074400 3.170300 
# 
# 
# High freq. dielectric constant tensor:
#      x y z
#    x 1.835050 -0.003560 0.014020 
#    y -0.003560 1.831690 -0.010150 
#    z 0.014020 -0.010150 1.759260 
# 
# From -- ./inp_files/137947.got.cif
#   From: 2010.06.25/outbox.cif.g09.slc.cpg/sg2_69_cif.got.tgz:137947.got - 2010.06.27 13:26:56.
