data_PCOD8003618
_publ_section_title
;
Structure prediction by ZEFSAII (Michael W. Deem and Ramdas Pophale) SiO2 
 PCOD8003618
Probable space group: P -1
;
_chemical_formula_sum "Si O2"
_cell_formula_units_Z 16
_cell_length_a 9.064430
_cell_length_b 16.555693
_cell_length_c 10.084240
_cell_angle_alpha 71.190670
_cell_angle_beta 134.317642
_cell_angle_gamma 132.419906
_cell_volume 766.909123
_symmetry_space_group_name_H-M "P -1"
_symmetry_group_IT_number 2
_symmetry_cell_setting 'triclinic'
loop_
_space_group_symop_operation_xyz
x,y,z
-x,-y,-z
loop_
_atom_site_type_symbol
_atom_site_label
_atom_site_fract_x
_atom_site_fract_y
_atom_site_fract_z
Si Si1 0.004508 0.036969 0.130434
Si Si2 0.631784 0.789215 0.079992
Si Si3 0.981998 0.789007 0.076123
Si Si4 0.830494 0.435374 0.662031
Si Si5 0.677221 0.543700 0.955938
Si Si6 0.380806 0.784857 0.493443
Si Si7 0.586057 0.632790 0.339752
Si Si8 0.100220 0.676112 0.646757
O O1 0.298521 0.106122 0.348905
O O2 0.786291 0.921294 0.138374
O O3 0.922333 0.114188 0.023133
O O4 0.000000 0.000000 0.000000
O O5 0.613908 0.732159 0.234915
O O6 0.786799 0.777002 0.071474
O O7 0.323326 0.725354 0.875502
O O8 0.247595 0.818077 0.294366
O O9 0.806244 0.672203 0.944373
O O10 0.656368 0.321507 0.525641
O O11 0.637503 0.425429 0.655502
O O12 0.082448 0.459254 0.880595
O O13 0.953633 0.545254 0.591342
O O14 0.500000 0.500000 0.000000
O O15 0.487157 0.463147 0.758239
O O16 0.236134 0.752464 0.560979
O O17 0.880463 0.685463 0.556392
#
# Coordination Sequence:
#
# PCOD8003618 Si02
#       8
#     2   2   2   2   2   2   2   2
#     4  10  22  38  63  95 123 157 211 266 304 360
#     4  11  22  40  62  93 127 159 210 258 310 360
#     4  10  20  37  59  96 120 158 204 256 315 350
#     4  11  25  40  60  96 132 165 202 251 321 369
#     4  11  20  38  64  91 125 160 204 252 309 366
#     4  11  22  39  65  94 125 160 207 267 303 368
#     4  12  24  41  61  92 133 169 199 255 311 378
#     4  12  22  38  63  93 123 165 209 253 310 369
#
# _framework density 20.862969
#
# number of rings (size 3 to 8) (size 9 to 14) (size 15 to 20)
#    0.000    1.000    6.250    1.875    1.750    3.000 
#    0.000    0.625    0.000    3.750    0.000    0.000 
#    0.000    0.000    0.000    0.000    0.000    0.000 
#
# Total GULP energy -198413.846953 kJ/mol
# GULP energy per Si atom -12400.865435 kJ/mol
# Density = 2.081548 g / cm^3
# Si number density = 20.862969 Si / 1000 Ang^3
#
#
#
# Elastic Constant Matrix: (Units=GPa)
#
#
# Indices 1 2 3 4 5 6 
#
# 1 54.3362 6.0885 19.8543 5.7413 19.5048 -3.3105
# 2 6.0885 158.8154 61.1510 -4.0267 8.7957 -0.7605
# 3 19.8543 61.1510 136.5731 5.2753 29.3007 -4.2081
# 4 5.7413 -4.0267 5.2753 32.0916 -1.1518 4.0402
# 5 19.5048 8.7957 29.3007 -1.1518 20.6821 -4.6144
# 6 -3.3105 -0.7605 -4.2081 4.0402 -4.6144 15.2275
#
#
#
# Elastic Compliance Matrix: (Units=1/GPa)
#
#
# Indices 1 2 3 4 5 6 
#
# 1 0.029877 -0.000794 0.003386 -0.007094 -0.033208 -0.000789
# 2 -0.000794 0.007803 -0.004195 0.001988 0.003385 -0.000444
# 3 0.003386 -0.004195 0.013255 -0.003923 -0.020635 -0.001022
# 4 -0.007094 0.001988 -0.003923 0.034778 0.011494 -0.008272
# 5 -0.033208 0.003385 -0.020635 0.011494 0.112160 0.018186
# 6 -0.000789 -0.000444 -0.001022 -0.008272 0.018186 0.072900
#
#
# Mechanical properties :
#
#
# Convention : Reuss Voigt Hill
#
# Bulk Modulus (GPa) = 20.95109 58.21248 39.58178
# Shear Modulus (GPa) = 17.24791 31.10897 24.17844
#
# Velocity S-wave (km/s) = 2.87840 3.86568 3.40798
# Velocity P-wave (km/s) = 4.59467 6.92008 5.87360
#
# Compressibility (1/GPa) = 0.04773021
#
# Stress axis : x y z
#
# Youngs Moduli (GPa) = 33.47008 128.15249 75.44119
#
# Poissons Ratio (x) = 0.10172 -0.25545
# Poissons Ratio (y) = 0.02657 0.31649
# Poissons Ratio (z) = -0.11333 0.53763
#
# Static dielectric constant tensor:
#      x y z
#    x 3.379720 -0.038560 0.150290 
#    y -0.038560 4.633270 -0.086080 
#    z 0.150290 -0.086080 4.025680 
# 
# 
# High freq. dielectric constant tensor:
#      x y z
#    x 1.777370 -0.002570 0.016790 
#    y -0.002570 1.830990 -0.006060 
#    z 0.016790 -0.006060 1.829620 
# 
# From -- ./inp_files/399012.got.cif
#   From: 2010.06.25/outbox.cif.g09.slc.cpg/sg2_200_cif.got.tgz:399012.got - 2010.06.27 13:26:56.
