data_PCOD8003163
_publ_section_title
;
Structure prediction by ZEFSAII (Michael W. Deem and Ramdas Pophale) SiO2 
 PCOD8003163
Probable space group: P -1
;
_chemical_formula_sum "Si O2"
_cell_formula_units_Z 16
_cell_length_a 15.217508
_cell_length_b 13.519962
_cell_length_c 9.036834
_cell_angle_alpha 48.967806
_cell_angle_beta 36.091005
_cell_angle_gamma 52.152642
_cell_volume 811.606124
_symmetry_space_group_name_H-M "P -1"
_symmetry_group_IT_number 2
_symmetry_cell_setting 'triclinic'
loop_
_space_group_symop_operation_xyz
x,y,z
-x,-y,-z
loop_
_atom_site_type_symbol
_atom_site_label
_atom_site_fract_x
_atom_site_fract_y
_atom_site_fract_z
Si Si1 0.648307 0.835002 0.239183
Si Si2 0.636651 0.138341 0.919585
Si Si3 0.108352 0.074708 0.684686
Si Si4 0.324862 0.224940 0.408608
Si Si5 0.954964 0.644878 0.986206
Si Si6 0.605597 0.096531 0.692780
Si Si7 0.107965 0.739510 0.424423
Si Si8 0.896975 0.532849 0.465858
O O1 0.612557 0.833718 0.462305
O O2 0.497969 0.813187 0.376804
O O3 0.780579 0.714622 0.126278
O O4 0.692378 0.978802 0.008047
O O5 0.653147 0.181570 0.682721
O O6 0.733713 0.208961 0.832271
O O7 0.459258 0.184628 0.149870
O O8 0.178223 0.167788 0.611217
O O9 0.015656 0.159691 0.597192
O O10 0.242350 0.972842 0.526235
O O11 0.000000 0.000000 0.000000
O O12 0.267139 0.384783 0.341236
O O13 0.055908 0.734125 0.672808
O O14 0.976509 0.626227 0.153197
O O15 0.000000 0.500000 0.000000
O O16 0.500000 0.000000 0.000000
O O17 0.134803 0.597271 0.446956
O O18 0.000000 0.500000 0.500000
#
# Coordination Sequence:
#
# PCOD8003163 Si02
#       8
#     2   2   2   2   2   2   2   2
#     4  10  20  36  63  89 122 167 212 251 319 385
#     4  11  23  37  62  90 130 169 202 264 323 376
#     4  12  24  37  65 100 130 164 215 267 316 379
#     4  11  22  39  63  88 125 170 212 254 329 374
#     4   9  21  38  64  89 122 166 214 255 316 374
#     4  10  21  38  60  89 126 168 208 249 320 384
#     4  11  23  40  61  94 130 160 214 269 313 374
#     4  10  21  41  66  90 118 169 216 263 315 382
#
# _framework density 19.713996000000002
#
# number of rings (size 3 to 8) (size 9 to 14) (size 15 to 20)
#    0.000    1.500    3.750    2.625    1.750    4.500 
#    0.000    0.000    0.000    7.500    0.000    0.000 
#    0.000    0.000    0.000    0.000    0.000    0.000 
#
# Total GULP energy -198287.045263 kJ/mol
# GULP energy per Si atom -12392.940329 kJ/mol
# Density = 1.966913 g / cm^3
# Si number density = 19.713996 Si / 1000 Ang^3
#
#
#
# Elastic Constant Matrix: (Units=GPa)
#
#
# Indices 1 2 3 4 5 6 
#
# 1 162.0781 59.3064 43.4612 0.2253 5.1514 -13.5379
# 2 59.3064 119.9051 56.6109 18.9745 0.1348 -7.3188
# 3 43.4612 56.6109 100.0108 18.0398 5.9236 -8.7662
# 4 0.2253 18.9745 18.0398 28.5901 -1.2494 6.2012
# 5 5.1514 0.1348 5.9236 -1.2494 33.3123 -1.7778
# 6 -13.5379 -7.3188 -8.7662 6.2012 -1.7778 30.5308
#
#
#
# Elastic Compliance Matrix: (Units=1/GPa)
#
#
# Indices 1 2 3 4 5 6 
#
# 1 0.008114 -0.003500 -0.001931 0.003115 -0.000699 0.001531
# 2 -0.003500 0.013457 -0.004936 -0.006074 0.001220 0.001561
# 3 -0.001931 -0.004936 0.015438 -0.007372 -0.002503 0.003745
# 4 0.003115 -0.006074 -0.007372 0.046208 0.001975 -0.011462
# 5 -0.000699 0.001220 -0.002503 0.001975 0.030676 0.000649
# 6 0.001531 0.001561 0.003745 -0.011462 0.000649 0.037248
#
#
# Mechanical properties :
#
#
# Convention : Reuss Voigt Hill
#
# Bulk Modulus (GPa) = 61.44485 77.86124 69.65304
# Shear Modulus (GPa) = 28.20074 33.32770 30.76422
#
# Velocity S-wave (km/s) = 3.78629 4.11610 3.95464
# Velocity P-wave (km/s) = 7.09580 7.88485 7.50071
#
# Compressibility (1/GPa) = 0.01627476
#
# Stress axis : x y z
#
# Youngs Moduli (GPa) = 123.23946 74.31225 64.77426
#
# Poissons Ratio (x) = 0.26012 0.12509
# Poissons Ratio (y) = 0.43139 0.31971
# Poissons Ratio (z) = 0.23799 0.36679
#
# Static dielectric constant tensor:
#      x y z
#    x 4.073930 -0.108020 0.329410 
#    y -0.108020 3.664090 0.085070 
#    z 0.329410 0.085070 3.616380 
# 
# 
# High freq. dielectric constant tensor:
#      x y z
#    x 1.783520 -0.008710 0.021600 
#    y -0.008710 1.769370 0.022760 
#    z 0.021600 0.022760 1.753270 
# 
# From -- ./inp_files/189414.got.cif
#   From: 2010.06.25/outbox.cif.g09.slc.cpg/sg2_95_cif.got.tgz:189414.got - 2010.06.27 13:26:56.
