data_PCOD8003676
_publ_section_title
;
Structure prediction by ZEFSAII (Michael W. Deem and Ramdas Pophale) SiO2 
 PCOD8003676
Probable space group: P -1
;
_chemical_formula_sum "Si O2"
_cell_formula_units_Z 14
_cell_length_a 16.171051
_cell_length_b 10.263239
_cell_length_c 22.129648
_cell_angle_alpha 144.376059
_cell_angle_beta 21.632519
_cell_angle_gamma 146.388371
_cell_volume 735.908342
_symmetry_space_group_name_H-M "P -1"
_symmetry_group_IT_number 2
_symmetry_cell_setting 'triclinic'
loop_
_space_group_symop_operation_xyz
x,y,z
-x,-y,-z
loop_
_atom_site_type_symbol
_atom_site_label
_atom_site_fract_x
_atom_site_fract_y
_atom_site_fract_z
Si Si1 0.465458 0.087731 0.821316
Si Si2 0.122148 0.603263 0.841996
Si Si3 0.121671 0.746995 0.477714
Si Si4 0.947686 0.223882 0.596064
Si Si5 0.944858 0.974366 0.148543
Si Si6 0.773159 0.344305 0.345482
Si Si7 0.786671 0.830685 0.335204
O O1 0.601347 0.214091 0.714710
O O2 0.657922 0.164895 0.774726
O O3 0.382109 0.800093 0.757934
O O4 0.228972 0.150864 0.020765
O O5 0.107410 0.559997 0.763934
O O6 0.080111 0.357213 0.813456
O O7 0.918181 0.712339 0.041187
O O8 0.972530 0.743068 0.516128
O O9 0.000000 0.500000 0.500000
O O10 0.111946 0.959252 0.606376
O O11 0.090910 0.463739 0.624405
O O12 0.000000 0.000000 0.500000
O O13 0.847100 0.946897 0.272210
O O14 0.796240 0.090804 0.251523
O O15 0.495769 0.310519 0.519458
#
# Coordination Sequence:
#
# PCOD8003676 Si02
#       7
#     2   2   2   2   2   2   2
#     4   8  21  40  60  78 124 155 189 234 301 336
#     4  10  21  40  61  86 118 156 193 244 291 349
#     4  10  21  39  59  87 117 154 196 239 285 353
#     4  10  20  37  60  88 115 149 200 241 286 343
#     4  10  23  38  59  88 123 150 195 244 294 343
#     4  12  21  36  65  88 115 156 200 242 287 344
#     4  12  21  38  65  89 114 157 202 235 295 345
#
# _framework density 19.024108999999999
#
# number of rings (size 3 to 8) (size 9 to 14) (size 15 to 20)
#    1.714    0.000    1.429    4.286    0.000    0.571 
#    0.000    0.000    0.000    1.714    0.000    0.000 
#    0.000    0.000    0.000    0.000    0.000    0.000 
#
# Total GULP energy -173478.730196 kJ/mol
# GULP energy per Si atom -12391.337871 kJ/mol
# Density = 1.898081 g / cm^3
# Si number density = 19.024109 Si / 1000 Ang^3
#
#
#
# Elastic Constant Matrix: (Units=GPa)
#
#
# Indices 1 2 3 4 5 6 
#
# 1 89.5749 25.9509 17.1998 11.6306 10.6954 0.5576
# 2 25.9509 81.3601 10.0748 14.6653 0.8252 -0.3892
# 3 17.1998 10.0748 61.9995 12.5365 4.6850 -1.1720
# 4 11.6306 14.6653 12.5365 25.8795 -9.6272 3.6437
# 5 10.6954 0.8252 4.6850 -9.6272 29.5438 7.9924
# 6 0.5576 -0.3892 -1.1720 3.6437 7.9924 43.9081
#
#
#
# Elastic Compliance Matrix: (Units=1/GPa)
#
#
# Indices 1 2 3 4 5 6 
#
# 1 0.014097 -0.002972 -0.001406 -0.007019 -0.007548 0.001714
# 2 -0.002972 0.014716 0.000306 -0.008234 -0.002418 0.001300
# 3 -0.001406 0.000306 0.019532 -0.012137 -0.007332 0.002884
# 4 -0.007019 -0.008234 -0.012137 0.064538 0.028670 -0.010882
# 5 -0.007548 -0.002418 -0.007332 0.028670 0.050307 -0.011658
# 6 0.001714 0.001300 0.002884 -0.010882 -0.011658 0.025867
#
#
# Mechanical properties :
#
#
# Convention : Reuss Voigt Hill
#
# Bulk Modulus (GPa) = 24.87543 37.70949 31.29246
# Shear Modulus (GPa) = 23.74147 31.84689 27.79418
#
# Velocity S-wave (km/s) = 3.53649 4.09593 3.82645
# Velocity P-wave (km/s) = 5.45709 6.49875 6.00057
#
# Compressibility (1/GPa) = 0.04020031
#
# Stress axis : x y z
#
# Youngs Moduli (GPa) = 70.93764 67.95217 51.19778
#
# Poissons Ratio (x) = 0.20198 0.07197
# Poissons Ratio (y) = 0.21085 -0.01564
# Poissons Ratio (z) = 0.09971 -0.02076
#
# Static dielectric constant tensor:
#      x y z
#    x 3.392070 -0.008620 0.047860 
#    y -0.008620 3.342880 0.033180 
#    z 0.047860 0.033180 3.350660 
# 
# 
# High freq. dielectric constant tensor:
#      x y z
#    x 1.741300 -0.004400 0.009190 
#    y -0.004400 1.733070 0.008210 
#    z 0.009190 0.008210 1.727550 
# 
# From -- ./inp_files/493115.got.cif
#   From: 2010.06.25/outbox.cif.g09.slc.cpg/sg2_247_cif.got.tgz:493115.got - 2010.06.27 13:26:56.
