data_PCOD8003990
_publ_section_title
;
Structure prediction by ZEFSAII (Michael W. Deem and Ramdas Pophale) SiO2 
 PCOD8003990
Probable space group: P -1
;
_chemical_formula_sum "Si O2"
_cell_formula_units_Z 16
_cell_length_a 5.091317
_cell_length_b 20.261632
_cell_length_c 11.511853
_cell_angle_alpha 39.946594
_cell_angle_beta 97.267382
_cell_angle_gamma 91.608251
_cell_volume 751.924492
_symmetry_space_group_name_H-M "P -1"
_symmetry_group_IT_number 2
_symmetry_cell_setting 'triclinic'
loop_
_space_group_symop_operation_xyz
x,y,z
-x,-y,-z
loop_
_atom_site_type_symbol
_atom_site_label
_atom_site_fract_x
_atom_site_fract_y
_atom_site_fract_z
Si Si1 0.643560 0.169671 0.512266
Si Si2 0.754783 0.798077 0.736972
Si Si3 0.684266 0.300814 0.019166
Si Si4 0.697135 0.954984 0.710834
Si Si5 0.723697 0.072181 0.895690
Si Si6 0.191144 0.615118 0.756900
Si Si7 0.253775 0.855922 0.953176
Si Si8 0.296751 0.490455 0.167577
O O1 0.341403 0.201828 0.403423
O O2 0.648975 0.138547 0.688122
O O3 0.824319 0.263003 0.382545
O O4 0.758037 0.074233 0.563685
O O5 0.585134 0.718524 0.902745
O O6 0.683015 0.914497 0.630880
O O7 0.064947 0.758322 0.817005
O O8 0.670261 0.257111 0.946631
O O9 0.701794 0.423873 0.846089
O O10 0.432013 0.937910 0.792608
O O11 0.943030 0.886292 0.874756
O O12 0.711305 0.150932 0.897139
O O13 0.500000 0.000000 0.000000
O O14 0.000000 0.000000 0.000000
O O15 0.426524 0.581203 0.725669
O O16 0.923565 0.587202 0.717665
O O17 0.237237 0.555170 0.960092
#
# Coordination Sequence:
#
# PCOD8003990 Si02
#       8
#     2   2   2   2   2   2   2   2
#     4  12  23  38  60  86 124 154 193 239 285 351
#     4  10  22  34  55  93 113 156 183 232 296 346
#     4  10  20  37  63  79 121 146 197 234 288 352
#     4  10  21  37  58  80 126 145 193 234 279 354
#     4  12  24  41  60  81 120 160 197 236 280 335
#     4  10  23  33  58  84 117 149 191 229 300 344
#     4  10  20  40  57  87 105 164 195 229 282 340
#     4  10  20  40  54  83 117 150 186 242 286 354
#
# _framework density 21.278734
#
# number of rings (size 3 to 8) (size 9 to 14) (size 15 to 20)
#    0.000    1.500    3.750    1.125    3.500    4.000 
#    0.000    3.750    0.000    1.500    0.000    0.000 
#    0.000    0.000    0.000    0.000    0.000    0.000 
#
# Total GULP energy -198358.180099 kJ/mol
# GULP energy per Si atom -12397.386256 kJ/mol
# Density = 2.123030 g / cm^3
# Si number density = 21.278734 Si / 1000 Ang^3
#
#
#
# Elastic Constant Matrix: (Units=GPa)
#
#
# Indices 1 2 3 4 5 6 
#
# 1 105.0657 40.7641 15.9713 -7.0016 -12.9275 7.5888
# 2 40.7641 180.8334 50.7856 -15.6489 -4.4467 11.7340
# 3 15.9713 50.7856 56.1790 1.6236 -8.3785 9.7975
# 4 -7.0016 -15.6489 1.6236 50.7131 9.9647 -4.2444
# 5 -12.9275 -4.4467 -8.3785 9.9647 10.4515 -4.1148
# 6 7.5888 11.7340 9.7975 -4.2444 -4.1148 27.9141
#
#
#
# Elastic Compliance Matrix: (Units=1/GPa)
#
#
# Indices 1 2 3 4 5 6 
#
# 1 0.012571 -0.003267 0.002369 -0.003086 0.018773 -0.000578
# 2 -0.003267 0.008996 -0.009090 0.005026 -0.012607 -0.000797
# 3 0.002369 -0.009090 0.031202 -0.010136 0.031926 -0.004610
# 4 -0.003086 0.005026 -0.010136 0.028428 -0.036420 0.001237
# 5 0.018773 -0.012607 0.031926 -0.036420 0.177651 0.009640
# 6 -0.000578 -0.000797 -0.004610 0.001237 0.009640 0.039543
#
#
# Mechanical properties :
#
#
# Convention : Reuss Voigt Hill
#
# Bulk Modulus (GPa) = 30.49339 61.90224 46.19781
# Shear Modulus (GPa) = 15.18377 33.45288 24.31832
#
# Velocity S-wave (km/s) = 2.67416 3.96931 3.38427
# Velocity P-wave (km/s) = 4.88840 7.08248 6.08514
#
# Compressibility (1/GPa) = 0.03279400
#
# Stress axis : x y z
#
# Youngs Moduli (GPa) = 79.54606 111.16072 32.04898
#
# Poissons Ratio (x) = 0.36318 -0.07594
# Poissons Ratio (y) = 0.25989 0.29132
# Poissons Ratio (z) = -0.18848 1.01045
#
# Static dielectric constant tensor:
#      x y z
#    x 3.965300 0.226080 0.067240 
#    y 0.226080 4.276230 -0.298640 
#    z 0.067240 -0.298640 3.170480 
# 
# 
# High freq. dielectric constant tensor:
#      x y z
#    x 1.849560 0.008540 -0.002770 
#    y 0.008540 1.854240 -0.017340 
#    z -0.002770 -0.017340 1.771670 
# 
# From -- ./inp_files/370036.got.cif
#   From: 2010.06.25/outbox.cif.g09.slc.cpg/sg2_186_cif.got.tgz:370036.got - 2010.06.27 13:26:56.
