data_PCOD8003244
_publ_section_title
;
Structure prediction by ZEFSAII (Michael W. Deem and Ramdas Pophale) SiO2 
 PCOD8003244
Probable space group: P -1
;
_chemical_formula_sum "Si O2"
_cell_formula_units_Z 14
_cell_length_a 8.897054
_cell_length_b 22.279864
_cell_length_c 9.210894
_cell_angle_alpha 133.146442
_cell_angle_beta 99.094484
_cell_angle_gamma 44.203258
_cell_volume 703.404448
_symmetry_space_group_name_H-M "P -1"
_symmetry_group_IT_number 2
_symmetry_cell_setting 'triclinic'
loop_
_space_group_symop_operation_xyz
x,y,z
-x,-y,-z
loop_
_atom_site_type_symbol
_atom_site_label
_atom_site_fract_x
_atom_site_fract_y
_atom_site_fract_z
Si Si1 0.219563 0.731020 0.418328
Si Si2 0.004223 0.537984 0.406829
Si Si3 0.820556 0.642466 0.109278
Si Si4 0.557290 0.193434 0.420823
Si Si5 0.831903 0.361773 0.304313
Si Si6 0.209607 0.082182 0.090600
Si Si7 0.192029 0.612868 0.987617
O O1 0.245775 0.816800 0.547469
O O2 0.191781 0.703428 0.208987
O O3 0.941202 0.836363 0.643033
O O4 0.491805 0.568379 0.271921
O O5 0.699996 0.666104 0.494753
O O6 0.000000 0.500000 0.500000
O O7 0.084289 0.596532 0.521234
O O8 0.238892 0.379948 0.086935
O O9 0.540917 0.790607 0.406023
O O10 0.989454 0.648882 0.114467
O O11 0.000000 0.500000 0.000000
O O12 0.741018 0.036884 0.121481
O O13 0.500000 0.500000 0.500000
O O14 0.004514 0.206153 0.135946
O O15 0.924866 0.328750 0.096758
O O16 0.500000 0.000000 0.000000
#
# Coordination Sequence:
#
# PCOD8003244 Si02
#       7
#     2   2   2   2   2   2   2
#     4  11  23  40  67  93 131 168 218 269 318 388
#     4  11  21  39  65  97 129 165 214 268 323 370
#     4  10  20  36  64  93 127 165 213 262 317 385
#     4  11  23  42  65  95 129 175 217 261 325 393
#     4  12  25  41  66  97 131 168 219 272 314 385
#     4  12  25  44  65  94 133 178 212 262 335 390
#     4  11  22  40  64 101 125 165 222 270 317 373
#
# _framework density 19.903199999999998
#
# number of rings (size 3 to 8) (size 9 to 14) (size 15 to 20)
#    0.000    0.857    7.143    1.286    4.000    0.000 
#    0.000    5.000    0.000    0.000    0.000    0.000 
#    0.000    0.000    0.000    0.000    0.000    0.000 
#
# Total GULP energy -173625.237693 kJ/mol
# GULP energy per Si atom -12401.802692 kJ/mol
# Density = 1.985790 g / cm^3
# Si number density = 19.903200 Si / 1000 Ang^3
#
#
#
# Elastic Constant Matrix: (Units=GPa)
#
#
# Indices 1 2 3 4 5 6 
#
# 1 133.4330 26.9951 45.1706 -3.5779 6.0384 0.1803
# 2 26.9951 84.3549 37.6950 -12.2733 -2.2401 2.8479
# 3 45.1706 37.6950 119.6113 -10.8642 2.8686 3.3199
# 4 -3.5779 -12.2733 -10.8642 33.2276 0.4244 1.5570
# 5 6.0384 -2.2401 2.8686 0.4244 48.6601 -5.4248
# 6 0.1803 2.8479 3.3199 1.5570 -5.4248 23.9747
#
#
#
# Elastic Compliance Matrix: (Units=1/GPa)
#
#
# Indices 1 2 3 4 5 6 
#
# 1 0.008824 -0.001678 -0.002845 -0.000604 -0.000960 0.000349
# 2 -0.001678 0.014667 -0.003602 0.004108 0.000916 -0.001290
# 3 -0.002845 -0.003602 0.010799 0.001964 -0.000613 -0.001312
# 4 -0.000604 0.004108 0.001964 0.032334 -0.000464 -0.002960
# 5 -0.000960 0.000916 -0.000613 -0.000464 0.021291 0.004831
# 6 0.000349 -0.001290 -0.001312 -0.002960 0.004831 0.043328
#
#
# Mechanical properties :
#
#
# Convention : Reuss Voigt Hill
#
# Bulk Modulus (GPa) = 55.42877 61.90229 58.66553
# Shear Modulus (GPa) = 32.57214 36.34170 34.45692
#
# Velocity S-wave (km/s) = 4.04979 4.27772 4.16531
# Velocity P-wave (km/s) = 7.05531 7.45437 7.25758
#
# Compressibility (1/GPa) = 0.01804117
#
# Stress axis : x y z
#
# Youngs Moduli (GPa) = 113.33106 68.18245 92.59823
#
# Poissons Ratio (x) = 0.11438 0.26345
# Poissons Ratio (y) = 0.19012 0.33350
# Poissons Ratio (z) = 0.32243 0.24557
#
# Static dielectric constant tensor:
#      x y z
#    x 3.733950 0.037010 0.237040 
#    y 0.037010 3.604750 -0.326490 
#    z 0.237040 -0.326490 4.596440 
# 
# 
# High freq. dielectric constant tensor:
#      x y z
#    x 1.788970 0.009570 0.008360 
#    y 0.009570 1.753970 -0.022860 
#    z 0.008360 -0.022860 1.785330 
# 
# From -- ./inp_files/172285.got.cif
#   From: 2010.06.25/outbox.cif.g09.slc.cpg/sg2_87_cif.got.tgz:172285.got - 2010.06.27 13:26:56.
