data_PCOD8003013
_publ_section_title
;
Structure prediction by ZEFSAII (Michael W. Deem and Ramdas Pophale) SiO2 
 PCOD8003013
Probable space group: P -1
;
_chemical_formula_sum "Si O2"
_cell_formula_units_Z 16
_cell_length_a 21.149686
_cell_length_b 14.336377
_cell_length_c 23.049242
_cell_angle_alpha 20.656427
_cell_angle_beta 19.484235
_cell_angle_gamma 30.846694
_cell_volume 805.631336
_symmetry_space_group_name_H-M "P -1"
_symmetry_group_IT_number 2
_symmetry_cell_setting 'triclinic'
loop_
_space_group_symop_operation_xyz
x,y,z
-x,-y,-z
loop_
_atom_site_type_symbol
_atom_site_label
_atom_site_fract_x
_atom_site_fract_y
_atom_site_fract_z
Si Si1 0.539558 0.398335 0.931350
Si Si2 0.914336 0.223921 0.705156
Si Si3 0.508189 0.698405 0.185704
Si Si4 0.219736 0.321784 0.813005
Si Si5 0.702135 0.874892 0.596271
Si Si6 0.728669 0.711112 0.877534
Si Si7 0.356187 0.550911 0.679161
Si Si8 0.861771 0.340095 0.412907
O O1 0.706455 0.258539 0.838507
O O2 0.624396 0.692193 0.713796
O O3 0.438629 0.198737 0.184866
O O4 0.381317 0.422916 0.005913
O O5 0.000000 0.500000 0.500000
O O6 0.079540 0.163162 0.553288
O O7 0.879680 0.993102 0.919067
O O8 0.642813 0.667328 0.143178
O O9 0.287991 0.548214 0.479455
O O10 0.600470 0.576959 0.121255
O O11 0.500000 0.000000 0.000000
O O12 0.211416 0.415412 0.832751
O O13 0.434331 0.359487 0.581808
O O14 0.099620 0.488174 0.779570
O O15 0.711681 0.185835 0.389956
O O16 0.937460 0.631888 0.743649
O O17 0.761539 0.035342 0.659199
#
# Coordination Sequence:
#
# PCOD8003013 Si02
#       8
#     2   2   2   2   2   2   2   2
#     4  10  21  39  60  83 118 156 193 239 293 348
#     4  10  22  37  58  88 119 151 189 242 292 345
#     4   9  20  35  54  79 119 152 185 236 287 345
#     4  10  20  36  63  86 121 148 190 247 297 338
#     4  10  21  38  59  89 115 149 196 246 291 341
#     4  10  20  37  58  78 117 155 193 230 288 350
#     4  10  20  36  61  90 116 152 194 243 299 338
#     4   9  20  36  55  86 115 149 191 243 284 337
#
# _framework density 19.860201
#
# number of rings (size 3 to 8) (size 9 to 14) (size 15 to 20)
#    0.000    2.250    1.250    0.750    7.000    1.500 
#    4.500    0.625    0.000    1.500    0.000    0.000 
#    0.000    0.000    0.000    0.000    0.000    0.000 
#
# Total GULP energy -198277.312984 kJ/mol
# GULP energy per Si atom -12392.332061 kJ/mol
# Density = 1.981500 g / cm^3
# Si number density = 19.860201 Si / 1000 Ang^3
#
#
#
# Elastic Constant Matrix: (Units=GPa)
#
#
# Indices 1 2 3 4 5 6 
#
# 1 127.1169 49.6490 50.0206 -2.6237 -2.2937 -15.6145
# 2 49.6490 100.9803 37.5451 4.0052 -4.1493 -13.1611
# 3 50.0206 37.5451 83.9022 -5.9822 0.8058 -8.8919
# 4 -2.6237 4.0052 -5.9822 33.6137 -12.0577 4.5535
# 5 -2.2937 -4.1493 0.8058 -12.0577 22.5389 1.4495
# 6 -15.6145 -13.1611 -8.8919 4.5535 1.4495 26.4667
#
#
#
# Elastic Compliance Matrix: (Units=1/GPa)
#
#
# Indices 1 2 3 4 5 6 
#
# 1 0.011599 -0.003365 -0.005041 0.000165 0.000610 0.003414
# 2 -0.003365 0.013663 -0.003901 -0.002953 0.000476 0.003981
# 3 -0.005041 -0.003901 0.016912 0.002944 -0.000279 0.000276
# 4 0.000165 -0.002953 0.002944 0.039258 0.020903 -0.008281
# 5 0.000610 0.000476 -0.000279 0.020903 0.056106 -0.006166
# 6 0.003414 0.003981 0.000276 -0.008281 -0.006166 0.043632
#
#
# Mechanical properties :
#
#
# Convention : Reuss Voigt Hill
#
# Bulk Modulus (GPa) = 56.95209 65.15873 61.05541
# Shear Modulus (GPa) = 23.62516 28.17617 25.90067
#
# Velocity S-wave (km/s) = 3.45276 3.77068 3.61522
# Velocity P-wave (km/s) = 6.68088 7.19981 6.94520
#
# Compressibility (1/GPa) = 0.01755862
#
# Stress axis : x y z
#
# Youngs Moduli (GPa) = 86.21767 73.18833 59.13004
#
# Poissons Ratio (x) = 0.24626 0.29810
# Poissons Ratio (y) = 0.29010 0.23069
# Poissons Ratio (z) = 0.43465 0.28554
#
# Static dielectric constant tensor:
#      x y z
#    x 3.494460 -0.057880 0.195750 
#    y -0.057880 4.008110 0.345980 
#    z 0.195750 0.345980 3.798740 
# 
# 
# High freq. dielectric constant tensor:
#      x y z
#    x 1.745500 -0.011670 0.013070 
#    y -0.011670 1.782300 0.019070 
#    z 0.013070 0.019070 1.772520 
# 
# From -- ./inp_files/402474.got.cif
#   From: 2010.06.25/outbox.cif.g09.slc.cpg/sg2_202_cif.got.tgz:402474.got - 2010.06.27 13:26:56.
