data_PCOD8003876
_publ_section_title
;
Structure prediction by ZEFSAII (Michael W. Deem and Ramdas Pophale) SiO2 
 PCOD8003876
Probable space group: P -1
;
_chemical_formula_sum "Si O2"
_cell_formula_units_Z 16
_cell_length_a 14.795587
_cell_length_b 17.306399
_cell_length_c 9.306280
_cell_angle_alpha 107.881801
_cell_angle_beta 105.732295
_cell_angle_gamma 20.673975
_cell_volume 799.734799
_symmetry_space_group_name_H-M "P -1"
_symmetry_group_IT_number 2
_symmetry_cell_setting 'triclinic'
loop_
_space_group_symop_operation_xyz
x,y,z
-x,-y,-z
loop_
_atom_site_type_symbol
_atom_site_label
_atom_site_fract_x
_atom_site_fract_y
_atom_site_fract_z
Si Si1 0.034580 0.354917 0.550155
Si Si2 0.203755 0.781744 0.883958
Si Si3 0.935204 0.618503 0.732437
Si Si4 0.904812 0.045294 0.333142
Si Si5 0.215198 0.663236 0.070827
Si Si6 0.629551 0.972108 0.257397
Si Si7 0.545810 0.713317 0.710850
Si Si8 0.904257 0.417545 0.954092
O O1 0.041633 0.342535 0.374560
O O2 0.285534 0.110313 0.587005
O O3 0.036852 0.447149 0.648921
O O4 0.781730 0.512143 0.587733
O O5 0.133328 0.843335 0.719485
O O6 0.486938 0.590517 0.914468
O O7 0.185767 0.708747 0.913441
O O8 0.000000 0.000000 0.000000
O O9 0.640095 0.853909 0.789785
O O10 0.112039 0.513957 0.872868
O O11 0.630678 0.223544 0.339173
O O12 0.000000 0.000000 0.500000
O O13 0.104455 0.822507 0.218232
O O14 0.066429 0.699926 0.055927
O O15 0.844117 0.758889 0.127375
O O16 0.618968 0.076310 0.283873
O O17 0.652201 0.637166 0.875798
#
# Coordination Sequence:
#
# PCOD8003876 Si02
#       8
#     2   2   2   2   2   2   2   2
#     4   9  21  40  57  83 124 154 191 240 293 349
#     4   9  20  40  62  84 116 155 192 244 299 347
#     4  10  21  38  59  88 116 157 194 240 291 348
#     4  11  22  40  62  88 117 159 198 245 302 355
#     4  10  20  40  61  85 120 154 194 248 297 350
#     4  10  20  37  62  83 121 152 194 241 292 346
#     4  10  21  39  57  84 122 152 193 251 286 347
#     4  11  21  36  61  89 115 154 199 241 291 349
#
# _framework density 20.006633000000001
#
# number of rings (size 3 to 8) (size 9 to 14) (size 15 to 20)
#    0.000    2.000    2.500    0.750    0.000    6.000 
#    9.000    0.000    0.000    0.000    0.000    0.000 
#    0.000    0.000    0.000    0.000    0.000    0.000 
#
# Total GULP energy -198356.741726 kJ/mol
# GULP energy per Si atom -12397.296358 kJ/mol
# Density = 1.996110 g / cm^3
# Si number density = 20.006633 Si / 1000 Ang^3
#
#
#
# Elastic Constant Matrix: (Units=GPa)
#
#
# Indices 1 2 3 4 5 6 
#
# 1 81.6519 37.0448 64.4490 -15.0559 -20.7897 -2.4851
# 2 37.0448 84.9872 36.5219 -20.3980 -3.4118 1.1629
# 3 64.4490 36.5219 140.1863 -32.4805 -15.0503 -1.1956
# 4 -15.0559 -20.3980 -32.4805 32.3473 6.3868 -7.7961
# 5 -20.7897 -3.4118 -15.0503 6.3868 30.8667 -7.2209
# 6 -2.4851 1.1629 -1.1956 -7.7961 -7.2209 31.4843
#
#
#
# Elastic Compliance Matrix: (Units=1/GPa)
#
#
# Indices 1 2 3 4 5 6 
#
# 1 0.026137 -0.007805 -0.009344 -0.003876 0.013980 0.004243
# 2 -0.007805 0.016727 0.000673 0.008503 -0.004891 -0.000225
# 3 -0.009344 0.000673 0.013548 0.010425 -0.001294 0.002037
# 4 -0.003876 0.008503 0.010425 0.048349 -0.004062 0.010817
# 5 0.013980 -0.004891 -0.001294 -0.004062 0.043891 0.010296
# 6 0.004243 -0.000225 0.002037 0.010817 0.010296 0.037222
#
#
# Mechanical properties :
#
#
# Convention : Reuss Voigt Hill
#
# Bulk Modulus (GPa) = 42.62385 64.76186 53.69285
# Shear Modulus (GPa) = 22.06094 30.19363 26.12728
#
# Velocity S-wave (km/s) = 3.32427 3.88903 3.61769
# Velocity P-wave (km/s) = 6.00712 7.25304 6.65928
#
# Compressibility (1/GPa) = 0.02346104
#
# Stress axis : x y z
#
# Youngs Moduli (GPa) = 38.25932 59.78529 73.81317
#
# Poissons Ratio (x) = 0.46660 0.68972
# Poissons Ratio (y) = 0.29860 -0.04971
# Poissons Ratio (z) = 0.35750 -0.04026
#
# Static dielectric constant tensor:
#      x y z
#    x 3.735710 0.048710 -0.611160 
#    y 0.048710 3.756150 -0.163610 
#    z -0.611160 -0.163610 3.638840 
# 
# 
# High freq. dielectric constant tensor:
#      x y z
#    x 1.774780 0.000010 -0.041210 
#    y 0.000010 1.790860 -0.009120 
#    z -0.041210 -0.009120 1.765550 
# 
# From -- ./inp_files/39251.got.cif
#   From: 2010.06.25/outbox.cif.g09.slc.cpg/sg2_20_cif.got.tgz:39251.got - 2010.06.27 13:26:56.
