data_PCOD8003995
_publ_section_title
;
Structure prediction by ZEFSAII (Michael W. Deem and Ramdas Pophale) SiO2 
 PCOD8003995
Probable space group: P -1
;
_chemical_formula_sum "Si O2"
_cell_formula_units_Z 14
_cell_length_a 14.198845
_cell_length_b 8.156824
_cell_length_c 12.407834
_cell_angle_alpha 118.435513
_cell_angle_beta 52.497438
_cell_angle_gamma 148.679808
_cell_volume 589.249071
_symmetry_space_group_name_H-M "P -1"
_symmetry_group_IT_number 2
_symmetry_cell_setting 'triclinic'
loop_
_space_group_symop_operation_xyz
x,y,z
-x,-y,-z
loop_
_atom_site_type_symbol
_atom_site_label
_atom_site_fract_x
_atom_site_fract_y
_atom_site_fract_z
Si Si1 0.648428 0.916660 0.463421
Si Si2 0.207733 0.518135 0.373867
Si Si3 0.777489 0.314545 0.808395
Si Si4 0.067417 0.883117 0.365831
Si Si5 0.652712 0.412942 0.107720
Si Si6 0.776400 0.679131 0.336174
Si Si7 0.514228 0.423511 0.739898
O O1 0.762682 0.886247 0.428054
O O2 0.423179 0.665103 0.583718
O O3 0.637149 0.869245 0.328818
O O4 0.765439 0.251485 0.514312
O O5 0.130386 0.456633 0.287372
O O6 0.406407 0.638744 0.255511
O O7 0.058846 0.223617 0.470846
O O8 0.923888 0.326358 0.728839
O O9 0.547267 0.957448 0.834681
O O10 0.791548 0.466178 0.949454
O O11 0.975461 0.852936 0.310023
O O12 0.290297 0.241078 0.351588
O O13 0.782300 0.630217 0.190581
O O14 0.595496 0.532994 0.120067
#
# Coordination Sequence:
#
# PCOD8003995 Si02
#       7
#     2   2   2   2   2   2   2
#     4  10  21  37  60  91 116 155 198 237 299 351
#     4  12  22  35  62  94 121 148 199 250 292 351
#     4  10  22  39  59  86 121 160 200 241 286 356
#     4  11  24  37  59  95 123 152 190 250 312 337
#     4   9  20  42  62  81 117 166 203 231 291 360
#     4  10  20  37  63  84 119 155 193 244 297 352
#     4  10  22  39  62  90 120 157 194 245 299 353
#
# _framework density 23.759053999999999
#
# number of rings (size 3 to 8) (size 9 to 14) (size 15 to 20)
#    0.000    1.714    2.857    1.286    2.000    2.286 
#    0.000    0.000    0.000    7.714    0.000    0.000 
#    0.000    0.000    0.000    0.000    0.000    0.000 
#
# Total GULP energy -173501.796681 kJ/mol
# GULP energy per Si atom -12392.985477 kJ/mol
# Density = 2.370498 g / cm^3
# Si number density = 23.759054 Si / 1000 Ang^3
#
#
#
# Elastic Constant Matrix: (Units=GPa)
#
#
# Indices 1 2 3 4 5 6 
#
# 1 133.0473 -7.6292 33.0675 18.8941 -13.7786 3.5537
# 2 -7.6292 43.9289 15.0222 15.7459 13.4505 2.8333
# 3 33.0675 15.0222 109.3269 28.0175 -18.9206 1.4617
# 4 18.8941 15.7459 28.0175 31.1380 -5.7581 -3.8770
# 5 -13.7786 13.4505 -18.9206 -5.7581 30.9356 4.1858
# 6 3.5537 2.8333 1.4617 -3.8770 4.1858 26.1514
#
#
#
# Elastic Compliance Matrix: (Units=1/GPa)
#
#
# Indices 1 2 3 4 5 6 
#
# 1 0.009258 0.004758 -0.001632 -0.006867 0.000147 -0.002724
# 2 0.004758 0.041045 -0.004709 -0.024157 -0.022451 -0.004818
# 3 -0.001632 -0.004709 0.013816 -0.007777 0.008672 -0.002581
# 4 -0.006867 -0.024157 -0.007777 0.059100 0.012229 0.010790
# 5 0.000147 -0.022451 0.008672 0.012229 0.050316 -0.004313
# 6 -0.002724 -0.004818 -0.002581 0.010790 -0.004313 0.041565
#
#
# Mechanical properties :
#
#
# Convention : Reuss Voigt Hill
#
# Bulk Modulus (GPa) = 16.40639 40.80267 28.60453
# Shear Modulus (GPa) = 20.95691 34.03451 27.49571
#
# Velocity S-wave (km/s) = 2.97317 3.78893 3.40556
# Velocity P-wave (km/s) = 4.32512 6.02927 5.24684
#
# Compressibility (1/GPa) = 0.06095184
#
# Stress axis : x y z
#
# Youngs Moduli (GPa) = 108.01727 24.36354 72.37864
#
# Poissons Ratio (x) = -0.11593 0.11815
# Poissons Ratio (y) = -0.51397 0.34086
# Poissons Ratio (z) = 0.17633 0.11474
#
# Static dielectric constant tensor:
#      x y z
#    x 4.502330 -0.168630 -0.282180 
#    y -0.168630 4.272240 0.211220 
#    z -0.282180 0.211220 4.094390 
# 
# 
# High freq. dielectric constant tensor:
#      x y z
#    x 1.952920 -0.008540 -0.021620 
#    y -0.008540 1.943230 0.023540 
#    z -0.021620 0.023540 1.913430 
# 
# From -- ./inp_files/189674.got.cif
#   From: 2010.06.25/outbox.cif.g09.slc.cpg/sg2_95_cif.got.tgz:189674.got - 2010.06.27 13:26:56.
