data_PCOD8003564
_publ_section_title
;
Structure prediction by ZEFSAII (Michael W. Deem and Ramdas Pophale) SiO2 
 PCOD8003564
Probable space group: P -1
;
_chemical_formula_sum "Si O2"
_cell_formula_units_Z 16
_cell_length_a 21.904160
_cell_length_b 12.219201
_cell_length_c 8.984057
_cell_angle_alpha 81.699178
_cell_angle_beta 64.865993
_cell_angle_gamma 27.594661
_cell_volume 839.926033
_symmetry_space_group_name_H-M "P -1"
_symmetry_group_IT_number 2
_symmetry_cell_setting 'triclinic'
loop_
_space_group_symop_operation_xyz
x,y,z
-x,-y,-z
loop_
_atom_site_type_symbol
_atom_site_label
_atom_site_fract_x
_atom_site_fract_y
_atom_site_fract_z
Si Si1 0.182213 0.646896 0.028342
Si Si2 0.894120 0.677172 0.426709
Si Si3 0.642934 0.453249 0.514986
Si Si4 0.035087 0.244026 0.279178
Si Si5 0.954728 0.823203 0.369418
Si Si6 0.106833 0.741832 0.748822
Si Si7 0.417277 0.650667 0.900471
Si Si8 0.503930 0.689060 0.286701
O O1 0.148536 0.656032 0.894342
O O2 0.379367 0.389996 0.892006
O O3 0.134718 0.615459 0.190691
O O4 0.069542 0.922500 0.139764
O O5 0.949965 0.714584 0.304216
O O6 0.000000 0.500000 0.500000
O O7 0.944470 0.500508 0.300375
O O8 0.690583 0.981637 0.610939
O O9 0.736908 0.427355 0.459489
O O10 0.506426 0.627248 0.749229
O O11 0.538638 0.623933 0.437511
O O12 0.793721 0.134034 0.408491
O O13 0.064130 0.166499 0.436321
O O14 0.911915 0.342284 0.306699
O O15 0.215260 0.978144 0.059120
O O16 0.453686 0.494218 0.785981
O O17 0.500000 0.500000 0.000000
#
# Coordination Sequence:
#
# PCOD8003564 Si02
#       8
#     2   2   2   2   2   2   2   2
#     4   9  19  35  60  86 113 148 196 235 285 342
#     4  10  22  41  56  81 121 160 186 230 294 351
#     4  10  21  36  61  89 114 146 197 240 285 338
#     4  11  22  37  57  85 121 153 187 237 294 334
#     4  10  20  37  59  85 119 153 188 236 289 341
#     4   9  19  36  56  88 119 146 186 244 289 333
#     4  12  21  35  56  91 113 144 195 246 275 330
#     4  11  21  39  63  84 111 156 196 233 286 344
#
# _framework density 19.049295999999998
#
# number of rings (size 3 to 8) (size 9 to 14) (size 15 to 20)
#    0.000    1.750    3.750    1.875    0.000    3.000 
#    0.000    8.750    0.000    0.000    0.000    0.000 
#    0.000    0.000    0.000    0.000    0.000    0.000 
#
# Total GULP energy -198347.939157 kJ/mol
# GULP energy per Si atom -12396.746197 kJ/mol
# Density = 1.900594 g / cm^3
# Si number density = 19.049296 Si / 1000 Ang^3
#
#
#
# Elastic Constant Matrix: (Units=GPa)
#
#
# Indices 1 2 3 4 5 6 
#
# 1 137.0782 27.6662 53.9846 12.2302 -2.5639 10.5419
# 2 27.6662 55.4755 35.8001 12.1210 -4.7441 1.7989
# 3 53.9846 35.8001 110.1127 10.7278 -25.0525 1.9598
# 4 12.2302 12.1210 10.7278 27.7794 3.1927 2.0125
# 5 -2.5639 -4.7441 -25.0525 3.1927 35.3368 3.8542
# 6 10.5419 1.7989 1.9598 2.0125 3.8542 27.1137
#
#
#
# Elastic Compliance Matrix: (Units=1/GPa)
#
#
# Indices 1 2 3 4 5 6 
#
# 1 0.009737 -0.001735 -0.004561 -0.001290 -0.002326 -0.002915
# 2 -0.001735 0.024726 -0.006679 -0.007356 -0.000898 0.000191
# 3 -0.004561 -0.006679 0.016113 -0.002482 0.010447 -0.000249
# 4 -0.001290 -0.007356 -0.002482 0.041552 -0.006487 -0.000993
# 5 -0.002326 -0.000898 0.010447 -0.006487 0.036493 -0.004497
# 6 -0.002915 0.000191 -0.000249 -0.000993 -0.004497 0.038733
#
#
# Mechanical properties :
#
#
# Convention : Reuss Voigt Hill
#
# Bulk Modulus (GPa) = 40.61018 59.72979 50.16998
# Shear Modulus (GPa) = 24.81220 30.39367 27.60294
#
# Velocity S-wave (km/s) = 3.61297 3.99874 3.81074
# Velocity P-wave (km/s) = 6.22651 7.26246 6.76435
#
# Compressibility (1/GPa) = 0.02462437
#
# Stress axis : x y z
#
# Youngs Moduli (GPa) = 102.69632 40.44345 62.06292
#
# Poissons Ratio (x) = 0.07017 0.28310
# Poissons Ratio (y) = 0.17818 0.41454
# Poissons Ratio (z) = 0.46845 0.27013
#
# Static dielectric constant tensor:
#      x y z
#    x 3.828720 0.162490 -0.281870 
#    y 0.162490 3.426200 0.021150 
#    z -0.281870 0.021150 3.618030 
# 
# 
# High freq. dielectric constant tensor:
#      x y z
#    x 1.755260 -0.006120 -0.019040 
#    y -0.006120 1.718810 -0.003200 
#    z -0.019040 -0.003200 1.734160 
# 
# From -- ./inp_files/257217.got.cif
#   From: 2010.06.25/outbox.cif.g09.slc.cpg/sg2_129_cif.got.tgz:257217.got - 2010.06.27 13:26:56.
