data_PCOD8003308
_publ_section_title
;
Structure prediction by ZEFSAII (Michael W. Deem and Ramdas Pophale) SiO2 
 PCOD8003308
Probable space group: P -1
;
_chemical_formula_sum "Si O2"
_cell_formula_units_Z 16
_cell_length_a 8.251367
_cell_length_b 17.662500
_cell_length_c 11.721973
_cell_angle_alpha 59.743268
_cell_angle_beta 96.962594
_cell_angle_gamma 48.627286
_cell_volume 789.939765
_symmetry_space_group_name_H-M "P -1"
_symmetry_group_IT_number 2
_symmetry_cell_setting 'triclinic'
loop_
_space_group_symop_operation_xyz
x,y,z
-x,-y,-z
loop_
_atom_site_type_symbol
_atom_site_label
_atom_site_fract_x
_atom_site_fract_y
_atom_site_fract_z
Si Si1 0.541833 0.024382 0.863820
Si Si2 0.897050 0.583956 0.805800
Si Si3 0.714918 0.159045 0.558719
Si Si4 0.653032 0.167226 0.799094
Si Si5 0.011363 0.840976 0.866462
Si Si6 0.316940 0.972104 0.750343
Si Si7 0.260758 0.172666 0.294924
Si Si8 0.440896 0.303512 0.907014
O O1 0.322886 0.069486 0.724153
O O2 0.881212 0.865297 0.959093
O O3 0.470055 0.159231 0.767505
O O4 0.500000 0.000000 0.000000
O O5 0.567233 0.696489 0.658326
O O6 0.890087 0.693111 0.729393
O O7 0.110258 0.459556 0.813745
O O8 0.000000 0.500000 0.000000
O O9 0.652338 0.217856 0.639630
O O10 0.805296 0.015577 0.673533
O O11 0.982813 0.099954 0.578447
O O12 0.453557 0.311548 0.764896
O O13 0.000000 0.000000 0.000000
O O14 0.002071 0.766222 0.832027
O O15 0.357638 0.713001 0.003251
O O16 0.559006 0.849021 0.763981
O O17 0.410185 0.860070 0.940440
O O18 0.500000 0.000000 0.500000
#
# Coordination Sequence:
#
# PCOD8003308 Si02
#       8
#     2   2   2   2   2   2   2   2
#     4  10  16  28  58  94 116 148 198 253 294 353
#     4  12  26  41  61  90 129 168 208 261 322 363
#     4  10  21  39  62  93 121 162 214 253 306 380
#     4  11  18  35  65  94 123 160 209 257 301 378
#     4   9  20  35  61  91 116 155 210 254 295 375
#     4  10  20  35  62  92 116 160 213 256 300 371
#     4  11  22  40  63  88 120 162 216 264 303 365
#     4  11  21  38  60  93 128 162 203 253 323 371
#
# _framework density 20.254708000000001
#
# number of rings (size 3 to 8) (size 9 to 14) (size 15 to 20)
#    0.000    1.500    7.500    0.000    0.000    2.500 
#    0.000    0.000    0.000    0.750    0.000    0.000 
#    0.000    0.000    0.000    0.000    0.000    0.000 
#
# Total GULP energy -198297.522030 kJ/mol
# GULP energy per Si atom -12393.595127 kJ/mol
# Density = 2.020861 g / cm^3
# Si number density = 20.254708 Si / 1000 Ang^3
#
#
#
# Elastic Constant Matrix: (Units=GPa)
#
#
# Indices 1 2 3 4 5 6 
#
# 1 118.0841 26.2942 22.4332 -4.6257 25.0986 11.0817
# 2 26.2942 97.7444 17.2251 -3.0533 15.5480 13.9212
# 3 22.4332 17.2251 66.4263 2.4487 15.7780 7.5550
# 4 -4.6257 -3.0533 2.4487 22.8122 -1.8979 0.7512
# 5 25.0986 15.5480 15.7780 -1.8979 29.7731 5.4852
# 6 11.0817 13.9212 7.5550 0.7512 5.4852 29.5060
#
#
#
# Elastic Compliance Matrix: (Units=1/GPa)
#
#
# Indices 1 2 3 4 5 6 
#
# 1 0.010788 -0.001179 -0.001467 0.001643 -0.007262 -0.001811
# 2 -0.001179 0.012025 -0.001418 0.001356 -0.003670 -0.004220
# 3 -0.001467 -0.001418 0.018004 -0.002971 -0.007396 -0.001939
# 4 0.001643 0.001356 -0.002971 0.044969 0.002745 -0.002151
# 5 -0.007262 -0.003670 -0.007396 0.002745 0.046144 -0.002295
# 6 -0.001811 -0.004220 -0.001939 -0.002151 -0.002295 0.037541
#
#
# Mechanical properties :
#
#
# Convention : Reuss Voigt Hill
#
# Bulk Modulus (GPa) = 30.59168 46.01777 38.30472
# Shear Modulus (GPa) = 26.52588 30.83839 28.68214
#
# Velocity S-wave (km/s) = 3.62279 3.90619 3.76716
# Velocity P-wave (km/s) = 5.71277 6.56607 6.15423
#
# Compressibility (1/GPa) = 0.03268863
#
# Stress axis : x y z
#
# Youngs Moduli (GPa) = 92.69802 83.15965 55.54209
#
# Poissons Ratio (x) = 0.09804 0.08148
# Poissons Ratio (y) = 0.10929 0.07878
# Poissons Ratio (z) = 0.13598 0.11795
#
# Static dielectric constant tensor:
#      x y z
#    x 4.849500 -1.140670 -0.426260 
#    y -1.140670 5.509300 0.982370 
#    z -0.426260 0.982370 3.568570 
# 
# 
# High freq. dielectric constant tensor:
#      x y z
#    x 1.803930 -0.000450 0.011130 
#    y -0.000450 1.793700 0.030270 
#    z 0.011130 0.030270 1.742290 
# 
# From -- ./inp_files/203287.got.cif
#   From: 2010.06.25/outbox.cif.g09.slc.cpg/sg2_102_cif.got.tgz:203287.got - 2010.06.27 13:26:56.
