data_PCOD8003804
_publ_section_title
;
Structure prediction by ZEFSAII (Michael W. Deem and Ramdas Pophale) SiO2 
 PCOD8003804
Probable space group: P -1
;
_chemical_formula_sum "Si O2"
_cell_formula_units_Z 16
_cell_length_a 6.375798
_cell_length_b 17.642239
_cell_length_c 16.471606
_cell_angle_alpha 147.515160
_cell_angle_beta 49.260281
_cell_angle_gamma 130.361852
_cell_volume 732.178612
_symmetry_space_group_name_H-M "P -1"
_symmetry_group_IT_number 2
_symmetry_cell_setting 'triclinic'
loop_
_space_group_symop_operation_xyz
x,y,z
-x,-y,-z
loop_
_atom_site_type_symbol
_atom_site_label
_atom_site_fract_x
_atom_site_fract_y
_atom_site_fract_z
Si Si1 0.457879 0.109786 0.352023
Si Si2 0.256296 0.580576 0.227614
Si Si3 0.356121 0.060212 0.711845
Si Si4 0.732829 0.397562 0.265967
Si Si5 0.842204 0.170029 0.914351
Si Si6 0.129126 0.855764 0.441801
Si Si7 0.131677 0.400957 0.935171
Si Si8 0.309546 0.593993 0.529595
O O1 0.633085 0.259657 0.405366
O O2 0.191645 0.140749 0.498222
O O3 0.661178 0.054368 0.314604
O O4 0.357063 0.989511 0.197968
O O5 0.123637 0.717589 0.373688
O O6 0.592602 0.631248 0.210113
O O7 0.066587 0.484409 0.258419
O O8 0.227526 0.485560 0.069201
O O9 0.684405 0.147947 0.690771
O O10 0.141338 0.163333 0.877626
O O11 0.249197 0.994518 0.592351
O O12 0.537004 0.497891 0.368588
O O13 0.659417 0.354555 0.338194
O O14 0.678522 0.253436 0.093261
O O15 0.906775 0.252854 0.885509
O O16 0.000000 0.500000 0.000000
O O17 0.000000 0.500000 0.500000
#
# Coordination Sequence:
#
# PCOD8003804 Si02
#       8
#     2   2   2   2   2   2   2   2
#     4  11  24  40  66  94 125 168 217 261 310 375
#     4  10  20  37  61  88 128 165 202 249 313 364
#     4  10  22  37  61  93 136 164 202 251 305 381
#     4  10  24  46  66  89 129 161 211 272 318 373
#     4  10  23  42  63  95 129 169 204 253 322 377
#     4  10  20  38  58  92 128 170 202 242 313 371
#     4  10  22  35  59  95 131 168 205 246 302 383
#     4  11  26  45  68  94 116 161 220 272 327 373
#
# _framework density 21.852592999999999
#
# number of rings (size 3 to 8) (size 9 to 14) (size 15 to 20)
#    0.000    1.750    2.500    0.375    3.500    5.500 
#    0.000    1.250    0.000    0.000    0.000    0.000 
#    0.000    0.000    0.000    0.000    0.000    0.000 
#
# Total GULP energy -198349.055353 kJ/mol
# GULP energy per Si atom -12396.815960 kJ/mol
# Density = 2.180286 g / cm^3
# Si number density = 21.852593 Si / 1000 Ang^3
#
#
#
# Elastic Constant Matrix: (Units=GPa)
#
#
# Indices 1 2 3 4 5 6 
#
# 1 83.8850 46.0215 35.9344 -0.4729 -23.6172 -15.9037
# 2 46.0215 118.5278 43.0483 11.3942 -9.7241 -5.0927
# 3 35.9344 43.0483 111.0415 -1.3551 -17.3979 1.9587
# 4 -0.4729 11.3942 -1.3551 33.8316 -1.6932 -5.0482
# 5 -23.6172 -9.7241 -17.3979 -1.6932 32.8313 10.1219
# 6 -15.9037 -5.0927 1.9587 -5.0482 10.1219 33.9362
#
#
#
# Elastic Compliance Matrix: (Units=1/GPa)
#
#
# Indices 1 2 3 4 5 6 
#
# 1 0.020496 -0.006239 -0.002778 0.003730 0.009606 0.006519
# 2 -0.006239 0.012199 -0.003146 -0.004573 -0.002519 -0.000841
# 3 -0.002778 -0.003146 0.011919 0.001182 0.004572 -0.003650
# 4 0.003730 -0.004573 0.001182 0.032069 0.002018 0.005162
# 5 0.009606 -0.002519 0.004572 0.002018 0.041702 -0.008278
# 6 0.006519 -0.000841 -0.003650 0.005162 -0.008278 0.035843
#
#
# Mechanical properties :
#
#
# Convention : Reuss Voigt Hill
#
# Bulk Modulus (GPa) = 49.29175 62.60698 55.94937
# Shear Modulus (GPa) = 26.98075 32.68315 29.83195
#
# Velocity S-wave (km/s) = 3.51760 3.87152 3.69879
# Velocity P-wave (km/s) = 6.25328 6.97831 6.62572
#
# Compressibility (1/GPa) = 0.02028737
#
# Stress axis : x y z
#
# Youngs Moduli (GPa) = 48.79079 81.97550 83.89675
#
# Poissons Ratio (x) = 0.51147 0.23308
# Poissons Ratio (y) = 0.30442 0.26391
# Poissons Ratio (z) = 0.13555 0.25787
#
# Static dielectric constant tensor:
#      x y z
#    x 3.685860 0.269250 -0.218100 
#    y 0.269250 3.942700 -0.087330 
#    z -0.218100 -0.087330 4.078820 
# 
# 
# High freq. dielectric constant tensor:
#      x y z
#    x 1.848070 0.001480 -0.015160 
#    y 0.001480 1.849560 0.008100 
#    z -0.015160 0.008100 1.866280 
# 
# From -- ./inp_files/83143.got.cif
#   From: 2010.06.25/outbox.cif.g09.slc.cpg/sg2_42_cif.got.tgz:83143.got - 2010.06.27 13:26:56.
