data_PCOD8003692
_publ_section_title
;
Structure prediction by ZEFSAII (Michael W. Deem and Ramdas Pophale) SiO2 
 PCOD8003692
Probable space group: P -1
;
_chemical_formula_sum "Si O2"
_cell_formula_units_Z 12
_cell_length_a 17.483874
_cell_length_b 8.369122
_cell_length_c 11.109095
_cell_angle_alpha 41.811824
_cell_angle_beta 42.070839
_cell_angle_gamma 72.712138
_cell_volume 594.959782
_symmetry_space_group_name_H-M "P -1"
_symmetry_group_IT_number 2
_symmetry_cell_setting 'triclinic'
loop_
_space_group_symop_operation_xyz
x,y,z
-x,-y,-z
loop_
_atom_site_type_symbol
_atom_site_label
_atom_site_fract_x
_atom_site_fract_y
_atom_site_fract_z
Si Si1 0.124815 0.331310 0.163305
Si Si2 0.822571 0.442418 0.292216
Si Si3 0.787316 0.666483 0.531590
Si Si4 0.304551 0.240091 0.161181
Si Si5 0.579960 0.326806 0.770112
Si Si6 0.969240 0.294345 0.884166
O O1 0.260934 0.353177 0.036066
O O2 0.087593 0.511015 0.191791
O O3 0.140715 0.462211 0.940334
O O4 0.000000 0.000000 0.500000
O O5 0.708838 0.508869 0.424590
O O6 0.958419 0.631208 0.110124
O O7 0.764871 0.104329 0.566630
O O8 0.742987 0.675204 0.712809
O O9 0.651576 0.383673 0.785992
O O10 0.919557 0.644092 0.384198
O O11 0.835646 0.958715 0.235063
O O12 0.472280 0.418765 0.852732
O O13 0.500000 0.000000 0.000000
#
# Coordination Sequence:
#
# PCOD8003692 Si02
#       6
#     2   2   2   2   2   2
#     4  12  22  34  63  93 119 154 197 238 295 352
#     4  10  20  40  60  86 124 154 196 243 282 352
#     4  10  20  37  63  84 121 155 193 246 291 349
#     4  11  21  37  62  88 118 159 195 239 292 347
#     4   9  21  39  64  83 112 164 202 234 294 348
#     4  10  20  37  60  89 119 158 190 239 303 337
#
# _framework density 20.169429000000001
#
# number of rings (size 3 to 8) (size 9 to 14) (size 15 to 20)
#    0.000    1.667    3.333    2.000    0.000    1.333 
#    0.000    0.833    0.000    0.000    0.000    0.000 
#    0.000    0.000    0.000    0.000    0.000    0.000 
#
# Total GULP energy -148701.934224 kJ/mol
# GULP energy per Si atom -12391.827852 kJ/mol
# Density = 2.012352 g / cm^3
# Si number density = 20.169429 Si / 1000 Ang^3
#
#
#
# Elastic Constant Matrix: (Units=GPa)
#
#
# Indices 1 2 3 4 5 6 
#
# 1 69.3749 36.1884 31.5880 10.1460 -9.2470 -14.0395
# 2 36.1884 113.5371 31.3800 19.4109 7.7422 -9.4527
# 3 31.5880 31.3800 57.8877 6.5439 -10.4002 -12.4536
# 4 10.1460 19.4109 6.5439 40.7249 -2.0374 -10.5280
# 5 -9.2470 7.7422 -10.4002 -2.0374 22.4898 -5.6823
# 6 -14.0395 -9.4527 -12.4536 -10.5280 -5.6823 39.6347
#
#
#
# Elastic Compliance Matrix: (Units=1/GPa)
#
#
# Indices 1 2 3 4 5 6 
#
# 1 0.022827 -0.005764 -0.006189 0.000179 0.010107 0.006263
# 2 -0.005764 0.013982 -0.006792 -0.005786 -0.011879 -0.004081
# 3 -0.006189 -0.006792 0.028490 0.003074 0.015306 0.008151
# 4 0.000179 -0.005786 0.003074 0.029431 0.008342 0.008663
# 5 0.010107 -0.011879 0.015306 0.008342 0.064857 0.017070
# 6 0.006263 -0.004081 0.008151 0.008663 0.017070 0.033785
#
#
# Mechanical properties :
#
#
# Convention : Reuss Voigt Hill
#
# Bulk Modulus (GPa) = 35.95982 48.79029 42.37506
# Shear Modulus (GPa) = 20.82193 30.01277 25.41735
#
# Velocity S-wave (km/s) = 3.21651 3.86169 3.55377
# Velocity P-wave (km/s) = 5.62691 6.64276 6.15583
#
# Compressibility (1/GPa) = 0.02780882
#
# Stress axis : x y z
#
# Youngs Moduli (GPa) = 43.80705 71.52260 35.10010
#
# Poissons Ratio (x) = 0.41224 0.21723
# Poissons Ratio (y) = 0.25249 0.23841
# Poissons Ratio (z) = 0.27112 0.48580
#
# Static dielectric constant tensor:
#      x y z
#    x 3.713780 -0.167270 -0.399140 
#    y -0.167270 4.232670 0.247710 
#    z -0.399140 0.247710 3.714220 
# 
# 
# High freq. dielectric constant tensor:
#      x y z
#    x 1.762100 0.002840 -0.027250 
#    y 0.002840 1.815500 0.014700 
#    z -0.027250 0.014700 1.773440 
# 
# From -- ./inp_files/23364.got.cif
#   From: 2010.06.25/outbox.cif.g09.slc.cpg/sg2_12_cif.got.tgz:23364.got - 2010.06.27 13:26:56.
