data_PCOD8003984
_publ_section_title
;
Structure prediction by ZEFSAII (Michael W. Deem and Ramdas Pophale) SiO2 
 PCOD8003984
Probable space group: P -1
;
_chemical_formula_sum "Si O2"
_cell_formula_units_Z 14
_cell_length_a 19.448512
_cell_length_b 13.282566
_cell_length_c 12.664858
_cell_angle_alpha 36.316496
_cell_angle_beta 25.911001
_cell_angle_gamma 25.683959
_cell_volume 619.410037
_symmetry_space_group_name_H-M "P -1"
_symmetry_group_IT_number 2
_symmetry_cell_setting 'triclinic'
loop_
_space_group_symop_operation_xyz
x,y,z
-x,-y,-z
loop_
_atom_site_type_symbol
_atom_site_label
_atom_site_fract_x
_atom_site_fract_y
_atom_site_fract_z
Si Si1 0.158222 0.900564 0.768046
Si Si2 0.352261 0.124761 0.701203
Si Si3 0.111979 0.666986 0.857714
Si Si4 0.610100 0.524471 0.558493
Si Si5 0.332608 0.264861 0.037058
Si Si6 0.011034 0.635708 0.455779
Si Si7 0.531027 0.693143 0.961097
O O1 0.068448 0.864718 0.821339
O O2 0.391892 0.662276 0.677294
O O3 0.158319 0.096340 0.571230
O O4 0.000000 0.000000 0.000000
O O5 0.500000 0.000000 0.500000
O O6 0.384746 0.290404 0.559013
O O7 0.408176 0.938152 0.867550
O O8 0.103017 0.285981 0.883316
O O9 0.184776 0.660721 0.643880
O O10 0.312293 0.414697 0.844243
O O11 0.611611 0.375074 0.773235
O O12 0.090568 0.364235 0.296735
O O13 0.402919 0.301676 0.016980
O O14 0.500000 0.000000 0.000000
O O15 0.000000 0.500000 0.500000
O O16 0.259091 0.511618 0.227050
#
# Coordination Sequence:
#
# PCOD8003984 Si02
#       7
#     2   2   2   2   2   2   2
#     4  12  21  41  71 104 138 181 234 294 340 414
#     4  12  28  50  71 100 144 191 235 294 358 421
#     4  12  26  45  69 108 144 183 231 292 362 413
#     4  12  25  46  73 102 146 183 237 292 356 425
#     4  11  22  41  70 104 139 179 230 292 350 419
#     4  10  20  37  62  98 134 174 229 282 339 403
#     4  11  24  45  71 100 139 185 238 285 349 424
#
# _framework density 22.602150999999999
#
# number of rings (size 3 to 8) (size 9 to 14) (size 15 to 20)
#    0.000    0.571    2.857    6.857    2.000    1.143 
#    2.571    0.000    0.000    0.000    0.000    0.000 
#    0.000    0.000    0.000    0.000    0.000    0.000 
#
# Total GULP energy -173557.973067 kJ/mol
# GULP energy per Si atom -12396.998076 kJ/mol
# Density = 2.255071 g / cm^3
# Si number density = 22.602151 Si / 1000 Ang^3
#
#
#
# Elastic Constant Matrix: (Units=GPa)
#
#
# Indices 1 2 3 4 5 6 
#
# 1 81.7069 37.7314 49.4936 -5.7177 -0.5140 10.6296
# 2 37.7314 123.2900 60.0440 -16.4396 2.4138 13.1901
# 3 49.4936 60.0440 151.1362 -5.2588 6.9304 20.8452
# 4 -5.7177 -16.4396 -5.2588 59.2533 1.5013 8.0024
# 5 -0.5140 2.4138 6.9304 1.5013 30.0337 1.6244
# 6 10.6296 13.1901 20.8452 8.0024 1.6244 39.7969
#
#
#
# Elastic Compliance Matrix: (Units=1/GPa)
#
#
# Indices 1 2 3 4 5 6 
#
# 1 0.016220 -0.002784 -0.004051 0.000594 0.001486 -0.001468
# 2 -0.002784 0.011053 -0.003118 0.002775 -0.000256 -0.001834
# 3 -0.004051 -0.003118 0.009667 0.000039 -0.001896 -0.002879
# 4 0.000594 0.002775 0.000039 0.018372 -0.000883 -0.004757
# 5 0.001486 -0.000256 -0.001896 -0.000883 0.033852 -0.000523
# 6 -0.001468 -0.001834 -0.002879 -0.004757 -0.000523 0.028613
#
#
# Mechanical properties :
#
#
# Convention : Reuss Voigt Hill
#
# Bulk Modulus (GPa) = 58.70495 72.29680 65.50087
# Shear Modulus (GPa) = 34.87694 39.74105 37.30899
#
# Velocity S-wave (km/s) = 3.93247 4.19774 4.06727
# Velocity P-wave (km/s) = 6.82998 7.45324 7.14841
#
# Compressibility (1/GPa) = 0.01703434
#
# Stress axis : x y z
#
# Youngs Moduli (GPa) = 61.65210 90.47425 103.44350
#
# Poissons Ratio (x) = 0.25189 0.41901
# Poissons Ratio (y) = 0.17165 0.32255
# Poissons Ratio (z) = 0.24973 0.28211
#
# Static dielectric constant tensor:
#      x y z
#    x 3.968800 -0.114230 0.030730 
#    y -0.114230 4.432970 0.070940 
#    z 0.030730 0.070940 4.989230 
# 
# 
# High freq. dielectric constant tensor:
#      x y z
#    x 1.865670 0.010110 0.007020 
#    y 0.010110 1.902350 -0.004790 
#    z 0.007020 -0.004790 1.916520 
# 
# From -- ./inp_files/159384.got.cif
#   From: 2010.06.25/outbox.cif.g09.slc.cpg/sg2_80_cif.got.tgz:159384.got - 2010.06.27 13:26:56.
