data_PCOD8003012
_publ_section_title
;
Structure prediction by ZEFSAII (Michael W. Deem and Ramdas Pophale) SiO2 
 PCOD8003012
Probable space group: P -1
;
_chemical_formula_sum "Si O2"
_cell_formula_units_Z 16
_cell_length_a 13.119944
_cell_length_b 10.813229
_cell_length_c 10.539684
_cell_angle_alpha 97.782620
_cell_angle_beta 36.555388
_cell_angle_gamma 122.628369
_cell_volume 603.645598
_symmetry_space_group_name_H-M "P -1"
_symmetry_group_IT_number 2
_symmetry_cell_setting 'triclinic'
loop_
_space_group_symop_operation_xyz
x,y,z
-x,-y,-z
loop_
_atom_site_type_symbol
_atom_site_label
_atom_site_fract_x
_atom_site_fract_y
_atom_site_fract_z
Si Si1 0.766409 0.457088 0.423068
Si Si2 0.104682 0.300032 0.309473
Si Si3 0.978826 0.978835 0.233846
Si Si4 0.495367 0.300045 0.918800
Si Si5 0.451909 0.144538 0.195489
Si Si6 0.282568 0.282624 0.759636
Si Si7 0.852365 0.542941 0.958179
Si Si8 0.837155 0.144514 0.810217
O O1 0.616324 0.313803 0.670422
O O2 0.575133 0.404796 0.501008
O O3 0.945723 0.445787 0.182735
O O4 0.924288 0.657211 0.344926
O O5 0.314259 0.499992 0.185736
O O6 0.011214 0.313791 0.275520
O O7 0.876179 0.158225 0.618969
O O8 0.236962 0.236977 0.134667
O O9 0.819823 0.992313 0.482849
O O10 0.786421 0.786389 0.325524
O O11 0.164818 0.992347 0.137880
O O12 0.125794 0.125829 0.997797
O O13 0.440283 0.158253 0.054891
O O14 0.609944 0.342813 0.120882
O O15 0.583156 0.083146 0.086622
O O16 0.234223 0.404723 0.841876
#
# Coordination Sequence:
#
# PCOD8003012 Si02
#       8
#     2   2   2   2   2   2   2   2
#     4  10  20  36  61  90 116 144 183 231 280 333
#     4   9  15  29  57  89 119 146 173 218 281 340
#     4  11  25  42  57  76 110 155 196 235 280 331
#     4   9  15  29  57  89 119 146 173 218 281 340
#     4  10  20  36  61  90 116 144 183 231 280 333
#     4  11  25  42  57  76 110 155 196 235 280 331
#     4  10  20  36  61  90 116 144 183 231 280 333
#     4  10  20  36  61  90 116 144 183 231 280 333
#
# _framework density 26.505617999999998
#
# number of rings (size 3 to 8) (size 9 to 14) (size 15 to 20)
#    0.000    2.000    2.500    1.500    0.000    7.000 
#    0.000    7.500    0.000    3.000    0.000    0.000 
#    0.000    0.000    0.000    0.000    0.000    0.000 
#
# Total GULP energy -198502.637840 kJ/mol
# GULP energy per Si atom -12406.414865 kJ/mol
# Density = 2.644529 g / cm^3
# Si number density = 26.505618 Si / 1000 Ang^3
#
#
#
# Elastic Constant Matrix: (Units=GPa)
#
#
# Indices 1 2 3 4 5 6 
#
# 1 -306.4962 165.7335 374.5203 212.2638 137.0877 109.0139
# 2 165.7335 76.1470 -47.2388 -30.4937 -44.6797 -35.7857
# 3 374.5203 -47.2388 -89.6245 -133.1714 -122.9438 -92.3173
# 4 212.2638 -30.4937 -133.1714 -34.5256 -80.9563 -43.3979
# 5 137.0877 -44.6797 -122.9438 -80.9563 -2.6752 -39.4129
# 6 109.0139 -35.7857 -92.3173 -43.3979 -39.4129 26.6756
#
#
#
# Elastic Compliance Matrix: (Units=1/GPa)
#
#
# Indices 1 2 3 4 5 6 
#
# 1 0.004167 -0.001847 0.001660 0.004352 0.005926 0.002071
# 2 -0.001847 0.011936 -0.002886 -0.005581 -0.002579 0.000684
# 3 0.001660 -0.002886 0.005422 -0.003603 -0.001757 -0.000348
# 4 0.004352 -0.005581 -0.003603 0.018306 0.001978 -0.005035
# 5 0.005926 -0.002579 -0.001757 0.001978 0.019490 -0.001743
# 6 0.002071 0.000684 -0.000348 -0.005035 -0.001743 0.017972
#
#
# Mechanical properties :
#
#
# Convention : Reuss Voigt Hill
#
# Bulk Modulus (GPa) = 65.02779 74.00624 69.51702
# Shear Modulus (GPa) = 56.45390 -56.30429 0.07480
#
# Velocity S-wave (km/s) = 4.62007 -4.61395 0.16817
# Velocity P-wave (km/s) = 7.28333 0.63491 5.13049
#
# Compressibility (1/GPa) = 0.01537804
#
# Stress axis : x y z
#
# Youngs Moduli (GPa) = 239.96852 83.77710 184.42892
#
# Poissons Ratio (x) = 0.15477 -0.30612
# Poissons Ratio (y) = 0.44332 0.53231
# Poissons Ratio (z) = -0.39830 0.24180
#
# Static dielectric constant tensor:
#      x y z
#    x 4.860720 0.347590 -0.027590 
#    y 0.347590 5.428440 -0.255680 
#    z -0.027590 -0.255680 4.753990 
# 
# 
# High freq. dielectric constant tensor:
#      x y z
#    x 2.066430 0.014010 -0.001860 
#    y 0.014010 2.114080 -0.025710 
#    z -0.001860 -0.025710 2.072460 
# 
# From -- ./inp_files/255820.got.cif
#   From: 2010.06.25/outbox.cif.g09.slc.cpg/sg2_128_cif.got.tgz:255820.got - 2010.06.27 13:26:56.
