data_PCOD8003117
_publ_section_title
;
Structure prediction by ZEFSAII (Michael W. Deem and Ramdas Pophale) SiO2 
 PCOD8003117
Probable space group: P -1
;
_chemical_formula_sum "Si O2"
_cell_formula_units_Z 14
_cell_length_a 8.403086
_cell_length_b 11.870212
_cell_length_c 17.484146
_cell_angle_alpha 21.320742
_cell_angle_beta 62.016118
_cell_angle_gamma 58.707535
_cell_volume 541.246813
_symmetry_space_group_name_H-M "P -1"
_symmetry_group_IT_number 2
_symmetry_cell_setting 'triclinic'
loop_
_space_group_symop_operation_xyz
x,y,z
-x,-y,-z
loop_
_atom_site_type_symbol
_atom_site_label
_atom_site_fract_x
_atom_site_fract_y
_atom_site_fract_z
Si Si1 0.210841 0.006226 0.962362
Si Si2 0.247468 0.081406 0.741236
Si Si3 0.188500 0.219822 0.125313
Si Si4 0.751840 0.920630 0.545115
Si Si5 0.827025 0.304700 0.415208
Si Si6 0.593210 0.297146 0.199868
Si Si7 0.193635 0.773695 0.270796
O O1 0.311138 0.924769 0.909195
O O2 0.255869 0.339873 0.762626
O O3 0.283515 0.772757 0.165737
O O4 0.000000 0.000000 0.000000
O O5 0.294323 0.427097 0.502731
O O6 0.028408 0.155485 0.728875
O O7 0.364535 0.817886 0.823776
O O8 0.180357 0.939719 0.361629
O O9 0.225957 0.066937 0.128973
O O10 0.364351 0.358652 0.017715
O O11 0.000000 0.500000 0.000000
O O12 0.619968 0.686846 0.740951
O O13 0.959905 0.711729 0.645778
O O14 0.712967 0.228781 0.415498
O O15 0.727717 0.037755 0.389112
#
# Coordination Sequence:
#
# PCOD8003117 Si02
#       7
#     2   2   2   2   2   2   2
#     4  10  22  35  63  97 125 170 225 265 314 390
#     4  10  20  38  61  94 129 169 218 266 323 383
#     4  12  21  37  66  98 129 172 217 266 329 386
#     4  10  24  40  66  94 132 167 217 271 331 382
#     4  11  22  42  66  96 129 172 223 268 316 403
#     4  11  23  42  65  98 133 167 213 280 326 381
#     4  10  20  36  62  94 129 172 218 263 320 393
#
# _framework density 25.866205000000001
#
# number of rings (size 3 to 8) (size 9 to 14) (size 15 to 20)
#    0.000    1.429    4.286    0.857    6.000    0.571 
#    0.000    0.714    3.143    2.571    0.000    0.000 
#    0.000    0.000    0.000    0.000    0.000    0.000 
#
# Total GULP energy -173581.276997 kJ/mol
# GULP energy per Si atom -12398.662643 kJ/mol
# Density = 2.580733 g / cm^3
# Si number density = 25.866205 Si / 1000 Ang^3
#
#
#
# Elastic Constant Matrix: (Units=GPa)
#
#
# Indices 1 2 3 4 5 6 
#
# 1 73.6296 26.2347 29.5714 4.6481 -26.6978 15.1974
# 2 26.2347 151.3302 58.3646 23.6348 -2.1852 45.6787
# 3 29.5714 58.3646 136.3722 9.6676 -29.8952 9.4691
# 4 4.6481 23.6348 9.6676 50.6845 11.7027 -2.5478
# 5 -26.6978 -2.1852 -29.8952 11.7027 36.0186 -2.9264
# 6 15.1974 45.6787 9.4691 -2.5478 -2.9264 37.4682
#
#
#
# Elastic Compliance Matrix: (Units=1/GPa)
#
#
# Indices 1 2 3 4 5 6 
#
# 1 0.022155 -0.000399 0.000337 -0.006487 0.018168 -0.007607
# 2 -0.000399 0.014829 -0.005369 -0.005954 -0.003318 -0.017224
# 3 0.000337 -0.005369 0.011754 -0.002026 0.010674 0.004134
# 4 -0.006487 -0.005954 -0.002026 0.027481 -0.014878 0.011109
# 5 0.018168 -0.003318 0.010674 -0.014878 0.054496 -0.002777
# 6 -0.007607 -0.017224 0.004134 0.011109 -0.002777 0.050266
#
#
# Mechanical properties :
#
#
# Convention : Reuss Voigt Hill
#
# Bulk Modulus (GPa) = 26.40169 65.51925 45.96047
# Shear Modulus (GPa) = 24.45347 41.31168 32.88257
#
# Velocity S-wave (km/s) = 3.07804 4.00075 3.56934
# Velocity P-wave (km/s) = 4.78139 6.83567 5.89864
#
# Compressibility (1/GPa) = 0.03787637
#
# Stress axis : x y z
#
# Youngs Moduli (GPa) = 45.13568 67.43565 85.07604
#
# Poissons Ratio (x) = 0.02693 -0.02870
# Poissons Ratio (y) = 0.01802 0.45679
# Poissons Ratio (z) = -0.01523 0.36207
#
# Static dielectric constant tensor:
#      x y z
#    x 4.622790 0.441600 -0.282800 
#    y 0.441600 4.920970 0.231800 
#    z -0.282800 0.231800 4.871360 
# 
# 
# High freq. dielectric constant tensor:
#      x y z
#    x 2.021120 0.021270 -0.015610 
#    y 0.021270 2.041330 0.010330 
#    z -0.015610 0.010330 2.046690 
# 
# From -- ./inp_files/559464.got.cif
#   From: 2010.06.25/outbox.cif.g09.slc.cpg/sg2_280_cif.got.tgz:559464.got - 2010.06.27 13:26:56.
