data_PCOD8003821
_publ_section_title
;
Structure prediction by ZEFSAII (Michael W. Deem and Ramdas Pophale) SiO2 
 PCOD8003821
Probable space group: P -1
;
_chemical_formula_sum "Si O2"
_cell_formula_units_Z 16
_cell_length_a 18.466356
_cell_length_b 6.427469
_cell_length_c 24.922926
_cell_angle_alpha 115.888075
_cell_angle_beta 162.889673
_cell_angle_gamma 71.513960
_cell_volume 724.694837
_symmetry_space_group_name_H-M "P -1"
_symmetry_group_IT_number 2
_symmetry_cell_setting 'triclinic'
loop_
_space_group_symop_operation_xyz
x,y,z
-x,-y,-z
loop_
_atom_site_type_symbol
_atom_site_label
_atom_site_fract_x
_atom_site_fract_y
_atom_site_fract_z
Si Si1 0.964767 0.967180 0.586003
Si Si2 0.030709 0.357436 0.923252
Si Si3 0.209210 0.780569 0.372259
Si Si4 0.605654 0.470673 0.323796
Si Si5 0.208134 0.756049 0.655548
Si Si6 0.783425 0.012018 0.127615
Si Si7 0.180322 0.881871 0.144964
Si Si8 0.076272 0.520176 0.353571
O O1 0.940893 0.229103 0.607062
O O2 0.180236 0.941205 0.777649
O O3 0.691698 0.727641 0.378447
O O4 0.085202 0.959958 0.610354
O O5 0.822490 0.321511 0.722840
O O6 0.897417 0.153206 0.851447
O O7 0.290372 0.322972 0.079445
O O8 0.130346 0.628187 0.050126
O O9 0.135507 0.546866 0.335046
O O10 0.016360 0.928489 0.261143
O O11 0.509514 0.951810 0.618835
O O12 0.745309 0.281592 0.378819
O O13 0.690446 0.525720 0.452453
O O14 0.000000 0.500000 0.500000
O O15 0.494369 0.805892 0.890234
O O16 0.810603 0.273161 0.147031
O O17 0.000000 0.000000 0.000000
#
# Coordination Sequence:
#
# PCOD8003821 Si02
#       8
#     2   2   2   2   2   2   2   2
#     4   9  20  36  60  86 125 167 210 262 315 366
#     4  11  23  42  67  93 127 168 211 256 318 384
#     4  11  23  43  66  94 127 172 211 255 317 383
#     4  10  20  40  62  88 124 166 210 261 315 374
#     4  10  20  37  61  90 122 168 210 261 317 368
#     4  10  20  39  61  89 124 168 212 257 310 374
#     4  11  25  42  66  99 129 160 206 265 319 376
#     4  10  21  37  60  90 126 165 211 262 311 369
#
# _framework density 22.078258000000002
#
# number of rings (size 3 to 8) (size 9 to 14) (size 15 to 20)
#    0.000    1.750    1.250    3.750    0.000    3.500 
#    4.500    2.500    0.000    0.000    0.000    0.000 
#    0.000    0.000    0.000    0.000    0.000    0.000 
#
# Total GULP energy -198255.187104 kJ/mol
# GULP energy per Si atom -12390.949194 kJ/mol
# Density = 2.202801 g / cm^3
# Si number density = 22.078258 Si / 1000 Ang^3
#
#
#
# Elastic Constant Matrix: (Units=GPa)
#
#
# Indices 1 2 3 4 5 6 
#
# 1 116.1303 31.4662 32.8339 -2.2452 -6.2449 15.3129
# 2 31.4662 75.0096 33.9419 6.6982 9.3795 15.6196
# 3 32.8339 33.9419 131.2623 5.8134 5.1958 4.9150
# 4 -2.2452 6.6982 5.8134 25.0306 -1.0992 -0.2123
# 5 -6.2449 9.3795 5.1958 -1.0992 36.3724 -6.7208
# 6 15.3129 15.6196 4.9150 -0.2123 -6.7208 30.4500
#
#
#
# Elastic Compliance Matrix: (Units=1/GPa)
#
#
# Indices 1 2 3 4 5 6 
#
# 1 0.010648 -0.003642 -0.001837 0.002450 0.002625 -0.002593
# 2 -0.003642 0.019650 -0.003309 -0.005207 -0.007099 -0.009317
# 3 -0.001837 -0.003309 0.008980 -0.001382 -0.000596 0.001031
# 4 0.002450 -0.005207 -0.001382 0.042073 0.003747 0.002783
# 5 0.002625 -0.007099 -0.000596 0.003747 0.031718 0.009444
# 6 -0.002593 -0.009317 0.001031 0.002783 0.009444 0.040862
#
#
# Mechanical properties :
#
#
# Convention : Reuss Voigt Hill
#
# Bulk Modulus (GPa) = 46.08328 57.65404 51.86866
# Shear Modulus (GPa) = 27.97340 33.31462 30.64401
#
# Velocity S-wave (km/s) = 3.56337 3.88871 3.72959
# Velocity P-wave (km/s) = 6.15209 6.80683 6.48772
#
# Compressibility (1/GPa) = 0.02169984
#
# Stress axis : x y z
#
# Youngs Moduli (GPa) = 93.91648 50.89089 111.36127
#
# Poissons Ratio (x) = 0.18537 0.20455
# Poissons Ratio (y) = 0.34209 0.36855
# Poissons Ratio (z) = 0.17251 0.16842
#
# Static dielectric constant tensor:
#      x y z
#    x 4.724930 -0.102430 -0.024210 
#    y -0.102430 3.889960 0.055030 
#    z -0.024210 0.055030 4.044110 
# 
# 
# High freq. dielectric constant tensor:
#      x y z
#    x 1.881350 -0.001680 -0.006760 
#    y -0.001680 1.847520 0.010940 
#    z -0.006760 0.010940 1.872520 
# 
# From -- ./inp_files/51158.got.cif
#   From: 2010.06.25/outbox.cif.g09.slc.cpg/sg2_26_cif.got.tgz:51158.got - 2010.06.27 13:26:56.
