data_PCOD8003307
_publ_section_title
;
Structure prediction by ZEFSAII (Michael W. Deem and Ramdas Pophale) SiO2 
 PCOD8003307
Probable space group: P -1
;
_chemical_formula_sum "Si O2"
_cell_formula_units_Z 14
_cell_length_a 8.339395
_cell_length_b 19.414263
_cell_length_c 14.371727
_cell_angle_alpha 20.807435
_cell_angle_beta 127.520529
_cell_angle_gamma 126.182555
_cell_volume 653.740176
_symmetry_space_group_name_H-M "P -1"
_symmetry_group_IT_number 2
_symmetry_cell_setting 'triclinic'
loop_
_space_group_symop_operation_xyz
x,y,z
-x,-y,-z
loop_
_atom_site_type_symbol
_atom_site_label
_atom_site_fract_x
_atom_site_fract_y
_atom_site_fract_z
Si Si1 0.757429 0.360373 0.348260
Si Si2 0.203351 0.545354 0.257644
Si Si3 0.219998 0.198659 0.406760
Si Si4 0.775238 0.144128 0.284921
Si Si5 0.586721 0.381261 0.071160
Si Si6 0.453256 0.713819 0.292592
Si Si7 0.581633 0.095547 0.774412
O O1 0.641370 0.279150 0.316530
O O2 0.732985 0.183734 0.637005
O O3 0.993472 0.414296 0.349911
O O4 0.641367 0.548434 0.104194
O O5 0.264752 0.605086 0.309166
O O6 0.386471 0.428295 0.430380
O O7 0.182691 0.729941 0.952136
O O8 0.351030 0.143703 0.610840
O O9 0.985143 0.146054 0.414035
O O10 0.287529 0.075876 0.494014
O O11 0.253408 0.429122 0.111842
O O12 0.609844 0.231059 0.184117
O O13 0.351988 0.816299 0.213657
O O14 0.578283 0.862480 0.077461
#
# Coordination Sequence:
#
# PCOD8003307 Si02
#       7
#     2   2   2   2   2   2   2
#     4  10  22  37  62  88 132 154 198 255 318 357
#     4  11  21  39  63  92 117 159 208 257 292 371
#     4  10  20  36  66  92 122 152 212 259 290 371
#     4  11  21  36  67  95 120 160 211 247 310 368
#     4  10  21  39  60  92 130 167 186 252 321 375
#     4  10  23  39  66  82 116 167 215 241 299 358
#     4  10  21  42  59  87 122 160 202 258 300 364
#
# _framework density 21.415234999999999
#
# number of rings (size 3 to 8) (size 9 to 14) (size 15 to 20)
#    0.000    1.714    2.857    2.143    2.000    1.143 
#    0.000    6.429   12.571    0.000    0.000    0.000 
#    0.000    0.000    0.000    0.000    0.000    0.000 
#
# Total GULP energy -173540.795208 kJ/mol
# GULP energy per Si atom -12395.771086 kJ/mol
# Density = 2.136649 g / cm^3
# Si number density = 21.415235 Si / 1000 Ang^3
#
#
#
# Elastic Constant Matrix: (Units=GPa)
#
#
# Indices 1 2 3 4 5 6 
#
# 1 45.8426 12.6018 0.0986 5.9052 -0.3125 -9.7136
# 2 12.6018 66.8096 4.8094 2.6809 4.7036 -0.5981
# 3 0.0986 4.8094 61.1761 -0.7851 -7.7979 -6.9470
# 4 5.9052 2.6809 -0.7851 27.3761 -1.6081 10.1099
# 5 -0.3125 4.7036 -7.7979 -1.6081 28.9143 -2.0314
# 6 -9.7136 -0.5981 -6.9470 10.1099 -2.0314 37.6665
#
#
#
# Elastic Compliance Matrix: (Units=1/GPa)
#
#
# Indices 1 2 3 4 5 6 
#
# 1 0.026193 -0.004739 0.001489 -0.008489 0.001638 0.009321
# 2 -0.004739 0.016227 -0.001853 -0.000295 -0.003306 -0.001405
# 3 0.001489 -0.001853 0.017623 -0.000843 0.005313 0.004118
# 4 -0.008489 -0.000295 -0.000843 0.043599 0.001171 -0.013988
# 5 0.001638 -0.003306 0.005313 0.001171 0.036851 0.003023
# 6 0.009321 -0.001405 0.004118 -0.013988 0.003023 0.033607
#
#
# Mechanical properties :
#
#
# Convention : Reuss Voigt Hill
#
# Bulk Modulus (GPa) = 20.06522 23.20532 21.63527
# Shear Modulus (GPa) = 24.88563 29.21261 27.04912
#
# Velocity S-wave (km/s) = 3.41259 3.69739 3.55784
# Velocity P-wave (km/s) = 4.99175 5.39323 5.19637
#
# Compressibility (1/GPa) = 0.04983748
#
# Stress axis : x y z
#
# Youngs Moduli (GPa) = 38.17810 61.62509 56.74246
#
# Poissons Ratio (x) = 0.29204 -0.08447
# Poissons Ratio (y) = 0.18093 0.10513
# Poissons Ratio (z) = -0.05684 0.11418
#
# Static dielectric constant tensor:
#      x y z
#    x 3.520980 -0.052730 -0.011470 
#    y -0.052730 3.855270 0.040910 
#    z -0.011470 0.040910 3.984700 
# 
# 
# High freq. dielectric constant tensor:
#      x y z
#    x 1.808360 -0.004020 0.000070 
#    y -0.004020 1.844650 0.004580 
#    z 0.000070 0.004580 1.843790 
# 
# From -- ./inp_files/185321.got.cif
#   From: 2010.06.25/outbox.cif.g09.slc.cpg/sg2_93_cif.got.tgz:185321.got - 2010.06.27 13:26:56.
