data_PCOD8003914
_publ_section_title
;
Structure prediction by ZEFSAII (Michael W. Deem and Ramdas Pophale) SiO2 
 PCOD8003914
Probable space group: P -1
;
_chemical_formula_sum "Si O2"
_cell_formula_units_Z 14
_cell_length_a 9.143535
_cell_length_b 20.910091
_cell_length_c 11.882322
_cell_angle_alpha 42.572175
_cell_angle_beta 134.791801
_cell_angle_gamma 150.793778
_cell_volume 736.717882
_symmetry_space_group_name_H-M "P -1"
_symmetry_group_IT_number 2
_symmetry_cell_setting 'triclinic'
loop_
_space_group_symop_operation_xyz
x,y,z
-x,-y,-z
loop_
_atom_site_type_symbol
_atom_site_label
_atom_site_fract_x
_atom_site_fract_y
_atom_site_fract_z
Si Si1 0.925638 0.082531 0.832772
Si Si2 0.766725 0.101262 0.279975
Si Si3 0.698853 0.657740 0.875740
Si Si4 0.102309 0.287925 0.848771
Si Si5 0.562279 0.924638 0.196942
Si Si6 0.327971 0.565812 0.593711
Si Si7 0.165405 0.169342 0.608446
O O1 0.093163 0.205080 0.856004
O O2 0.053245 0.160697 0.681535
O O3 0.561356 0.964622 0.792036
O O4 0.000000 0.000000 0.000000
O O5 0.992398 0.255496 0.143826
O O6 0.894972 0.104624 0.461198
O O7 0.742856 0.004901 0.306285
O O8 0.487085 0.651636 0.688028
O O9 0.500000 0.500000 0.000000
O O10 0.796916 0.732373 0.954260
O O11 0.327420 0.451065 0.730897
O O12 0.774621 0.229407 0.759583
O O13 0.758394 0.916904 0.241153
O O14 0.500000 0.000000 0.000000
O O15 0.526627 0.669857 0.462225
O O16 0.000000 0.500000 0.500000
#
# Coordination Sequence:
#
# PCOD8003914 Si02
#       7
#     2   2   2   2   2   2   2
#     4  11  25  38  58  85 122 163 192 237 297 357
#     4  10  21  37  57  87 118 151 197 248 290 335
#     4   9  19  34  61  85 112 148 193 243 284 336
#     4  10  20  38  57  87 120 150 197 238 290 345
#     4  11  19  33  61  86 116 152 195 246 286 341
#     4  10  20  37  62  89 113 150 196 247 291 335
#     4  11  22  38  58  87 118 156 197 241 296 348
#
# _framework density 19.003202999999999
#
# number of rings (size 3 to 8) (size 9 to 14) (size 15 to 20)
#    0.000    1.714    2.857    2.571    0.000    0.571 
#    0.000    1.429    0.000    8.571    0.000    0.000 
#    0.000    0.000    0.000    0.000    0.000    0.000 
#
# Total GULP energy -173489.014136 kJ/mol
# GULP energy per Si atom -12392.072438 kJ/mol
# Density = 1.895995 g / cm^3
# Si number density = 19.003203 Si / 1000 Ang^3
#
#
#
# Elastic Constant Matrix: (Units=GPa)
#
#
# Indices 1 2 3 4 5 6 
#
# 1 132.5458 63.5942 66.6094 10.9876 -16.1408 -0.8810
# 2 63.5942 114.9802 57.0557 10.6511 -12.4521 7.8472
# 3 66.6094 57.0557 108.1466 5.6318 -15.1401 -1.0033
# 4 10.9876 10.6511 5.6318 34.1426 -2.3245 -5.9679
# 5 -16.1408 -12.4521 -15.1401 -2.3245 38.2945 -0.2762
# 6 -0.8810 7.8472 -1.0033 -5.9679 -0.2762 34.2467
#
#
#
# Elastic Compliance Matrix: (Units=1/GPa)
#
#
# Indices 1 2 3 4 5 6 
#
# 1 0.012443 -0.004010 -0.005205 -0.001630 0.001790 0.000817
# 2 -0.004010 0.013813 -0.004594 -0.002889 0.000782 -0.003900
# 3 -0.005205 -0.004594 0.015170 0.001042 0.002385 0.001564
# 4 -0.001630 -0.002889 0.001042 0.031674 0.000752 0.006176
# 5 0.001790 0.000782 0.002385 0.000752 0.028112 0.000295
# 6 0.000817 -0.003900 0.001564 0.006176 0.000295 0.031239
#
#
# Mechanical properties :
#
#
# Convention : Reuss Voigt Hill
#
# Bulk Modulus (GPa) = 72.42105 81.13235 76.77670
# Shear Modulus (GPa) = 30.36329 32.56432 31.46380
#
# Velocity S-wave (km/s) = 4.00158 4.14408 4.07346
# Velocity P-wave (km/s) = 7.71640 8.10461 7.91289
#
# Compressibility (1/GPa) = 0.01380814
#
# Stress axis : x y z
#
# Youngs Moduli (GPa) = 80.36778 72.39493 65.91779
#
# Poissons Ratio (x) = 0.29030 0.34311
# Poissons Ratio (y) = 0.32227 0.30282
# Poissons Ratio (z) = 0.41833 0.33258
#
# Static dielectric constant tensor:
#      x y z
#    x 3.413350 0.083840 -0.338050 
#    y 0.083840 3.978490 0.143560 
#    z -0.338050 0.143560 3.617760 
# 
# 
# High freq. dielectric constant tensor:
#      x y z
#    x 1.709640 0.009120 -0.022030 
#    y 0.009120 1.759960 0.006450 
#    z -0.022030 0.006450 1.745790 
# 
# From -- ./inp_files/170497.got.cif
#   From: 2010.06.25/outbox.cif.g09.slc.cpg/sg2_86_cif.got.tgz:170497.got - 2010.06.27 13:26:56.
