data_PCOD8003845
_publ_section_title
;
Structure prediction by ZEFSAII (Michael W. Deem and Ramdas Pophale) SiO2 
 PCOD8003845
Probable space group: P -1
;
_chemical_formula_sum "Si O2"
_cell_formula_units_Z 16
_cell_length_a 11.899238
_cell_length_b 9.550148
_cell_length_c 12.074677
_cell_angle_alpha 52.224940
_cell_angle_beta 128.994235
_cell_angle_gamma 121.833016
_cell_volume 820.122876
_symmetry_space_group_name_H-M "P -1"
_symmetry_group_IT_number 2
_symmetry_cell_setting 'triclinic'
loop_
_space_group_symop_operation_xyz
x,y,z
-x,-y,-z
loop_
_atom_site_type_symbol
_atom_site_label
_atom_site_fract_x
_atom_site_fract_y
_atom_site_fract_z
Si Si1 0.164996 0.986208 0.578734
Si Si2 0.173340 0.358388 0.169393
Si Si3 0.388206 0.909049 0.380456
Si Si4 0.158867 0.126018 0.065793
Si Si5 0.104332 0.416915 0.746970
Si Si6 0.163224 0.744646 0.490070
Si Si7 0.590604 0.696067 0.498885
Si Si8 0.086199 0.642520 0.829464
O O1 0.175160 0.923963 0.486592
O O2 0.193069 0.829322 0.757032
O O3 0.286304 0.180996 0.569210
O O4 0.000000 0.000000 0.500000
O O5 0.128752 0.196271 0.133596
O O6 0.333785 0.351189 0.318722
O O7 0.057952 0.317995 0.219084
O O8 0.178986 0.553026 0.019797
O O9 0.267136 0.761483 0.440746
O O10 0.471560 0.816837 0.386197
O O11 0.500000 0.000000 0.500000
O O12 0.300723 0.037644 0.197691
O O13 0.200520 0.285500 0.922611
O O14 0.000000 0.000000 0.000000
O O15 0.209166 0.588895 0.668355
O O16 0.025372 0.500804 0.759606
O O17 0.999563 0.310745 0.637324
O O18 0.500000 0.500000 0.500000
#
# Coordination Sequence:
#
# PCOD8003845 Si02
#       8
#     2   2   2   2   2   2   2   2
#     4  11  21  39  63  92 124 170 219 265 316 382
#     4  10  20  39  58  94 125 166 206 267 323 372
#     4  12  23  41  62  89 131 169 207 258 323 387
#     4  11  21  37  64  95 123 162 220 262 314 383
#     4   9  20  35  60  99 122 154 212 270 309 370
#     4  10  20  37  61  92 129 160 208 262 320 371
#     4  12  27  41  62  93 132 177 211 258 333 394
#     4   9  20  35  64  88 126 158 211 270 316 362
#
# _framework density 19.509271999999999
#
# number of rings (size 3 to 8) (size 9 to 14) (size 15 to 20)
#    0.000    1.500    5.000    0.000    1.750    2.000 
#    0.000    2.500    0.000    0.000    0.000    0.000 
#    0.000    0.000    0.000    0.000    0.000    0.000 
#
# Total GULP energy -198224.622260 kJ/mol
# GULP energy per Si atom -12389.038891 kJ/mol
# Density = 1.946487 g / cm^3
# Si number density = 19.509272 Si / 1000 Ang^3
#
#
#
# Elastic Constant Matrix: (Units=GPa)
#
#
# Indices 1 2 3 4 5 6 
#
# 1 90.1468 37.0692 38.7232 -22.3915 2.6574 0.3108
# 2 37.0692 117.4848 49.8251 -6.1418 1.7365 7.3117
# 3 38.7232 49.8251 135.5563 -20.3155 2.8233 1.4094
# 4 -22.3915 -6.1418 -20.3155 28.9391 0.7800 -3.0889
# 5 2.6574 1.7365 2.8233 0.7800 36.1378 -7.1346
# 6 0.3108 7.3117 1.4094 -3.0889 -7.1346 28.3016
#
#
#
# Elastic Compliance Matrix: (Units=1/GPa)
#
#
# Indices 1 2 3 4 5 6 
#
# 1 0.016062 -0.003968 -0.001525 0.010739 -0.000725 0.001914
# 2 -0.003968 0.011267 -0.003480 -0.003450 -0.000536 -0.003206
# 3 -0.001525 -0.003480 0.009857 0.005106 -0.000428 0.000874
# 4 0.010739 -0.003450 0.005106 0.046312 -0.000970 0.005329
# 5 -0.000725 -0.000536 -0.000428 -0.000970 0.029275 0.007442
# 6 0.001914 -0.003206 0.000874 0.005329 0.007442 0.038555
#
#
# Mechanical properties :
#
#
# Convention : Reuss Voigt Hill
#
# Bulk Modulus (GPa) = 51.97837 66.04698 59.01267
# Shear Modulus (GPa) = 28.45967 33.18038 30.82003
#
# Velocity S-wave (km/s) = 3.82354 4.12849 3.97894
# Velocity P-wave (km/s) = 6.79657 7.52685 7.17101
#
# Compressibility (1/GPa) = 0.01923877
#
# Stress axis : x y z
#
# Youngs Moduli (GPa) = 62.25817 88.75624 101.45170
#
# Poissons Ratio (x) = 0.35220 0.15473
# Poissons Ratio (y) = 0.24705 0.35308
# Poissons Ratio (z) = 0.09495 0.30889
#
# Static dielectric constant tensor:
#      x y z
#    x 3.687270 0.137960 -0.399680 
#    y 0.137960 3.431740 -0.264210 
#    z -0.399680 -0.264210 3.930670 
# 
# 
# High freq. dielectric constant tensor:
#      x y z
#    x 1.739880 -0.008400 -0.014310 
#    y -0.008400 1.761110 -0.020970 
#    z -0.014310 -0.020970 1.769270 
# 
# From -- ./inp_files/331730.got.cif
#   From: 2010.06.25/outbox.cif.g09.slc.cpg/sg2_166_cif.got.tgz:331730.got - 2010.06.27 13:26:56.
