data_PCOD8003015
_publ_section_title
;
Structure prediction by ZEFSAII (Michael W. Deem and Ramdas Pophale) SiO2 
 PCOD8003015
Probable space group: P -1
;
_chemical_formula_sum "Si O2"
_cell_formula_units_Z 14
_cell_length_a 11.398859
_cell_length_b 11.022245
_cell_length_c 8.623152
_cell_angle_alpha 37.582022
_cell_angle_beta 88.895263
_cell_angle_gamma 102.214394
_cell_volume 613.234642
_symmetry_space_group_name_H-M "P -1"
_symmetry_group_IT_number 2
_symmetry_cell_setting 'triclinic'
loop_
_space_group_symop_operation_xyz
x,y,z
-x,-y,-z
loop_
_atom_site_type_symbol
_atom_site_label
_atom_site_fract_x
_atom_site_fract_y
_atom_site_fract_z
Si Si1 0.008204 0.713775 0.698514
Si Si2 0.499150 0.304156 0.824401
Si Si3 0.200794 0.143522 0.294676
Si Si4 0.729157 0.577636 0.277817
Si Si5 0.342104 0.271812 0.455594
Si Si6 0.092477 0.207181 0.694389
Si Si7 0.434668 0.851290 0.326796
O O1 0.909910 0.786737 0.714956
O O2 0.978090 0.701090 0.525626
O O3 0.149442 0.885498 0.549222
O O4 0.000000 0.500000 0.000000
O O5 0.398237 0.403745 0.652349
O O6 0.594027 0.472947 0.769605
O O7 0.574389 0.212904 0.792143
O O8 0.419670 0.074753 0.145477
O O9 0.321931 0.243937 0.299689
O O10 0.233082 0.225662 0.037436
O O11 0.840300 0.605824 0.369653
O O12 0.688378 0.355076 0.404910
O O13 0.206660 0.155784 0.662215
O O14 0.432278 0.144910 0.618994
O O15 0.000000 0.000000 0.000000
#
# Coordination Sequence:
#
# PCOD8003015 Si02
#       7
#     2   2   2   2   2   2   2
#     4  10  23  43  60  86 126 169 209 252 302 364
#     4  10  20  36  61  90 122 155 202 258 304 361
#     4  10  23  39  61  86 128 164 201 251 317 360
#     4  11  20  40  61  92 122 157 203 257 299 368
#     4  10  20  39  61  86 122 164 198 248 311 369
#     4  11  20  38  68  87 119 166 205 252 304 356
#     4  10  20  36  61  91 119 156 206 251 309 359
#
# _framework density 22.829761000000001
#
# number of rings (size 3 to 8) (size 9 to 14) (size 15 to 20)
#    0.000    1.714    4.286    0.857    0.000    5.714 
#    0.000    2.143    0.000    0.000    0.000    0.000 
#    0.000    0.000    0.000    0.000    0.000    0.000 
#
# Total GULP energy -173447.437331 kJ/mol
# GULP energy per Si atom -12389.102666 kJ/mol
# Density = 2.277780 g / cm^3
# Si number density = 22.829761 Si / 1000 Ang^3
#
#
#
# Elastic Constant Matrix: (Units=GPa)
#
#
# Indices 1 2 3 4 5 6 
#
# 1 44.2908 51.2373 32.0121 -12.9315 11.7319 31.2262
# 2 51.2373 134.5466 63.5113 -12.8458 13.2035 42.7376
# 3 32.0121 63.5113 146.2527 -20.9497 14.1275 21.4229
# 4 -12.9315 -12.8458 -20.9497 47.5963 -1.0376 1.0685
# 5 11.7319 13.2035 14.1275 -1.0376 34.6387 1.3040
# 6 31.2262 42.7376 21.4229 1.0685 1.3040 37.7353
#
#
#
# Elastic Compliance Matrix: (Units=1/GPa)
#
#
# Indices 1 2 3 4 5 6 
#
# 1 0.095813 -0.009906 -0.000966 0.023898 -0.025031 -0.067330
# 2 -0.009906 0.015036 -0.003256 0.000073 -0.000784 -0.006958
# 3 -0.000966 -0.003256 0.009181 0.002871 -0.002063 -0.000735
# 4 0.023898 0.000073 0.002871 0.029116 -0.007591 -0.022051
# 5 -0.025031 -0.000784 -0.002063 -0.007591 0.037443 0.021693
# 6 -0.067330 -0.006958 -0.000735 -0.022051 0.021693 0.090389
#
#
# Mechanical properties :
#
#
# Convention : Reuss Voigt Hill
#
# Bulk Modulus (GPa) = 10.89634 68.73460 39.81547
# Shear Modulus (GPa) = 14.88864 35.88269 25.38567
#
# Velocity S-wave (km/s) = 2.55651 3.96883 3.33822
# Velocity P-wave (km/s) = 3.67390 7.15367 5.68650
#
# Compressibility (1/GPa) = 0.09177395
#
# Stress axis : x y z
#
# Youngs Moduli (GPa) = 10.43695 66.50855 108.91983
#
# Poissons Ratio (x) = 0.65883 0.10526
# Poissons Ratio (y) = 0.10339 0.35461
# Poissons Ratio (z) = 0.01009 0.21653
#
# Static dielectric constant tensor:
#      x y z
#    x 3.930700 0.277850 -0.245840 
#    y 0.277850 4.369910 -0.352000 
#    z -0.245840 -0.352000 5.187460 
# 
# 
# High freq. dielectric constant tensor:
#      x y z
#    x 1.878070 0.018100 -0.015780 
#    y 0.018100 1.896330 -0.008610 
#    z -0.015780 -0.008610 1.916740 
# 
# From -- ./inp_files/255959.got.cif
#   From: 2010.06.25/outbox.cif.g09.slc.cpg/sg2_128_cif.got.tgz:255959.got - 2010.06.27 13:26:56.
