data_PCOD8003253
_publ_section_title
;
Structure prediction by ZEFSAII (Michael W. Deem and Ramdas Pophale) SiO2 
 PCOD8003253
Probable space group: P -1
;
_chemical_formula_sum "Si O2"
_cell_formula_units_Z 16
_cell_length_a 24.149311
_cell_length_b 18.738848
_cell_length_c 13.715815
_cell_angle_alpha 30.237148
_cell_angle_beta 22.017709
_cell_angle_gamma 18.756354
_cell_volume 743.218654
_symmetry_space_group_name_H-M "P -1"
_symmetry_group_IT_number 2
_symmetry_cell_setting 'triclinic'
loop_
_space_group_symop_operation_xyz
x,y,z
-x,-y,-z
loop_
_atom_site_type_symbol
_atom_site_label
_atom_site_fract_x
_atom_site_fract_y
_atom_site_fract_z
Si Si1 0.799944 0.040909 0.744964
Si Si2 0.537832 0.865126 0.686732
Si Si3 0.074559 0.781302 0.423703
Si Si4 0.573879 0.478069 0.541578
Si Si5 0.796508 0.879500 0.378539
Si Si6 0.112794 0.785216 0.826074
Si Si7 0.533567 0.360302 0.270663
Si Si8 0.121375 0.640137 0.311170
O O1 0.585363 0.299128 0.754567
O O2 0.711125 0.010179 0.015872
O O3 0.000000 0.000000 0.500000
O O4 0.900511 0.871842 0.690488
O O5 0.652154 0.850983 0.612510
O O6 0.697538 0.621706 0.673427
O O7 0.500000 0.000000 0.500000
O O8 0.344970 0.548843 0.277150
O O9 0.004611 0.743233 0.487009
O O10 0.066469 0.955799 0.210701
O O11 0.331067 0.695213 0.630754
O O12 0.792165 0.359946 0.256233
O O13 0.595132 0.551888 0.518473
O O14 0.914479 0.763932 0.426554
O O15 0.624144 0.139462 0.356342
O O16 0.994115 0.755325 0.121101
O O17 0.748569 0.309811 0.986923
#
# Coordination Sequence:
#
# PCOD8003253 Si02
#       8
#     2   2   2   2   2   2   2   2
#     4  11  22  44  70  97 132 178 222 275 335 400
#     4  12  28  44  68 101 135 174 224 277 344 402
#     4  11  23  36  68  95 130 169 231 273 323 378
#     4  10  20  36  64  95 130 166 230 263 317 393
#     4  12  25  41  66  97 141 173 220 283 342 388
#     4  10  21  36  60 100 129 172 211 276 328 384
#     4  12  21  38  66 102 129 173 229 278 320 395
#     4  12  23  44  63  97 136 182 220 272 334 403
#
# _framework density 21.527984
#
# number of rings (size 3 to 8) (size 9 to 14) (size 15 to 20)
#    0.000    0.750    5.000    2.625    5.250    0.000 
#    0.000    4.375    0.000    0.000    0.000    0.000 
#    0.000    0.000    0.000    0.000    0.000    0.000 
#
# Total GULP energy -198422.363097 kJ/mol
# GULP energy per Si atom -12401.397694 kJ/mol
# Density = 2.147899 g / cm^3
# Si number density = 21.527984 Si / 1000 Ang^3
#
#
#
# Elastic Constant Matrix: (Units=GPa)
#
#
# Indices 1 2 3 4 5 6 
#
# 1 143.9170 33.5740 56.8491 11.0692 17.7990 14.9385
# 2 33.5740 93.8739 32.3789 11.4202 10.1990 10.4436
# 3 56.8491 32.3789 95.0716 5.5380 11.7442 9.2031
# 4 11.0692 11.4202 5.5380 21.9899 1.2504 -2.3357
# 5 17.7990 10.1990 11.7442 1.2504 37.3877 5.4084
# 6 14.9385 10.4436 9.2031 -2.3357 5.4084 46.7904
#
#
#
# Elastic Compliance Matrix: (Units=1/GPa)
#
#
# Indices 1 2 3 4 5 6 
#
# 1 0.009859 -0.000962 -0.004886 -0.003285 -0.002519 -0.001845
# 2 -0.000962 0.013201 -0.003181 -0.005701 -0.001648 -0.002108
# 3 -0.004886 -0.003181 0.014711 0.000438 -0.001378 -0.000442
# 4 -0.003285 -0.005701 0.000438 0.050441 0.000617 0.004682
# 5 -0.002519 -0.001648 -0.001378 0.000617 0.029081 -0.001887
# 6 -0.001845 -0.002108 -0.000442 0.004682 -0.001887 0.022970
#
#
# Mechanical properties :
#
#
# Convention : Reuss Voigt Hill
#
# Bulk Modulus (GPa) = 50.73028 64.27405 57.50216
# Shear Modulus (GPa) = 30.32278 35.23763 32.78020
#
# Velocity S-wave (km/s) = 3.75711 4.05016 3.90639
# Velocity P-wave (km/s) = 6.51438 7.19671 6.86403
#
# Compressibility (1/GPa) = 0.01971209
#
# Stress axis : x y z
#
# Youngs Moduli (GPa) = 101.43246 75.75251 67.97593
#
# Poissons Ratio (x) = 0.07287 0.33216
# Poissons Ratio (y) = 0.09758 0.21623
# Poissons Ratio (z) = 0.49564 0.24096
#
# Static dielectric constant tensor:
#      x y z
#    x 4.307040 0.051450 0.218170 
#    y 0.051450 4.091790 0.196500 
#    z 0.218170 0.196500 3.602130 
# 
# 
# High freq. dielectric constant tensor:
#      x y z
#    x 1.869540 -0.002030 0.015810 
#    y -0.002030 1.856010 0.022870 
#    z 0.015810 0.022870 1.799360 
# 
# From -- ./inp_files/350190.got.cif
#   From: 2010.06.25/outbox.cif.g09.slc.cpg/sg2_176_cif.got.tgz:350190.got - 2010.06.27 13:26:56.
