data_PCOD8003323
_publ_section_title
;
Structure prediction by ZEFSAII (Michael W. Deem and Ramdas Pophale) SiO2 
 PCOD8003323
Probable space group: P -1
;
_chemical_formula_sum "Si O2"
_cell_formula_units_Z 16
_cell_length_a 9.168321
_cell_length_b 18.967015
_cell_length_c 13.192217
_cell_angle_alpha 48.179436
_cell_angle_beta 50.817327
_cell_angle_gamma 28.266287
_cell_volume 803.163372
_symmetry_space_group_name_H-M "P -1"
_symmetry_group_IT_number 2
_symmetry_cell_setting 'triclinic'
loop_
_space_group_symop_operation_xyz
x,y,z
-x,-y,-z
loop_
_atom_site_type_symbol
_atom_site_label
_atom_site_fract_x
_atom_site_fract_y
_atom_site_fract_z
Si Si1 0.732644 0.980194 0.373227
Si Si2 0.094979 0.353083 0.592887
Si Si3 0.242903 0.399916 0.855978
Si Si4 0.994647 0.349806 0.867385
Si Si5 0.291807 0.633248 0.380406
Si Si6 0.596041 0.728228 0.872470
Si Si7 0.679266 0.302885 0.124758
Si Si8 0.738476 0.113543 0.424830
O O1 0.022878 0.805047 0.377817
O O2 0.500000 0.000000 0.500000
O O3 0.565518 0.105999 0.235603
O O4 0.830676 0.009012 0.392862
O O5 0.410235 0.218059 0.519623
O O6 0.000000 0.500000 0.500000
O O7 0.121361 0.298268 0.746202
O O8 0.829808 0.400588 0.606439
O O9 0.506176 0.372394 0.762925
O O10 0.233182 0.323245 0.847271
O O11 0.922854 0.586240 0.807066
O O12 0.314719 0.315368 0.008105
O O13 0.636112 0.521473 0.869237
O O14 0.975543 0.252470 0.019122
O O15 0.500000 0.500000 0.500000
O O16 0.372358 0.735945 0.919095
O O17 0.756500 0.210922 0.277986
O O18 0.000000 0.000000 0.500000
#
# Coordination Sequence:
#
# PCOD8003323 Si02
#       8
#     2   2   2   2   2   2   2   2
#     4  11  23  43  64  90 130 173 209 270 322 377
#     4  12  24  43  65  97 132 168 211 273 317 386
#     4  10  21  39  65  99 123 166 219 263 312 393
#     4  10  20  36  67  93 129 161 216 264 314 372
#     4  12  26  40  67  95 126 169 222 263 323 381
#     4   9  20  40  64  88 130 165 213 261 323 376
#     4   9  19  39  62  92 124 171 206 261 319 375
#     4  11  25  42  66  95 132 171 212 258 331 386
#
# _framework density 19.921226999999998
#
# number of rings (size 3 to 8) (size 9 to 14) (size 15 to 20)
#    0.000    1.500    2.500    2.250    5.250    2.500 
#    0.000    0.625    0.000    0.000    0.000    0.000 
#    0.000    0.000    0.000    0.000    0.000    0.000 
#
# Total GULP energy -198298.937568 kJ/mol
# GULP energy per Si atom -12393.683598 kJ/mol
# Density = 1.987589 g / cm^3
# Si number density = 19.921227 Si / 1000 Ang^3
#
#
#
# Elastic Constant Matrix: (Units=GPa)
#
#
# Indices 1 2 3 4 5 6 
#
# 1 137.9396 40.3117 57.7416 0.1260 -5.1597 -4.6698
# 2 40.3117 91.5791 39.9934 -13.5046 -1.2273 3.3198
# 3 57.7416 39.9934 125.4656 -4.0137 -7.3128 -1.3927
# 4 0.1260 -13.5046 -4.0137 30.3617 -4.2431 3.3963
# 5 -5.1597 -1.2273 -7.3128 -4.2431 45.5036 0.5580
# 6 -4.6698 3.3198 -1.3927 3.3963 0.5580 27.8017
#
#
#
# Elastic Compliance Matrix: (Units=1/GPa)
#
#
# Indices 1 2 3 4 5 6 
#
# 1 0.009710 -0.003126 -0.003503 -0.002094 0.000233 0.002080
# 2 -0.003126 0.014721 -0.003069 0.006545 0.000199 -0.003240
# 3 -0.003503 -0.003069 0.010643 0.000201 0.001246 0.000262
# 4 -0.002094 0.006545 0.000201 0.037010 0.003493 -0.005715
# 5 0.000233 0.000199 0.001246 0.003493 0.022544 -0.000801
# 6 0.002080 -0.003240 0.000262 -0.005715 -0.000801 0.037433
#
#
# Mechanical properties :
#
#
# Convention : Reuss Voigt Hill
#
# Bulk Modulus (GPa) = 63.77935 70.11974 66.94955
# Shear Modulus (GPa) = 31.91187 35.19592 33.55389
#
# Velocity S-wave (km/s) = 4.00672 4.20784 4.10851
# Velocity P-wave (km/s) = 7.31371 7.67351 7.49577
#
# Compressibility (1/GPa) = 0.01567906
#
# Stress axis : x y z
#
# Youngs Moduli (GPa) = 102.98309 67.93047 93.96203
#
# Poissons Ratio (x) = 0.21233 0.32913
# Poissons Ratio (y) = 0.32189 0.28836
# Poissons Ratio (z) = 0.36073 0.20847
#
# Static dielectric constant tensor:
#      x y z
#    x 3.784690 0.054410 -0.229820 
#    y 0.054410 3.459160 -0.064100 
#    z -0.229820 -0.064100 3.918060 
# 
# 
# High freq. dielectric constant tensor:
#      x y z
#    x 1.787220 0.003240 -0.004540 
#    y 0.003240 1.763070 -0.002080 
#    z -0.004540 -0.002080 1.792330 
# 
# From -- ./inp_files/244584.got.cif
#   From: 2010.06.25/outbox.cif.g09.slc.cpg/sg2_123_cif.got.tgz:244584.got - 2010.06.27 13:26:56.
