data_PCOD8003201
_publ_section_title
;
Structure prediction by ZEFSAII (Michael W. Deem and Ramdas Pophale) SiO2 
 PCOD8003201
Probable space group: P -1
;
_chemical_formula_sum "Si O2"
_cell_formula_units_Z 14
_cell_length_a 8.259715
_cell_length_b 9.111608
_cell_length_c 13.910863
_cell_angle_alpha 54.139056
_cell_angle_beta 98.844859
_cell_angle_gamma 129.848446
_cell_volume 608.687408
_symmetry_space_group_name_H-M "P -1"
_symmetry_group_IT_number 2
_symmetry_cell_setting 'triclinic'
loop_
_space_group_symop_operation_xyz
x,y,z
-x,-y,-z
loop_
_atom_site_type_symbol
_atom_site_label
_atom_site_fract_x
_atom_site_fract_y
_atom_site_fract_z
Si Si1 0.263747 0.724149 0.930131
Si Si2 0.204908 0.902794 0.512269
Si Si3 0.539820 0.751106 0.266040
Si Si4 0.670108 0.544448 0.827498
Si Si5 0.578537 0.868495 0.745799
Si Si6 0.116049 0.608601 0.367561
Si Si7 0.119914 0.051357 0.624262
O O1 0.343360 0.752930 0.815812
O O2 0.340009 0.980930 0.871600
O O3 0.386734 0.673076 0.030206
O O4 0.000000 0.500000 0.000000
O O5 0.086642 0.616657 0.635759
O O6 0.006096 0.864485 0.453421
O O7 0.410320 0.046542 0.397255
O O8 0.271862 0.069380 0.547980
O O9 0.461257 0.563713 0.244062
O O10 0.330931 0.643116 0.356323
O O11 0.716766 0.775496 0.338829
O O12 0.589439 0.661386 0.831391
O O13 0.938002 0.761134 0.750574
O O14 0.787512 0.111992 0.735851
O O15 0.000000 0.500000 0.500000
#
# Coordination Sequence:
#
# PCOD8003201 Si02
#       7
#     2   2   2   2   2   2   2
#     4  11  22  41  66  89 124 161 209 260 305 363
#     4   9  18  38  62  91 129 158 200 251 306 365
#     4  11  22  38  65  92 120 166 209 247 313 364
#     4  11  21  41  66  90 126 161 207 256 308 360
#     4   9  21  38  65  91 123 166 200 255 311 359
#     4   9  18  37  59  87 125 162 200 245 304 365
#     4  10  20  36  63  96 123 160 203 252 302 367
#
# _framework density 23.000311
#
# number of rings (size 3 to 8) (size 9 to 14) (size 15 to 20)
#    0.000    2.000    2.857    0.857    0.000    0.571 
#    0.000    8.571   25.143    0.000    0.000    0.000 
#    0.000    0.000    0.000    0.000    0.000    0.000 
#
# Total GULP energy -173438.313401 kJ/mol
# GULP energy per Si atom -12388.450957 kJ/mol
# Density = 2.294796 g / cm^3
# Si number density = 23.000311 Si / 1000 Ang^3
#
#
#
# Elastic Constant Matrix: (Units=GPa)
#
#
# Indices 1 2 3 4 5 6 
#
# 1 46.3775 36.6122 22.8393 -1.2537 -24.2538 -13.4913
# 2 36.6122 115.1601 26.2088 5.0040 -10.4523 -1.5227
# 3 22.8393 26.2088 90.0045 -11.8411 -21.2448 1.4763
# 4 -1.2537 5.0040 -11.8411 35.4644 -1.1286 0.6360
# 5 -24.2538 -10.4523 -21.2448 -1.1286 45.1768 -0.4077
# 6 -13.4913 -1.5227 1.4763 0.6360 -0.4077 32.0395
#
#
#
# Elastic Compliance Matrix: (Units=1/GPa)
#
#
# Indices 1 2 3 4 5 6 
#
# 1 0.053402 -0.013754 -0.003880 0.002895 0.023936 0.022259
# 2 -0.013754 0.013066 -0.001901 -0.003044 -0.005377 -0.005091
# 3 -0.003880 -0.001901 0.014388 0.005117 0.004349 -0.002434
# 4 0.002895 -0.003044 0.005117 0.030561 0.004023 0.000283
# 5 0.023936 -0.005377 0.004349 0.004023 0.035977 0.010001
# 6 0.022259 -0.005091 -0.002434 0.000283 0.010001 0.040576
#
#
# Mechanical properties :
#
#
# Convention : Reuss Voigt Hill
#
# Bulk Modulus (GPa) = 23.93129 46.98475 35.45802
# Shear Modulus (GPa) = 20.74964 33.59494 27.17229
#
# Velocity S-wave (km/s) = 3.00683 3.82596 3.44086
# Velocity P-wave (km/s) = 4.74153 6.32373 5.58890
#
# Compressibility (1/GPa) = 0.04178630
#
# Stress axis : x y z
#
# Youngs Moduli (GPa) = 18.72603 76.53642 69.50025
#
# Poissons Ratio (x) = 1.05265 0.26969
# Poissons Ratio (y) = 0.25755 0.13210
# Poissons Ratio (z) = 0.07267 0.14547
#
# Static dielectric constant tensor:
#      x y z
#    x 3.930280 -0.331810 -0.163540 
#    y -0.331810 4.452660 -0.376660 
#    z -0.163540 -0.376660 4.456310 
# 
# 
# High freq. dielectric constant tensor:
#      x y z
#    x 1.889150 -0.023630 -0.017870 
#    y -0.023630 1.908410 -0.021110 
#    z -0.017870 -0.021110 1.906100 
# 
# From -- ./inp_files/461256.got.cif
#   From: 2010.06.25/outbox.cif.g09.slc.cpg/sg2_231_cif.got.tgz:461256.got - 2010.06.27 13:26:56.
