data_PCOD8003021
_publ_section_title
;
Structure prediction by ZEFSAII (Michael W. Deem and Ramdas Pophale) SiO2 
 PCOD8003021
Probable space group: P -1
;
_chemical_formula_sum "Si O2"
_cell_formula_units_Z 16
_cell_length_a 12.588242
_cell_length_b 14.448110
_cell_length_c 7.810511
_cell_angle_alpha 101.992350
_cell_angle_beta 89.583989
_cell_angle_gamma 148.635437
_cell_volume 681.643144
_symmetry_space_group_name_H-M "P -1"
_symmetry_group_IT_number 2
_symmetry_cell_setting 'triclinic'
loop_
_space_group_symop_operation_xyz
x,y,z
-x,-y,-z
loop_
_atom_site_type_symbol
_atom_site_label
_atom_site_fract_x
_atom_site_fract_y
_atom_site_fract_z
Si Si1 0.016450 0.744122 0.998283
Si Si2 0.801213 0.910680 0.916351
Si Si3 0.768257 0.091742 0.587998
Si Si4 0.358109 0.774044 0.179867
Si Si5 0.211685 0.107595 0.490021
Si Si6 0.067046 0.580990 0.800905
Si Si7 0.329186 0.827878 0.596904
Si Si8 0.517384 0.335932 0.870347
O O1 0.132994 0.802275 0.192268
O O2 0.761060 0.564745 0.964133
O O3 0.128237 0.925574 0.994967
O O4 0.054680 0.685928 0.849543
O O5 0.729075 0.835619 0.690504
O O6 0.603968 0.731413 0.976820
O O7 0.000000 0.000000 0.000000
O O8 0.842133 0.228676 0.504869
O O9 0.839237 0.041220 0.522629
O O10 0.500150 0.898381 0.503854
O O11 0.500051 0.790405 0.201776
O O12 0.183025 0.651161 0.296365
O O13 0.499888 0.976185 0.217646
O O14 0.191477 0.625285 0.969377
O O15 0.402408 0.291760 0.685389
O O16 0.000000 0.000000 0.500000
O O17 0.196318 0.654976 0.655292
#
# Coordination Sequence:
#
# PCOD8003021 Si02
#       8
#     2   2   2   2   2   2   2   2
#     4  10  23  42  63  95 129 161 217 258 317 390
#     4  11  24  44  70  94 122 170 213 263 331 375
#     4  10  23  39  60  95 128 164 213 267 314 378
#     4  10  20  36  61  91 128 164 212 250 315 384
#     4  11  23  44  67  95 127 165 219 268 316 384
#     4  10  21  35  62  92 123 171 205 254 311 383
#     4  11  20  38  62  88 130 168 206 257 321 375
#     4  11  23  44  67  92 132 172 203 271 317 377
#
# _framework density 23.472691999999999
#
# number of rings (size 3 to 8) (size 9 to 14) (size 15 to 20)
#    0.000    1.500    3.750    1.125    3.500    0.500 
#    4.500    3.125    0.000    0.000    0.000    0.000 
#    0.000    0.000    0.000    0.000    0.000    0.000 
#
# Total GULP energy -198324.835586 kJ/mol
# GULP energy per Si atom -12395.302224 kJ/mol
# Density = 2.341927 g / cm^3
# Si number density = 23.472692 Si / 1000 Ang^3
#
#
#
# Elastic Constant Matrix: (Units=GPa)
#
#
# Indices 1 2 3 4 5 6 
#
# 1 100.4093 4.4486 32.1460 2.0416 15.8884 15.4889
# 2 4.4486 96.4665 40.6109 -8.4892 9.6824 15.5913
# 3 32.1460 40.6109 108.3055 -3.9667 22.1412 8.7097
# 4 2.0416 -8.4892 -3.9667 45.1156 5.0994 -5.1811
# 5 15.8884 9.6824 22.1412 5.0994 40.1913 2.1326
# 6 15.4889 15.5913 8.7097 -5.1811 2.1326 30.7888
#
#
#
# Elastic Compliance Matrix: (Units=1/GPa)
#
#
# Indices 1 2 3 4 5 6 
#
# 1 0.012423 0.002098 -0.003360 -0.000831 -0.003127 -0.006285
# 2 0.002098 0.013596 -0.004911 0.001459 -0.001255 -0.006219
# 3 -0.003360 -0.004911 0.013020 0.001036 -0.004846 0.001004
# 4 -0.000831 0.001459 0.001036 0.023404 -0.003753 0.003585
# 5 -0.003127 -0.001255 -0.004846 -0.003753 0.029517 0.000903
# 6 -0.006285 -0.006219 0.001004 0.003585 0.000903 0.039047
#
#
# Mechanical properties :
#
#
# Convention : Reuss Voigt Hill
#
# Bulk Modulus (GPa) = 37.46182 51.06581 44.26381
# Shear Modulus (GPa) = 32.84053 38.41753 35.62903
#
# Velocity S-wave (km/s) = 3.74451 4.04999 3.90024
# Velocity P-wave (km/s) = 5.88978 6.60852 6.25947
#
# Compressibility (1/GPa) = 0.02669384
#
# Stress axis : x y z
#
# Youngs Moduli (GPa) = 80.49542 73.54880 76.80712
#
# Poissons Ratio (x) = -0.15431 0.25806
# Poissons Ratio (y) = -0.16888 0.37719
# Poissons Ratio (z) = 0.27045 0.36119
#
# Static dielectric constant tensor:
#      x y z
#    x 4.190420 0.128270 0.137930 
#    y 0.128270 4.130370 0.105640 
#    z 0.137930 0.105640 4.604850 
# 
# 
# High freq. dielectric constant tensor:
#      x y z
#    x 1.925840 0.009570 0.010080 
#    y 0.009570 1.914630 0.014070 
#    z 0.010080 0.014070 1.963050 
# 
# From -- ./inp_files/273410.got.cif
#   From: 2010.06.25/outbox.cif.g09.slc.cpg/sg2_137_cif.got.tgz:273410.got - 2010.06.27 13:26:56.
