data_PCOD8003324
_publ_section_title
;
Structure prediction by ZEFSAII (Michael W. Deem and Ramdas Pophale) SiO2 
 PCOD8003324
Probable space group: P -1
;
_chemical_formula_sum "Si O2"
_cell_formula_units_Z 16
_cell_length_a 9.656838
_cell_length_b 8.970211
_cell_length_c 22.166802
_cell_angle_alpha 25.638382
_cell_angle_beta 66.686493
_cell_angle_gamma 70.581445
_cell_volume 761.572740
_symmetry_space_group_name_H-M "P -1"
_symmetry_group_IT_number 2
_symmetry_cell_setting 'triclinic'
loop_
_space_group_symop_operation_xyz
x,y,z
-x,-y,-z
loop_
_atom_site_type_symbol
_atom_site_label
_atom_site_fract_x
_atom_site_fract_y
_atom_site_fract_z
Si Si1 0.324357 0.344544 0.288036
Si Si2 0.100235 0.818589 0.342150
Si Si3 0.907713 0.150470 0.160631
Si Si4 0.263483 0.293590 0.450885
Si Si5 0.644018 0.226290 0.273693
Si Si6 0.761847 0.963089 0.011464
Si Si7 0.915038 0.888129 0.129782
Si Si8 0.970376 0.852785 0.649011
O O1 0.355728 0.362491 0.348257
O O2 0.471129 0.162121 0.303230
O O3 0.169407 0.114661 0.384939
O O4 0.313871 0.718969 0.123009
O O5 0.259717 0.659155 0.354596
O O6 0.000000 0.500000 0.500000
O O7 0.105756 0.126982 0.278023
O O8 0.031299 0.936682 0.249042
O O9 0.761152 0.177165 0.217931
O O10 0.848056 0.933126 0.191544
O O11 0.000000 0.500000 0.000000
O O12 0.329700 0.012679 0.585892
O O13 0.093253 0.168515 0.504551
O O14 0.652872 0.623466 0.148299
O O15 0.796119 0.041517 0.047757
O O16 0.923606 0.892585 0.979034
O O17 0.945620 0.497964 0.247085
#
# Coordination Sequence:
#
# PCOD8003324 Si02
#       8
#     2   2   2   2   2   2   2   2
#     4  11  25  38  65  93 126 164 206 250 319 367
#     4  10  20  39  64  92 121 157 206 263 301 349
#     4  12  23  37  65  94 123 160 208 252 309 364
#     4  11  22  43  66  90 121 168 210 253 305 370
#     4  12  23  44  59  92 132 164 198 261 310 371
#     4  10  20  40  62  90 123 157 208 260 300 367
#     4  10  20  36  67  95 116 160 214 254 301 355
#     4  10  20  41  66  91 122 157 209 258 297 359
#
# _framework density 21.009155
#
# number of rings (size 3 to 8) (size 9 to 14) (size 15 to 20)
#    0.000    1.250    5.000    2.625    3.500    1.000 
#    0.000    2.500    0.000    0.000    0.000    0.000 
#    0.000    0.000    0.000    0.000    0.000    0.000 
#
# Total GULP energy -198252.343509 kJ/mol
# GULP energy per Si atom -12390.771469 kJ/mol
# Density = 2.096134 g / cm^3
# Si number density = 21.009155 Si / 1000 Ang^3
#
#
#
# Elastic Constant Matrix: (Units=GPa)
#
#
# Indices 1 2 3 4 5 6 
#
# 1 87.6352 27.5540 31.9975 0.2257 20.5833 -7.8888
# 2 27.5540 133.4817 50.3382 9.8258 22.6650 7.0513
# 3 31.9975 50.3382 108.1980 7.2333 30.7580 3.7355
# 4 0.2257 9.8258 7.2333 32.6920 8.0823 5.9613
# 5 20.5833 22.6650 30.7580 8.0823 23.9070 3.2880
# 6 -7.8888 7.0513 3.7355 5.9613 3.2880 21.1830
#
#
#
# Elastic Compliance Matrix: (Units=1/GPa)
#
#
# Indices 1 2 3 4 5 6 
#
# 1 0.015954 -0.001336 -0.000706 0.002321 -0.013439 0.007943
# 2 -0.001336 0.009683 -0.002941 -0.000924 -0.003606 -0.002382
# 3 -0.000706 -0.002941 0.015614 0.001675 -0.017284 0.000174
# 4 0.002321 -0.000924 0.001675 0.035249 -0.014255 -0.006830
# 5 -0.013439 -0.003606 -0.017284 -0.014255 0.085247 -0.009977
# 6 0.007943 -0.002382 0.000174 -0.006830 -0.009977 0.054399
#
#
# Mechanical properties :
#
#
# Convention : Reuss Voigt Hill
#
# Bulk Modulus (GPa) = 31.96200 61.01048 46.48624
# Shear Modulus (GPa) = 21.13817 30.18475 25.66146
#
# Velocity S-wave (km/s) = 3.17541 3.79455 3.49870
# Velocity P-wave (km/s) = 5.35637 6.94990 6.20451
#
# Compressibility (1/GPa) = 0.03128716
#
# Stress axis : x y z
#
# Youngs Moduli (GPa) = 62.67945 103.27895 64.04312
#
# Poissons Ratio (x) = 0.13796 0.04520
# Poissons Ratio (y) = 0.08373 0.18832
# Poissons Ratio (z) = 0.04424 0.30369
#
# Static dielectric constant tensor:
#      x y z
#    x 3.631060 0.023010 0.085760 
#    y 0.023010 4.457640 0.037410 
#    z 0.085760 0.037410 3.733480 
# 
# 
# High freq. dielectric constant tensor:
#      x y z
#    x 1.795930 0.001080 0.018460 
#    y 0.001080 1.826790 0.006370 
#    z 0.018460 0.006370 1.827960 
# 
# From -- ./inp_files/587705.got.cif
#   From: 2010.06.25/outbox.cif.g09.slc.cpg/sg2_294_cif.got.tgz:587705.got - 2010.06.27 13:26:56.
