data_PCOD8003386
_publ_section_title
;
Structure prediction by ZEFSAII (Michael W. Deem and Ramdas Pophale) SiO2 
 PCOD8003386
Probable space group: P -1
;
_chemical_formula_sum "Si O2"
_cell_formula_units_Z 16
_cell_length_a 14.752587
_cell_length_b 11.896890
_cell_length_c 7.547097
_cell_angle_alpha 75.511484
_cell_angle_beta 84.403677
_cell_angle_gamma 135.662513
_cell_volume 818.072085
_symmetry_space_group_name_H-M "P -1"
_symmetry_group_IT_number 2
_symmetry_cell_setting 'triclinic'
loop_
_space_group_symop_operation_xyz
x,y,z
-x,-y,-z
loop_
_atom_site_type_symbol
_atom_site_label
_atom_site_fract_x
_atom_site_fract_y
_atom_site_fract_z
Si Si1 0.850595 0.704942 0.642598
Si Si2 0.184669 0.721741 0.710553
Si Si3 0.744218 0.255933 0.695283
Si Si4 0.591564 0.340810 0.678507
Si Si5 0.331151 0.070272 0.042990
Si Si6 0.829474 0.946315 0.623588
Si Si7 0.679010 0.925056 0.349806
Si Si8 0.881198 0.505155 0.896549
O O1 0.732161 0.559076 0.572256
O O2 0.822343 0.800920 0.698521
O O3 0.835654 0.593877 0.842969
O O4 0.007672 0.851368 0.469298
O O5 0.166298 0.666650 0.533156
O O6 0.049283 0.660867 0.833818
O O7 0.314413 0.939139 0.620854
O O8 0.205528 0.627882 0.865089
O O9 0.624739 0.236607 0.698289
O O10 0.851114 0.398540 0.771675
O O11 0.673705 0.064798 0.830545
O O12 0.489564 0.273567 0.556511
O O13 0.497980 0.266044 0.906624
O O14 0.259382 0.087850 0.186075
O O15 0.254153 0.006406 0.889762
O O16 0.763026 0.915908 0.458668
#
# Coordination Sequence:
#
# PCOD8003386 Si02
#       8
#     2   2   2   2   2   2   2   2
#     4  10  22  42  64  89 119 157 206 255 286 351
#     4  11  20  33  62  90 122 158 193 242 306 362
#     4  11  19  36  58  90 120 158 194 244 304 352
#     4   9  23  39  57  92 127 150 198 255 297 350
#     4  10  21  39  62  88 124 163 194 242 306 359
#     4  11  22  43  68  81 117 169 206 238 299 356
#     4  10  21  40  58  91 120 158 199 242 298 364
#     4  10  20  37  55  92 126 150 194 254 297 354
#
# _framework density 19.558181000000001
#
# number of rings (size 3 to 8) (size 9 to 14) (size 15 to 20)
#    0.750    1.000    3.750    0.750    0.000    2.500 
#    4.500    5.000    0.000    0.000    0.000    0.000 
#    0.000    0.000    0.000    0.000    0.000    0.000 
#
# Total GULP energy -198289.123972 kJ/mol
# GULP energy per Si atom -12393.070248 kJ/mol
# Density = 1.951367 g / cm^3
# Si number density = 19.558181 Si / 1000 Ang^3
#
#
#
# Elastic Constant Matrix: (Units=GPa)
#
#
# Indices 1 2 3 4 5 6 
#
# 1 90.0461 44.3157 34.3837 -7.9195 -1.5485 0.3418
# 2 44.3157 101.4568 36.2132 -9.0948 7.0315 14.6344
# 3 34.3837 36.2132 85.4442 11.2455 11.1012 0.7524
# 4 -7.9195 -9.0948 11.2455 32.6473 1.4633 -1.7720
# 5 -1.5485 7.0315 11.1012 1.4633 29.6145 -1.9163
# 6 0.3418 14.6344 0.7524 -1.7720 -1.9163 34.6111
#
#
#
# Elastic Compliance Matrix: (Units=1/GPa)
#
#
# Indices 1 2 3 4 5 6 
#
# 1 0.016286 -0.005512 -0.005332 0.004215 0.004128 0.002730
# 2 -0.005512 0.015320 -0.004401 0.004236 -0.002891 -0.006271
# 3 -0.005332 -0.004401 0.017487 -0.008260 -0.005328 0.000816
# 4 0.004215 0.004236 -0.008260 0.035664 0.000562 0.000204
# 5 0.004128 -0.002891 -0.005328 0.000562 0.036857 0.003367
# 6 0.002730 -0.006271 0.000816 0.000204 0.003367 0.031696
#
#
# Mechanical properties :
#
#
# Convention : Reuss Voigt Hill
#
# Bulk Modulus (GPa) = 53.76235 56.30802 55.03519
# Shear Modulus (GPa) = 26.31567 30.17689 28.24628
#
# Velocity S-wave (km/s) = 3.67209 3.93227 3.80441
# Velocity P-wave (km/s) = 6.74738 7.03346 6.89190
#
# Compressibility (1/GPa) = 0.01860038
#
# Stress axis : x y z
#
# Youngs Moduli (GPa) = 61.40354 65.27569 57.18577
#
# Poissons Ratio (x) = 0.35982 0.30494
# Poissons Ratio (y) = 0.33847 0.25169
# Poissons Ratio (z) = 0.32743 0.28730
#
# Static dielectric constant tensor:
#      x y z
#    x 3.521430 0.090880 0.121660 
#    y 0.090880 3.539350 -0.048730 
#    z 0.121660 -0.048730 3.413770 
# 
# 
# High freq. dielectric constant tensor:
#      x y z
#    x 1.758390 0.007110 0.007260 
#    y 0.007110 1.760480 -0.004870 
#    z 0.007260 -0.004870 1.743980 
# 
# From -- ./inp_files/302840.got.cif
#   From: 2010.06.25/outbox.cif.g09.slc.cpg/sg2_152_cif.got.tgz:302840.got - 2010.06.27 13:26:56.
