data_PCOD8003553
_publ_section_title
;
Structure prediction by ZEFSAII (Michael W. Deem and Ramdas Pophale) SiO2 
 PCOD8003553
Probable space group: P -1
;
_chemical_formula_sum "Si O2"
_cell_formula_units_Z 16
_cell_length_a 6.860344
_cell_length_b 20.867055
_cell_length_c 8.692967
_cell_angle_alpha 126.179312
_cell_angle_beta 52.031051
_cell_angle_gamma 105.569902
_cell_volume 783.046293
_symmetry_space_group_name_H-M "P -1"
_symmetry_group_IT_number 2
_symmetry_cell_setting 'triclinic'
loop_
_space_group_symop_operation_xyz
x,y,z
-x,-y,-z
loop_
_atom_site_type_symbol
_atom_site_label
_atom_site_fract_x
_atom_site_fract_y
_atom_site_fract_z
Si Si1 0.084500 0.290507 0.135742
Si Si2 0.784418 0.455641 0.472637
Si Si3 0.047977 0.805985 0.656776
Si Si4 0.860803 0.182784 0.867626
Si Si5 0.363027 0.701448 0.118046
Si Si6 0.761876 0.466312 0.136839
Si Si7 0.727266 0.085440 0.067912
Si Si8 0.827554 0.917787 0.668350
O O1 0.849759 0.361393 0.345329
O O2 0.092756 0.244438 0.228221
O O3 0.341119 0.327239 0.047863
O O4 0.062481 0.230482 0.919528
O O5 0.781867 0.472071 0.316986
O O6 0.506361 0.484693 0.717958
O O7 0.000000 0.500000 0.500000
O O8 0.268981 0.746953 0.383731
O O9 0.154181 0.877839 0.791768
O O10 0.857368 0.846674 0.678794
O O11 0.679724 0.241137 0.928009
O O12 0.001900 0.107976 0.597895
O O13 0.698316 0.147476 0.027251
O O14 0.221582 0.625190 0.056473
O O15 0.000000 0.500000 0.000000
O O16 0.458009 0.067599 0.227036
O O17 0.897501 0.001354 0.819550
#
# Coordination Sequence:
#
# PCOD8003553 Si02
#       8
#     2   2   2   2   2   2   2   2
#     4  11  22  40  62  86 121 159 198 245 295 353
#     4  11  24  44  64  88 122 159 200 247 301 361
#     4  10  23  36  58  90 117 154 194 244 295 348
#     4  10  21  38  57  88 117 156 195 244 295 347
#     4  11  22  40  60  86 123 155 197 248 295 352
#     4  11  26  43  63  92 121 158 202 249 302 359
#     4  10  20  37  59  85 115 156 196 239 290 350
#     4  10  20  37  59  84 119 153 195 242 289 348
#
# _framework density 20.433021
#
# number of rings (size 3 to 8) (size 9 to 14) (size 15 to 20)
#    0.000    1.500    2.500    2.250    1.750    1.500 
#    9.000    0.000    0.000   12.000    0.000    0.000 
#    0.000    0.000    0.000    0.000    0.000    0.000 
#
# Total GULP energy -198430.667998 kJ/mol
# GULP energy per Si atom -12401.916750 kJ/mol
# Density = 2.038651 g / cm^3
# Si number density = 20.433021 Si / 1000 Ang^3
#
#
#
# Elastic Constant Matrix: (Units=GPa)
#
#
# Indices 1 2 3 4 5 6 
#
# 1 76.9530 23.5106 38.4923 -4.9355 -4.3541 12.0111
# 2 23.5106 64.3612 33.2824 9.0974 -2.0199 12.6517
# 3 38.4923 33.2824 102.4608 11.8643 1.4940 7.6325
# 4 -4.9355 9.0974 11.8643 30.6144 -1.7422 -0.8516
# 5 -4.3541 -2.0199 1.4940 -1.7422 34.4628 -1.2921
# 6 12.0111 12.6517 7.6325 -0.8516 -1.2921 33.4510
#
#
#
# Elastic Compliance Matrix: (Units=1/GPa)
#
#
# Indices 1 2 3 4 5 6 
#
# 1 0.018333 -0.003614 -0.006240 0.006496 0.002571 -0.003527
# 2 -0.003614 0.021048 -0.004450 -0.005245 0.000489 -0.005762
# 3 -0.006240 -0.004450 0.014151 -0.005263 -0.001910 0.000487
# 4 0.006496 -0.005245 -0.005263 0.037517 0.002710 0.001912
# 5 0.002571 0.000489 -0.001910 0.002710 0.029610 0.000541
# 6 -0.003527 -0.005762 0.000487 0.001912 0.000541 0.033299
#
#
# Mechanical properties :
#
#
# Convention : Reuss Voigt Hill
#
# Bulk Modulus (GPa) = 40.12301 48.26061 44.19181
# Shear Modulus (GPa) = 26.19515 29.60494 27.90005
#
# Velocity S-wave (km/s) = 3.58439 3.81054 3.69919
# Velocity P-wave (km/s) = 6.06708 6.55976 6.31823
#
# Compressibility (1/GPa) = 0.02492335
#
# Stress axis : x y z
#
# Youngs Moduli (GPa) = 54.54555 47.51023 70.66828
#
# Poissons Ratio (x) = 0.17171 0.44100
# Poissons Ratio (y) = 0.19713 0.31446
# Poissons Ratio (z) = 0.34039 0.21141
#
# Static dielectric constant tensor:
#      x y z
#    x 3.649340 -0.062960 0.101620 
#    y -0.062960 3.573180 0.174530 
#    z 0.101620 0.174530 3.854660 
# 
# 
# High freq. dielectric constant tensor:
#      x y z
#    x 1.799970 -0.002350 0.008580 
#    y -0.002350 1.795830 0.011340 
#    z 0.008580 0.011340 1.808070 
# 
# From -- ./inp_files/44509.got.cif
#   From: 2010.06.25/outbox.cif.g09.slc.cpg/sg2_23_cif.got.tgz:44509.got - 2010.06.27 13:26:56.
