data_PCOD8003777
_publ_section_title
;
Structure prediction by ZEFSAII (Michael W. Deem and Ramdas Pophale) SiO2 
 PCOD8003777
Probable space group: P -1
;
_chemical_formula_sum "Si O2"
_cell_formula_units_Z 16
_cell_length_a 8.307687
_cell_length_b 23.072881
_cell_length_c 8.473032
_cell_angle_alpha 128.608201
_cell_angle_beta 62.769051
_cell_angle_gamma 139.261038
_cell_volume 827.893404
_symmetry_space_group_name_H-M "P -1"
_symmetry_group_IT_number 2
_symmetry_cell_setting 'triclinic'
loop_
_space_group_symop_operation_xyz
x,y,z
-x,-y,-z
loop_
_atom_site_type_symbol
_atom_site_label
_atom_site_fract_x
_atom_site_fract_y
_atom_site_fract_z
Si Si1 0.919565 0.275664 0.840295
Si Si2 0.658206 0.695201 0.132535
Si Si3 0.802360 0.210153 0.432335
Si Si4 0.486475 0.193464 0.115767
Si Si5 0.300345 0.670123 0.464233
Si Si6 0.849227 0.500617 0.936524
Si Si7 0.633070 0.961513 0.839240
Si Si8 0.895245 0.829075 0.956720
O O1 0.877889 0.224905 0.605073
O O2 0.093025 0.272191 0.860713
O O3 0.656373 0.208325 0.926861
O O4 0.041952 0.389703 0.961735
O O5 0.561680 0.732343 0.358609
O O6 0.438216 0.572847 0.003419
O O7 0.706397 0.744703 0.025552
O O8 0.856905 0.307759 0.508885
O O9 0.507140 0.112586 0.375597
O O10 0.959643 0.197208 0.235976
O O11 0.645737 0.296864 0.321817
O O12 0.391397 0.100112 0.106605
O O13 0.252096 0.168967 0.108025
O O14 0.144444 0.550132 0.310562
O O15 0.000000 0.500000 0.000000
O O16 0.500000 0.000000 0.000000
O O17 0.920483 0.061154 0.852402
#
# Coordination Sequence:
#
# PCOD8003777 Si02
#       8
#     2   2   2   2   2   2   2   2
#     4  12  21  38  61  85 121 157 191 242 290 342
#     4  10  22  38  59  87 116 156 194 238 286 344
#     4  10  20  37  61  86 117 154 194 241 292 341
#     4  11  22  38  61  88 118 156 193 237 290 344
#     4   9  20  38  58  84 119 148 196 237 287 338
#     4  10  20  38  62  83 121 151 195 236 295 340
#     4   9  20  39  60  86 116 151 194 242 289 347
#     4  11  21  40  61  85 119 156 192 241 291 345
#
# _framework density 19.326159000000001
#
# number of rings (size 3 to 8) (size 9 to 14) (size 15 to 20)
#    0.750    1.000    1.250    5.250    0.000    0.500 
#    0.000   13.125    0.000    0.000    0.000    0.000 
#    0.000    0.000    0.000    0.000    0.000    0.000 
#
# Total GULP energy -198297.518411 kJ/mol
# GULP energy per Si atom -12393.594901 kJ/mol
# Density = 1.928217 g / cm^3
# Si number density = 19.326159 Si / 1000 Ang^3
#
#
#
# Elastic Constant Matrix: (Units=GPa)
#
#
# Indices 1 2 3 4 5 6 
#
# 1 107.4971 19.6670 16.5767 5.5104 3.0487 -7.1716
# 2 19.6670 67.2644 15.0509 6.2519 -4.9788 -2.3236
# 3 16.5767 15.0509 73.8758 2.9324 4.8179 -3.2261
# 4 5.5104 6.2519 2.9324 27.3403 2.4044 -4.4615
# 5 3.0487 -4.9788 4.8179 2.4044 30.4744 0.7985
# 6 -7.1716 -2.3236 -3.2261 -4.4615 0.7985 28.4328
#
#
#
# Elastic Compliance Matrix: (Units=1/GPa)
#
#
# Indices 1 2 3 4 5 6 
#
# 1 0.010233 -0.002576 -0.001569 -0.000860 -0.001184 0.002091
# 2 -0.002576 0.016872 -0.002981 -0.003390 0.003759 -0.000247
# 3 -0.001569 -0.002981 0.014724 -0.000170 -0.002673 0.001080
# 4 -0.000860 -0.003390 -0.000170 0.038790 -0.003650 0.005676
# 5 -0.001184 0.003759 -0.002673 -0.003650 0.034305 -0.001831
# 6 0.002091 -0.000247 0.001080 0.005676 -0.001831 0.036742
#
#
# Mechanical properties :
#
#
# Convention : Reuss Voigt Hill
#
# Bulk Modulus (GPa) = 36.26195 39.02516 37.64356
# Shear Modulus (GPa) = 28.55349 30.40568 29.47958
#
# Velocity S-wave (km/s) = 3.84793 3.97078 3.90984
# Velocity P-wave (km/s) = 6.20854 6.42336 6.31686
#
# Compressibility (1/GPa) = 0.02757711
#
# Stress axis : x y z
#
# Youngs Moduli (GPa) = 97.72343 59.27069 67.91794
#
# Poissons Ratio (x) = 0.15271 0.10654
# Poissons Ratio (y) = 0.25178 0.20244
# Poissons Ratio (z) = 0.15329 0.17666
#
# Static dielectric constant tensor:
#      x y z
#    x 3.847950 -0.121860 -0.074000 
#    y -0.121860 3.790270 0.495460 
#    z -0.074000 0.495460 3.760960 
# 
# 
# High freq. dielectric constant tensor:
#      x y z
#    x 1.770080 0.000450 0.002610 
#    y 0.000450 1.736160 0.012980 
#    z 0.002610 0.012980 1.748200 
# 
# From -- ./inp_files/225002.got.cif
#   From: 2010.06.25/outbox.cif.g09.slc.cpg/sg2_113_cif.got.tgz:225002.got - 2010.06.27 13:26:56.
