data_PCOD8003028
_publ_section_title
;
Structure prediction by ZEFSAII (Michael W. Deem and Ramdas Pophale) SiO2 
 PCOD8003028
Probable space group: P -1
;
_chemical_formula_sum "Si O2"
_cell_formula_units_Z 14
_cell_length_a 14.538382
_cell_length_b 12.461105
_cell_length_c 15.113704
_cell_angle_alpha 36.118177
_cell_angle_beta 28.174965
_cell_angle_gamma 51.697562
_cell_volume 718.955116
_symmetry_space_group_name_H-M "P -1"
_symmetry_group_IT_number 2
_symmetry_cell_setting 'triclinic'
loop_
_space_group_symop_operation_xyz
x,y,z
-x,-y,-z
loop_
_atom_site_type_symbol
_atom_site_label
_atom_site_fract_x
_atom_site_fract_y
_atom_site_fract_z
Si Si1 0.966699 0.543880 0.199488
Si Si2 0.988854 0.972970 0.923205
Si Si3 0.445955 0.099993 0.712193
Si Si4 0.291863 0.491495 0.075039
Si Si5 0.641896 0.815088 0.654737
Si Si6 0.346881 0.510992 0.821446
Si Si7 0.521990 0.336574 0.653960
O O1 0.066246 0.507329 0.233060
O O2 0.745923 0.385680 0.475950
O O3 0.115159 0.521725 0.008046
O O4 0.952166 0.755170 0.070039
O O5 0.200281 0.109268 0.610092
O O6 0.792904 0.026709 0.017701
O O7 0.000000 0.000000 0.000000
O O8 0.494204 0.294179 0.483847
O O9 0.474706 0.142813 0.764997
O O10 0.599801 0.988544 0.626486
O O11 0.259113 0.296601 0.286525
O O12 0.423770 0.677229 0.894739
O O13 0.411910 0.488669 0.882679
O O14 0.359356 0.325324 0.879018
O O15 0.500000 0.500000 0.500000
#
# Coordination Sequence:
#
# PCOD8003028 Si02
#       7
#     2   2   2   2   2   2   2
#     4  10  20  38  61  87 115 155 196 239 299 338
#     4  12  23  35  63  93 116 150 197 250 297 342
#     4  11  22  37  60  94 115 152 195 248 293 341
#     4   9  22  41  61  82 115 170 189 236 301 348
#     4  11  22  43  57  84 128 152 197 241 293 355
#     4   9  19  37  61  85 117 151 196 239 288 344
#     4  10  20  36  61  92 118 150 198 244 289 347
#
# _framework density 19.472705000000001
#
# number of rings (size 3 to 8) (size 9 to 14) (size 15 to 20)
#    0.857    0.857    4.286    1.714    0.000    5.143 
#    2.571    3.571    0.000    0.000    0.000    0.000 
#    0.000    0.000    0.000    0.000    0.000    0.000 
#
# Total GULP energy -173506.700459 kJ/mol
# GULP energy per Si atom -12393.335747 kJ/mol
# Density = 1.942838 g / cm^3
# Si number density = 19.472705 Si / 1000 Ang^3
#
#
#
# Elastic Constant Matrix: (Units=GPa)
#
#
# Indices 1 2 3 4 5 6 
#
# 1 85.6752 27.4130 26.1747 -6.2400 -5.9587 -0.5611
# 2 27.4130 101.8977 48.2126 18.7890 10.4929 19.5467
# 3 26.1747 48.2126 55.8080 5.5777 -8.8159 -2.5433
# 4 -6.2400 18.7890 5.5777 25.6593 -4.0245 -2.3311
# 5 -5.9587 10.4929 -8.8159 -4.0245 30.0645 7.4957
# 6 -0.5611 19.5467 -2.5433 -2.3311 7.4957 35.4523
#
#
#
# Elastic Compliance Matrix: (Units=1/GPa)
#
#
# Indices 1 2 3 4 5 6 
#
# 1 0.015293 -0.006096 -0.001924 0.009681 0.005139 0.003015
# 2 -0.006096 0.037213 -0.030940 -0.027262 -0.021935 -0.019989
# 3 -0.001924 -0.030940 0.048211 0.016782 0.022609 0.016810
# 4 0.009681 -0.027262 0.016782 0.062349 0.020683 0.016115
# 5 0.005139 -0.021935 0.022609 0.020683 0.050202 0.004543
# 6 0.003015 -0.019989 0.016810 0.016115 0.004543 0.040580
#
#
# Mechanical properties :
#
#
# Convention : Reuss Voigt Hill
#
# Bulk Modulus (GPa) = 43.86971 49.66461 46.76716
# Shear Modulus (GPa) = 14.73324 27.67394 21.20359
#
# Velocity S-wave (km/s) = 2.75364 3.77392 3.30341
# Velocity P-wave (km/s) = 5.71732 6.67459 6.21441
#
# Compressibility (1/GPa) = 0.02279477
#
# Stress axis : x y z
#
# Youngs Moduli (GPa) = 65.39041 26.87221 20.74218
#
# Poissons Ratio (x) = 0.16382 0.03991
# Poissons Ratio (y) = 0.39864 0.64177
# Poissons Ratio (z) = 0.12583 0.83144
#
# Static dielectric constant tensor:
#      x y z
#    x 3.574860 0.239710 -0.093060 
#    y 0.239710 3.814720 0.181600 
#    z -0.093060 0.181600 3.260570 
# 
# 
# High freq. dielectric constant tensor:
#      x y z
#    x 1.754760 0.011430 -0.014260 
#    y 0.011430 1.766300 0.017860 
#    z -0.014260 0.017860 1.728760 
# 
# From -- ./inp_files/432450.got.cif
#   From: 2010.06.25/outbox.cif.g09.slc.cpg/sg2_217_cif.got.tgz:432450.got - 2010.06.27 13:26:56.
