data_PCOD8003241
_publ_section_title
;
Structure prediction by ZEFSAII (Michael W. Deem and Ramdas Pophale) SiO2 
 PCOD8003241
Probable space group: P -1
;
_chemical_formula_sum "Si O2"
_cell_formula_units_Z 10
_cell_length_a 5.357952
_cell_length_b 11.664650
_cell_length_c 12.136543
_cell_angle_alpha 36.682430
_cell_angle_beta 118.974347
_cell_angle_gamma 114.495199
_cell_volume 395.912275
_symmetry_space_group_name_H-M "P -1"
_symmetry_group_IT_number 2
_symmetry_cell_setting 'triclinic'
loop_
_space_group_symop_operation_xyz
x,y,z
-x,-y,-z
loop_
_atom_site_type_symbol
_atom_site_label
_atom_site_fract_x
_atom_site_fract_y
_atom_site_fract_z
Si Si1 0.391665 0.327816 0.230383
Si Si2 0.224875 0.730408 0.827928
Si Si3 0.219369 0.807764 0.012183
Si Si4 0.920459 0.511905 0.307962
Si Si5 0.200707 0.225341 0.725443
O O1 0.566108 0.192410 0.286943
O O2 0.603206 0.410285 0.308604
O O3 0.107173 0.212945 0.307483
O O4 0.252621 0.501289 0.001319
O O5 0.334708 0.808532 0.910492
O O6 0.463872 0.782575 0.174648
O O7 0.998004 0.623750 0.124125
O O8 0.069861 0.008048 0.848436
O O9 0.950555 0.674529 0.282624
O O10 0.142796 0.348084 0.508288
#
# Coordination Sequence:
#
# PCOD8003241 Si02
#       5
#     2   2   2   2   2
#     4  10  20  36  64  93 121 165 211 256 315 374
#     4  10  20  36  64  93 121 165 211 256 315 374
#     4  11  21  40  62  88 124 161 207 260 308 375
#     4  11  21  40  62  88 124 161 207 260 308 375
#     4  10  24  38  60  92 120 164 210 250 318 368
#
# _framework density 25.258119000000001
#
# number of rings (size 3 to 8) (size 9 to 14) (size 15 to 20)
#    0.000    1.600    2.000    4.800    0.000    0.000 
#    0.000    2.000    0.000    0.000    0.000    2.800 
#    0.000    0.000    0.000    0.000    0.000    0.000 
#
# Total GULP energy -123922.533828 kJ/mol
# GULP energy per Si atom -12392.253383 kJ/mol
# Density = 2.520063 g / cm^3
# Si number density = 25.258119 Si / 1000 Ang^3
#
#
#
# Elastic Constant Matrix: (Units=GPa)
#
#
# Indices 1 2 3 4 5 6 
#
# 1 149.7997 47.1952 42.6532 1.4932 14.8297 -8.2198
# 2 47.1952 106.6359 66.7643 19.6312 10.1494 -3.8095
# 3 42.6532 66.7643 100.5055 -17.4316 12.4548 -5.4687
# 4 1.4932 19.6312 -17.4316 23.0371 -2.8726 1.2615
# 5 14.8297 10.1494 12.4548 -2.8726 27.3461 2.8221
# 6 -8.2198 -3.8095 -5.4687 1.2615 2.8221 33.3128
#
#
#
# Elastic Compliance Matrix: (Units=1/GPa)
#
#
# Indices 1 2 3 4 5 6 
#
# 1 0.008243 -0.002249 -0.001569 -0.000294 -0.003137 0.001796
# 2 -0.002249 0.076188 -0.069015 -0.118137 -0.008240 0.001999
# 3 -0.001569 -0.069015 0.076240 0.117144 0.004104 -0.000547
# 4 -0.000294 -0.118137 0.117144 0.234960 0.015807 -0.004588
# 5 -0.003137 -0.008240 0.004104 0.015807 0.041653 -0.005170
# 6 0.001796 0.001999 -0.000547 -0.004588 -0.005170 0.031212
#
#
# Mechanical properties :
#
#
# Convention : Reuss Voigt Hill
#
# Bulk Modulus (GPa) = 66.64671 74.46293 70.55482
# Shear Modulus (GPa) = 8.07540 30.09442 19.08491
#
# Velocity S-wave (km/s) = 1.79000 3.45552 2.75179
# Velocity P-wave (km/s) = 5.54217 6.74282 6.17176
#
# Compressibility (1/GPa) = 0.01500449
#
# Stress axis : x y z
#
# Youngs Moduli (GPa) = 121.31685 13.12548 13.11642
#
# Poissons Ratio (x) = 0.02952 0.02057
# Poissons Ratio (y) = 0.27287 0.90524
# Poissons Ratio (z) = 0.19029 0.90586
#
# Static dielectric constant tensor:
#      x y z
#    x 4.684560 -0.120090 0.228280 
#    y -0.120090 4.321740 -0.001670 
#    z 0.228280 -0.001670 4.295620 
# 
# 
# High freq. dielectric constant tensor:
#      x y z
#    x 1.997450 -0.009270 0.022400 
#    y -0.009270 2.007150 0.015690 
#    z 0.022400 0.015690 1.976510 
# 
# From -- ./inp_files/24866.got.cif
#   From: 2010.06.25/outbox.cif.g09.slc.cpg/sg2_13_cif.got.tgz:24866.got - 2010.06.27 13:26:56.
