data_PCOD8003538
_publ_section_title
;
Structure prediction by ZEFSAII (Michael W. Deem and Ramdas Pophale) SiO2 
 PCOD8003538
Probable space group: P -1
;
_chemical_formula_sum "Si O2"
_cell_formula_units_Z 16
_cell_length_a 5.329180
_cell_length_b 19.020798
_cell_length_c 11.573744
_cell_angle_alpha 56.246742
_cell_angle_beta 77.532552
_cell_angle_gamma 110.393861
_cell_volume 777.889221
_symmetry_space_group_name_H-M "P -1"
_symmetry_group_IT_number 2
_symmetry_cell_setting 'triclinic'
loop_
_space_group_symop_operation_xyz
x,y,z
-x,-y,-z
loop_
_atom_site_type_symbol
_atom_site_label
_atom_site_fract_x
_atom_site_fract_y
_atom_site_fract_z
Si Si1 0.623846 0.905035 0.737988
Si Si2 0.712374 0.184588 0.733437
Si Si3 0.199349 0.510827 0.642193
Si Si4 0.470307 0.597356 0.284291
Si Si5 0.404330 0.270091 0.526266
Si Si6 0.276164 0.113195 0.503879
Si Si7 0.329393 0.994280 0.804930
Si Si8 0.331330 0.180898 0.968721
O O1 0.527969 0.857213 0.662501
O O2 0.356868 0.905807 0.830711
O O3 0.679949 0.833625 0.877712
O O4 0.913334 0.026039 0.591777
O O5 0.552374 0.228105 0.634016
O O6 0.627356 0.190333 0.869401
O O7 0.088571 0.252030 0.627553
O O8 0.570101 0.066349 0.817115
O O9 0.341092 0.559134 0.459585
O O10 0.302789 0.437274 0.741619
O O11 0.342764 0.606965 0.628802
O O12 0.821837 0.447901 0.734349
O O13 0.674919 0.721097 0.147015
O O14 0.321012 0.215440 0.458987
O O15 0.401938 0.071034 0.622404
O O16 0.975952 0.926633 0.952956
#
# Coordination Sequence:
#
# PCOD8003538 Si02
#       8
#     2   2   2   2   2   2   2   2
#     4  10  20  37  59  82 119 156 198 238 286 340
#     4  11  23  36  58  89 126 153 191 232 294 361
#     4  10  21  37  60  82 113 151 196 242 294 336
#     4  10  22  37  57  85 114 152 193 243 285 356
#     4  11  21  39  62  88 115 157 193 248 290 340
#     4   9  20  38  58  86 113 153 206 240 278 345
#     4  10  21  37  55  88 117 163 191 239 284 349
#     4  11  24  35  56  86 123 157 190 235 300 353
#
# _framework density 20.568481999999999
#
# number of rings (size 3 to 8) (size 9 to 14) (size 15 to 20)
#    0.000    1.750    2.500    1.500    7.000    0.500 
#    0.000    0.000    0.000    1.500    0.000    0.000 
#    0.000    0.000    0.000    0.000    0.000    0.000 
#
# Total GULP energy -198333.791910 kJ/mol
# GULP energy per Si atom -12395.861994 kJ/mol
# Density = 2.052167 g / cm^3
# Si number density = 20.568482 Si / 1000 Ang^3
#
#
#
# Elastic Constant Matrix: (Units=GPa)
#
#
# Indices 1 2 3 4 5 6 
#
# 1 107.0310 29.0728 21.7031 -7.4004 -0.4632 -6.3320
# 2 29.0728 116.3916 40.8731 -0.4194 6.1113 -6.7506
# 3 21.7031 40.8731 57.0066 -3.9911 8.0483 -4.9447
# 4 -7.4004 -0.4194 -3.9911 18.1716 -1.3234 -3.7705
# 5 -0.4632 6.1113 8.0483 -1.3234 12.6463 -3.8175
# 6 -6.3320 -6.7506 -4.9447 -3.7705 -3.8175 29.4108
#
#
#
# Elastic Compliance Matrix: (Units=1/GPa)
#
#
# Indices 1 2 3 4 5 6 
#
# 1 0.010913 -0.001744 -0.002977 0.004613 0.004409 0.002612
# 2 -0.001744 0.011839 -0.007794 -0.002074 -0.000844 0.000656
# 3 -0.002977 -0.007794 0.026355 0.003664 -0.012475 0.000852
# 4 0.004613 -0.002074 0.003664 0.060319 0.008147 0.009924
# 5 0.004409 -0.000844 -0.012475 0.008147 0.091948 0.011637
# 6 0.002612 0.000656 0.000852 0.009924 0.011637 0.037640
#
#
# Mechanical properties :
#
#
# Convention : Reuss Voigt Hill
#
# Bulk Modulus (GPa) = 41.53252 51.52526 46.52889
# Shear Modulus (GPa) = 18.37761 24.63109 21.50435
#
# Velocity S-wave (km/s) = 2.99236 3.46427 3.23693
# Velocity P-wave (km/s) = 5.67231 6.41144 6.05317
#
# Compressibility (1/GPa) = 0.02407752
#
# Stress axis : x y z
#
# Youngs Moduli (GPa) = 91.63327 84.46608 37.94343
#
# Poissons Ratio (x) = 0.14728 0.11297
# Poissons Ratio (y) = 0.15978 0.29572
# Poissons Ratio (z) = 0.27282 0.65831
#
# Static dielectric constant tensor:
#      x y z
#    x 3.772070 -0.068590 -0.033540 
#    y -0.068590 3.920840 -0.079250 
#    z -0.033540 -0.079250 3.458170 
# 
# 
# High freq. dielectric constant tensor:
#      x y z
#    x 1.810230 -0.002460 0.000770 
#    y -0.002460 1.797190 -0.012270 
#    z 0.000770 -0.012270 1.766440 
# 
# From -- ./inp_files/66440.got.cif
#   From: 2010.06.25/outbox.cif.g09.slc.cpg/sg2_34_cif.got.tgz:66440.got - 2010.06.27 13:26:56.
