data_PCOD8003144
_publ_section_title
;
Structure prediction by ZEFSAII (Michael W. Deem and Ramdas Pophale) SiO2 
 PCOD8003144
Probable space group: P -1
;
_chemical_formula_sum "Si O2"
_cell_formula_units_Z 16
_cell_length_a 8.061427
_cell_length_b 14.481344
_cell_length_c 11.166820
_cell_angle_alpha 54.247530
_cell_angle_beta 48.604905
_cell_angle_gamma 55.906761
_cell_volume 760.462338
_symmetry_space_group_name_H-M "P -1"
_symmetry_group_IT_number 2
_symmetry_cell_setting 'triclinic'
loop_
_space_group_symop_operation_xyz
x,y,z
-x,-y,-z
loop_
_atom_site_type_symbol
_atom_site_label
_atom_site_fract_x
_atom_site_fract_y
_atom_site_fract_z
Si Si1 0.779110 0.693745 0.430130
Si Si2 0.338681 0.181094 0.851204
Si Si3 0.782412 0.026791 0.842472
Si Si4 0.243016 0.520750 0.252810
Si Si5 0.972975 0.679500 0.907553
Si Si6 0.882151 0.900996 0.661565
Si Si7 0.281842 0.448534 0.031374
Si Si8 0.251721 0.094403 0.535214
O O1 0.634716 0.763719 0.333386
O O2 0.679734 0.587973 0.606343
O O3 0.768308 0.788970 0.467009
O O4 0.042574 0.630440 0.315913
O O5 0.583893 0.152582 0.828729
O O6 0.147511 0.281452 0.937183
O O7 0.251281 0.061284 0.968310
O O8 0.039543 0.041197 0.712684
O O9 0.717503 0.957095 0.809007
O O10 0.443504 0.580099 0.079564
O O11 0.175416 0.466700 0.202273
O O12 0.060324 0.781969 0.722407
O O13 0.188931 0.567075 0.906704
O O14 0.785240 0.657289 0.921395
O O15 0.759579 0.869457 0.626505
O O16 0.000000 0.000000 0.500000
O O17 0.500000 0.000000 0.500000
#
# Coordination Sequence:
#
# PCOD8003144 Si02
#       8
#     2   2   2   2   2   2   2   2
#     4  11  23  40  60  88 128 157 199 251 306 362
#     4  10  20  39  59  88 118 164 194 249 300 361
#     4   9  21  38  61  84 122 154 208 242 297 363
#     4  10  23  41  59  89 123 162 197 250 307 357
#     4  10  20  36  63  86 115 155 207 248 287 357
#     4   9  19  38  58  85 117 155 198 244 296 356
#     4  10  21  40  62  88 116 159 210 244 298 357
#     4  11  23  38  59  91 121 159 199 251 307 363
#
# _framework density 21.039832000000001
#
# number of rings (size 3 to 8) (size 9 to 14) (size 15 to 20)
#    0.000    2.000    1.250    1.500    1.750    5.500 
#    2.250    0.625    0.000    0.000    0.000    0.000 
#    0.000    0.000    0.000    0.000    0.000    0.000 
#
# Total GULP energy -198212.364176 kJ/mol
# GULP energy per Si atom -12388.272761 kJ/mol
# Density = 2.099194 g / cm^3
# Si number density = 21.039832 Si / 1000 Ang^3
#
#
#
# Elastic Constant Matrix: (Units=GPa)
#
#
# Indices 1 2 3 4 5 6 
#
# 1 61.2929 18.8565 18.4315 1.3126 4.9805 -1.1289
# 2 18.8565 89.2155 24.2331 -0.8340 1.9729 1.4203
# 3 18.4315 24.2331 85.1054 -16.1445 11.7301 -9.3454
# 4 1.3126 -0.8340 -16.1445 32.6095 -7.2355 6.9980
# 5 4.9805 1.9729 11.7301 -7.2355 40.4686 6.4159
# 6 -1.1289 1.4203 -9.3454 6.9980 6.4159 32.8350
#
#
#
# Elastic Compliance Matrix: (Units=1/GPa)
#
#
# Indices 1 2 3 4 5 6 
#
# 1 0.018484 -0.002985 -0.003397 -0.003081 -0.001824 0.000811
# 2 -0.002985 0.012770 -0.003424 -0.000700 0.000874 -0.001651
# 3 -0.003397 -0.003424 0.015517 0.006158 -0.003415 0.003803
# 4 -0.003081 -0.000700 0.006158 0.036831 0.006390 -0.007421
# 5 -0.001824 0.000874 -0.003415 0.006390 0.028287 -0.007961
# 6 0.000811 -0.001651 0.003803 -0.007421 -0.007961 0.034774
#
#
# Mechanical properties :
#
#
# Convention : Reuss Voigt Hill
#
# Bulk Modulus (GPa) = 36.82142 39.85067 38.33605
# Shear Modulus (GPa) = 28.51757 32.78880 30.65318
#
# Velocity S-wave (km/s) = 3.68558 3.95196 3.82109
# Velocity P-wave (km/s) = 5.97078 6.30917 6.14231
#
# Compressibility (1/GPa) = 0.02715810
#
# Stress axis : x y z
#
# Youngs Moduli (GPa) = 54.10009 78.30634 64.44435
#
# Poissons Ratio (x) = 0.23378 0.21893
# Poissons Ratio (y) = 0.16151 0.22068
# Poissons Ratio (z) = 0.18378 0.26815
#
# Static dielectric constant tensor:
#      x y z
#    x 2.866330 -0.675090 -2.267610 
#    y -0.675090 3.184480 -2.324780 
#    z -2.267610 -2.324780 -3.865340 
# 
# 
# High freq. dielectric constant tensor:
#      x y z
#    x 1.800100 -0.002870 0.017230 
#    y -0.002870 1.833920 -0.002310 
#    z 0.017230 -0.002310 1.832320 
# 
# From -- ./inp_files/206982.got.cif
#   From: 2010.06.25/outbox.cif.g09.slc.cpg/sg2_104_cif.got.tgz:206982.got - 2010.06.27 13:26:56.
