data_PCOD8003245
_publ_section_title
;
Structure prediction by ZEFSAII (Michael W. Deem and Ramdas Pophale) SiO2 
 PCOD8003245
Probable space group: P -1
;
_chemical_formula_sum "Si O2"
_cell_formula_units_Z 16
_cell_length_a 8.495652
_cell_length_b 8.881060
_cell_length_c 10.945614
_cell_angle_alpha 114.908504
_cell_angle_beta 90.992748
_cell_angle_gamma 104.864215
_cell_volume 716.524635
_symmetry_space_group_name_H-M "P -1"
_symmetry_group_IT_number 2
_symmetry_cell_setting 'triclinic'
loop_
_space_group_symop_operation_xyz
x,y,z
-x,-y,-z
loop_
_atom_site_type_symbol
_atom_site_label
_atom_site_fract_x
_atom_site_fract_y
_atom_site_fract_z
Si Si1 0.860808 0.357035 0.515240
Si Si2 0.083250 0.135463 0.450416
Si Si3 0.264869 0.979736 0.211252
Si Si4 0.681271 0.001136 0.044943
Si Si5 0.355784 0.379883 0.703785
Si Si6 0.607841 0.261529 0.288123
Si Si7 0.290964 0.639332 0.231586
Si Si8 0.679185 0.634651 0.034753
O O1 0.686116 0.339227 0.444161
O O2 0.839511 0.389284 0.669462
O O3 0.000000 0.500000 0.500000
O O4 0.925789 0.194867 0.434602
O O5 0.242477 0.279198 0.557448
O O6 0.128716 0.042421 0.301385
O O7 0.000000 0.000000 0.500000
O O8 0.288450 0.805224 0.208200
O O9 0.205293 0.954062 0.059863
O O10 0.432068 0.134080 0.274321
O O11 0.681013 0.818777 0.041183
O O12 0.500000 0.000000 0.000000
O O13 0.729879 0.158979 0.196040
O O14 0.409186 0.585908 0.748989
O O15 0.523341 0.324819 0.701837
O O16 0.251232 0.338734 0.816066
O O17 0.227223 0.464722 0.088173
O O18 0.500000 0.500000 0.000000
#
# Coordination Sequence:
#
# PCOD8003245 Si02
#       8
#     2   2   2   2   2   2   2   2
#     4  12  27  44  63  90 128 169 209 256 312 369
#     4  12  27  44  63  90 128 169 209 256 312 369
#     4  11  23  41  67  94 125 163 210 257 308 371
#     4  10  20  36  64  94 124 157 205 262 307 363
#     4  11  23  41  67  94 125 164 208 258 310 368
#     4  11  23  41  67  94 125 163 210 257 308 371
#     4  11  23  41  67  94 125 164 208 258 310 368
#     4  10  20  36  64  94 124 156 207 260 309 364
#
# _framework density 22.330007999999999
#
# number of rings (size 3 to 8) (size 9 to 14) (size 15 to 20)
#    0.000    1.000    2.500    7.500    7.000    2.000 
#    0.000    2.500    0.000    0.000    0.000    0.000 
#    0.000    0.000    0.000    0.000    0.000    0.000 
#
# Total GULP energy -198263.089099 kJ/mol
# GULP energy per Si atom -12391.443069 kJ/mol
# Density = 2.227918 g / cm^3
# Si number density = 22.330008 Si / 1000 Ang^3
#
#
#
# Elastic Constant Matrix: (Units=GPa)
#
#
# Indices 1 2 3 4 5 6 
#
# 1 40.9893 17.6513 13.1092 -5.5810 -20.9608 -6.9973
# 2 17.6513 193.4587 45.3236 -11.3572 -26.7489 -15.6544
# 3 13.1092 45.3236 106.2635 -14.3733 -40.6722 -7.3457
# 4 -5.5810 -11.3572 -14.3733 38.7232 0.7301 -4.8986
# 5 -20.9608 -26.7489 -40.6722 0.7301 42.7356 0.7174
# 6 -6.9973 -15.6544 -7.3457 -4.8986 0.7174 36.3909
#
#
#
# Elastic Compliance Matrix: (Units=1/GPa)
#
#
# Indices 1 2 3 4 5 6 
#
# 1 0.037438 -0.000400 0.006490 0.008373 0.023995 0.008991
# 2 -0.000400 0.006119 -0.001289 0.001525 0.002340 0.002454
# 3 0.006490 -0.001289 0.017829 0.007436 0.019135 0.004916
# 4 0.008373 0.001525 0.007436 0.030998 0.011479 0.007713
# 5 0.023995 0.002340 0.019135 0.011479 0.054482 0.009954
# 6 0.008991 0.002454 0.004916 0.007713 0.009954 0.032098
#
#
# Mechanical properties :
#
#
# Convention : Reuss Voigt Hill
#
# Bulk Modulus (GPa) = 14.08659 54.76441 34.42550
# Shear Modulus (GPa) = 25.90331 41.21176 33.55754
#
# Velocity S-wave (km/s) = 3.40961 4.30068 3.88080
# Velocity P-wave (km/s) = 4.67147 7.01708 5.96079
#
# Compressibility (1/GPa) = 0.07098948
#
# Stress axis : x y z
#
# Youngs Moduli (GPa) = 26.71061 163.41972 56.08693
#
# Poissons Ratio (x) = 0.06530 -0.36400
# Poissons Ratio (y) = 0.01067 0.07230
# Poissons Ratio (z) = -0.17335 0.21066
#
# Static dielectric constant tensor:
#      x y z
#    x 3.551800 0.023770 -0.621550 
#    y 0.023770 4.156390 0.127760 
#    z -0.621550 0.127760 3.920150 
# 
# 
# High freq. dielectric constant tensor:
#      x y z
#    x 1.846630 -0.011400 -0.012510 
#    y -0.011400 1.901890 -0.007500 
#    z -0.012510 -0.007500 1.898860 
# 
# From -- ./inp_files/380310.got.cif
#   From: 2010.06.25/outbox.cif.g09.slc.cpg/sg2_191_cif.got.tgz:380310.got - 2010.06.27 13:26:56.
