data_PCOD8003047
_publ_section_title
;
Structure prediction by ZEFSAII (Michael W. Deem and Ramdas Pophale) SiO2 
 PCOD8003047
Probable space group: P -1
;
_chemical_formula_sum "Si O2"
_cell_formula_units_Z 16
_cell_length_a 6.907434
_cell_length_b 21.900116
_cell_length_c 11.249320
_cell_angle_alpha 137.545112
_cell_angle_beta 108.359019
_cell_angle_gamma 102.198176
_cell_volume 786.451785
_symmetry_space_group_name_H-M "P -1"
_symmetry_group_IT_number 2
_symmetry_cell_setting 'triclinic'
loop_
_space_group_symop_operation_xyz
x,y,z
-x,-y,-z
loop_
_atom_site_type_symbol
_atom_site_label
_atom_site_fract_x
_atom_site_fract_y
_atom_site_fract_z
Si Si1 0.827715 0.844403 0.013335
Si Si2 0.172550 0.086786 0.546211
Si Si3 0.254996 0.718333 0.144598
Si Si4 0.147779 0.517112 0.676302
Si Si5 0.211632 0.279165 0.935812
Si Si6 0.268985 0.745486 0.669377
Si Si7 0.906777 0.109136 0.103912
Si Si8 0.573320 0.829369 0.608186
O O1 0.863091 0.790577 0.054611
O O2 0.513178 0.787133 0.865828
O O3 0.033122 0.996307 0.275253
O O4 0.924464 0.817125 0.879211
O O5 0.507674 0.163664 0.727459
O O6 0.159762 0.192254 0.693008
O O7 0.000000 0.000000 0.500000
O O8 0.419169 0.749309 0.343737
O O9 0.993344 0.701183 0.097378
O O10 0.128884 0.591400 0.875394
O O11 0.000000 0.500000 0.500000
O O12 0.012567 0.389296 0.531500
O O13 0.468355 0.587290 0.809814
O O14 0.229972 0.841244 0.802722
O O15 0.355938 0.742371 0.548977
O O16 0.137482 0.139880 0.283981
O O17 0.652896 0.960153 0.818031
#
# Coordination Sequence:
#
# PCOD8003047 Si02
#       8
#     2   2   2   2   2   2   2   2
#     4  10  20  36  61  98 127 162 215 264 327 398
#     4   9  20  36  56  93 133 159 209 262 321 390
#     4  11  24  42  66  93 135 173 211 272 323 382
#     4  11  25  46  63  95 135 168 225 273 312 390
#     4  10  23  38  64  94 127 178 208 268 332 378
#     4  11  24  40  68  92 128 179 213 268 323 376
#     4  10  22  40  67  94 132 170 210 271 324 384
#     4  10  23  44  62  99 127 170 224 263 317 393
#
# _framework density 20.344538
#
# number of rings (size 3 to 8) (size 9 to 14) (size 15 to 20)
#    0.000    1.750    2.500    0.375    3.500    7.000 
#    0.000    1.250    0.000    0.000    0.000    0.000 
#    0.000    0.000    0.000    0.000    0.000    0.000 
#
# Total GULP energy -198336.758305 kJ/mol
# GULP energy per Si atom -12396.047394 kJ/mol
# Density = 2.029823 g / cm^3
# Si number density = 20.344538 Si / 1000 Ang^3
#
#
#
# Elastic Constant Matrix: (Units=GPa)
#
#
# Indices 1 2 3 4 5 6 
#
# 1 87.6312 6.5499 29.1607 -7.8363 4.5869 5.0600
# 2 6.5499 69.4570 28.2819 -0.8807 -3.8864 7.4923
# 3 29.1607 28.2819 106.8436 -4.7969 -5.7669 2.2165
# 4 -7.8363 -0.8807 -4.7969 38.3584 6.8350 4.3430
# 5 4.5869 -3.8864 -5.7669 6.8350 30.4805 3.5754
# 6 5.0600 7.4923 2.2165 4.3430 3.5754 23.1541
#
#
#
# Elastic Compliance Matrix: (Units=1/GPa)
#
#
# Indices 1 2 3 4 5 6 
#
# 1 0.013199 0.000426 -0.003680 0.003095 -0.002995 -0.002788
# 2 0.000426 0.016821 -0.004346 0.000217 0.001848 -0.005446
# 3 -0.003680 -0.004346 0.011617 0.000146 0.002077 0.000750
# 4 0.003095 0.000217 0.000146 0.028408 -0.006178 -0.005135
# 5 -0.002995 0.001848 0.002077 -0.006178 0.035802 -0.004512
# 6 -0.002788 -0.005446 0.000750 -0.005135 -0.004512 0.047149
#
#
# Mechanical properties :
#
#
# Convention : Reuss Voigt Hill
#
# Bulk Modulus (GPa) = 37.82633 43.54628 40.68631
# Shear Modulus (GPa) = 28.24738 31.72788 29.98763
#
# Velocity S-wave (km/s) = 3.73023 3.95337 3.84342
# Velocity P-wave (km/s) = 6.09804 6.50306 6.30380
#
# Compressibility (1/GPa) = 0.02643661
#
# Stress axis : x y z
#
# Youngs Moduli (GPa) = 75.76467 59.45086 86.07755
#
# Poissons Ratio (x) = -0.02534 0.31676
# Poissons Ratio (y) = -0.03229 0.37412
# Poissons Ratio (z) = 0.27881 0.25839
#
# Static dielectric constant tensor:
#      x y z
#    x 3.721000 0.253520 -0.116610 
#    y 0.253520 3.569620 -0.009810 
#    z -0.116610 -0.009810 4.074500 
# 
# 
# High freq. dielectric constant tensor:
#      x y z
#    x 1.798580 0.023680 0.002960 
#    y 0.023680 1.785550 0.002900 
#    z 0.002960 0.002900 1.798190 
# 
# From -- ./inp_files/95221.got.cif
#   From: 2010.06.25/outbox.cif.g09.slc.cpg/sg2_48_cif.got.tgz:95221.got - 2010.06.27 13:26:56.
