data_PCOD8003509
_publ_section_title
;
Structure prediction by ZEFSAII (Michael W. Deem and Ramdas Pophale) SiO2 
 PCOD8003509
Probable space group: P -1
;
_chemical_formula_sum "Si O2"
_cell_formula_units_Z 16
_cell_length_a 10.096358
_cell_length_b 5.084927
_cell_length_c 20.923654
_cell_angle_alpha 106.452431
_cell_angle_beta 46.895205
_cell_angle_gamma 87.830183
_cell_volume 709.911834
_symmetry_space_group_name_H-M "P -1"
_symmetry_group_IT_number 2
_symmetry_cell_setting 'triclinic'
loop_
_space_group_symop_operation_xyz
x,y,z
-x,-y,-z
loop_
_atom_site_type_symbol
_atom_site_label
_atom_site_fract_x
_atom_site_fract_y
_atom_site_fract_z
Si Si1 0.552723 0.507528 0.250754
Si Si2 0.589533 0.212110 0.090127
Si Si3 0.870312 0.312764 0.583857
Si Si4 0.788565 0.556489 0.489153
Si Si5 0.153680 0.478468 0.208358
Si Si6 0.911758 0.102558 0.316829
Si Si7 0.323909 0.445303 0.019377
Si Si8 0.601403 0.070515 0.318850
O O1 0.647473 0.290722 0.146813
O O2 0.328933 0.665281 0.315585
O O3 0.588848 0.330145 0.292351
O O4 0.638402 0.768764 0.248440
O O5 0.365966 0.379110 0.160896
O O6 0.728625 0.313979 0.003171
O O7 0.623926 0.871849 0.050965
O O8 0.809781 0.505170 0.554025
O O9 0.004490 0.412941 0.596825
O O10 0.000000 0.000000 0.500000
O O11 0.773231 0.300019 0.431063
O O12 0.596123 0.839351 0.566804
O O13 0.043632 0.259321 0.249242
O O14 0.158275 0.484205 0.129187
O O15 0.041267 0.809601 0.289231
O O16 0.778046 0.022703 0.304176
O O17 0.500000 0.500000 0.000000
#
# Coordination Sequence:
#
# PCOD8003509 Si02
#       8
#     2   2   2   2   2   2   2   2
#     4  11  23  39  64  87 122 159 206 248 301 354
#     4  11  21  37  67  96 120 153 195 245 312 380
#     4  10  20  37  58  88 126 151 186 258 308 344
#     4  10  23  37  60  87 121 162 205 245 304 353
#     4  11  23  39  62  94 124 150 193 254 311 357
#     4  12  25  39  62  87 121 167 211 242 284 363
#     4  10  20  38  62  94 130 150 182 247 323 370
#     4  11  24  43  57  83 125 169 206 250 286 340
#
# _framework density 22.538011000000001
#
# number of rings (size 3 to 8) (size 9 to 14) (size 15 to 20)
#    0.000    1.250    1.250    6.375    3.500    0.000 
#    0.000    3.125    0.000   15.000    0.000    0.000 
#    0.000    0.000    0.000    0.000    0.000    0.000 
#
# Total GULP energy -198310.047925 kJ/mol
# GULP energy per Si atom -12394.377995 kJ/mol
# Density = 2.248671 g / cm^3
# Si number density = 22.538011 Si / 1000 Ang^3
#
#
#
# Elastic Constant Matrix: (Units=GPa)
#
#
# Indices 1 2 3 4 5 6 
#
# 1 60.0110 21.4330 19.0223 -0.2624 8.5006 19.5822
# 2 21.4330 118.2992 8.3146 13.6056 1.3286 15.0533
# 3 19.0223 8.3146 53.8297 13.7381 18.5985 13.3415
# 4 -0.2624 13.6056 13.7381 43.0023 8.9078 7.4813
# 5 8.5006 1.3286 18.5985 8.9078 25.7997 10.1709
# 6 19.5822 15.0533 13.3415 7.4813 10.1709 28.7067
#
#
#
# Elastic Compliance Matrix: (Units=1/GPa)
#
#
# Indices 1 2 3 4 5 6 
#
# 1 0.024014 -0.002817 -0.006103 0.005310 0.000118 -0.013493
# 2 -0.002817 0.009712 0.000203 -0.003122 0.002704 -0.003410
# 3 -0.006103 0.000203 0.027941 -0.005474 -0.015452 -0.002028
# 4 0.005310 -0.003122 -0.005474 0.027981 -0.005404 -0.004819
# 5 0.000118 0.002704 -0.015452 -0.005404 0.056713 -0.013002
# 6 -0.013493 -0.003410 -0.002028 -0.004819 -0.013002 0.052633
#
#
# Mechanical properties :
#
#
# Convention : Reuss Voigt Hill
#
# Bulk Modulus (GPa) = 22.60753 36.63109 29.61931
# Shear Modulus (GPa) = 21.62906 31.72639 26.67773
#
# Velocity S-wave (km/s) = 3.10122 3.75598 3.44419
# Velocity P-wave (km/s) = 4.78289 5.92437 5.38397
#
# Compressibility (1/GPa) = 0.04423305
#
# Stress axis : x y z
#
# Youngs Moduli (GPa) = 41.64322 102.96779 35.78995
#
# Poissons Ratio (x) = 0.29004 0.21841
# Poissons Ratio (y) = 0.11730 -0.00726
# Poissons Ratio (z) = 0.25413 -0.02090
#
# Static dielectric constant tensor:
#      x y z
#    x 4.394170 0.420870 0.204170 
#    y 0.420870 4.251100 -0.202530 
#    z 0.204170 -0.202530 4.485950 
# 
# 
# High freq. dielectric constant tensor:
#      x y z
#    x 1.872360 0.005260 0.016120 
#    y 0.005260 1.894710 0.004030 
#    z 0.016120 0.004030 1.887940 
# 
# From -- ./inp_files/553594.got.cif
#   From: 2010.06.25/outbox.cif.g09.slc.cpg/sg2_277_cif.got.tgz:553594.got - 2010.06.27 13:26:56.
