data_PCOD8003281
_publ_section_title
;
Structure prediction by ZEFSAII (Michael W. Deem and Ramdas Pophale) SiO2 
 PCOD8003281
Probable space group: P -1
;
_chemical_formula_sum "Si O2"
_cell_formula_units_Z 16
_cell_length_a 8.654208
_cell_length_b 13.507612
_cell_length_c 14.657410
_cell_angle_alpha 140.778757
_cell_angle_beta 119.885854
_cell_angle_gamma 89.075482
_cell_volume 693.339693
_symmetry_space_group_name_H-M "P -1"
_symmetry_group_IT_number 2
_symmetry_cell_setting 'triclinic'
loop_
_space_group_symop_operation_xyz
x,y,z
-x,-y,-z
loop_
_atom_site_type_symbol
_atom_site_label
_atom_site_fract_x
_atom_site_fract_y
_atom_site_fract_z
Si Si1 0.420708 0.034227 0.641927
Si Si2 0.170902 0.051678 0.930507
Si Si3 0.480692 0.728343 0.652987
Si Si4 0.670520 0.861809 0.604730
Si Si5 0.899810 0.765010 0.292002
Si Si6 0.483102 0.381009 0.792471
Si Si7 0.501148 0.904192 0.086821
Si Si8 0.000087 0.361526 0.330821
O O1 0.493558 0.216448 0.725637
O O2 0.440961 0.113840 0.806829
O O3 0.593718 0.990096 0.643157
O O4 0.143529 0.806691 0.387062
O O5 0.962364 0.043100 0.825576
O O6 0.031368 0.811819 0.743425
O O7 0.371860 0.142351 0.976842
O O8 0.302728 0.197434 0.163215
O O9 0.557527 0.744260 0.583514
O O10 0.245479 0.488093 0.435688
O O11 0.409194 0.867457 0.747391
O O12 0.574755 0.676822 0.372158
O O13 0.730319 0.637557 0.239980
O O14 0.736050 0.624154 0.054711
O O15 0.000000 0.000000 0.500000
O O16 0.213228 0.734076 0.871651
O O17 0.000000 0.500000 0.500000
#
# Coordination Sequence:
#
# PCOD8003281 Si02
#       8
#     2   2   2   2   2   2   2   2
#     4  10  22  40  62  93 131 169 211 259 315 386
#     4  11  21  39  61  92 129 168 215 267 318 378
#     4  10  21  40  61  88 130 168 212 266 318 381
#     4  11  24  39  61  96 135 178 206 254 331 389
#     4   9  20  42  67  89 117 159 216 274 312 361
#     4  10  21  43  67  92 125 165 217 266 315 377
#     4  10  20  36  65  93 118 165 219 269 318 362
#     4  11  19  38  63  89 118 164 221 271 311 364
#
# _framework density 23.076712000000001
#
# number of rings (size 3 to 8) (size 9 to 14) (size 15 to 20)
#    0.000    1.750    2.500    2.250    0.000    3.000 
#    6.750   10.000    0.000    0.000    0.000    0.000 
#    0.000    0.000    0.000    0.000    0.000    0.000 
#
# Total GULP energy -198375.297292 kJ/mol
# GULP energy per Si atom -12398.456081 kJ/mol
# Density = 2.302419 g / cm^3
# Si number density = 23.076712 Si / 1000 Ang^3
#
#
#
# Elastic Constant Matrix: (Units=GPa)
#
#
# Indices 1 2 3 4 5 6 
#
# 1 106.6337 29.8283 53.3895 -15.1191 15.2019 -3.0384
# 2 29.8283 46.6773 47.1103 -12.7366 8.3036 4.5458
# 3 53.3895 47.1103 155.6988 -14.1184 21.2560 8.6165
# 4 -15.1191 -12.7366 -14.1184 34.5172 3.5595 -2.8162
# 5 15.2019 8.3036 21.2560 3.5595 39.3475 -15.1696
# 6 -3.0384 4.5458 8.6165 -2.8162 -15.1696 31.9886
#
#
#
# Elastic Compliance Matrix: (Units=1/GPa)
#
#
# Indices 1 2 3 4 5 6 
#
# 1 0.012715 -0.004484 -0.002498 0.003266 -0.002240 0.001743
# 2 -0.004484 0.035343 -0.007607 0.008012 -0.004136 -0.004655
# 3 -0.002498 -0.007607 0.010517 0.000550 -0.004783 -0.004209
# 4 0.003266 0.008012 0.000550 0.034188 -0.006803 -0.001193
# 5 -0.002240 -0.004136 -0.004783 -0.006803 0.037645 0.018917
# 6 0.001743 -0.004655 -0.004209 -0.001193 0.018917 0.042088
#
#
# Mechanical properties :
#
#
# Convention : Reuss Voigt Hill
#
# Bulk Modulus (GPa) = 34.01849 63.29623 48.65736
# Shear Modulus (GPa) = 23.64382 33.08275 28.36329
#
# Velocity S-wave (km/s) = 3.20437 3.79040 3.50964
# Velocity P-wave (km/s) = 5.33518 6.82966 6.12815
#
# Compressibility (1/GPa) = 0.02939578
#
# Stress axis : x y z
#
# Youngs Moduli (GPa) = 78.64751 28.29448 95.08721
#
# Poissons Ratio (x) = 0.12689 0.23748
# Poissons Ratio (y) = 0.35269 0.72335
# Poissons Ratio (z) = 0.19642 0.21524
#
# Static dielectric constant tensor:
#      x y z
#    x 4.728930 0.160470 1.622320 
#    y 0.160470 4.035920 0.763390 
#    z 1.622320 0.763390 10.973070 
# 
# 
# High freq. dielectric constant tensor:
#      x y z
#    x 1.916970 0.003060 0.006680 
#    y 0.003060 1.890320 -0.012110 
#    z 0.006680 -0.012110 1.921230 
# 
# From -- ./inp_files/504521.got.cif
#   From: 2010.06.25/outbox.cif.g09.slc.cpg/sg2_253_cif.got.tgz:504521.got - 2010.06.27 13:26:56.
