data_PCOD8003779
_publ_section_title
;
Structure prediction by ZEFSAII (Michael W. Deem and Ramdas Pophale) SiO2 
 PCOD8003779
Probable space group: P -1
;
_chemical_formula_sum "Si O2"
_cell_formula_units_Z 12
_cell_length_a 21.240614
_cell_length_b 13.993394
_cell_length_c 23.670043
_cell_angle_alpha 24.065406
_cell_angle_beta 15.829061
_cell_angle_gamma 16.279610
_cell_volume 532.930832
_symmetry_space_group_name_H-M "P -1"
_symmetry_group_IT_number 2
_symmetry_cell_setting 'triclinic'
loop_
_space_group_symop_operation_xyz
x,y,z
-x,-y,-z
loop_
_atom_site_type_symbol
_atom_site_label
_atom_site_fract_x
_atom_site_fract_y
_atom_site_fract_z
Si Si1 0.113704 0.732148 0.722473
Si Si2 0.138526 0.360188 0.518176
Si Si3 0.455380 0.661370 0.662816
Si Si4 0.164287 0.315470 0.279212
Si Si5 0.515838 0.491278 0.159639
Si Si6 0.276772 0.415092 0.863811
O O1 0.500000 0.500000 0.500000
O O2 0.074038 0.736788 0.822400
O O3 0.863309 0.124307 0.706838
O O4 0.982512 0.585493 0.885973
O O5 0.470286 0.279272 0.280550
O O6 0.000000 0.500000 0.500000
O O7 0.872468 0.637671 0.646598
O O8 0.225851 0.024077 0.634104
O O9 0.300075 0.701651 0.835640
O O10 0.463975 0.420783 0.747588
O O11 0.824005 0.494051 0.444699
O O12 0.449260 0.916841 0.233184
O O13 0.257281 0.503402 0.074844
#
# Coordination Sequence:
#
# PCOD8003779 Si02
#       6
#     2   2   2   2   2   2
#     4  10  20  37  61  86 124 164 201 249 300 359
#     4  11  24  42  62  88 123 164 209 254 306 367
#     4  11  23  39  62  92 125 160 205 254 307 367
#     4  10  22  41  64  89 125 163 204 256 303 363
#     4  10  22  40  62  91 124 163 207 251 306 365
#     4  10  22  38  60  94 124 159 206 249 304 364
#
# _framework density 22.516991000000001
#
# number of rings (size 3 to 8) (size 9 to 14) (size 15 to 20)
#    0.000    1.667    0.000    5.500    0.000    7.333 
#    0.000    5.000    0.000    0.000    0.000    0.000 
#    0.000    0.000    0.000    0.000    0.000    0.000 
#
# Total GULP energy -148756.276129 kJ/mol
# GULP energy per Si atom -12396.356344 kJ/mol
# Density = 2.246574 g / cm^3
# Si number density = 22.516991 Si / 1000 Ang^3
#
#
#
# Elastic Constant Matrix: (Units=GPa)
#
#
# Indices 1 2 3 4 5 6 
#
# 1 177.5344 52.9962 66.6089 -15.9858 -4.8626 -2.2177
# 2 52.9962 91.0518 34.2664 -12.3934 1.2010 -9.7499
# 3 66.6089 34.2664 133.0710 -13.1742 -0.0585 15.1710
# 4 -15.9858 -12.3934 -13.1742 36.3625 -5.3223 1.1058
# 5 -4.8626 1.2010 -0.0585 -5.3223 23.7922 -12.2313
# 6 -2.2177 -9.7499 15.1710 1.1058 -12.2313 39.6829
#
#
#
# Elastic Compliance Matrix: (Units=1/GPa)
#
#
# Indices 1 2 3 4 5 6 
#
# 1 0.008037 -0.003052 -0.003280 0.001706 0.003132 0.001871
# 2 -0.003052 0.014577 -0.002495 0.002832 0.001748 0.004825
# 3 -0.003280 -0.002495 0.010592 0.001246 -0.003266 -0.005887
# 4 0.001706 0.002832 0.001246 0.030794 0.008102 0.001954
# 5 0.003132 0.001748 -0.003266 0.008102 0.053739 0.018191
# 6 0.001871 0.004825 -0.005887 0.001954 0.018191 0.034293
#
#
# Mechanical properties :
#
#
# Convention : Reuss Voigt Hill
#
# Bulk Modulus (GPa) = 64.29934 78.82226 71.56080
# Shear Modulus (GPa) = 28.59253 36.48658 32.53955
#
# Velocity S-wave (km/s) = 3.56732 4.02979 3.80559
# Velocity P-wave (km/s) = 6.75171 7.53219 7.15261
#
# Compressibility (1/GPa) = 0.01555226
#
# Stress axis : x y z
#
# Youngs Moduli (GPa) = 124.41916 68.60005 94.40917
#
# Poissons Ratio (x) = 0.20939 0.30967
# Poissons Ratio (y) = 0.37977 0.23553
# Poissons Ratio (z) = 0.40811 0.17114
#
# Static dielectric constant tensor:
#      x y z
#    x 3.889190 -0.144100 -0.030740 
#    y -0.144100 4.108160 -0.328940 
#    z -0.030740 -0.328940 4.333140 
# 
# 
# High freq. dielectric constant tensor:
#      x y z
#    x 1.874700 -0.015200 -0.004400 
#    y -0.015200 1.889530 -0.024140 
#    z -0.004400 -0.024140 1.904360 
# 
# From -- ./inp_files/209845.got.cif
#   From: 2010.06.25/outbox.cif.g09.slc.cpg/sg2_105_cif.got.tgz:209845.got - 2010.06.27 13:26:56.
