data_PCOD8003529
_publ_section_title
;
Structure prediction by ZEFSAII (Michael W. Deem and Ramdas Pophale) SiO2 
 PCOD8003529
Probable space group: P -1
;
_chemical_formula_sum "Si O2"
_cell_formula_units_Z 14
_cell_length_a 9.539146
_cell_length_b 25.341825
_cell_length_c 8.103788
_cell_angle_alpha 38.474264
_cell_angle_beta 148.443506
_cell_angle_gamma 129.661748
_cell_volume 635.344997
_symmetry_space_group_name_H-M "P -1"
_symmetry_group_IT_number 2
_symmetry_cell_setting 'triclinic'
loop_
_space_group_symop_operation_xyz
x,y,z
-x,-y,-z
loop_
_atom_site_type_symbol
_atom_site_label
_atom_site_fract_x
_atom_site_fract_y
_atom_site_fract_z
Si Si1 0.745304 0.504498 0.115199
Si Si2 0.329214 0.585052 0.061466
Si Si3 0.275336 0.866615 0.853062
Si Si4 0.082072 0.063383 0.142763
Si Si5 0.213218 0.353542 0.453556
Si Si6 0.189760 0.179422 0.684949
Si Si7 0.449665 0.911885 0.248902
O O1 0.000000 0.500000 0.500000
O O2 0.500000 0.500000 0.000000
O O3 0.743022 0.424308 0.181786
O O4 0.717214 0.592882 0.769403
O O5 0.500000 0.500000 0.500000
O O6 0.532602 0.656520 0.137993
O O7 0.049819 0.599102 0.843191
O O8 0.018821 0.812761 0.696823
O O9 0.199455 0.966340 0.507479
O O10 0.506993 0.833786 0.039309
O O11 0.370049 0.847580 0.183288
O O12 0.272248 0.121019 0.301824
O O13 0.098116 0.096436 0.891553
O O14 0.779748 0.074925 0.875651
O O15 0.149077 0.260388 0.563522
O O16 0.500000 0.000000 0.000000
#
# Coordination Sequence:
#
# PCOD8003529 Si02
#       7
#     2   2   2   2   2   2   2
#     4  11  21  38  65  93 113 144 192 239 279 343
#     4  10  20  40  65  85 114 156 189 224 283 361
#     4  11  21  38  59  84 116 160 200 243 295 340
#     4  11  21  38  60  85 112 158 209 242 284 354
#     4  11  23  41  59  88 123 157 190 233 296 349
#     4  12  24  38  58  87 122 154 194 251 290 335
#     4  10  20  37  59  82 109 147 200 254 292 340
#
# _framework density 22.035271999999999
#
# number of rings (size 3 to 8) (size 9 to 14) (size 15 to 20)
#    0.000    1.143    0.000   11.143    0.000    0.000 
#    0.000    8.571    0.000    0.000    0.000    0.000 
#    0.000    0.000    0.000    0.000    0.000    0.000 
#
# Total GULP energy -173558.223606 kJ/mol
# GULP energy per Si atom -12397.015972 kJ/mol
# Density = 2.198512 g / cm^3
# Si number density = 22.035272 Si / 1000 Ang^3
#
#
#
# Elastic Constant Matrix: (Units=GPa)
#
#
# Indices 1 2 3 4 5 6 
#
# 1 110.1926 20.0590 34.8878 9.5016 21.7306 -6.9161
# 2 20.0590 105.6805 35.0377 34.4849 -1.5813 -27.1716
# 3 34.8878 35.0377 51.8801 30.7246 6.8053 2.8177
# 4 9.5016 34.4849 30.7246 45.9361 -9.2407 -1.5213
# 5 21.7306 -1.5813 6.8053 -9.2407 36.9593 17.6148
# 6 -6.9161 -27.1716 2.8177 -1.5213 17.6148 37.8782
#
#
#
# Elastic Compliance Matrix: (Units=1/GPa)
#
#
# Indices 1 2 3 4 5 6 
#
# 1 0.015507 0.004362 -0.011962 -0.000678 -0.013040 0.012887
# 2 0.004362 0.021724 -0.009192 -0.013168 -0.014281 0.023176
# 3 -0.011962 -0.009192 0.048907 -0.024270 -0.002635 -0.012165
# 4 -0.000678 -0.013168 -0.024270 0.052652 0.025902 -0.017695
# 5 -0.013040 -0.014281 -0.002635 0.025902 0.059743 -0.039171
# 6 0.012887 0.023176 -0.012165 -0.017695 -0.039171 0.063789
#
#
# Mechanical properties :
#
#
# Convention : Reuss Voigt Hill
#
# Bulk Modulus (GPa) = 19.02811 49.74691 34.38751
# Shear Modulus (GPa) = 15.95285 36.00597 25.97941
#
# Velocity S-wave (km/s) = 2.69359 4.04668 3.43737
# Velocity P-wave (km/s) = 4.28111 6.66777 5.60300
#
# Compressibility (1/GPa) = 0.05255383
#
# Stress axis : x y z
#
# Youngs Moduli (GPa) = 64.48696 46.03204 20.44709
#
# Poissons Ratio (x) = -0.20079 0.24459
# Poissons Ratio (y) = -0.28129 0.18795
# Poissons Ratio (z) = 0.77140 0.42312
#
# Static dielectric constant tensor:
#      x y z
#    x 4.176430 -0.511840 -0.313800 
#    y -0.511840 4.562860 0.827750 
#    z -0.313800 0.827750 4.229620 
# 
# 
# High freq. dielectric constant tensor:
#      x y z
#    x 1.871450 -0.018410 0.009370 
#    y -0.018410 1.869890 0.043100 
#    z 0.009370 0.043100 1.858540 
# 
# From -- ./inp_files/226407.got.cif
#   From: 2010.06.25/outbox.cif.g09.slc.cpg/sg2_114_cif.got.tgz:226407.got - 2010.06.27 13:26:56.
