data_PCOD8003342
_publ_section_title
;
Structure prediction by ZEFSAII (Michael W. Deem and Ramdas Pophale) SiO2 
 PCOD8003342
Probable space group: P -1
;
_chemical_formula_sum "Si O2"
_cell_formula_units_Z 14
_cell_length_a 9.291505
_cell_length_b 8.723729
_cell_length_c 9.149918
_cell_angle_alpha 69.469337
_cell_angle_beta 98.084394
_cell_angle_gamma 132.224989
_cell_volume 509.470317
_symmetry_space_group_name_H-M "P -1"
_symmetry_group_IT_number 2
_symmetry_cell_setting 'triclinic'
loop_
_space_group_symop_operation_xyz
x,y,z
-x,-y,-z
loop_
_atom_site_type_symbol
_atom_site_label
_atom_site_fract_x
_atom_site_fract_y
_atom_site_fract_z
Si Si1 0.631344 0.703894 0.561419
Si Si2 0.201848 0.971792 0.937804
Si Si3 0.954274 0.894303 0.334100
Si Si4 0.738123 0.084758 0.724576
Si Si5 0.260396 0.610887 0.568654
Si Si6 0.281331 0.725088 0.842784
Si Si7 0.586899 0.450734 0.904507
O O1 0.500000 0.500000 0.500000
O O2 0.845101 0.904215 0.450288
O O3 0.499440 0.766224 0.557827
O O4 0.686104 0.634115 0.732569
O O5 0.052623 0.996677 0.847684
O O6 0.418723 0.213344 0.885927
O O7 0.196427 0.819165 0.874776
O O8 0.140463 0.858567 0.126906
O O9 0.841809 0.638887 0.380557
O O10 0.183992 0.003985 0.346145
O O11 0.795738 0.306227 0.596534
O O12 0.514211 0.907019 0.792002
O O13 0.184112 0.631645 0.702014
O O14 0.245265 0.539080 0.003797
O O15 0.500000 0.500000 0.000000
#
# Coordination Sequence:
#
# PCOD8003342 Si02
#       7
#     2   2   2   2   2   2   2
#     4  10  20  36  69  88 123 158 225 249 306 364
#     4  11  23  42  65  93 130 171 207 258 322 381
#     4  11  23  42  68  91 129 170 211 257 322 375
#     4  11  24  39  66  97 128 163 209 270 321 362
#     4  11  22  44  65  95 120 171 218 259 300 385
#     4  11  24  40  68  93 131 162 217 260 317 372
#     4  11  19  39  66  98 117 167 223 260 293 376
#
# _framework density 27.479520999999998
#
# number of rings (size 3 to 8) (size 9 to 14) (size 15 to 20)
#    0.000    1.143    4.286    3.857    6.000    0.000 
#    0.000    3.571    3.143    0.000    0.000    0.000 
#    0.000    0.000    0.000    0.000    0.000    0.000 
#
# Total GULP energy -173587.626416 kJ/mol
# GULP energy per Si atom -12399.116173 kJ/mol
# Density = 2.741698 g / cm^3
# Si number density = 27.479521 Si / 1000 Ang^3
#
#
#
# Elastic Constant Matrix: (Units=GPa)
#
#
# Indices 1 2 3 4 5 6 
#
# 1 115.5445 23.8617 51.1309 -11.3055 24.6819 -24.7551
# 2 23.8617 66.5852 32.2842 -8.2988 9.0986 -30.4162
# 3 51.1309 32.2842 199.6635 -24.4113 33.9978 -25.9125
# 4 -11.3055 -8.2988 -24.4113 38.3314 -20.3117 0.3849
# 5 24.6819 9.0986 33.9978 -20.3117 45.2362 -3.4092
# 6 -24.7551 -30.4162 -25.9125 0.3849 -3.4092 47.7639
#
#
#
# Elastic Compliance Matrix: (Units=1/GPa)
#
#
# Indices 1 2 3 4 5 6 
#
# 1 0.011363 -0.000818 -0.001455 -0.000320 -0.004766 0.004242
# 2 -0.000818 0.022387 -0.001183 0.003367 -0.000667 0.013116
# 3 -0.001455 -0.001183 0.006534 0.001935 -0.002873 0.001817
# 4 -0.000320 0.003367 0.001935 0.035470 0.014253 0.003759
# 5 -0.004766 -0.000667 -0.002873 0.014253 0.033234 -0.002196
# 6 0.004242 0.013116 0.001817 0.003759 -0.002196 0.032285
#
#
# Mechanical properties :
#
#
# Convention : Reuss Voigt Hill
#
# Bulk Modulus (GPa) = 29.96457 66.26077 48.11267
# Shear Modulus (GPa) = 31.38559 44.56739 37.97649
#
# Velocity S-wave (km/s) = 3.38323 4.03158 3.72155
# Velocity P-wave (km/s) = 5.11758 6.77027 6.00109
#
# Compressibility (1/GPa) = 0.03337275
#
# Stress axis : x y z
#
# Youngs Moduli (GPa) = 88.00627 44.66857 153.04930
#
# Poissons Ratio (x) = 0.03653 0.22265
# Poissons Ratio (y) = 0.07197 0.18105
# Poissons Ratio (z) = 0.12803 0.05284
#
# Static dielectric constant tensor:
#      x y z
#    x 6.043640 -0.060870 -0.301850 
#    y -0.060870 5.108040 0.007870 
#    z -0.301850 0.007870 5.987520 
# 
# 
# High freq. dielectric constant tensor:
#      x y z
#    x 2.115760 -0.007750 0.002480 
#    y -0.007750 2.115800 0.006660 
#    z 0.002480 0.006660 2.126450 
# 
# From -- ./inp_files/157473.got.cif
#   From: 2010.06.25/outbox.cif.g09.slc.cpg/sg2_79_cif.got.tgz:157473.got - 2010.06.27 13:26:56.
