data_PCOD8003673
_publ_section_title
;
Structure prediction by ZEFSAII (Michael W. Deem and Ramdas Pophale) SiO2 
 PCOD8003673
Probable space group: P -1
;
_chemical_formula_sum "Si O2"
_cell_formula_units_Z 16
_cell_length_a 16.167693
_cell_length_b 7.406979
_cell_length_c 10.546825
_cell_angle_alpha 92.809987
_cell_angle_beta 133.696000
_cell_angle_gamma 54.221638
_cell_volume 589.889118
_symmetry_space_group_name_H-M "P -1"
_symmetry_group_IT_number 2
_symmetry_cell_setting 'triclinic'
loop_
_space_group_symop_operation_xyz
x,y,z
-x,-y,-z
loop_
_atom_site_type_symbol
_atom_site_label
_atom_site_fract_x
_atom_site_fract_y
_atom_site_fract_z
Si Si1 0.471886 0.104097 0.160150
Si Si2 0.095708 0.801590 0.387625
Si Si3 0.187586 0.339907 0.341259
Si Si4 0.299340 0.777588 0.006577
Si Si5 0.680156 0.534098 0.769675
Si Si6 0.556499 0.647100 0.100072
Si Si7 0.659919 0.042638 0.723726
Si Si8 0.930342 0.881215 0.829687
O O1 0.353324 0.244759 0.169138
O O2 0.674132 0.878869 0.411257
O O3 0.449212 0.948905 0.051237
O O4 0.423865 0.338224 0.029653
O O5 0.101786 0.636084 0.282578
O O6 0.244702 0.604740 0.644901
O O7 0.130347 0.944007 0.354995
O O8 0.898376 0.030859 0.246035
O O9 0.035672 0.369609 0.184230
O O10 0.276398 0.224147 0.287448
O O11 0.370743 0.557025 0.182885
O O12 0.426357 0.636144 0.009039
O O13 0.311698 0.961782 0.095956
O O14 0.548862 0.679081 0.516036
O O15 0.882446 0.267271 0.924897
O O16 0.773525 0.068996 0.774989
#
# Coordination Sequence:
#
# PCOD8003673 Si02
#       8
#     2   2   2   2   2   2   2   2
#     4   9  20  42  61  82 115 151 201 234 300 345
#     4  10  21  39  56  89 119 150 201 231 288 354
#     4   8  19  40  60  83 119 153 188 245 284 339
#     4  11  23  36  58  90 117 152 197 234 290 349
#     4  10  20  37  60  88 111 156 194 233 296 347
#     4  10  22  40  60  83 116 156 187 253 286 336
#     4   9  20  38  57  87 120 153 193 235 287 350
#     4   9  20  37  60  85 120 155 185 241 290 335
#
# _framework density 27.123742
#
# number of rings (size 3 to 8) (size 9 to 14) (size 15 to 20)
#    0.750    1.750    0.000    1.125    1.750    4.000 
#    2.250   10.000    0.000    0.000    0.000    0.000 
#    0.000    0.000    0.000    0.000    0.000    0.000 
#
# Total GULP energy -198335.676442 kJ/mol
# GULP energy per Si atom -12395.979778 kJ/mol
# Density = 2.706201 g / cm^3
# Si number density = 27.123742 Si / 1000 Ang^3
#
#
#
# Elastic Constant Matrix: (Units=GPa)
#
#
# Indices 1 2 3 4 5 6 
#
# 1 108.2640 24.1438 41.2599 14.1141 19.2997 -34.6125
# 2 24.1438 50.7117 -2.2264 0.9702 3.3757 -13.0663
# 3 41.2599 -2.2264 121.9520 -9.0817 9.5761 -16.7497
# 4 14.1141 0.9702 -9.0817 29.1866 -5.2728 -0.3369
# 5 19.2997 3.3757 9.5761 -5.2728 31.0100 9.0291
# 6 -34.6125 -13.0663 -16.7497 -0.3369 9.0291 37.6315
#
#
#
# Elastic Compliance Matrix: (Units=1/GPa)
#
#
# Indices 1 2 3 4 5 6 
#
# 1 0.029587 -0.004272 -0.005249 -0.020616 -0.028589 0.030069
# 2 -0.004272 0.023605 0.003052 0.001880 -0.002340 0.006204
# 3 -0.005249 0.003052 0.010553 0.005804 0.000405 0.000884
# 4 -0.020616 0.001880 0.005804 0.050359 0.025636 -0.021427
# 5 -0.028589 -0.002340 0.000405 0.025636 0.066982 -0.042770
# 6 0.030069 0.006204 0.000884 -0.021427 -0.042770 0.066848
#
#
# Mechanical properties :
#
#
# Convention : Reuss Voigt Hill
#
# Bulk Modulus (GPa) = 19.68165 45.25360 32.46762
# Shear Modulus (GPa) = 17.99805 34.08230 26.04017
#
# Velocity S-wave (km/s) = 2.57875 3.54863 3.10183
# Velocity P-wave (km/s) = 4.01729 5.78884 4.98243
#
# Compressibility (1/GPa) = 0.05080875
#
# Stress axis : x y z
#
# Youngs Moduli (GPa) = 33.79894 42.36316 94.75722
#
# Poissons Ratio (x) = 0.18097 0.49734
# Poissons Ratio (y) = 0.14438 -0.28920
# Poissons Ratio (z) = 0.17740 -0.12929
#
# Static dielectric constant tensor:
#      x y z
#    x 5.051900 0.184630 -0.080440 
#    y 0.184630 5.584090 0.070700 
#    z -0.080440 0.070700 4.499800 
# 
# 
# High freq. dielectric constant tensor:
#      x y z
#    x 2.105400 0.016610 -0.002290 
#    y 0.016610 2.130630 0.001320 
#    z -0.002290 0.001320 2.074130 
# 
# From -- ./inp_files/462138.got.cif
#   From: 2010.06.25/outbox.cif.g09.slc.cpg/sg2_232_cif.got.tgz:462138.got - 2010.06.27 13:26:56.
