data_PCOD8003817
_publ_section_title
;
Structure prediction by ZEFSAII (Michael W. Deem and Ramdas Pophale) SiO2 
 PCOD8003817
Probable space group: P -1
;
_chemical_formula_sum "Si O2"
_cell_formula_units_Z 16
_cell_length_a 25.610994
_cell_length_b 6.898317
_cell_length_c 11.978366
_cell_angle_alpha 50.860669
_cell_angle_beta 150.958301
_cell_angle_gamma 132.560519
_cell_volume 751.968707
_symmetry_space_group_name_H-M "P -1"
_symmetry_group_IT_number 2
_symmetry_cell_setting 'triclinic'
loop_
_space_group_symop_operation_xyz
x,y,z
-x,-y,-z
loop_
_atom_site_type_symbol
_atom_site_label
_atom_site_fract_x
_atom_site_fract_y
_atom_site_fract_z
Si Si1 0.687982 0.218560 0.252134
Si Si2 0.171823 0.534944 0.370756
Si Si3 0.316224 0.370555 0.521541
Si Si4 0.842171 0.492518 0.998020
Si Si5 0.552069 0.575410 0.948823
Si Si6 0.988463 0.222530 0.631434
Si Si7 0.918900 0.191340 0.068724
Si Si8 0.254010 0.877320 0.842411
O O1 0.794844 0.380001 0.470696
O O2 0.709234 0.264355 0.142787
O O3 0.661629 0.908763 0.337531
O O4 0.587775 0.331447 0.056896
O O5 0.259867 0.411441 0.519701
O O6 0.045763 0.327894 0.207744
O O7 0.169433 0.789867 0.199574
O O8 0.238233 0.387048 0.266074
O O9 0.443127 0.588463 0.667502
O O10 0.884626 0.289845 0.082910
O O11 0.774635 0.340262 0.034662
O O12 0.961124 0.725272 0.166855
O O13 0.500000 0.500000 0.000000
O O14 0.651759 0.857756 0.031602
O O15 0.855931 0.043357 0.434394
O O16 0.000000 0.500000 0.500000
O O17 0.078446 0.099288 0.788193
#
# Coordination Sequence:
#
# PCOD8003817 Si02
#       8
#     2   2   2   2   2   2   2   2
#     4  12  21  38  66  89 121 160 206 263 308 358
#     4  10  21  36  61  95 121 163 211 254 307 365
#     4  11  23  41  65  93 126 163 210 261 306 364
#     4  10  24  43  62  93 131 165 206 251 313 375
#     4  12  24  42  65  94 123 158 216 259 309 368
#     4  10  21  38  59  89 125 162 204 244 299 370
#     4  10  20  37  61  89 129 165 202 255 310 361
#     4  11  25  40  63  94 127 164 209 253 309 373
#
# _framework density 21.277481000000002
#
# number of rings (size 3 to 8) (size 9 to 14) (size 15 to 20)
#    0.000    1.250    2.500    3.375    0.000    4.500 
#    0.000    5.625    0.000    0.000    0.000    0.000 
#    0.000    0.000    0.000    0.000    0.000    0.000 
#
# Total GULP energy -198209.645701 kJ/mol
# GULP energy per Si atom -12388.102856 kJ/mol
# Density = 2.122905 g / cm^3
# Si number density = 21.277481 Si / 1000 Ang^3
#
#
#
# Elastic Constant Matrix: (Units=GPa)
#
#
# Indices 1 2 3 4 5 6 
#
# 1 114.1092 38.2229 42.9671 -6.8826 4.9082 -21.6180
# 2 38.2229 85.9318 44.1222 2.6800 7.9248 -14.9010
# 3 42.9671 44.1222 120.8207 12.1541 10.1785 -11.4041
# 4 -6.8826 2.6800 12.1541 35.4837 -11.5815 10.9759
# 5 4.9082 7.9248 10.1785 -11.5815 27.6279 0.3498
# 6 -21.6180 -14.9010 -11.4041 10.9759 0.3498 34.6751
#
#
#
# Elastic Compliance Matrix: (Units=1/GPa)
#
#
# Indices 1 2 3 4 5 6 
#
# 1 0.011872 -0.003172 -0.003000 0.002564 0.000927 0.004231
# 2 -0.003172 0.016287 -0.003624 -0.003564 -0.004331 0.005001
# 3 -0.003000 -0.003624 0.012203 -0.007389 -0.006058 0.002985
# 4 0.002564 -0.003564 -0.007389 0.043671 0.021803 -0.016406
# 5 0.000927 -0.004331 -0.006058 0.021803 0.048779 -0.010669
# 6 0.004231 0.005001 0.002985 -0.016406 -0.010669 0.039909
#
#
# Mechanical properties :
#
#
# Convention : Reuss Voigt Hill
#
# Bulk Modulus (GPa) = 48.15045 63.49844 55.82445
# Shear Modulus (GPa) = 25.09584 32.59397 28.84491
#
# Velocity S-wave (km/s) = 3.43805 3.91814 3.68592
# Velocity P-wave (km/s) = 6.19993 7.09767 6.66393
#
# Compressibility (1/GPa) = 0.02076824
#
# Stress axis : x y z
#
# Youngs Moduli (GPa) = 84.23088 61.39966 81.94945
#
# Poissons Ratio (x) = 0.19477 0.24588
# Poissons Ratio (y) = 0.26719 0.29700
# Poissons Ratio (z) = 0.25273 0.22252
#
# Static dielectric constant tensor:
#      x y z
#    x 3.712570 -0.210360 0.104450 
#    y -0.210360 4.094290 0.293530 
#    z 0.104450 0.293530 4.664450 
# 
# 
# High freq. dielectric constant tensor:
#      x y z
#    x 1.816710 -0.020290 0.003040 
#    y -0.020290 1.835880 0.001150 
#    z 0.003040 0.001150 1.854830 
# 
# From -- ./inp_files/95565.got.cif
#   From: 2010.06.25/outbox.cif.g09.slc.cpg/sg2_48_cif.got.tgz:95565.got - 2010.06.27 13:26:56.
