data_PCOD8003394
_publ_section_title
;
Structure prediction by ZEFSAII (Michael W. Deem and Ramdas Pophale) SiO2 
 PCOD8003394
Probable space group: P -1
;
_chemical_formula_sum "Si O2"
_cell_formula_units_Z 14
_cell_length_a 8.528843
_cell_length_b 20.177513
_cell_length_c 9.283705
_cell_angle_alpha 126.685081
_cell_angle_beta 32.537063
_cell_angle_gamma 132.753401
_cell_volume 629.678570
_symmetry_space_group_name_H-M "P -1"
_symmetry_group_IT_number 2
_symmetry_cell_setting 'triclinic'
loop_
_space_group_symop_operation_xyz
x,y,z
-x,-y,-z
loop_
_atom_site_type_symbol
_atom_site_label
_atom_site_fract_x
_atom_site_fract_y
_atom_site_fract_z
Si Si1 0.858916 0.605611 0.243983
Si Si2 0.759300 0.545701 0.546450
Si Si3 0.286455 0.639448 0.695674
Si Si4 0.307431 0.063986 0.934639
Si Si5 0.924276 0.287363 0.305767
Si Si6 0.880246 0.001425 0.433914
Si Si7 0.348451 0.180246 0.803173
O O1 0.951751 0.605989 0.339248
O O2 0.623550 0.500764 0.249491
O O3 0.667524 0.669951 0.451254
O O4 0.167289 0.643556 0.954665
O O5 0.873831 0.463891 0.377857
O O6 0.821850 0.611990 0.719817
O O7 0.210370 0.707685 0.741545
O O8 0.456023 0.155748 0.844076
O O9 0.570038 0.023371 0.697945
O O10 0.000000 0.000000 0.000000
O O11 0.173608 0.075310 0.210330
O O12 0.645784 0.259151 0.602335
O O13 0.072303 0.214226 0.091209
O O14 0.790051 0.903660 0.307086
O O15 0.000000 0.000000 0.500000
#
# Coordination Sequence:
#
# PCOD8003394 Si02
#       7
#     2   2   2   2   2   2   2
#     4   9  20  36  60  76 107 144 223 241 279 348
#     4   9  22  36  60  80 109 160 209 235 291 353
#     4  10  20  37  56  82 110 160 201 243 289 344
#     4  10  20  41  69  90 120 161 199 234 291 377
#     4  12  24  36  58  86 127 149 192 256 295 343
#     4  11  22  42  72  93 118 157 205 245 290 367
#     4  11  24  41  57  92 122 155 191 241 308 351
#
# _framework density 22.233566
#
# number of rings (size 3 to 8) (size 9 to 14) (size 15 to 20)
#    0.857    0.857    0.000    6.429    2.000    0.571 
#    0.000    8.571    0.000    0.000    0.000    0.000 
#    0.000    0.000    0.000    0.000    0.000    0.000 
#
# Total GULP energy -173514.588617 kJ/mol
# GULP energy per Si atom -12393.899187 kJ/mol
# Density = 2.218296 g / cm^3
# Si number density = 22.233566 Si / 1000 Ang^3
#
#
#
# Elastic Constant Matrix: (Units=GPa)
#
#
# Indices 1 2 3 4 5 6 
#
# 1 118.0700 25.0516 42.0298 9.5541 0.3420 -31.0487
# 2 25.0516 33.9458 13.5015 1.3411 1.0525 -15.2347
# 3 42.0298 13.5015 121.0488 0.3748 -2.3254 -12.5009
# 4 9.5541 1.3411 0.3748 29.2922 -14.0842 0.4551
# 5 0.3420 1.0525 -2.3254 -14.0842 36.7220 -1.5301
# 6 -31.0487 -15.2347 -12.5009 0.4551 -1.5301 32.3587
#
#
#
# Elastic Compliance Matrix: (Units=1/GPa)
#
#
# Indices 1 2 3 4 5 6 
#
# 1 0.013466 -0.004003 -0.003238 -0.005183 -0.001796 0.009773
# 2 -0.004003 0.039442 -0.001571 -0.001214 -0.001071 0.014087
# 3 -0.003238 -0.001571 0.009569 0.001634 0.001303 -0.000112
# 4 -0.005183 -0.001214 0.001634 0.044057 0.016887 -0.004735
# 5 -0.001796 -0.001071 0.001303 0.016887 0.033823 -0.000363
# 6 0.009773 0.014087 -0.000112 -0.004735 -0.000363 0.046920
#
#
# Mechanical properties :
#
#
# Convention : Reuss Voigt Hill
#
# Bulk Modulus (GPa) = 22.29581 48.24783 35.27182
# Shear Modulus (GPa) = 22.74239 32.50669 27.62454
#
# Velocity S-wave (km/s) = 3.20173 3.82783 3.52869
# Velocity P-wave (km/s) = 4.87010 6.42526 5.70096
#
# Compressibility (1/GPa) = 0.04485148
#
# Stress axis : x y z
#
# Youngs Moduli (GPa) = 74.25862 25.35393 104.50154
#
# Poissons Ratio (x) = 0.10150 0.33841
# Poissons Ratio (y) = 0.29728 0.16419
# Poissons Ratio (z) = 0.24048 0.03984
#
# Static dielectric constant tensor:
#      x y z
#    x 3.958990 -0.370030 0.134760 
#    y -0.370030 3.812210 -0.204210 
#    z 0.134760 -0.204210 4.103220 
# 
# 
# High freq. dielectric constant tensor:
#      x y z
#    x 1.873470 -0.024310 0.001640 
#    y -0.024310 1.844490 -0.005750 
#    z 0.001640 -0.005750 1.884950 
# 
# From -- ./inp_files/226405.got.cif
#   From: 2010.06.25/outbox.cif.g09.slc.cpg/sg2_114_cif.got.tgz:226405.got - 2010.06.27 13:26:56.
