data_PCOD8003640
_publ_section_title
;
Structure prediction by ZEFSAII (Michael W. Deem and Ramdas Pophale) SiO2 
 PCOD8003640
Probable space group: P -1
;
_chemical_formula_sum "Si O2"
_cell_formula_units_Z 14
_cell_length_a 11.474898
_cell_length_b 12.437834
_cell_length_c 9.066902
_cell_angle_alpha 90.292341
_cell_angle_beta 52.354034
_cell_angle_gamma 120.992687
_cell_volume 781.783342
_symmetry_space_group_name_H-M "P -1"
_symmetry_group_IT_number 2
_symmetry_cell_setting 'triclinic'
loop_
_space_group_symop_operation_xyz
x,y,z
-x,-y,-z
loop_
_atom_site_type_symbol
_atom_site_label
_atom_site_fract_x
_atom_site_fract_y
_atom_site_fract_z
Si Si1 0.900468 0.089835 0.442283
Si Si2 0.126573 0.148897 0.982815
Si Si3 0.290177 0.373099 0.610696
Si Si4 0.850071 0.516555 0.466277
Si Si5 0.490817 0.280611 0.894440
Si Si6 0.800405 0.271699 0.601040
Si Si7 0.743784 0.795161 0.637804
O O1 0.780829 0.143983 0.548203
O O2 0.051386 0.148622 0.459305
O O3 0.755781 0.920930 0.562330
O O4 0.003699 0.145132 0.206211
O O5 0.171861 0.260800 0.829755
O O6 0.320943 0.191382 0.903743
O O7 0.000000 0.000000 0.000000
O O8 0.500000 0.500000 0.500000
O O9 0.178593 0.431806 0.662207
O O10 0.315205 0.311438 0.447225
O O11 0.656747 0.444163 0.716956
O O12 0.867634 0.394796 0.428756
O O13 0.039838 0.654383 0.394633
O O14 0.591408 0.209581 0.826579
O O15 0.415567 0.282183 0.111346
#
# Coordination Sequence:
#
# PCOD8003640 Si02
#       7
#     2   2   2   2   2   2   2
#     4  10  20  37  60  84 114 155 195 244 278 348
#     4  11  22  38  59  86 122 153 190 238 298 343
#     4  12  21  37  60  86 121 150 192 244 286 346
#     4   9  19  35  57  85 119 148 191 240 289 339
#     4   9  20  37  59  86 113 152 195 239 286 345
#     4   9  18  38  60  81 119 150 193 242 290 335
#     4  10  21  34  59  91 109 148 207 237 284 337
#
# _framework density 17.907775999999998
#
# number of rings (size 3 to 8) (size 9 to 14) (size 15 to 20)
#    0.857    1.143    4.286    0.000    0.000    2.286 
#    0.000    1.429    3.143    0.000    0.000    0.000 
#    0.000    0.000    0.000    0.000    0.000    0.000 
#
# Total GULP energy -173490.710819 kJ/mol
# GULP energy per Si atom -12392.193630 kJ/mol
# Density = 1.786702 g / cm^3
# Si number density = 17.907776 Si / 1000 Ang^3
#
#
#
# Elastic Constant Matrix: (Units=GPa)
#
#
# Indices 1 2 3 4 5 6 
#
# 1 112.2243 40.6250 32.6548 -0.4207 10.7384 -5.8379
# 2 40.6250 80.1485 9.1726 5.3912 13.2232 -8.2933
# 3 32.6548 9.1726 69.2784 -4.0426 14.8763 -2.3982
# 4 -0.4207 5.3912 -4.0426 27.9316 -5.4368 0.7378
# 5 10.7384 13.2232 14.8763 -5.4368 30.3815 -4.3372
# 6 -5.8379 -8.2933 -2.3982 0.7378 -4.3372 36.6251
#
#
#
# Elastic Compliance Matrix: (Units=1/GPa)
#
#
# Indices 1 2 3 4 5 6 
#
# 1 0.012512 -0.005897 -0.005254 0.000732 0.000906 0.000408
# 2 -0.005897 0.016889 0.001782 -0.004437 -0.006603 0.002308
# 3 -0.005254 0.001782 0.018390 0.000721 -0.007819 -0.000170
# 4 0.000732 -0.004437 0.000721 0.038366 0.008091 -0.000656
# 5 0.000906 -0.006603 -0.007819 0.008091 0.041151 0.002847
# 6 0.000408 0.002308 -0.000170 -0.000656 0.002847 0.028231
#
#
# Mechanical properties :
#
#
# Convention : Reuss Voigt Hill
#
# Bulk Modulus (GPa) = 34.42031 47.39510 40.90771
# Shear Modulus (GPa) = 27.17976 30.93422 29.05699
#
# Velocity S-wave (km/s) = 3.90007 4.16073 4.03251
# Velocity P-wave (km/s) = 6.28835 7.04315 6.67642
#
# Compressibility (1/GPa) = 0.02905261
#
# Stress axis : x y z
#
# Youngs Moduli (GPa) = 79.92593 59.21136 54.37643
#
# Poissons Ratio (x) = 0.34917 0.28572
# Poissons Ratio (y) = 0.47132 -0.09692
# Poissons Ratio (z) = 0.41997 -0.10554
#
# Static dielectric constant tensor:
#      x y z
#    x 3.446930 -0.079940 0.025500 
#    y -0.079940 3.251240 -0.099680 
#    z 0.025500 -0.099680 3.182270 
# 
# 
# High freq. dielectric constant tensor:
#      x y z
#    x 1.696130 -0.005500 0.002120 
#    y -0.005500 1.688840 -0.014160 
#    z 0.002120 -0.014160 1.677700 
# 
# From -- ./inp_files/164777.got.cif
#   From: 2010.06.25/outbox.cif.g09.slc.cpg/sg2_83_cif.got.tgz:164777.got - 2010.06.27 13:26:56.
