data_PCOD8003121
_publ_section_title
;
Structure prediction by ZEFSAII (Michael W. Deem and Ramdas Pophale) SiO2 
 PCOD8003121
Probable space group: P -1
;
_chemical_formula_sum "Si O2"
_cell_formula_units_Z 16
_cell_length_a 11.134555
_cell_length_b 12.315736
_cell_length_c 11.776885
_cell_angle_alpha 71.614847
_cell_angle_beta 142.392213
_cell_angle_gamma 77.926790
_cell_volume 570.192980
_symmetry_space_group_name_H-M "P -1"
_symmetry_group_IT_number 2
_symmetry_cell_setting 'triclinic'
loop_
_space_group_symop_operation_xyz
x,y,z
-x,-y,-z
loop_
_atom_site_type_symbol
_atom_site_label
_atom_site_fract_x
_atom_site_fract_y
_atom_site_fract_z
Si Si1 0.990497 0.139604 0.071849
Si Si2 0.956774 0.810332 0.672397
Si Si3 0.740389 0.813701 0.905503
Si Si4 0.763975 0.335662 0.488212
Si Si5 0.319301 0.378630 0.707759
Si Si6 0.528749 0.260736 0.498932
Si Si7 0.769417 0.972158 0.237648
Si Si8 0.978370 0.546233 0.770622
O O1 0.846397 0.218608 0.066618
O O2 0.062861 0.229651 0.041167
O O3 0.325904 0.913938 0.403171
O O4 0.740450 0.185711 0.794142
O O5 0.919232 0.897680 0.500287
O O6 0.107476 0.615454 0.824263
O O7 0.598836 0.964990 0.409367
O O8 0.943420 0.748000 0.191877
O O9 0.724303 0.681654 0.927820
O O10 0.588627 0.528093 0.236454
O O11 0.515767 0.377244 0.367082
O O12 0.925996 0.179119 0.567867
O O13 0.271021 0.369175 0.543500
O O14 0.000000 0.500000 0.500000
O O15 0.614495 0.168877 0.047125
O O16 0.181691 0.389273 0.246302
O O17 0.500000 0.000000 0.000000
#
# Coordination Sequence:
#
# PCOD8003121 Si02
#       8
#     2   2   2   2   2   2   2   2
#     4  10  23  39  63  88 133 163 201 259 314 364
#     4  12  22  40  62  97 127 159 208 266 305 361
#     4  10  20  36  62  95 124 153 204 259 313 360
#     4  10  21  38  60  91 124 159 205 257 300 370
#     4  11  20  35  60  97 121 155 208 264 298 355
#     4  10  23  44  64  91 127 169 206 250 317 387
#     4  12  20  35  64  89 122 166 207 250 312 361
#     4  11  22  37  69  95 122 164 208 255 316 372
#
# _framework density 28.060673000000001
#
# number of rings (size 3 to 8) (size 9 to 14) (size 15 to 20)
#    0.000    1.250    5.000    1.125    3.500    5.000 
#    0.000    0.625    0.000    0.750    0.000    0.000 
#    0.000    0.000    0.000    0.000    0.000    0.000 
#
# Total GULP energy -198446.644214 kJ/mol
# GULP energy per Si atom -12402.915263 kJ/mol
# Density = 2.799681 g / cm^3
# Si number density = 28.060673 Si / 1000 Ang^3
#
#
#
# Elastic Constant Matrix: (Units=GPa)
#
#
# Indices 1 2 3 4 5 6 
#
# 1 156.2104 54.4977 28.7985 -14.4964 -20.4534 -14.4815
# 2 54.4977 151.4379 44.3237 -26.3251 -29.9924 1.1001
# 3 28.7985 44.3237 88.9407 -21.2205 -49.6979 -3.6264
# 4 -14.4964 -26.3251 -21.2205 44.4017 9.1956 -3.4131
# 5 -20.4534 -29.9924 -49.6979 9.1956 41.1396 -2.3275
# 6 -14.4815 1.1001 -3.6264 -3.4131 -2.3275 52.8800
#
#
#
# Elastic Compliance Matrix: (Units=1/GPa)
#
#
# Indices 1 2 3 4 5 6 
#
# 1 0.007767 -0.002229 0.000425 0.001052 0.002649 0.002387
# 2 -0.002229 0.008972 -0.001148 0.003325 0.003273 -0.000517
# 3 0.000425 -0.001148 0.039331 0.009330 0.045108 0.005425
# 4 0.001052 0.003325 0.009330 0.027836 0.008167 0.003015
# 5 0.002649 0.003273 0.045108 0.008167 0.081121 0.007848
# 6 0.002387 -0.000517 0.005425 0.003015 0.007848 0.020487
#
#
# Mechanical properties :
#
#
# Convention : Reuss Voigt Hill
#
# Bulk Modulus (GPa) = 19.93465 72.42542 46.18003
# Shear Modulus (GPa) = 24.02225 45.61554 34.81889
#
# Velocity S-wave (km/s) = 2.92906 4.03625 3.52638
# Velocity P-wave (km/s) = 4.30799 6.89841 5.75095
#
# Compressibility (1/GPa) = 0.05016392
#
# Stress axis : x y z
#
# Youngs Moduli (GPa) = 128.75329 111.46323 25.42535
#
# Poissons Ratio (x) = 0.24846 -0.01080
# Poissons Ratio (y) = 0.28701 0.02919
# Poissons Ratio (z) = -0.05468 0.12798
#
# Static dielectric constant tensor:
#      x y z
#    x 5.083820 -0.143560 -0.243580 
#    y -0.143560 5.375900 -0.078270 
#    z -0.243580 -0.078270 5.265370 
# 
# 
# High freq. dielectric constant tensor:
#      x y z
#    x 2.137200 -0.004430 -0.009420 
#    y -0.004430 2.143540 -0.000160 
#    z -0.009420 -0.000160 2.156120 
# 
# From -- ./inp_files/428037.got.cif
#   From: 2010.06.25/outbox.cif.g09.slc.cpg/sg2_215_cif.got.tgz:428037.got - 2010.06.27 13:26:56.
