data_PCOD8003721
_publ_section_title
;
Structure prediction by ZEFSAII (Michael W. Deem and Ramdas Pophale) SiO2 
 PCOD8003721
Probable space group: P -1
;
_chemical_formula_sum "Si O2"
_cell_formula_units_Z 14
_cell_length_a 17.237478
_cell_length_b 11.549201
_cell_length_c 12.315979
_cell_angle_alpha 30.754587
_cell_angle_beta 150.322484
_cell_angle_gamma 140.158797
_cell_volume 618.594322
_symmetry_space_group_name_H-M "P -1"
_symmetry_group_IT_number 2
_symmetry_cell_setting 'triclinic'
loop_
_space_group_symop_operation_xyz
x,y,z
-x,-y,-z
loop_
_atom_site_type_symbol
_atom_site_label
_atom_site_fract_x
_atom_site_fract_y
_atom_site_fract_z
Si Si1 0.346042 0.174733 0.229211
Si Si2 0.635644 0.025267 0.809669
Si Si3 0.123356 0.545225 0.744605
Si Si4 0.117093 0.813051 0.317401
Si Si5 0.315105 0.723648 0.019350
Si Si6 0.820330 0.430191 0.802922
Si Si7 0.381385 0.202708 0.801644
O O1 0.514971 0.200196 0.473542
O O2 0.342234 0.168091 0.098468
O O3 0.284761 0.914961 0.396966
O O4 0.245393 0.373039 0.987019
O O5 0.795162 0.187921 0.902663
O O6 0.571887 0.887109 0.950381
O O7 0.128101 0.766801 0.496229
O O8 0.947191 0.420447 0.632466
O O9 0.160018 0.630141 0.841008
O O10 0.000000 0.000000 0.000000
O O11 0.297805 0.593985 0.217295
O O12 0.466944 0.669832 0.176535
O O13 0.314164 0.993059 0.814511
O O14 0.757576 0.629997 0.492781
O O15 0.000000 0.500000 0.000000
#
# Coordination Sequence:
#
# PCOD8003721 Si02
#       7
#     2   2   2   2   2   2   2
#     4  10  21  39  62  91 124 160 205 253 307 366
#     4  10  23  40  63  91 124 165 206 254 306 371
#     4  10  20  37  60  91 121 161 202 250 314 368
#     4   9  20  36  54  86 123 155 201 245 301 364
#     4  10  22  39  67  91 118 163 211 261 309 367
#     4  11  25  43  62  94 127 166 208 259 317 369
#     4  10  22  43  64  91 123 164 216 258 307 368
#
# _framework density 22.631955999999999
#
# number of rings (size 3 to 8) (size 9 to 14) (size 15 to 20)
#    0.000    2.000    0.000    2.143    2.000    8.000 
#   10.286    3.571    0.000    0.000    0.000    0.000 
#    0.000    0.000    0.000    0.000    0.000    0.000 
#
# Total GULP energy -173497.610906 kJ/mol
# GULP energy per Si atom -12392.686493 kJ/mol
# Density = 2.258044 g / cm^3
# Si number density = 22.631956 Si / 1000 Ang^3
#
#
#
# Elastic Constant Matrix: (Units=GPa)
#
#
# Indices 1 2 3 4 5 6 
#
# 1 70.4526 32.8522 22.7142 -1.0281 -18.4193 -3.0731
# 2 32.8522 97.6091 23.1426 22.7368 -14.2039 -2.1952
# 3 22.7142 23.1426 99.0886 -0.0649 -15.5042 -3.8308
# 4 -1.0281 22.7368 -0.0649 31.5919 -2.0160 -6.6729
# 5 -18.4193 -14.2039 -15.5042 -2.0160 26.8540 7.3578
# 6 -3.0731 -2.1952 -3.8308 -6.6729 7.3578 37.1836
#
#
#
# Elastic Compliance Matrix: (Units=1/GPa)
#
#
# Indices 1 2 3 4 5 6 
#
# 1 0.020435 -0.006417 -0.001594 0.005971 0.010089 0.000221
# 2 -0.006417 0.016026 -0.001950 -0.012100 0.002725 -0.002496
# 3 -0.001594 -0.001950 0.011653 0.001745 0.004638 0.000349
# 4 0.005971 -0.012100 0.001745 0.042144 -0.000205 0.007563
# 5 0.010089 0.002725 0.004638 -0.000205 0.050613 -0.008579
# 6 0.000221 -0.002496 0.000349 0.007563 -0.008579 0.029855
#
#
# Mechanical properties :
#
#
# Convention : Reuss Voigt Hill
#
# Bulk Modulus (GPa) = 35.47276 47.17426 41.32351
# Shear Modulus (GPa) = 24.99402 31.68865 28.34134
#
# Velocity S-wave (km/s) = 3.32681 3.74595 3.54258
# Velocity P-wave (km/s) = 5.51948 6.29276 5.91876
#
# Compressibility (1/GPa) = 0.02819065
#
# Stress axis : x y z
#
# Youngs Moduli (GPa) = 48.93562 62.39815 85.81260
#
# Poissons Ratio (x) = 0.40044 0.13682
# Poissons Ratio (y) = 0.31404 0.16733
# Poissons Ratio (z) = 0.07802 0.12168
#
# Static dielectric constant tensor:
#      x y z
#    x 3.998960 0.317500 -0.263290 
#    y 0.317500 4.715210 0.105910 
#    z -0.263290 0.105910 3.894080 
# 
# 
# High freq. dielectric constant tensor:
#      x y z
#    x 1.873530 0.002320 -0.020290 
#    y 0.002320 1.907950 0.008180 
#    z -0.020290 0.008180 1.885210 
# 
# From -- ./inp_files/69630.got.cif
#   From: 2010.06.25/outbox.cif.g09.slc.cpg/sg2_35_cif.got.tgz:69630.got - 2010.06.27 13:26:56.
