data_PCOD8003511
_publ_section_title
;
Structure prediction by ZEFSAII (Michael W. Deem and Ramdas Pophale) SiO2 
 PCOD8003511
Probable space group: P -1
;
_chemical_formula_sum "Si O2"
_cell_formula_units_Z 16
_cell_length_a 16.705724
_cell_length_b 8.582084
_cell_length_c 11.567596
_cell_angle_alpha 136.320474
_cell_angle_beta 51.192860
_cell_angle_gamma 99.190143
_cell_volume 748.094120
_symmetry_space_group_name_H-M "P -1"
_symmetry_group_IT_number 2
_symmetry_cell_setting 'triclinic'
loop_
_space_group_symop_operation_xyz
x,y,z
-x,-y,-z
loop_
_atom_site_type_symbol
_atom_site_label
_atom_site_fract_x
_atom_site_fract_y
_atom_site_fract_z
Si Si1 0.118975 0.344084 0.178824
Si Si2 0.777054 0.379801 0.656982
Si Si3 0.123076 0.405725 0.775480
Si Si4 0.315611 0.632517 0.015684
Si Si5 0.443840 0.566641 0.212782
Si Si6 0.287364 0.177387 0.719668
Si Si7 0.025508 0.980763 0.100469
Si Si8 0.918401 0.880223 0.544255
O O1 0.205703 0.372981 0.206287
O O2 0.994419 0.641956 0.439167
O O3 0.089986 0.141621 0.155284
O O4 0.179410 0.244113 0.943890
O O5 0.668714 0.476856 0.711377
O O6 0.745001 0.304771 0.767955
O O7 0.899216 0.109415 0.355410
O O8 0.236687 0.235133 0.666399
O O9 0.130919 0.225181 0.566598
O O10 0.119771 0.670559 0.880780
O O11 0.000000 0.500000 0.000000
O O12 0.443718 0.620750 0.900427
O O13 0.345836 0.347755 0.788796
O O14 0.211573 0.868359 0.153147
O O15 0.395373 0.867554 0.458653
O O16 0.500000 0.500000 0.000000
O O17 0.000000 0.000000 0.000000
O O18 0.000000 0.000000 0.500000
#
# Coordination Sequence:
#
# PCOD8003511 Si02
#       8
#     2   2   2   2   2   2   2   2
#     4  11  23  38  58  94 125 162 194 247 307 365
#     4  10  21  35  58  83 119 158 197 247 293 349
#     4  12  21  34  57  87 120 155 193 248 298 352
#     4  10  21  36  60  91 119 157 202 254 296 351
#     4  10  20  37  58  89 119 155 205 251 297 348
#     4  11  21  36  61  92 119 155 200 253 300 351
#     4  12  23  39  55  90 127 161 203 239 307 367
#     4  12  20  35  58  86 129 148 195 242 309 344
#
# _framework density 21.387682999999999
#
# number of rings (size 3 to 8) (size 9 to 14) (size 15 to 20)
#    0.000    1.000    5.000    4.500    1.750    0.000 
#    0.000    0.000    0.000    0.750    6.500    7.000 
#    0.000    0.000    0.000    0.000    0.000    0.000 
#
# Total GULP energy -198281.970467 kJ/mol
# GULP energy per Si atom -12392.623154 kJ/mol
# Density = 2.133900 g / cm^3
# Si number density = 21.387683 Si / 1000 Ang^3
#
#
#
# Elastic Constant Matrix: (Units=GPa)
#
#
# Indices 1 2 3 4 5 6 
#
# 1 147.5836 28.7111 47.6875 14.8814 -4.5888 24.7272
# 2 28.7111 56.4724 20.5658 23.6034 2.2676 15.2815
# 3 47.6875 20.5658 103.5252 17.8600 1.5487 8.2117
# 4 14.8814 23.6034 17.8600 30.9364 -5.5942 7.5472
# 5 -4.5888 2.2676 1.5487 -5.5942 37.3309 2.0976
# 6 24.7272 15.2815 8.2117 7.5472 2.0976 26.4010
#
#
#
# Elastic Compliance Matrix: (Units=1/GPa)
#
#
# Indices 1 2 3 4 5 6 
#
# 1 0.009487 -0.002241 -0.003628 0.001318 0.002044 -0.006999
# 2 -0.002241 0.030146 -0.000696 -0.020153 -0.004592 -0.009008
# 3 -0.003628 -0.000696 0.012325 -0.005591 -0.001849 0.001712
# 4 0.001318 -0.020153 -0.005591 0.052976 0.009767 -0.003750
# 5 0.002044 -0.004592 -0.001849 0.009767 0.029071 -0.003783
# 6 -0.006999 -0.009008 0.001712 -0.003750 -0.003783 0.050487
#
#
# Mechanical properties :
#
#
# Convention : Reuss Voigt Hill
#
# Bulk Modulus (GPa) = 25.75448 55.72334 40.73891
# Shear Modulus (GPa) = 23.74571 32.97478 28.36024
#
# Velocity S-wave (km/s) = 3.33566 3.93079 3.64539
# Velocity P-wave (km/s) = 5.18685 6.83462 6.06693
#
# Compressibility (1/GPa) = 0.03882820
#
# Stress axis : x y z
#
# Youngs Moduli (GPa) = 105.40291 33.17216 81.13381
#
# Poissons Ratio (x) = 0.07434 0.29433
# Poissons Ratio (y) = 0.23622 0.05650
# Poissons Ratio (z) = 0.38237 0.02310
#
# Static dielectric constant tensor:
#      x y z
#    x 4.487810 0.351020 0.061480 
#    y 0.351020 2.672920 -0.106160 
#    z 0.061480 -0.106160 3.970570 
# 
# 
# High freq. dielectric constant tensor:
#      x y z
#    x 1.860660 0.011530 0.018130 
#    y 0.011530 1.788140 0.017540 
#    z 0.018130 0.017540 1.844540 
# 
# From -- ./inp_files/462562.got.cif
#   From: 2010.06.25/outbox.cif.g09.slc.cpg/sg2_232_cif.got.tgz:462562.got - 2010.06.27 13:26:56.
