data_PCOD8003141
_publ_section_title
;
Structure prediction by ZEFSAII (Michael W. Deem and Ramdas Pophale) SiO2 
 PCOD8003141
Probable space group: P -1
;
_chemical_formula_sum "Si O2"
_cell_formula_units_Z 14
_cell_length_a 11.727558
_cell_length_b 9.706228
_cell_length_c 14.931613
_cell_angle_alpha 131.734807
_cell_angle_beta 118.515063
_cell_angle_gamma 100.995655
_cell_volume 703.583779
_symmetry_space_group_name_H-M "P -1"
_symmetry_group_IT_number 2
_symmetry_cell_setting 'triclinic'
loop_
_space_group_symop_operation_xyz
x,y,z
-x,-y,-z
loop_
_atom_site_type_symbol
_atom_site_label
_atom_site_fract_x
_atom_site_fract_y
_atom_site_fract_z
Si Si1 0.925636 0.108031 0.560387
Si Si2 0.670261 0.267513 0.060041
Si Si3 0.467360 0.815936 0.484398
Si Si4 0.493570 0.279497 0.167460
Si Si5 0.233764 0.337192 0.056379
Si Si6 0.806065 0.903340 0.627245
Si Si7 0.479957 0.151168 0.754984
O O1 0.087999 0.447845 0.746222
O O2 0.901438 0.066524 0.639181
O O3 0.709064 0.917684 0.352517
O O4 0.000000 0.000000 0.500000
O O5 0.617370 0.320537 0.152124
O O6 0.541863 0.215085 0.908793
O O7 0.622496 0.998845 0.936190
O O8 0.284592 0.480454 0.235483
O O9 0.675192 0.929192 0.628361
O O10 0.500000 0.000000 0.500000
O O11 0.413557 0.870250 0.577556
O O12 0.326482 0.234030 0.043333
O O13 0.659402 0.564470 0.415558
O O14 0.333373 0.569064 0.114937
O O15 0.988683 0.058091 0.831579
#
# Coordination Sequence:
#
# PCOD8003141 Si02
#       7
#     2   2   2   2   2   2   2
#     4  12  22  36  59  96 119 147 201 246 281 356
#     4  11  24  38  60  86 123 159 189 244 299 343
#     4   9  19  37  55  92 121 146 200 247 282 345
#     4  10  23  42  55  87 125 153 196 240 294 361
#     4  10  20  36  63  85 115 158 193 241 292 339
#     4  11  20  37  64  86 117 159 194 240 294 346
#     4  11  22  37  61  91 120 153 197 246 290 342
#
# _framework density 19.898129000000001
#
# number of rings (size 3 to 8) (size 9 to 14) (size 15 to 20)
#    0.000    1.429    7.143    0.000    2.000    5.714 
#    0.000    5.714    0.000    5.143    0.000    0.000 
#    0.000    0.000    0.000    0.000    0.000    0.000 
#
# Total GULP energy -173607.400379 kJ/mol
# GULP energy per Si atom -12400.528598 kJ/mol
# Density = 1.985284 g / cm^3
# Si number density = 19.898129 Si / 1000 Ang^3
#
#
#
# Elastic Constant Matrix: (Units=GPa)
#
#
# Indices 1 2 3 4 5 6 
#
# 1 86.6973 12.5437 37.4585 2.1265 0.2715 -20.2497
# 2 12.5437 53.5139 29.2310 11.7335 3.5004 -12.6494
# 3 37.4585 29.2310 121.3604 1.0415 20.2831 -17.2284
# 4 2.1265 11.7335 1.0415 35.9678 -9.0687 0.9667
# 5 0.2715 3.5004 20.2831 -9.0687 26.4460 -3.3142
# 6 -20.2497 -12.6494 -17.2284 0.9667 -3.3142 27.1975
#
#
#
# Elastic Compliance Matrix: (Units=1/GPa)
#
#
# Indices 1 2 3 4 5 6 
#
# 1 0.015545 0.000792 -0.004300 -0.000265 0.004163 0.009735
# 2 0.000792 0.025342 -0.004643 -0.008850 -0.001640 0.009550
# 3 -0.004300 -0.004643 0.012396 -0.000892 -0.008975 0.001429
# 4 -0.000265 -0.008850 -0.000892 0.034129 0.012996 -0.004507
# 5 0.004163 -0.001640 -0.008975 0.012996 0.049607 0.002234
# 6 0.009735 0.009550 0.001429 -0.004507 0.002234 0.049796
#
#
# Mechanical properties :
#
#
# Convention : Reuss Voigt Hill
#
# Bulk Modulus (GPa) = 27.04067 46.67090 36.85579
# Shear Modulus (GPa) = 23.20785 30.07815 26.64300
#
# Velocity S-wave (km/s) = 3.41887 3.89216 3.66316
# Velocity P-wave (km/s) = 5.40407 6.61093 6.03773
#
# Compressibility (1/GPa) = 0.03698133
#
# Stress axis : x y z
#
# Youngs Moduli (GPa) = 64.32927 39.46004 80.67056
#
# Poissons Ratio (x) = -0.03126 0.34691
# Poissons Ratio (y) = -0.05096 0.37453
# Poissons Ratio (z) = 0.27664 0.18320
#
# Static dielectric constant tensor:
#      x y z
#    x 3.824420 -0.111570 -0.179120 
#    y -0.111570 3.478470 0.060120 
#    z -0.179120 0.060120 3.798030 
# 
# 
# High freq. dielectric constant tensor:
#      x y z
#    x 1.777900 -0.015600 -0.006560 
#    y -0.015600 1.754940 -0.002110 
#    z -0.006560 -0.002110 1.784260 
# 
# From -- ./inp_files/178362.got.cif
#   From: 2010.06.25/outbox.cif.g09.slc.cpg/sg2_90_cif.got.tgz:178362.got - 2010.06.27 13:26:56.
