data_PCOD8003428
_publ_section_title
;
Structure prediction by ZEFSAII (Michael W. Deem and Ramdas Pophale) SiO2 
 PCOD8003428
Probable space group: P -1
;
_chemical_formula_sum "Si O2"
_cell_formula_units_Z 16
_cell_length_a 15.263583
_cell_length_b 10.735641
_cell_length_c 7.437354
_cell_angle_alpha 133.615353
_cell_angle_beta 106.165697
_cell_angle_gamma 95.406862
_cell_volume 772.294714
_symmetry_space_group_name_H-M "P -1"
_symmetry_group_IT_number 2
_symmetry_cell_setting 'triclinic'
loop_
_space_group_symop_operation_xyz
x,y,z
-x,-y,-z
loop_
_atom_site_type_symbol
_atom_site_label
_atom_site_fract_x
_atom_site_fract_y
_atom_site_fract_z
Si Si1 0.457734 0.995557 0.269781
Si Si2 0.551605 0.279195 0.304595
Si Si3 0.912588 0.256789 0.829001
Si Si4 0.253247 0.041388 0.157239
Si Si5 0.960177 0.276807 0.252223
Si Si6 0.220904 0.155369 0.625697
Si Si7 0.346741 0.310696 0.171328
Si Si8 0.077415 0.350462 0.722855
O O1 0.500000 0.000000 0.500000
O O2 0.543685 0.150019 0.347248
O O3 0.353804 0.017073 0.240109
O O4 0.432182 0.799428 0.956264
O O5 0.450512 0.306369 0.272889
O O6 0.646113 0.479026 0.581138
O O7 0.980715 0.304913 0.743459
O O8 0.819175 0.060463 0.544576
O O9 0.973407 0.222455 0.000409
O O10 0.872789 0.418892 0.021466
O O11 0.238609 0.167917 0.435490
O O12 0.262048 0.159971 0.099157
O O13 0.157789 0.839802 0.880157
O O14 0.000000 0.500000 0.500000
O O15 0.034266 0.241803 0.400589
O O16 0.151271 0.262761 0.750696
O O17 0.323012 0.261028 0.898776
#
# Coordination Sequence:
#
# PCOD8003428 Si02
#       8
#     2   2   2   2   2   2   2   2
#     4  10  20  40  65  93 119 156 199 249 302 360
#     4   9  21  41  61  87 122 158 194 244 311 363
#     4   9  20  37  55  80 114 156 201 247 299 352
#     4  10  22  38  60  89 120 160 202 243 309 360
#     4   9  19  38  56  82 122 158 196 255 290 353
#     4  11  22  37  57  90 118 154 203 252 294 360
#     4  10  21  41  59  86 125 155 197 250 301 367
#     4  10  20  37  57  81 113 160 203 243 306 346
#
# _framework density 20.717479999999998
#
# number of rings (size 3 to 8) (size 9 to 14) (size 15 to 20)
#    0.000    2.250    0.000    1.875    0.000    4.000 
#   27.000    3.750    0.000    0.000    0.000    0.000 
#    0.000    0.000    0.000    0.000    0.000    0.000 
#
# Total GULP energy -198233.078495 kJ/mol
# GULP energy per Si atom -12389.567406 kJ/mol
# Density = 2.067033 g / cm^3
# Si number density = 20.717480 Si / 1000 Ang^3
#
#
#
# Elastic Constant Matrix: (Units=GPa)
#
#
# Indices 1 2 3 4 5 6 
#
# 1 37.8702 16.7157 26.4601 13.6374 -5.8357 6.9575
# 2 16.7157 85.0963 54.9021 1.8373 2.5852 6.9161
# 3 26.4601 54.9021 139.6324 6.4741 -5.8955 8.3139
# 4 13.6374 1.8373 6.4741 34.4922 2.0910 -5.5557
# 5 -5.8357 2.5852 -5.8955 2.0910 30.0198 2.2937
# 6 6.9575 6.9161 8.3139 -5.5557 2.2937 17.8795
#
#
#
# Elastic Compliance Matrix: (Units=1/GPa)
#
#
# Indices 1 2 3 4 5 6 
#
# 1 0.044208 -0.004255 -0.003987 -0.020661 0.011264 -0.021568
# 2 -0.004255 0.016513 -0.005867 0.001961 -0.003465 -0.000949
# 3 -0.003987 -0.005867 0.010406 -0.000404 0.001908 -0.001388
# 4 -0.020661 0.001961 -0.000404 0.041105 -0.008760 0.021365
# 5 0.011264 -0.003465 0.001908 -0.008760 0.037662 -0.011484
# 6 -0.021568 -0.000949 -0.001388 0.021365 -0.011484 0.073448
#
#
# Mechanical properties :
#
#
# Convention : Reuss Voigt Hill
#
# Bulk Modulus (GPa) = 23.30500 50.97273 37.13887
# Shear Modulus (GPa) = 18.80685 27.44636 23.12661
#
# Velocity S-wave (km/s) = 3.01620 3.64372 3.34471
# Velocity P-wave (km/s) = 4.83770 6.50841 5.73423
#
# Compressibility (1/GPa) = 0.04290924
#
# Stress axis : x y z
#
# Youngs Moduli (GPa) = 22.62035 60.56006 96.09960
#
# Poissons Ratio (x) = 0.25769 0.38311
# Poissons Ratio (y) = 0.09625 0.56381
# Poissons Ratio (z) = 0.09018 0.35530
#
# Static dielectric constant tensor:
#      x y z
#    x 3.477470 0.205880 -0.044770 
#    y 0.205880 4.106740 0.010530 
#    z -0.044770 0.010530 4.186200 
# 
# 
# High freq. dielectric constant tensor:
#      x y z
#    x 1.783940 0.012440 -0.007450 
#    y 0.012440 1.816110 -0.000770 
#    z -0.007450 -0.000770 1.825680 
# 
# From -- ./inp_files/306042.got.cif
#   From: 2010.06.25/outbox.cif.g09.slc.cpg/sg2_154_cif.got.tgz:306042.got - 2010.06.27 13:26:56.
