data_PCOD8003069
_publ_section_title
;
Structure prediction by ZEFSAII (Michael W. Deem and Ramdas Pophale) SiO2 
 PCOD8003069
Probable space group: P -1
;
_chemical_formula_sum "Si O2"
_cell_formula_units_Z 16
_cell_length_a 8.118557
_cell_length_b 16.001488
_cell_length_c 15.296574
_cell_angle_alpha 144.163983
_cell_angle_beta 124.933924
_cell_angle_gamma 79.237664
_cell_volume 778.226467
_symmetry_space_group_name_H-M "P -1"
_symmetry_group_IT_number 2
_symmetry_cell_setting 'triclinic'
loop_
_space_group_symop_operation_xyz
x,y,z
-x,-y,-z
loop_
_atom_site_type_symbol
_atom_site_label
_atom_site_fract_x
_atom_site_fract_y
_atom_site_fract_z
Si Si1 0.288873 0.630239 0.718799
Si Si2 0.625602 0.905570 0.932665
Si Si3 0.039662 0.913101 0.148082
Si Si4 0.481368 0.844789 0.407257
Si Si5 0.331645 0.434485 0.154722
Si Si6 0.696485 0.504994 0.006953
Si Si7 0.654808 0.051121 0.891519
Si Si8 0.764334 0.285543 0.607712
O O1 0.423704 0.702105 0.725749
O O2 0.407514 0.538616 0.723210
O O3 0.000000 0.500000 0.500000
O O4 0.344073 0.789140 0.932735
O O5 0.708986 0.950730 0.895558
O O6 0.867999 0.973529 0.119684
O O7 0.500000 0.000000 0.000000
O O8 0.144605 0.872989 0.060631
O O9 0.897937 0.745794 0.026813
O O10 0.258981 0.085091 0.409178
O O11 0.401112 0.696046 0.186985
O O12 0.263358 0.763253 0.340932
O O13 0.500000 0.000000 0.500000
O O14 0.291391 0.432007 0.035785
O O15 0.334981 0.592921 0.335124
O O16 0.500000 0.500000 0.000000
O O17 0.945514 0.613442 0.231558
O O18 0.381069 0.894378 0.643745
#
# Coordination Sequence:
#
# PCOD8003069 Si02
#       8
#     2   2   2   2   2   2   2   2
#     4  10  23  40  60  88 121 156 193 241 296 345
#     4   9  20  37  56  83 121 154 188 238 292 344
#     4  10  20  36  62  88 113 154 199 241 290 344
#     4  10  20  38  62  85 115 153 192 239 291 346
#     4  10  22  41  60  84 120 157 193 241 294 345
#     4  11  24  38  59  89 119 155 194 240 294 346
#     4  10  22  38  61  88 115 153 199 242 289 347
#     4  10  22  40  59  85 118 154 195 240 289 347
#
# _framework density 20.559569
#
# number of rings (size 3 to 8) (size 9 to 14) (size 15 to 20)
#    0.000    2.000    0.000    3.375    0.000   15.000 
#    0.000    4.375    0.000    0.000    0.000    0.000 
#    0.000    0.000    0.000    0.000    0.000    0.000 
#
# Total GULP energy -198221.182596 kJ/mol
# GULP energy per Si atom -12388.823912 kJ/mol
# Density = 2.051277 g / cm^3
# Si number density = 20.559569 Si / 1000 Ang^3
#
#
#
# Elastic Constant Matrix: (Units=GPa)
#
#
# Indices 1 2 3 4 5 6 
#
# 1 103.1552 49.3410 66.7313 -1.4989 16.0619 -7.3816
# 2 49.3410 117.4748 36.9733 4.6660 7.0715 -9.0864
# 3 66.7313 36.9733 139.2778 0.0585 7.6211 -14.9667
# 4 -1.4989 4.6660 0.0585 26.4601 -5.1663 6.9235
# 5 16.0619 7.0715 7.6211 -5.1663 36.4212 -3.4672
# 6 -7.3816 -9.0864 -14.9667 6.9235 -3.4672 35.4620
#
#
#
# Elastic Compliance Matrix: (Units=1/GPa)
#
#
# Indices 1 2 3 4 5 6 
#
# 1 0.017148 -0.004908 -0.006769 0.001181 -0.005147 -0.001279
# 2 -0.004908 0.010959 -0.000317 -0.002800 -0.000086 0.002191
# 3 -0.006769 -0.000317 0.010818 -0.001048 0.000956 0.003373
# 4 0.001181 -0.002800 -0.001048 0.041626 0.005336 -0.008519
# 5 -0.005147 -0.000086 0.000956 0.005336 0.030418 0.001242
# 6 -0.001279 0.002191 0.003373 -0.008519 0.001242 0.031703
#
#
# Mechanical properties :
#
#
# Convention : Reuss Voigt Hill
#
# Bulk Modulus (GPa) = 66.94489 73.99988 70.47238
# Shear Modulus (GPa) = 29.13088 33.45948 31.29518
#
# Velocity S-wave (km/s) = 3.76826 4.03853 3.90573
# Velocity P-wave (km/s) = 7.18089 7.60377 7.39535
#
# Compressibility (1/GPa) = 0.01493766
#
# Stress axis : x y z
#
# Youngs Moduli (GPa) = 58.31658 91.24690 92.43901
#
# Poissons Ratio (x) = 0.44782 0.62575
# Poissons Ratio (y) = 0.28620 0.02926
# Poissons Ratio (z) = 0.39477 0.02888
#
# Static dielectric constant tensor:
#      x y z
#    x 3.730060 0.238880 0.114940 
#    y 0.238880 3.995310 0.203650 
#    z 0.114940 0.203650 3.123820 
# 
# 
# High freq. dielectric constant tensor:
#      x y z
#    x 1.801260 0.003000 0.017880 
#    y 0.003000 1.817490 0.003280 
#    z 0.017880 0.003280 1.802400 
# 
# From -- ./inp_files/505624.got.cif
#   From: 2010.06.25/outbox.cif.g09.slc.cpg/sg2_253_cif.got.tgz:505624.got - 2010.06.27 13:26:56.
