data_PCOD8003725
_publ_section_title
;
Structure prediction by ZEFSAII (Michael W. Deem and Ramdas Pophale) SiO2 
 PCOD8003725
Probable space group: P -1
;
_chemical_formula_sum "Si O2"
_cell_formula_units_Z 16
_cell_length_a 8.769928
_cell_length_b 8.714113
_cell_length_c 14.511349
_cell_angle_alpha 129.937478
_cell_angle_beta 93.412322
_cell_angle_gamma 103.957948
_cell_volume 790.219866
_symmetry_space_group_name_H-M "P -1"
_symmetry_group_IT_number 2
_symmetry_cell_setting 'triclinic'
loop_
_space_group_symop_operation_xyz
x,y,z
-x,-y,-z
loop_
_atom_site_type_symbol
_atom_site_label
_atom_site_fract_x
_atom_site_fract_y
_atom_site_fract_z
Si Si1 0.141089 0.027153 0.444562
Si Si2 0.412040 0.401946 0.691337
Si Si3 0.001090 0.050644 0.790601
Si Si4 0.330988 0.396851 0.896559
Si Si5 0.447716 0.122847 0.126946
Si Si6 0.734323 0.345068 0.725530
Si Si7 0.118592 0.192985 0.135130
Si Si8 0.739033 0.237124 0.890204
O O1 0.068361 0.034522 0.344601
O O2 0.205853 0.832727 0.385008
O O3 0.287845 0.249676 0.554929
O O4 0.000000 0.000000 0.500000
O O5 0.357003 0.346486 0.773370
O O6 0.416291 0.640928 0.758445
O O7 0.581805 0.361429 0.668850
O O8 0.914716 0.213058 0.886018
O O9 0.199082 0.175312 0.848728
O O10 0.942721 0.842568 0.774580
O O11 0.500000 0.500000 0.000000
O O12 0.244445 0.572377 0.964169
O O13 0.293401 0.180749 0.113332
O O14 0.406075 0.979889 0.163073
O O15 0.500000 0.000000 0.000000
O O16 0.881716 0.577623 0.811080
O O17 0.684128 0.290119 0.808857
O O18 0.000000 0.000000 0.000000
#
# Coordination Sequence:
#
# PCOD8003725 Si02
#       8
#     2   2   2   2   2   2   2   2
#     4  11  23  43  63  86 120 168 213 244 291 367
#     4  11  22  39  61  90 125 161 200 252 299 361
#     4  10  23  40  61  89 126 160 204 247 304 362
#     4  12  21  34  63  93 124 152 205 253 307 358
#     4  10  21  36  57  93 126 153 198 251 306 360
#     4  10  22  41  63  88 121 161 206 250 304 359
#     4  10  22  39  62  91 125 158 195 253 316 360
#     4  10  20  37  60  91 124 159 194 252 312 360
#
# _framework density 20.247527000000002
#
# number of rings (size 3 to 8) (size 9 to 14) (size 15 to 20)
#    0.000    1.500    3.750    1.500    1.750    4.000 
#    0.000   11.875    0.000    0.000    0.000    0.000 
#    0.000    0.000    0.000    0.000    0.000    0.000 
#
# Total GULP energy -198341.912176 kJ/mol
# GULP energy per Si atom -12396.369511 kJ/mol
# Density = 2.020144 g / cm^3
# Si number density = 20.247527 Si / 1000 Ang^3
#
#
#
# Elastic Constant Matrix: (Units=GPa)
#
#
# Indices 1 2 3 4 5 6 
#
# 1 71.9684 40.5203 52.7619 4.4071 -0.8868 17.4060
# 2 40.5203 153.6417 60.7064 14.1290 -1.2910 11.6572
# 3 52.7619 60.7064 135.0824 17.0911 0.6838 5.6468
# 4 4.4071 14.1290 17.0911 38.2924 2.9025 0.7992
# 5 -0.8868 -1.2910 0.6838 2.9025 39.7231 1.6518
# 6 17.4060 11.6572 5.6468 0.7992 1.6518 25.8808
#
#
#
# Elastic Compliance Matrix: (Units=1/GPa)
#
#
# Indices 1 2 3 4 5 6 
#
# 1 0.024399 -0.002341 -0.008151 0.001901 0.001040 -0.013702
# 2 -0.002341 0.008435 -0.002597 -0.001684 0.000458 -0.001636
# 3 -0.008151 -0.002597 0.012028 -0.003530 -0.000389 0.004161
# 4 0.001901 -0.001684 -0.003530 0.028254 -0.001995 -0.000495
# 5 0.001040 0.000458 -0.000389 -0.001995 0.025464 -0.002384
# 6 -0.013702 -0.001636 0.004161 -0.000495 -0.002384 0.047850
#
#
# Mechanical properties :
#
#
# Convention : Reuss Voigt Hill
#
# Bulk Modulus (GPa) = 53.52095 74.29663 63.90879
# Shear Modulus (GPa) = 27.95842 34.55952 31.25897
#
# Velocity S-wave (km/s) = 3.71998 4.13589 3.93344
# Velocity P-wave (km/s) = 6.70386 7.71889 7.22921
#
# Compressibility (1/GPa) = 0.01868427
#
# Stress axis : x y z
#
# Youngs Moduli (GPa) = 40.98550 118.55325 83.13604
#
# Poissons Ratio (x) = 0.27749 0.67765
# Poissons Ratio (y) = 0.09593 0.21593
# Poissons Ratio (z) = 0.33408 0.30792
#
# Static dielectric constant tensor:
#      x y z
#    x 3.868060 0.082100 0.093200 
#    y 0.082100 3.294620 0.525010 
#    z 0.093200 0.525010 3.937510 
# 
# 
# High freq. dielectric constant tensor:
#      x y z
#    x 1.792380 0.014040 -0.007530 
#    y 0.014040 1.796920 0.007220 
#    z -0.007530 0.007220 1.778760 
# 
# From -- ./inp_files/178813.got.cif
#   From: 2010.06.25/outbox.cif.g09.slc.cpg/sg2_90_cif.got.tgz:178813.got - 2010.06.27 13:26:56.
