data_PCOD8003567
_publ_section_title
;
Structure prediction by ZEFSAII (Michael W. Deem and Ramdas Pophale) SiO2 
 PCOD8003567
Probable space group: P -1
;
_chemical_formula_sum "Si O2"
_cell_formula_units_Z 16
_cell_length_a 5.069189
_cell_length_b 26.549288
_cell_length_c 5.422965
_cell_angle_alpha 51.842220
_cell_angle_beta 92.733937
_cell_angle_gamma 84.759692
_cell_volume 566.408806
_symmetry_space_group_name_H-M "P -1"
_symmetry_group_IT_number 2
_symmetry_cell_setting 'triclinic'
loop_
_space_group_symop_operation_xyz
x,y,z
-x,-y,-z
loop_
_atom_site_type_symbol
_atom_site_label
_atom_site_fract_x
_atom_site_fract_y
_atom_site_fract_z
Si Si1 0.280947 0.954435 0.143164
Si Si2 0.875078 0.074822 0.275289
Si Si3 0.142803 0.396289 0.819086
Si Si4 0.519615 0.374902 0.445375
Si Si5 0.226809 0.507926 0.795288
Si Si6 0.532470 0.255986 0.502433
Si Si7 0.905555 0.284404 0.038254
Si Si8 0.912813 0.803178 0.082561
O O1 0.310489 0.911952 0.526430
O O2 0.295113 0.908928 0.035798
O O3 0.500000 0.000000 0.000000
O O4 0.000000 0.000000 0.000000
O O5 0.000000 0.000000 0.500000
O O6 0.113442 0.118671 0.165555
O O7 0.302787 0.374571 0.646622
O O8 0.308402 0.432998 0.918720
O O9 0.878702 0.448140 0.578992
O O10 0.053143 0.327111 0.113904
O O11 0.553156 0.452002 0.178885
O O12 0.445519 0.332779 0.333432
O O13 0.803208 0.336921 0.663836
O O14 0.000000 0.500000 0.000000
O O15 0.657258 0.254411 0.237339
O O16 0.277580 0.217926 0.646454
O O17 0.769829 0.220556 0.790794
O O18 0.127578 0.228549 0.092407
#
# Coordination Sequence:
#
# PCOD8003567 Si02
#       8
#     2   2   2   2   2   2   2   2
#     4  10  22  42  71 103 142 188 233 284 355 429
#     4  10  24  47  73 110 149 193 241 303 367 440
#     4  10  20  37  59  85 129 162 225 275 345 411
#     4  10  21  39  59  90 126 170 227 280 342 420
#     4  10  21  34  55  90 122 168 215 279 345 412
#     4  11  25  43  69  97 134 183 232 286 354 417
#     4  10  23  42  64  92 130 178 223 291 344 415
#     4  11  26  44  67 103 137 176 239 285 349 429
#
# _framework density 28.248146999999999
#
# number of rings (size 3 to 8) (size 9 to 14) (size 15 to 20)
#    0.000    1.750    1.250    1.500    3.500    5.500 
#    0.000    0.000    0.000    0.000    0.000    0.000 
#    0.000    0.000    0.000    0.000    0.000    0.000 
#
# Total GULP energy -198264.797120 kJ/mol
# GULP energy per Si atom -12391.549820 kJ/mol
# Density = 2.818385 g / cm^3
# Si number density = 28.248147 Si / 1000 Ang^3
#
#
#
# Elastic Constant Matrix: (Units=GPa)
#
#
# Indices 1 2 3 4 5 6 
#
# 1 108.9082 47.2384 36.2346 -10.1314 -37.6370 23.2947
# 2 47.2384 160.1827 68.0822 -9.2194 -20.1583 27.9753
# 3 36.2346 68.0822 147.8021 -6.8114 -48.3460 15.8938
# 4 -10.1314 -9.2194 -6.8114 66.6640 3.0668 -5.7579
# 5 -37.6370 -20.1583 -48.3460 3.0668 55.6281 -3.8620
# 6 23.2947 27.9753 15.8938 -5.7579 -3.8620 47.5534
#
#
#
# Elastic Compliance Matrix: (Units=1/GPa)
#
#
# Indices 1 2 3 4 5 6 
#
# 1 0.014361 -0.002707 0.001453 0.001082 0.009590 -0.005018
# 2 -0.002707 0.008897 -0.003823 0.000288 -0.002138 -0.002769
# 3 0.001453 -0.003823 0.011419 0.000298 0.009402 -0.001479
# 4 0.001082 0.000288 0.000298 0.015314 0.000327 0.001082
# 5 0.009590 -0.002138 0.009402 0.000327 0.031567 -0.003979
# 6 -0.005018 -0.002769 -0.001479 0.001082 -0.003979 0.025418
#
#
# Mechanical properties :
#
#
# Convention : Reuss Voigt Hill
#
# Bulk Modulus (GPa) = 40.77913 80.00038 60.38975
# Shear Modulus (GPa) = 39.90239 51.65829 45.78034
#
# Velocity S-wave (km/s) = 3.76249 4.28101 4.03010
# Velocity P-wave (km/s) = 5.77430 7.26761 6.56356
#
# Compressibility (1/GPa) = 0.02452235
#
# Stress axis : x y z
#
# Youngs Moduli (GPa) = 69.63306 112.39542 87.57281
#
# Poissons Ratio (x) = 0.30425 -0.12720
# Poissons Ratio (y) = 0.18849 0.33479
# Poissons Ratio (z) = -0.10114 0.42969
#
# Static dielectric constant tensor:
#      x y z
#    x 5.012210 0.160980 -0.012220 
#    y 0.160980 6.695370 1.027830 
#    z -0.012220 1.027830 6.748390 
# 
# 
# High freq. dielectric constant tensor:
#      x y z
#    x 2.140830 0.019260 0.012960 
#    y 0.019260 2.160110 -0.005850 
#    z 0.012960 -0.005850 2.158490 
# 
# From -- ./inp_files/10688.got.cif
#   From: 2010.06.25/outbox.cif.g09.slc.cpg/sg2_6_cif.got.tgz:10688.got - 2010.06.27 13:26:56.
