data_PCOD8003040
_publ_section_title
;
Structure prediction by ZEFSAII (Michael W. Deem and Ramdas Pophale) SiO2 
 PCOD8003040
Probable space group: P -1
;
_chemical_formula_sum "Si O2"
_cell_formula_units_Z 14
_cell_length_a 7.188936
_cell_length_b 14.772143
_cell_length_c 11.363592
_cell_angle_alpha 56.139995
_cell_angle_beta 70.714061
_cell_angle_gamma 113.474872
_cell_volume 633.053335
_symmetry_space_group_name_H-M "P -1"
_symmetry_group_IT_number 2
_symmetry_cell_setting 'triclinic'
loop_
_space_group_symop_operation_xyz
x,y,z
-x,-y,-z
loop_
_atom_site_type_symbol
_atom_site_label
_atom_site_fract_x
_atom_site_fract_y
_atom_site_fract_z
Si Si1 0.367514 0.503562 0.274683
Si Si2 0.716932 0.223174 0.707241
Si Si3 0.736788 0.773329 0.176676
Si Si4 0.918287 0.923168 0.258476
Si Si5 0.760085 0.367554 0.980321
Si Si6 0.517279 0.082074 0.098348
Si Si7 0.580931 0.355036 0.283907
O O1 0.614996 0.620545 0.240421
O O2 0.385081 0.607924 0.099668
O O3 0.438082 0.416714 0.264348
O O4 0.048009 0.378819 0.487583
O O5 0.542278 0.263094 0.720121
O O6 0.554264 0.075375 0.754423
O O7 0.715990 0.171715 0.875065
O O8 0.852567 0.797697 0.267785
O O9 0.014953 0.938649 0.927824
O O10 0.639741 0.819323 0.478223
O O11 0.204852 0.013757 0.206698
O O12 0.111207 0.525191 0.798368
O O13 0.692643 0.213872 0.071059
O O14 0.612347 0.327685 0.164936
#
# Coordination Sequence:
#
# PCOD8003040 Si02
#       7
#     2   2   2   2   2   2   2
#     4  12  22  41  66  96 123 168 204 259 315 366
#     4  10  20  36  61  94 124 158 198 256 317 366
#     4  10  22  36  64  95 132 155 202 263 314 373
#     4  10  20  41  58  95 121 162 207 253 305 378
#     4  11  25  46  61  91 127 168 212 259 300 369
#     4  10  21  40  62  88 129 161 201 255 315 367
#     4  11  26  42  66  89 126 169 215 252 303 371
#
# _framework density 22.115038999999999
#
# number of rings (size 3 to 8) (size 9 to 14) (size 15 to 20)
#    0.000    1.429    4.286    1.714    2.000    5.714 
#    0.000    0.000    0.000    4.286    0.000    0.000 
#    0.000    0.000    0.000    0.000    0.000    0.000 
#
# Total GULP energy -173527.225943 kJ/mol
# GULP energy per Si atom -12394.801853 kJ/mol
# Density = 2.206470 g / cm^3
# Si number density = 22.115039 Si / 1000 Ang^3
#
#
#
# Elastic Constant Matrix: (Units=GPa)
#
#
# Indices 1 2 3 4 5 6 
#
# 1 -1.7914 -1.8953 22.2101 -0.0748 -9.9992 6.7194
# 2 -1.8953 133.5587 56.5518 -8.4274 -6.2096 3.9576
# 3 22.2101 56.5518 153.8532 8.0478 -22.4550 1.8928
# 4 -0.0748 -8.4274 8.0478 22.0336 -2.2771 -0.1229
# 5 -9.9992 -6.2096 -22.4550 -2.2771 26.2422 -3.5539
# 6 6.7194 3.9576 1.8928 -0.1229 -3.5539 28.7035
#
#
#
# Elastic Compliance Matrix: (Units=1/GPa)
#
#
# Indices 1 2 3 4 5 6 
#
# 1 -0.107798 -0.011079 0.015936 -0.013216 -0.028205 0.022163
# 2 -0.011079 0.008270 -0.002175 0.003548 -0.003661 0.001159
# 3 0.015936 -0.002175 0.006714 -0.002131 0.010772 -0.002549
# 4 -0.013216 0.003548 -0.002131 0.047332 -0.001539 0.002757
# 5 -0.028205 -0.003661 0.010772 -0.001539 0.037064 0.010980
# 6 0.022163 0.001159 -0.002549 0.002757 0.010980 0.031030
#
#
# Mechanical properties :
#
#
# Convention : Reuss Voigt Hill
#
# Bulk Modulus (GPa) = -11.43510 48.81706 18.69098
# Shear Modulus (GPa) = -420.09250 29.31279 -195.38986
#
# Velocity S-wave (km/s) = -13.79747 3.64465 -9.40975
# Velocity P-wave (km/s) = 16.09375 6.31137 10.46842
#
# Compressibility (1/GPa) = -0.08745006
#
# Stress axis : x y z
#
# Youngs Moduli (GPa) = -9.27661 120.91547 148.95308
#
# Poissons Ratio (x) = 1.33967 -2.37373
# Poissons Ratio (y) = -0.10278 0.32391
# Poissons Ratio (z) = 0.14783 0.26294
#
# Static dielectric constant tensor:
#      x y z
#    x 3.903040 0.041890 -0.074240 
#    y 0.041890 4.100740 -0.162340 
#    z -0.074240 -0.162340 4.031990 
# 
# 
# High freq. dielectric constant tensor:
#      x y z
#    x 1.861020 0.002170 -0.019110 
#    y 0.002170 1.864840 -0.014430 
#    z -0.019110 -0.014430 1.874920 
# 
# From -- ./inp_files/169913.got.cif
#   From: 2010.06.25/outbox.cif.g09.slc.cpg/sg2_85_cif.got.tgz:169913.got - 2010.06.27 13:26:56.
