data_PCOD8003955
_publ_section_title
;
Structure prediction by ZEFSAII (Michael W. Deem and Ramdas Pophale) SiO2 
 PCOD8003955
Probable space group: P -1
;
_chemical_formula_sum "Si O2"
_cell_formula_units_Z 14
_cell_length_a 10.034008
_cell_length_b 8.273582
_cell_length_c 18.309104
_cell_angle_alpha 117.126194
_cell_angle_beta 140.432674
_cell_angle_gamma 90.737414
_cell_volume 660.171943
_symmetry_space_group_name_H-M "P -1"
_symmetry_group_IT_number 2
_symmetry_cell_setting 'triclinic'
loop_
_space_group_symop_operation_xyz
x,y,z
-x,-y,-z
loop_
_atom_site_type_symbol
_atom_site_label
_atom_site_fract_x
_atom_site_fract_y
_atom_site_fract_z
Si Si1 0.185444 0.108390 0.672159
Si Si2 0.217963 0.724885 0.588829
Si Si3 0.610042 0.434876 0.597758
Si Si4 0.437606 0.349884 0.082162
Si Si5 0.968016 0.960638 0.704848
Si Si6 0.058281 0.599565 0.718001
Si Si7 0.702286 0.754112 0.829133
O O1 0.435908 0.385919 0.829801
O O2 0.024530 0.063748 0.668789
O O3 0.297016 0.967169 0.700279
O O4 0.000000 0.000000 0.500000
O O5 0.502689 0.784034 0.713408
O O6 0.000000 0.500000 0.500000
O O7 0.079073 0.645214 0.434096
O O8 0.500000 0.500000 0.500000
O O9 0.676867 0.559311 0.730170
O O10 0.899785 0.510064 0.710361
O O11 0.348930 0.157988 0.441542
O O12 0.623479 0.282644 0.118624
O O13 0.391407 0.325617 0.144003
O O14 0.148551 0.169360 0.882859
O O15 0.020789 0.772160 0.696731
O O16 0.000000 0.000000 0.000000
#
# Coordination Sequence:
#
# PCOD8003955 Si02
#       7
#     2   2   2   2   2   2   2
#     4  12  23  40  66  94 131 173 212 264 319 382
#     4  12  20  41  68  96 124 168 220 263 313 382
#     4  10  20  37  62  92 125 161 205 265 319 359
#     4  12  25  40  64  99 128 168 216 262 319 380
#     4  11  22  40  64  91 131 166 214 265 316 376
#     4  11  21  39  68  96 124 166 217 263 314 378
#     4  12  23  41  68  99 127 166 216 268 319 381
#
# _framework density 21.206596000000001
#
# number of rings (size 3 to 8) (size 9 to 14) (size 15 to 20)
#    0.000    0.571    7.143    3.429    0.000    1.143 
#    0.000    1.429    0.000    0.000    0.000    0.000 
#    0.000    0.000    0.000    0.000    0.000    0.000 
#
# Total GULP energy -173492.042510 kJ/mol
# GULP energy per Si atom -12392.288751 kJ/mol
# Density = 2.115833 g / cm^3
# Si number density = 21.206596 Si / 1000 Ang^3
#
#
#
# Elastic Constant Matrix: (Units=GPa)
#
#
# Indices 1 2 3 4 5 6 
#
# 1 149.3176 30.4318 54.8030 4.3885 4.5069 25.7772
# 2 30.4318 52.5567 23.6365 23.2037 1.0189 9.4436
# 3 54.8030 23.6365 147.8654 14.2148 1.6579 12.5819
# 4 4.3885 23.2037 14.2148 35.3893 5.6268 -4.7112
# 5 4.5069 1.0189 1.6579 5.6268 43.3070 -0.7202
# 6 25.7772 9.4436 12.5819 -4.7112 -0.7202 32.1258
#
#
#
# Elastic Compliance Matrix: (Units=1/GPa)
#
#
# Indices 1 2 3 4 5 6 
#
# 1 0.009335 -0.004344 -0.002550 0.002243 -0.001145 -0.004911
# 2 -0.004344 0.033616 -0.000800 -0.022827 0.002502 -0.009374
# 3 -0.002550 -0.000800 0.008202 -0.002676 0.000296 -0.001317
# 4 0.002243 -0.022827 -0.002676 0.046571 -0.005434 0.012666
# 5 -0.001145 0.002502 0.000296 -0.005434 0.023843 -0.000195
# 6 -0.004911 -0.009374 -0.001317 0.012666 -0.000195 0.040193
#
#
# Mechanical properties :
#
#
# Convention : Reuss Voigt Hill
#
# Bulk Modulus (GPa) = 27.96021 63.05360 45.50690
# Shear Modulus (GPa) = 26.44545 38.22230 32.33387
#
# Velocity S-wave (km/s) = 3.53517 4.25005 3.90899
# Velocity P-wave (km/s) = 5.46595 7.34040 6.47140
#
# Compressibility (1/GPa) = 0.03576511
#
# Stress axis : x y z
#
# Youngs Moduli (GPa) = 107.12444 29.74789 121.92237
#
# Poissons Ratio (x) = 0.12922 0.31094
# Poissons Ratio (y) = 0.46534 0.09748
# Poissons Ratio (z) = 0.27320 0.02378
#
# Static dielectric constant tensor:
#      x y z
#    x 5.719420 0.886100 0.767360 
#    y 0.886100 4.031320 0.615270 
#    z 0.767360 0.615270 4.427950 
# 
# 
# High freq. dielectric constant tensor:
#      x y z
#    x 1.844370 0.018800 -0.003160 
#    y 0.018800 1.801840 0.008170 
#    z -0.003160 0.008170 1.842980 
# 
# From -- ./inp_files/160214.got.cif
#   From: 2010.06.25/outbox.cif.g09.slc.cpg/sg2_81_cif.got.tgz:160214.got - 2010.06.27 13:26:56.
