data_PCOD8003642
_publ_section_title
;
Structure prediction by ZEFSAII (Michael W. Deem and Ramdas Pophale) SiO2 
 PCOD8003642
Probable space group: P -1
;
_chemical_formula_sum "Si O2"
_cell_formula_units_Z 14
_cell_length_a 16.141385
_cell_length_b 9.698053
_cell_length_c 7.709954
_cell_angle_alpha 49.744544
_cell_angle_beta 129.571165
_cell_angle_gamma 100.332185
_cell_volume 652.304194
_symmetry_space_group_name_H-M "P -1"
_symmetry_group_IT_number 2
_symmetry_cell_setting 'triclinic'
loop_
_space_group_symop_operation_xyz
x,y,z
-x,-y,-z
loop_
_atom_site_type_symbol
_atom_site_label
_atom_site_fract_x
_atom_site_fract_y
_atom_site_fract_z
Si Si1 0.210626 0.159432 0.829279
Si Si2 0.793817 0.250258 0.847677
Si Si3 0.201604 0.142234 0.221741
Si Si4 0.232769 0.710367 0.594685
Si Si5 0.366173 0.047447 0.817104
Si Si6 0.941046 0.403376 0.721233
Si Si7 0.368490 0.625655 0.170464
O O1 0.317085 0.154017 0.849357
O O2 0.101434 0.364920 0.485121
O O3 0.253349 0.145390 0.096702
O O4 0.170087 0.981424 0.875955
O O5 0.715195 0.310277 0.515769
O O6 0.910464 0.293651 0.935154
O O7 0.718252 0.394054 0.781712
O O8 0.290588 0.173607 0.452423
O O9 0.184030 0.939775 0.397342
O O10 0.077475 0.321400 0.932704
O O11 0.125523 0.637084 0.504539
O O12 0.330877 0.574182 0.972710
O O13 0.500000 0.000000 0.000000
O O14 0.349408 0.848134 0.961091
O O15 0.500000 0.500000 0.500000
#
# Coordination Sequence:
#
# PCOD8003642 Si02
#       7
#     2   2   2   2   2   2   2
#     4  10  21  39  59  90 119 152 200 235 294 355
#     4   8  20  38  55  87 125 148 190 248 291 338
#     4  10  20  41  60  86 122 154 194 245 291 352
#     4   8  19  36  56  86 116 152 189 239 294 338
#     4  10  24  41  59  85 120 156 197 249 292 339
#     4  10  20  38  64  88 120 157 191 237 302 354
#     4  10  20  37  60  84 116 157 202 239 288 351
#
# _framework density 21.462378000000001
#
# number of rings (size 3 to 8) (size 9 to 14) (size 15 to 20)
#    0.857    1.714    0.000    0.857    2.000    2.857 
#    2.571    3.571    0.000    0.000    0.000    0.000 
#    0.000    0.000    0.000    0.000    0.000    0.000 
#
# Total GULP energy -173437.342279 kJ/mol
# GULP energy per Si atom -12388.381591 kJ/mol
# Density = 2.141353 g / cm^3
# Si number density = 21.462378 Si / 1000 Ang^3
#
#
#
# Elastic Constant Matrix: (Units=GPa)
#
#
# Indices 1 2 3 4 5 6 
#
# 1 129.6688 35.1588 48.6150 6.4868 1.0445 -23.8400
# 2 35.1588 51.6247 40.8385 -0.6826 -2.6384 -11.8727
# 3 48.6150 40.8385 130.5351 9.2432 8.6115 -13.1481
# 4 6.4868 -0.6826 9.2432 26.6968 2.9191 -0.5823
# 5 1.0445 -2.6384 8.6115 2.9191 29.4207 -1.1886
# 6 -23.8400 -11.8727 -13.1481 -0.5823 -1.1886 25.8277
#
#
#
# Elastic Compliance Matrix: (Units=1/GPa)
#
#
# Indices 1 2 3 4 5 6 
#
# 1 0.011023 -0.004379 -0.001888 -0.002008 0.000258 0.007167
# 2 -0.004379 0.030300 -0.007847 0.004143 0.005009 0.006217
# 3 -0.001888 -0.007847 0.011305 -0.003257 -0.003616 0.000165
# 4 -0.002008 0.004143 -0.003257 0.039440 -0.002551 -0.000835
# 5 0.000258 0.005009 -0.003616 -0.002551 0.035834 0.002291
# 6 0.007167 0.006217 0.000165 -0.000835 0.002291 0.048362
#
#
# Mechanical properties :
#
#
# Convention : Reuss Voigt Hill
#
# Bulk Modulus (GPa) = 40.98164 62.33925 51.66045
# Shear Modulus (GPa) = 23.51560 28.87012 26.19286
#
# Velocity S-wave (km/s) = 3.31368 3.67161 3.49722
# Velocity P-wave (km/s) = 5.81177 6.86172 6.35845
#
# Compressibility (1/GPa) = 0.02440117
#
# Stress axis : x y z
#
# Youngs Moduli (GPa) = 90.71673 33.00307 88.45915
#
# Poissons Ratio (x) = 0.14451 0.16704
# Poissons Ratio (y) = 0.39721 0.69410
# Poissons Ratio (z) = 0.17131 0.25896
#
# Static dielectric constant tensor:
#      x y z
#    x 4.104710 -0.275540 -0.618630 
#    y -0.275540 3.901410 0.043340 
#    z -0.618630 0.043340 3.611220 
# 
# 
# High freq. dielectric constant tensor:
#      x y z
#    x 1.841320 -0.006210 -0.022890 
#    y -0.006210 1.834340 -0.011450 
#    z -0.022890 -0.011450 1.820540 
# 
# From -- ./inp_files/332971.got.cif
#   From: 2010.06.25/outbox.cif.g09.slc.cpg/sg2_167_cif.got.tgz:332971.got - 2010.06.27 13:26:56.
