data_PCOD8003187
_publ_section_title
;
Structure prediction by ZEFSAII (Michael W. Deem and Ramdas Pophale) SiO2 
 PCOD8003187
Probable space group: P -1
;
_chemical_formula_sum "Si O2"
_cell_formula_units_Z 16
_cell_length_a 10.678823
_cell_length_b 7.654456
_cell_length_c 9.140998
_cell_angle_alpha 96.097986
_cell_angle_beta 73.155077
_cell_angle_gamma 112.988028
_cell_volume 658.319009
_symmetry_space_group_name_H-M "P -1"
_symmetry_group_IT_number 2
_symmetry_cell_setting 'triclinic'
loop_
_space_group_symop_operation_xyz
x,y,z
-x,-y,-z
loop_
_atom_site_type_symbol
_atom_site_label
_atom_site_fract_x
_atom_site_fract_y
_atom_site_fract_z
Si Si1 0.074016 0.496881 0.695361
Si Si2 0.709403 0.686957 0.221319
Si Si3 0.946989 0.191748 0.483604
Si Si4 0.326146 0.161978 0.445311
Si Si5 0.241998 0.958696 0.944462
Si Si6 0.054283 0.325450 0.043051
Si Si7 0.180250 0.162747 0.228373
Si Si8 0.625526 0.296714 0.262366
O O1 0.031398 0.641775 0.624329
O O2 0.243893 0.596569 0.662951
O O3 0.016862 0.290233 0.622038
O O4 0.984464 0.491459 0.879678
O O5 0.701539 0.732770 0.396889
O O6 0.679858 0.841508 0.147257
O O7 0.597804 0.472213 0.207522
O O8 0.864951 0.667773 0.139220
O O9 0.038415 0.075383 0.371378
O O10 0.782542 0.057448 0.542980
O O11 0.304038 0.266391 0.313466
O O12 0.487052 0.170426 0.389746
O O13 0.336292 0.832498 0.881973
O O14 0.219712 0.994939 0.125242
O O15 0.088748 0.860803 0.912515
O O16 0.167572 0.301591 0.118257
#
# Coordination Sequence:
#
# PCOD8003187 Si02
#       8
#     2   2   2   2   2   2   2   2
#     4   9  20  38  61  94 126 159 209 263 310 368
#     4  11  22  40  64  90 123 166 209 253 307 366
#     4  10  20  36  63  93 125 164 207 261 317 358
#     4  12  24  38  61  94 129 166 205 253 314 374
#     4  10  22  42  65  90 125 166 208 257 312 370
#     4   9  19  39  64  90 122 163 211 261 311 362
#     4  10  20  37  61  89 121 158 206 261 308 359
#     4  11  25  41  61  93 131 166 208 250 307 383
#
# _framework density 24.304326
#
# number of rings (size 3 to 8) (size 9 to 14) (size 15 to 20)
#    0.000    1.750    0.000    6.000    0.000    7.500 
#    0.000    5.000    0.000    0.000    0.000    0.000 
#    0.000    0.000    0.000    0.000    0.000    0.000 
#
# Total GULP energy -198269.600930 kJ/mol
# GULP energy per Si atom -12391.850058 kJ/mol
# Density = 2.424901 g / cm^3
# Si number density = 24.304326 Si / 1000 Ang^3
#
#
#
# Elastic Constant Matrix: (Units=GPa)
#
#
# Indices 1 2 3 4 5 6 
#
# 1 75.9176 35.9619 65.9905 14.4416 -25.0240 15.8614
# 2 35.9619 134.2935 75.9276 23.2699 -27.7217 0.5730
# 3 65.9905 75.9276 190.2899 40.6196 -28.7691 9.3963
# 4 14.4416 23.2699 40.6196 31.4862 -1.9390 -9.1081
# 5 -25.0240 -27.7217 -28.7691 -1.9390 34.0857 -4.5490
# 6 15.8614 0.5730 9.3963 -9.1081 -4.5490 24.5854
#
#
#
# Elastic Compliance Matrix: (Units=1/GPa)
#
#
# Indices 1 2 3 4 5 6 
#
# 1 0.026919 -0.000184 -0.003954 -0.011387 0.013277 -0.017613
# 2 -0.000184 0.010969 -0.002393 -0.004430 0.006561 0.000350
# 3 -0.003954 -0.002393 0.010766 -0.011663 0.002867 -0.005298
# 4 -0.011387 -0.004430 -0.011663 0.064026 -0.013749 0.033083
# 5 0.013277 0.006561 0.002867 -0.013749 0.045186 -0.006548
# 6 -0.017613 0.000350 -0.005298 0.033083 -0.006548 0.065099
#
#
# Mechanical properties :
#
#
# Convention : Reuss Voigt Hill
#
# Bulk Modulus (GPa) = 28.09594 84.02900 56.06247
# Shear Modulus (GPa) = 20.17037 32.87287 26.52162
#
# Velocity S-wave (km/s) = 2.88394 3.68170 3.30696
# Velocity P-wave (km/s) = 4.76179 7.26099 6.13989
#
# Compressibility (1/GPa) = 0.03559233
#
# Stress axis : x y z
#
# Youngs Moduli (GPa) = 37.14896 91.16658 92.88827
#
# Poissons Ratio (x) = 0.01677 0.36728
# Poissons Ratio (y) = 0.00683 0.22224
# Poissons Ratio (z) = 0.14689 0.21812
#
# Static dielectric constant tensor:
#      x y z
#    x 4.206760 -0.253290 -0.020480 
#    y -0.253290 4.449660 0.202350 
#    z -0.020480 0.202350 4.931610 
# 
# 
# High freq. dielectric constant tensor:
#      x y z
#    x 1.946010 -0.027130 -0.002260 
#    y -0.027130 1.957520 0.009090 
#    z -0.002260 0.009090 1.992600 
# 
# From -- ./inp_files/244430.got.cif
#   From: 2010.06.25/outbox.cif.g09.slc.cpg/sg2_123_cif.got.tgz:244430.got - 2010.06.27 13:26:56.
