data_PCOD8003359
_publ_section_title
;
Structure prediction by ZEFSAII (Michael W. Deem and Ramdas Pophale) SiO2 
 PCOD8003359
Probable space group: P -1
;
_chemical_formula_sum "Si O2"
_cell_formula_units_Z 16
_cell_length_a 8.205510
_cell_length_b 19.765932
_cell_length_c 9.591093
_cell_angle_alpha 55.401508
_cell_angle_beta 129.608476
_cell_angle_gamma 90.578770
_cell_volume 820.681776
_symmetry_space_group_name_H-M "P -1"
_symmetry_group_IT_number 2
_symmetry_cell_setting 'triclinic'
loop_
_space_group_symop_operation_xyz
x,y,z
-x,-y,-z
loop_
_atom_site_type_symbol
_atom_site_label
_atom_site_fract_x
_atom_site_fract_y
_atom_site_fract_z
Si Si1 0.320971 0.079455 0.921332
Si Si2 0.821907 0.103476 0.559263
Si Si3 0.867066 0.720846 0.563986
Si Si4 0.881408 0.617825 0.174201
Si Si5 0.801254 0.600852 0.449763
Si Si6 0.302573 0.204990 0.317836
Si Si7 0.370334 0.696380 0.911639
Si Si8 0.667280 0.981793 0.481087
O O1 0.236406 0.187699 0.702762
O O2 0.077711 0.071893 0.819273
O O3 0.500000 0.000000 0.000000
O O4 0.475727 0.057567 0.172390
O O5 0.595456 0.142123 0.502370
O O6 0.765010 0.186267 0.317561
O O7 0.865215 0.010863 0.599628
O O8 0.837258 0.640142 0.567475
O O9 0.711760 0.752076 0.587182
O O10 0.166386 0.668230 0.817975
O O11 0.946057 0.613306 0.381073
O O12 0.084262 0.515070 0.330390
O O13 0.878308 0.706647 0.991714
O O14 0.595250 0.639961 0.983528
O O15 0.500142 0.661265 0.177016
O O16 0.198609 0.132984 0.357128
O O17 0.500000 0.000000 0.500000
#
# Coordination Sequence:
#
# PCOD8003359 Si02
#       8
#     2   2   2   2   2   2   2   2
#     4  11  22  39  56  87 111 144 194 228 263 337
#     4   9  20  38  60  75 116 153 182 223 276 325
#     4  11  21  34  57  83 115 140 182 234 275 320
#     4   8  18  38  60  78 109 144 187 226 271 335
#     4   9  18  37  63  78 104 149 186 221 278 333
#     4  10  20  37  54  84 116 144 183 235 273 324
#     4   8  17  36  56  82 108 141 186 226 265 330
#     4  10  21  37  57  79 111 153 185 222 274 319
#
# _framework density 19.495984
#
# number of rings (size 3 to 8) (size 9 to 14) (size 15 to 20)
#    0.750    1.750    1.250    0.750    1.750    3.500 
#    2.250    1.875    2.750    0.000    0.000    0.000 
#    0.000    0.000    0.000    0.000    0.000    0.000 
#
# Total GULP energy -198268.454028 kJ/mol
# GULP energy per Si atom -12391.778377 kJ/mol
# Density = 1.945161 g / cm^3
# Si number density = 19.495984 Si / 1000 Ang^3
#
#
#
# Elastic Constant Matrix: (Units=GPa)
#
#
# Indices 1 2 3 4 5 6 
#
# 1 45.2339 15.6398 22.4007 2.8302 0.8530 -5.5687
# 2 15.6398 102.4478 36.3235 2.2897 0.4664 -13.3782
# 3 22.4007 36.3235 68.4199 -2.4554 -7.9335 8.2795
# 4 2.8302 2.2897 -2.4554 29.8762 -0.4036 -2.3071
# 5 0.8530 0.4664 -7.9335 -0.4036 23.4667 5.4756
# 6 -5.5687 -13.3782 8.2795 -2.3071 5.4756 23.7034
#
#
#
# Elastic Compliance Matrix: (Units=1/GPa)
#
#
# Indices 1 2 3 4 5 6 
#
# 1 0.030796 0.002700 -0.014700 -0.003241 -0.009900 0.015865
# 2 0.002700 0.015729 -0.012101 -0.001370 -0.008139 0.015486
# 3 -0.014700 -0.012101 0.030936 0.003184 0.017056 -0.024719
# 4 -0.003241 -0.001370 0.003184 0.034190 0.001745 0.000278
# 5 -0.009900 -0.008139 0.017056 0.001745 0.054853 -0.025379
# 6 0.015865 0.015486 -0.024719 0.000278 -0.025379 0.069179
#
#
# Mechanical properties :
#
#
# Convention : Reuss Voigt Hill
#
# Bulk Modulus (GPa) = 34.17791 40.53662 37.35727
# Shear Modulus (GPa) = 17.02763 24.85843 20.94303
#
# Velocity S-wave (km/s) = 2.95853 3.57466 3.28109
# Velocity P-wave (km/s) = 5.40734 6.15427 5.79286
#
# Compressibility (1/GPa) = 0.02925866
#
# Stress axis : x y z
#
# Youngs Moduli (GPa) = 32.47158 63.57544 32.32463
#
# Poissons Ratio (x) = -0.17165 0.47518
# Poissons Ratio (y) = -0.08767 0.39117
# Poissons Ratio (z) = 0.47734 0.76934
#
# Static dielectric constant tensor:
#      x y z
#    x 3.364860 0.120650 0.000790 
#    y 0.120650 3.726360 -0.101950 
#    z 0.000790 -0.101950 3.537700 
# 
# 
# High freq. dielectric constant tensor:
#      x y z
#    x 1.735280 -0.004610 -0.005620 
#    y -0.004610 1.746770 -0.008870 
#    z -0.005620 -0.008870 1.759990 
# 
# From -- ./inp_files/214810.got.cif
#   From: 2010.06.25/outbox.cif.g09.slc.cpg/sg2_108_cif.got.tgz:214810.got - 2010.06.27 13:26:56.
