data_PCOD8003646
_publ_section_title
;
Structure prediction by ZEFSAII (Michael W. Deem and Ramdas Pophale) SiO2 
 PCOD8003646
Probable space group: P -1
;
_chemical_formula_sum "Si O2"
_cell_formula_units_Z 14
_cell_length_a 12.037472
_cell_length_b 16.235913
_cell_length_c 8.631100
_cell_angle_alpha 136.936179
_cell_angle_beta 77.817164
_cell_angle_gamma 134.869578
_cell_volume 634.579661
_symmetry_space_group_name_H-M "P -1"
_symmetry_group_IT_number 2
_symmetry_cell_setting 'triclinic'
loop_
_space_group_symop_operation_xyz
x,y,z
-x,-y,-z
loop_
_atom_site_type_symbol
_atom_site_label
_atom_site_fract_x
_atom_site_fract_y
_atom_site_fract_z
Si Si1 0.986601 0.485720 0.803439
Si Si2 0.926491 0.804952 0.805552
Si Si3 0.533467 0.716945 0.241778
Si Si4 0.763641 0.072875 0.275809
Si Si5 0.754650 0.676412 0.019552
Si Si6 0.918805 0.173556 0.712717
Si Si7 0.331820 0.606299 0.848020
O O1 0.176692 0.575911 0.807755
O O2 0.781737 0.234787 0.466375
O O3 0.991551 0.630437 0.952581
O O4 0.000000 0.500000 0.000000
O O5 0.847554 0.735566 0.907054
O O6 0.742468 0.588889 0.460998
O O7 0.123307 0.893482 0.852591
O O8 0.000000 0.000000 0.000000
O O9 0.429715 0.577470 0.236532
O O10 0.699063 0.963754 0.569524
O O11 0.664987 0.731081 0.131893
O O12 0.362349 0.619543 0.042642
O O13 0.891792 0.160313 0.516806
O O14 0.539325 0.827675 0.010608
O O15 0.931837 0.808019 0.274024
#
# Coordination Sequence:
#
# PCOD8003646 Si02
#       7
#     2   2   2   2   2   2   2
#     4   9  18  33  59  88 112 145 187 234 278 322
#     4  11  23  38  58  82 112 152 188 229 280 335
#     4  10  22  37  58  85 114 149 185 233 282 328
#     4   9  20  37  59  84 113 149 187 234 277 324
#     4  11  23  37  56  84 117 147 185 231 283 338
#     4  10  20  37  60  85 113 148 187 231 280 330
#     4  10  21  39  58  85 116 145 192 233 273 332
#
# _framework density 22.061848000000001
#
# number of rings (size 3 to 8) (size 9 to 14) (size 15 to 20)
#    0.000    2.000    0.000    4.714    0.000   12.000 
#    0.000    2.857    0.000    5.143    0.000    0.000 
#    0.000    0.000    0.000    0.000    0.000    0.000 
#
# Total GULP energy -173484.713449 kJ/mol
# GULP energy per Si atom -12391.765246 kJ/mol
# Density = 2.201163 g / cm^3
# Si number density = 22.061848 Si / 1000 Ang^3
#
#
#
# Elastic Constant Matrix: (Units=GPa)
#
#
# Indices 1 2 3 4 5 6 
#
# 1 57.5830 7.3573 16.9748 3.8505 -7.0616 2.3976
# 2 7.3573 145.2448 38.1722 9.8204 -16.6793 2.0527
# 3 16.9748 38.1722 104.5973 31.4655 -22.8613 0.1343
# 4 3.8505 9.8204 31.4655 29.6651 -2.7823 -4.7341
# 5 -7.0616 -16.6793 -22.8613 -2.7823 32.6318 3.8934
# 6 2.3976 2.0527 0.1343 -4.7341 3.8934 24.2555
#
#
#
# Elastic Compliance Matrix: (Units=1/GPa)
#
#
# Indices 1 2 3 4 5 6 
#
# 1 0.018492 0.000033 -0.002488 0.000115 0.002548 -0.002204
# 2 0.000033 0.007790 -0.002258 -0.000124 0.002526 -0.001080
# 3 -0.002488 -0.002258 0.018627 -0.018503 0.010370 -0.004942
# 4 0.000115 -0.000124 -0.018503 0.054403 -0.009830 0.012297
# 5 0.002548 0.002526 0.010370 -0.009830 0.039971 -0.008858
# 6 -0.002204 -0.001080 -0.004942 0.012297 -0.008858 0.045386
#
#
# Mechanical properties :
#
#
# Convention : Reuss Voigt Hill
#
# Bulk Modulus (GPa) = 28.18129 48.04822 38.11475
# Shear Modulus (GPa) = 24.28101 33.63854 28.95977
#
# Velocity S-wave (km/s) = 3.32111 3.90903 3.62700
# Velocity P-wave (km/s) = 5.24479 6.49616 5.90373
#
# Compressibility (1/GPa) = 0.03548454
#
# Stress axis : x y z
#
# Youngs Moduli (GPa) = 54.07751 128.36524 53.68475
#
# Poissons Ratio (x) = -0.00426 0.13356
# Poissons Ratio (y) = -0.00179 0.12121
# Poissons Ratio (z) = 0.13454 0.28982
#
# Static dielectric constant tensor:
#      x y z
#    x 4.309320 -0.013960 -0.537970 
#    y -0.013960 4.048850 0.515230 
#    z -0.537970 0.515230 4.359110 
# 
# 
# High freq. dielectric constant tensor:
#      x y z
#    x 1.851660 0.009020 -0.023170 
#    y 0.009020 1.870800 0.038100 
#    z -0.023170 0.038100 1.860080 
# 
# From -- ./inp_files/280088.got.cif
#   From: 2010.06.25/outbox.cif.g09.slc.cpg/sg2_141_cif.got.tgz:280088.got - 2010.06.27 13:26:56.
