data_PCOD8003859
_publ_section_title
;
Structure prediction by ZEFSAII (Michael W. Deem and Ramdas Pophale) SiO2 
 PCOD8003859
Probable space group: P -1
;
_chemical_formula_sum "Si O2"
_cell_formula_units_Z 16
_cell_length_a 18.514650
_cell_length_b 15.370300
_cell_length_c 9.427413
_cell_angle_alpha 142.273808
_cell_angle_beta 38.074332
_cell_angle_gamma 149.681057
_cell_volume 779.880870
_symmetry_space_group_name_H-M "P -1"
_symmetry_group_IT_number 2
_symmetry_cell_setting 'triclinic'
loop_
_space_group_symop_operation_xyz
x,y,z
-x,-y,-z
loop_
_atom_site_type_symbol
_atom_site_label
_atom_site_fract_x
_atom_site_fract_y
_atom_site_fract_z
Si Si1 0.306514 0.504454 0.296542
Si Si2 0.982997 0.210701 0.521358
Si Si3 0.190695 0.939211 0.126424
Si Si4 0.647319 0.703667 0.496255
Si Si5 0.841436 0.139399 0.361155
Si Si6 0.673215 0.175876 0.445723
Si Si7 0.620641 0.728179 0.251110
Si Si8 0.964842 0.869997 0.157603
O O1 0.157982 0.392240 0.480486
O O2 0.311250 0.645716 0.372966
O O3 0.446924 0.605276 0.315660
O O4 0.308550 0.371730 0.017042
O O5 0.908019 0.200973 0.772254
O O6 0.891133 0.216619 0.543053
O O7 0.968754 0.030423 0.291703
O O8 0.082887 0.950136 0.207348
O O9 0.324394 0.147983 0.242847
O O10 0.259240 0.858876 0.835565
O O11 0.500000 0.500000 0.500000
O O12 0.625983 0.763491 0.455144
O O13 0.793723 0.711528 0.275277
O O14 0.765485 0.215213 0.498624
O O15 0.717958 0.917826 0.258302
O O16 0.993383 0.209110 0.132019
O O17 0.500000 0.000000 0.500000
#
# Coordination Sequence:
#
# PCOD8003859 Si02
#       8
#     2   2   2   2   2   2   2   2
#     4  11  25  38  66  91 125 162 209 261 301 368
#     4  11  20  38  64  92 123 157 213 260 303 362
#     4  10  24  40  63  89 128 169 203 249 322 371
#     4  11  23  35  61  99 131 152 203 267 310 358
#     4  11  20  41  67  91 123 165 208 252 312 372
#     4  11  25  44  62  87 129 171 202 250 318 375
#     4  11  22  39  65 100 118 160 213 257 306 364
#     4  10  20  37  61  94 127 164 199 254 316 362
#
# _framework density 20.515954000000001
#
# number of rings (size 3 to 8) (size 9 to 14) (size 15 to 20)
#    0.000    1.250    5.000    2.625    5.250    1.000 
#    0.000    2.500    0.000    0.000    0.000    0.000 
#    0.000    0.000    0.000    0.000    0.000    0.000 
#
# Total GULP energy -198447.282178 kJ/mol
# GULP energy per Si atom -12402.955136 kJ/mol
# Density = 2.046926 g / cm^3
# Si number density = 20.515954 Si / 1000 Ang^3
#
#
#
# Elastic Constant Matrix: (Units=GPa)
#
#
# Indices 1 2 3 4 5 6 
#
# 1 124.1909 26.0114 39.3872 -6.3160 4.3761 -6.4729
# 2 26.0114 133.1232 26.4222 -17.4600 -10.6933 1.5379
# 3 39.3872 26.4222 52.5955 -11.9158 -1.2671 -9.4566
# 4 -6.3160 -17.4600 -11.9158 28.5018 -1.0256 -3.6082
# 5 4.3761 -10.6933 -1.2671 -1.0256 33.7448 1.1055
# 6 -6.4729 1.5379 -9.4566 -3.6082 1.1055 31.1332
#
#
#
# Elastic Compliance Matrix: (Units=1/GPa)
#
#
# Indices 1 2 3 4 5 6 
#
# 1 0.010778 -0.000871 -0.008109 -0.001646 -0.002019 -0.000298
# 2 -0.000871 0.009093 -0.003155 0.004011 0.003038 -0.001231
# 3 -0.008109 -0.003155 0.030624 0.010246 0.001221 0.008916
# 4 -0.001646 0.004011 0.010246 0.042503 0.002919 0.007394
# 5 -0.002019 0.003038 0.001221 0.002919 0.031025 -0.000962
# 6 -0.000298 -0.001231 0.008916 0.007394 -0.000962 0.035718
#
#
# Mechanical properties :
#
#
# Convention : Reuss Voigt Hill
#
# Bulk Modulus (GPa) = 38.13110 54.83904 46.48507
# Shear Modulus (GPa) = 25.93995 33.21523 29.57759
#
# Velocity S-wave (km/s) = 3.55967 4.02804 3.80107
# Velocity P-wave (km/s) = 5.95998 6.95855 6.47854
#
# Compressibility (1/GPa) = 0.02622531
#
# Stress axis : x y z
#
# Youngs Moduli (GPa) = 92.77971 109.97919 32.65374
#
# Poissons Ratio (x) = 0.09580 0.26479
# Poissons Ratio (y) = 0.08082 0.10302
# Poissons Ratio (z) = 0.75235 0.34697
#
# Static dielectric constant tensor:
#      x y z
#    x 3.874530 0.101860 0.013410 
#    y 0.101860 4.037820 -0.277680 
#    z 0.013410 -0.277680 3.575610 
# 
# 
# High freq. dielectric constant tensor:
#      x y z
#    x 1.817250 0.009560 0.006650 
#    y 0.009560 1.806740 -0.017890 
#    z 0.006650 -0.017890 1.780140 
# 
# From -- ./inp_files/209278.got.cif
#   From: 2010.06.25/outbox.cif.g09.slc.cpg/sg2_105_cif.got.tgz:209278.got - 2010.06.27 13:26:56.
