data_PCOD8003621
_publ_section_title
;
Structure prediction by ZEFSAII (Michael W. Deem and Ramdas Pophale) SiO2 
 PCOD8003621
Probable space group: P -1
;
_chemical_formula_sum "Si O2"
_cell_formula_units_Z 16
_cell_length_a 15.131155
_cell_length_b 10.812447
_cell_length_c 12.994747
_cell_angle_alpha 83.473969
_cell_angle_beta 151.795387
_cell_angle_gamma 114.630352
_cell_volume 737.232055
_symmetry_space_group_name_H-M "P -1"
_symmetry_group_IT_number 2
_symmetry_cell_setting 'triclinic'
loop_
_space_group_symop_operation_xyz
x,y,z
-x,-y,-z
loop_
_atom_site_type_symbol
_atom_site_label
_atom_site_fract_x
_atom_site_fract_y
_atom_site_fract_z
Si Si1 0.022508 0.828875 0.111892
Si Si2 0.893351 0.239610 0.364871
Si Si3 0.259450 0.462163 0.298769
Si Si4 0.408257 0.171635 0.361772
Si Si5 0.316173 0.792468 0.547958
Si Si6 0.331465 0.357994 0.922956
Si Si7 0.237991 0.473316 0.509114
Si Si8 0.567385 0.872715 0.002381
O O1 0.097033 0.796706 0.299415
O O2 0.259975 0.023185 0.306498
O O3 0.977745 0.695613 0.996197
O O4 0.775162 0.802822 0.875332
O O5 0.061356 0.305033 0.636533
O O6 0.042886 0.330417 0.404427
O O7 0.771995 0.049424 0.250161
O O8 0.681898 0.250647 0.167607
O O9 0.500000 0.500000 0.500000
O O10 0.337515 0.644133 0.349572
O O11 0.195706 0.400761 0.358359
O O12 0.491607 0.119622 0.359991
O O13 0.195047 0.601873 0.455798
O O14 0.475211 0.901067 0.801056
O O15 0.307145 0.202592 0.882595
O O16 0.500000 0.500000 0.000000
O O17 0.470762 0.431284 0.169470
#
# Coordination Sequence:
#
# PCOD8003621 Si02
#       8
#     2   2   2   2   2   2   2   2
#     4  10  20  37  60  79 116 161 179 238 294 327
#     4  10  21  39  59  83 119 150 192 240 296 347
#     4   9  19  36  57  84 117 147 192 236 280 343
#     4   9  20  37  55  83 114 146 201 232 277 349
#     4  10  21  36  55  85 112 147 189 232 284 340
#     4   9  19  37  61  82 111 153 190 237 292 344
#     4   9  20  36  57  87 111 149 195 237 282 347
#     4  10  22  37  58  87 118 149 192 244 285 350
#
# _framework density 21.702801000000001
#
# number of rings (size 3 to 8) (size 9 to 14) (size 15 to 20)
#    0.000    2.500    0.000    0.750    1.750   10.500 
#    2.250    3.750    8.250    0.000    0.000    0.000 
#    0.000    0.000    0.000    0.000    0.000    0.000 
#
# Total GULP energy -198233.245682 kJ/mol
# GULP energy per Si atom -12389.577855 kJ/mol
# Density = 2.165340 g / cm^3
# Si number density = 21.702801 Si / 1000 Ang^3
#
#
#
# Elastic Constant Matrix: (Units=GPa)
#
#
# Indices 1 2 3 4 5 6 
#
# 1 40.1658 -8.9731 -5.6750 4.5654 -8.0788 9.9154
# 2 -8.9731 68.1705 32.6458 -5.1729 -1.9148 10.6113
# 3 -5.6750 32.6458 66.0097 -0.6812 -11.7488 6.7108
# 4 4.5654 -5.1729 -0.6812 33.7280 -0.7544 0.7670
# 5 -8.0788 -1.9148 -11.7488 -0.7544 32.5945 -1.0732
# 6 9.9154 10.6113 6.7108 0.7670 -1.0732 25.0262
#
#
#
# Elastic Compliance Matrix: (Units=1/GPa)
#
#
# Indices 1 2 3 4 5 6 
#
# 1 0.032481 0.005064 0.003432 -0.002998 0.009007 -0.015458
# 2 0.005064 0.021358 -0.009418 0.002572 -0.001111 -0.008663
# 3 0.003432 -0.009418 0.021808 -0.001224 0.008036 -0.002832
# 4 -0.002998 0.002572 -0.001224 0.030429 -0.000346 -0.000522
# 5 0.009007 -0.001111 0.008036 -0.000346 0.035614 -0.003715
# 6 -0.015458 -0.008663 -0.002832 -0.000522 -0.003715 0.050372
#
#
# Mechanical properties :
#
#
# Convention : Reuss Voigt Hill
#
# Bulk Modulus (GPa) = 13.54968 23.37127 18.46048
# Shear Modulus (GPa) = 22.88251 28.69296 25.78774
#
# Velocity S-wave (km/s) = 3.25061 3.63999 3.45080
# Velocity P-wave (km/s) = 4.51059 5.33463 4.93982
#
# Compressibility (1/GPa) = 0.07380248
#
# Stress axis : x y z
#
# Youngs Moduli (GPa) = 30.78690 46.82030 45.85518
#
# Poissons Ratio (x) = -0.23708 -0.15737
# Poissons Ratio (y) = -0.15589 0.43187
# Poissons Ratio (z) = -0.10566 0.44095
#
# Static dielectric constant tensor:
#      x y z
#    x 3.774750 -0.000250 -0.204950 
#    y -0.000250 3.889480 -0.006390 
#    z -0.204950 -0.006390 4.492530 
# 
# 
# High freq. dielectric constant tensor:
#      x y z
#    x 1.844880 0.001470 0.004040 
#    y 0.001470 1.846720 0.003020 
#    z 0.004040 0.003020 1.853320 
# 
# From -- ./inp_files/306012.got.cif
#   From: 2010.06.25/outbox.cif.g09.slc.cpg/sg2_154_cif.got.tgz:306012.got - 2010.06.27 13:26:56.
