data_PCOD8003883
_publ_section_title
;
Structure prediction by ZEFSAII (Michael W. Deem and Ramdas Pophale) SiO2 
 PCOD8003883
Probable space group: P -1
;
_chemical_formula_sum "Si O2"
_cell_formula_units_Z 16
_cell_length_a 9.615290
_cell_length_b 9.238259
_cell_length_c 11.050637
_cell_angle_alpha 59.421272
_cell_angle_beta 51.466616
_cell_angle_gamma 76.954814
_cell_volume 654.986033
_symmetry_space_group_name_H-M "P -1"
_symmetry_group_IT_number 2
_symmetry_cell_setting 'triclinic'
loop_
_space_group_symop_operation_xyz
x,y,z
-x,-y,-z
loop_
_atom_site_type_symbol
_atom_site_label
_atom_site_fract_x
_atom_site_fract_y
_atom_site_fract_z
Si Si1 0.966995 0.695903 0.364883
Si Si2 0.728709 0.396715 0.010707
Si Si3 0.756501 0.263646 0.603930
Si Si4 0.352620 0.286704 0.832626
Si Si5 0.753161 0.070673 0.009150
Si Si6 0.895034 0.490450 0.244833
Si Si7 0.628330 0.884536 0.863163
Si Si8 0.657288 0.631119 0.740858
O O1 0.922652 0.590623 0.313408
O O2 0.782080 0.705692 0.532048
O O3 0.111661 0.632444 0.409873
O O4 0.064464 0.880633 0.187642
O O5 0.721181 0.471509 0.845028
O O6 0.910773 0.488048 0.937963
O O7 0.745552 0.195743 0.074966
O O8 0.549688 0.428093 0.168684
O O9 0.566237 0.334924 0.684460
O O10 0.831703 0.300751 0.409574
O O11 0.752160 0.064049 0.707773
O O12 0.257266 0.448775 0.782428
O O13 0.272130 0.128306 0.854621
O O14 0.298422 0.225328 0.023752
O O15 0.579394 0.088766 0.009146
O O16 0.643120 0.784907 0.773890
#
# Coordination Sequence:
#
# PCOD8003883 Si02
#       8
#     2   2   2   2   2   2   2   2
#     4  11  20  35  63  88 113 143 206 244 279 338
#     4   9  20  36  56  84 118 150 195 241 286 337
#     4  11  20  38  61  91 115 152 199 244 281 344
#     4  11  21  38  61  90 122 150 189 242 305 343
#     4   9  18  36  62  87 108 154 201 243 276 343
#     4  11  24  36  62  91 118 150 194 251 293 335
#     4  10  20  37  62  85 118 156 198 230 286 359
#     4  10  21  35  60  88 113 158 199 241 280 343
#
# _framework density 24.428003
#
# number of rings (size 3 to 8) (size 9 to 14) (size 15 to 20)
#    0.000    1.750    3.750    1.500    1.750    3.500 
#    0.000    0.625    2.750    9.000    0.000    0.000 
#    0.000    0.000    0.000    0.000    0.000    0.000 
#
# Total GULP energy -198280.561370 kJ/mol
# GULP energy per Si atom -12392.535086 kJ/mol
# Density = 2.437240 g / cm^3
# Si number density = 24.428003 Si / 1000 Ang^3
#
#
#
# Elastic Constant Matrix: (Units=GPa)
#
#
# Indices 1 2 3 4 5 6 
#
# 1 102.0365 11.7155 40.3581 -3.0713 -20.6130 -20.4979
# 2 11.7155 31.9892 21.4978 2.9219 -3.1854 -4.5140
# 3 40.3581 21.4978 115.9427 3.9574 -35.0602 -10.0715
# 4 -3.0713 2.9219 3.9574 27.4714 -12.1458 -3.7095
# 5 -20.6130 -3.1854 -35.0602 -12.1458 34.5757 2.1323
# 6 -20.4979 -4.5140 -10.0715 -3.7095 2.1323 23.4479
#
#
#
# Elastic Compliance Matrix: (Units=1/GPa)
#
#
# Indices 1 2 3 4 5 6 
#
# 1 0.015391 -0.002962 -0.000911 0.008387 0.010130 0.012899
# 2 -0.002962 0.037929 -0.008583 -0.007260 -0.009571 0.000748
# 3 -0.000911 -0.008583 0.015645 0.006379 0.016538 0.003777
# 4 0.008387 -0.007260 0.006379 0.051505 0.028013 0.014275
# 5 0.010130 -0.009571 0.016538 0.028013 0.059882 0.013103
# 6 0.012899 0.000748 0.003777 0.014275 0.013103 0.056757
#
#
# Mechanical properties :
#
#
# Convention : Reuss Voigt Hill
#
# Bulk Modulus (GPa) = 22.69989 44.12347 33.41168
# Shear Modulus (GPa) = 18.06984 28.85879 23.46431
#
# Velocity S-wave (km/s) = 2.72273 3.44085 3.10264
# Velocity P-wave (km/s) = 4.38144 5.82132 5.15194
#
# Compressibility (1/GPa) = 0.04405308
#
# Stress axis : x y z
#
# Youngs Moduli (GPa) = 64.97389 26.36500 63.91884
#
# Poissons Ratio (x) = 0.07809 0.05821
# Poissons Ratio (y) = 0.19244 0.54863
# Poissons Ratio (z) = 0.05918 0.22630
#
# Static dielectric constant tensor:
#      x y z
#    x 4.450240 0.063110 -0.659620 
#    y 0.063110 4.230920 -0.148810 
#    z -0.659620 -0.148810 4.901540 
# 
# 
# High freq. dielectric constant tensor:
#      x y z
#    x 1.960230 0.013760 -0.032670 
#    y 0.013760 1.953600 -0.006880 
#    z -0.032670 -0.006880 1.970690 
# 
# From -- ./inp_files/391960.got.cif
#   From: 2010.06.25/outbox.cif.g09.slc.cpg/sg2_196_cif.got.tgz:391960.got - 2010.06.27 13:26:56.
