data_PCOD8003119
_publ_section_title
;
Structure prediction by ZEFSAII (Michael W. Deem and Ramdas Pophale) SiO2 
 PCOD8003119
Probable space group: P -1
;
_chemical_formula_sum "Si O2"
_cell_formula_units_Z 16
_cell_length_a 27.174432
_cell_length_b 9.043690
_cell_length_c 26.871817
_cell_angle_alpha 140.277572
_cell_angle_beta 169.447418
_cell_angle_gamma 40.586640
_cell_volume 772.606007
_symmetry_space_group_name_H-M "P -1"
_symmetry_group_IT_number 2
_symmetry_cell_setting 'triclinic'
loop_
_space_group_symop_operation_xyz
x,y,z
-x,-y,-z
loop_
_atom_site_type_symbol
_atom_site_label
_atom_site_fract_x
_atom_site_fract_y
_atom_site_fract_z
Si Si1 0.691884 0.214759 0.382117
Si Si2 0.953283 0.210228 0.783465
Si Si3 0.742886 0.165097 0.785566
Si Si4 0.408848 0.442622 0.339275
Si Si5 0.388306 0.537912 0.953834
Si Si6 0.255924 0.045441 0.733899
Si Si7 0.161630 0.433806 0.949683
Si Si8 0.861573 0.818351 0.524854
O O1 0.388059 0.303253 0.108858
O O2 0.736764 0.134619 0.350186
O O3 0.747037 0.004578 0.420100
O O4 0.889612 0.426852 0.644885
O O5 0.669502 0.345696 0.543631
O O6 0.901092 0.939261 0.649842
O O7 0.168317 0.253703 0.053147
O O8 0.111484 0.303684 0.917551
O O9 0.719664 0.330028 0.756638
O O10 0.749337 0.309175 0.880969
O O11 0.500000 0.000000 0.500000
O O12 0.000000 0.000000 0.000000
O O13 0.500000 0.500000 0.500000
O O14 0.638984 0.621003 0.258169
O O15 0.500000 0.500000 0.000000
O O16 0.261268 0.306700 0.787834
O O17 0.145365 0.726061 0.761502
O O18 0.000000 0.000000 0.500000
O O19 0.500000 0.000000 0.000000
#
# Coordination Sequence:
#
# PCOD8003119 Si02
#       8
#     2   2   2   2   2   2   2   2
#     4  11  21  38  66  91 120 159 210 259 307 364
#     4  10  20  36  62  95 125 158 208 258 314 365
#     4  11  21  37  63  92 121 156 205 261 302 352
#     4  11  22  39  63  91 128 169 206 245 314 393
#     4  12  24  39  66  96 122 158 213 264 312 363
#     4  12  27  43  63  89 129 172 206 246 320 391
#     4  10  20  36  62  95 118 154 211 260 301 360
#     4  11  21  37  66  96 124 149 213 277 310 341
#
# _framework density 20.709133000000001
#
# number of rings (size 3 to 8) (size 9 to 14) (size 15 to 20)
#    0.000    1.000    1.250    9.750    1.750    0.000 
#    0.000    0.000   27.500    0.000    0.000    0.000 
#    0.000    0.000    0.000    0.000    0.000    0.000 
#
# Total GULP energy -198347.333109 kJ/mol
# GULP energy per Si atom -12396.708319 kJ/mol
# Density = 2.066200 g / cm^3
# Si number density = 20.709133 Si / 1000 Ang^3
#
#
#
# Elastic Constant Matrix: (Units=GPa)
#
#
# Indices 1 2 3 4 5 6 
#
# 1 97.4043 52.0482 46.3357 7.5374 -4.8175 -17.1636
# 2 52.0482 102.8631 55.1675 8.4154 4.7350 -22.4030
# 3 46.3357 55.1675 167.2064 10.5928 1.2240 -15.9514
# 4 7.5374 8.4154 10.5928 51.2638 -14.4151 -1.8585
# 5 -4.8175 4.7350 1.2240 -14.4151 45.2089 1.9150
# 6 -17.1636 -22.4030 -15.9514 -1.8585 1.9150 30.1732
#
#
#
# Elastic Compliance Matrix: (Units=1/GPa)
#
#
# Indices 1 2 3 4 5 6 
#
# 1 0.015024 -0.006034 -0.001902 -0.000123 0.002122 0.002918
# 2 -0.006034 0.016143 -0.002836 -0.001799 -0.003133 0.007142
# 3 -0.001902 -0.002836 0.007580 -0.000915 -0.000436 0.000791
# 4 -0.000123 -0.001799 -0.000915 0.022015 0.007262 -0.000994
# 5 0.002122 -0.003133 -0.000436 0.007262 0.025107 -0.002496
# 6 0.002918 0.007142 0.000791 -0.000994 -0.002496 0.040620
#
#
# Mechanical properties :
#
#
# Convention : Reuss Voigt Hill
#
# Bulk Modulus (GPa) = 58.12796 74.95295 66.54046
# Shear Modulus (GPa) = 32.51666 39.59068 36.05367
#
# Velocity S-wave (km/s) = 3.96682 4.37710 4.17700
# Velocity P-wave (km/s) = 7.00790 7.86238 7.44741
#
# Compressibility (1/GPa) = 0.01720342
#
# Stress axis : x y z
#
# Youngs Moduli (GPa) = 66.55873 61.94786 131.92771
#
# Poissons Ratio (x) = 0.37380 0.25092
# Poissons Ratio (y) = 0.40163 0.37410
# Poissons Ratio (z) = 0.12659 0.17566
#
# Static dielectric constant tensor:
#      x y z
#    x 3.674190 -0.556860 -0.330740 
#    y -0.556860 3.972210 0.470490 
#    z -0.330740 0.470490 4.459170 
# 
# 
# High freq. dielectric constant tensor:
#      x y z
#    x 1.786080 -0.037320 -0.005390 
#    y -0.037320 1.803700 0.008290 
#    z -0.005390 0.008290 1.846420 
# 
# From -- ./inp_files/621174.got.cif
#   From: 2010.06.25/outbox.cif.g09.slc.cpg/sg2_311_cif.got.tgz:621174.got - 2010.06.27 13:26:56.
