data_PCOD8003901
_publ_section_title
;
Structure prediction by ZEFSAII (Michael W. Deem and Ramdas Pophale) SiO2 
 PCOD8003901
Probable space group: P -1
;
_chemical_formula_sum "Si O2"
_cell_formula_units_Z 16
_cell_length_a 9.086157
_cell_length_b 9.269304
_cell_length_c 20.966330
_cell_angle_alpha 117.987541
_cell_angle_beta 97.646495
_cell_angle_gamma 133.356337
_cell_volume 799.525231
_symmetry_space_group_name_H-M "P -1"
_symmetry_group_IT_number 2
_symmetry_cell_setting 'triclinic'
loop_
_space_group_symop_operation_xyz
x,y,z
-x,-y,-z
loop_
_atom_site_type_symbol
_atom_site_label
_atom_site_fract_x
_atom_site_fract_y
_atom_site_fract_z
Si Si1 0.334806 0.289258 0.086733
Si Si2 0.630742 0.899951 0.242040
Si Si3 0.838065 0.289852 0.779460
Si Si4 0.731078 0.198329 0.196656
Si Si5 0.047627 0.120361 0.398717
Si Si6 0.617266 0.263157 0.024197
Si Si7 0.448882 0.313469 0.370831
Si Si8 0.589720 0.432085 0.262069
O O1 0.508058 0.615845 0.148552
O O2 0.453765 0.270158 0.039781
O O3 0.380911 0.277407 0.159735
O O4 0.000000 0.000000 0.000000
O O5 0.364522 0.763485 0.215241
O O6 0.824064 0.172163 0.255970
O O7 0.824515 0.047299 0.345997
O O8 0.011259 0.538269 0.783645
O O9 0.043737 0.410065 0.872395
O O10 0.658901 0.968890 0.675861
O O11 0.639970 0.286736 0.237150
O O12 0.457186 0.844505 0.076114
O O13 0.250854 0.264092 0.381116
O O14 0.227090 0.367213 0.517953
O O15 0.890753 0.809981 0.349870
O O16 0.500000 0.000000 0.000000
O O17 0.442521 0.344245 0.301539
#
# Coordination Sequence:
#
# PCOD8003901 Si02
#       8
#     2   2   2   2   2   2   2   2
#     4  11  22  39  61  96 130 161 205 260 299 354
#     4  11  25  39  62  94 127 159 206 262 310 356
#     4  11  21  40  63  90 125 167 204 255 303 363
#     4  11  22  40  63  91 127 168 208 245 299 380
#     4  10  24  44  62  95 125 150 210 270 309 360
#     4  10  20  37  62  87 125 168 200 244 301 364
#     4  11  22  41  72  87 117 170 207 252 317 372
#     4  11  21  41  66  91 122 166 209 246 307 380
#
# _framework density 20.011877999999999
#
# number of rings (size 3 to 8) (size 9 to 14) (size 15 to 20)
#    0.000    1.250    5.000    2.625    0.000    5.500 
#    0.000    0.625    0.000    0.000    0.000    0.000 
#    0.000    0.000    0.000    0.000    0.000    0.000 
#
# Total GULP energy -198386.869739 kJ/mol
# GULP energy per Si atom -12399.179359 kJ/mol
# Density = 1.996633 g / cm^3
# Si number density = 20.011878 Si / 1000 Ang^3
#
#
#
# Elastic Constant Matrix: (Units=GPa)
#
#
# Indices 1 2 3 4 5 6 
#
# 1 108.3534 19.8269 36.8067 4.6036 0.0276 -9.3732
# 2 19.8269 101.0384 31.3177 -7.2150 -0.6072 -10.8847
# 3 36.8067 31.3177 110.7100 13.0761 -3.3274 -11.3868
# 4 4.6036 -7.2150 13.0761 25.1644 6.1771 -3.5083
# 5 0.0276 -0.6072 -3.3274 6.1771 28.9935 1.2129
# 6 -9.3732 -10.8847 -11.3868 -3.5083 1.2129 33.9751
#
#
#
# Elastic Compliance Matrix: (Units=1/GPa)
#
#
# Indices 1 2 3 4 5 6 
#
# 1 0.010597 -0.000989 -0.003056 -0.000324 -0.000378 0.001563
# 2 -0.000989 0.011953 -0.003524 0.006266 -0.001617 0.003080
# 3 -0.003056 -0.003524 0.012116 -0.007266 0.002816 0.001238
# 4 -0.000324 0.006266 -0.007266 0.048834 -0.011313 0.004929
# 5 -0.000378 -0.001617 0.002816 -0.011313 0.037281 -0.002178
# 6 0.001563 0.003080 0.001238 0.004929 -0.002178 0.031853
#
#
# Mechanical properties :
#
#
# Convention : Reuss Voigt Hill
#
# Bulk Modulus (GPa) = 51.21046 55.11159 53.16102
# Shear Modulus (GPa) = 28.68918 33.10330 30.89624
#
# Velocity S-wave (km/s) = 3.79041 4.07158 3.93351
# Velocity P-wave (km/s) = 6.69342 7.05003 6.87404
#
# Compressibility (1/GPa) = 0.01952726
#
# Stress axis : x y z
#
# Youngs Moduli (GPa) = 94.36543 83.65893 82.53885
#
# Poissons Ratio (x) = 0.08278 0.25221
# Poissons Ratio (y) = 0.09337 0.29089
# Poissons Ratio (z) = 0.28834 0.29484
#
# Static dielectric constant tensor:
#      x y z
#    x 3.552600 -0.109950 0.199730 
#    y -0.109950 3.682370 -0.042740 
#    z 0.199730 -0.042740 4.183980 
# 
# 
# High freq. dielectric constant tensor:
#      x y z
#    x 1.780530 -0.003970 -0.009930 
#    y -0.003970 1.779510 0.005390 
#    z -0.009930 0.005390 1.786160 
# 
# From -- ./inp_files/188875.got.cif
#   From: 2010.06.25/outbox.cif.g09.slc.cpg/sg2_95_cif.got.tgz:188875.got - 2010.06.27 13:26:56.
