data_PCOD8003463
_publ_section_title
;
Structure prediction by ZEFSAII (Michael W. Deem and Ramdas Pophale) SiO2 
 PCOD8003463
Probable space group: P -1
;
_chemical_formula_sum "Si O2"
_cell_formula_units_Z 16
_cell_length_a 14.977831
_cell_length_b 9.367740
_cell_length_c 9.006160
_cell_angle_alpha 48.510655
_cell_angle_beta 100.874317
_cell_angle_gamma 107.579075
_cell_volume 902.246975
_symmetry_space_group_name_H-M "P -1"
_symmetry_group_IT_number 2
_symmetry_cell_setting 'triclinic'
loop_
_space_group_symop_operation_xyz
x,y,z
-x,-y,-z
loop_
_atom_site_type_symbol
_atom_site_label
_atom_site_fract_x
_atom_site_fract_y
_atom_site_fract_z
Si Si1 0.871011 0.501745 0.325887
Si Si2 0.390725 0.474870 0.971119
Si Si3 0.920257 0.449566 0.696128
Si Si4 0.194414 0.885467 0.909405
Si Si5 0.281220 0.786017 0.714618
Si Si6 0.256583 0.155229 0.305859
Si Si7 0.094733 0.126739 0.508496
Si Si8 0.247219 0.195879 0.949985
O O1 0.875241 0.390801 0.559987
O O2 0.811783 0.354793 0.287569
O O3 0.826826 0.686531 0.212371
O O4 0.975245 0.581554 0.240458
O O5 0.369266 0.688569 0.803077
O O6 0.349869 0.345990 0.900638
O O7 0.500000 0.500000 0.000000
O O8 0.336548 0.360602 0.177421
O O9 0.923547 0.675643 0.568688
O O10 0.860749 0.314284 0.894811
O O11 0.263507 0.828821 0.850486
O O12 0.122839 0.997087 0.736789
O O13 0.256296 0.029028 0.951560
O O14 0.307077 0.988476 0.492247
O O15 0.175419 0.180140 0.373381
O O16 0.212421 0.099372 0.166318
O O17 0.000000 0.000000 0.500000
#
# Coordination Sequence:
#
# PCOD8003463 Si02
#       8
#     2   2   2   2   2   2   2   2
#     4  10  21  37  51  80 113 152 194 233 271 330
#     4   9  20  38  63  85 107 143 188 230 285 346
#     4  11  22  34  55  77 115 152 200 229 272 320
#     4  11  22  35  57  81 110 153 186 230 282 326
#     4  10  20  37  58  81 112 145 183 226 287 338
#     4   9  20  36  59  79 116 145 185 230 284 323
#     4  11  23  36  53  86 117 152 194 229 269 330
#     4   9  20  39  56  80 113 147 185 234 285 326
#
# _framework density 17.733502000000001
#
# number of rings (size 3 to 8) (size 9 to 14) (size 15 to 20)
#    0.750    1.250    1.250    3.000    1.750    3.000 
#    0.000    0.625    0.000    3.000    0.000    0.000 
#    0.000    0.000    0.000    0.000    0.000    0.000 
#
# Total GULP energy -198343.516351 kJ/mol
# GULP energy per Si atom -12396.469772 kJ/mol
# Density = 1.769314 g / cm^3
# Si number density = 17.733502 Si / 1000 Ang^3
#
#
#
# Elastic Constant Matrix: (Units=GPa)
#
#
# Indices 1 2 3 4 5 6 
#
# 1 104.2383 31.8476 31.1886 -0.5497 14.9956 11.4585
# 2 31.8476 84.5190 14.3394 3.1085 7.4283 -8.3234
# 3 31.1886 14.3394 85.6811 0.7956 2.5621 4.7518
# 4 -0.5497 3.1085 0.7956 26.9527 -2.5757 -1.8025
# 5 14.9956 7.4283 2.5621 -2.5757 24.4046 1.2074
# 6 11.4585 -8.3234 4.7518 -1.8025 1.2074 14.3122
#
#
#
# Elastic Compliance Matrix: (Units=1/GPa)
#
#
# Indices 1 2 3 4 5 6 
#
# 1 0.014788 -0.005742 -0.003477 -0.000446 -0.006351 -0.013545
# 2 -0.005742 0.015832 -0.001280 -0.001142 -0.001982 0.014253
# 3 -0.003477 -0.001280 0.013257 -0.000366 0.001220 -0.002512
# 4 -0.000446 -0.001142 -0.000366 0.037943 0.004456 0.004218
# 5 -0.006351 -0.001982 0.001220 0.004456 0.045813 0.000223
# 6 -0.013545 0.014253 -0.002512 0.004218 0.000223 0.090350
#
#
# Mechanical properties :
#
#
# Convention : Reuss Voigt Hill
#
# Bulk Modulus (GPa) = 43.70616 47.68773 45.69695
# Shear Modulus (GPa) = 20.27510 26.27140 23.27325
#
# Velocity S-wave (km/s) = 3.38497 3.85314 3.62662
# Velocity P-wave (km/s) = 6.32274 6.83706 6.58492
#
# Compressibility (1/GPa) = 0.02288007
#
# Stress axis : x y z
#
# Youngs Moduli (GPa) = 67.62164 63.16233 75.43047
#
# Poissons Ratio (x) = 0.36266 0.26226
# Poissons Ratio (y) = 0.38827 0.09657
# Poissons Ratio (z) = 0.23511 0.08086
#
# Static dielectric constant tensor:
#      x y z
#    x 3.297250 -0.311240 -0.178390 
#    y -0.311240 3.391730 0.161640 
#    z -0.178390 0.161640 3.717770 
# 
# 
# High freq. dielectric constant tensor:
#      x y z
#    x 1.656590 -0.012080 0.011940 
#    y -0.012080 1.687710 -0.001800 
#    z 0.011940 -0.001800 1.698270 
# 
# From -- ./inp_files/212148.got.cif
#   From: 2010.06.25/outbox.cif.g09.slc.cpg/sg2_107_cif.got.tgz:212148.got - 2010.06.27 13:26:56.
