data_PCOD8003358
_publ_section_title
;
Structure prediction by ZEFSAII (Michael W. Deem and Ramdas Pophale) SiO2 
 PCOD8003358
Probable space group: P -1
;
_chemical_formula_sum "Si O2"
_cell_formula_units_Z 16
_cell_length_a 19.647273
_cell_length_b 14.215842
_cell_length_c 11.802368
_cell_angle_alpha 31.027610
_cell_angle_beta 122.102049
_cell_angle_gamma 144.826000
_cell_volume 804.760106
_symmetry_space_group_name_H-M "P -1"
_symmetry_group_IT_number 2
_symmetry_cell_setting 'triclinic'
loop_
_space_group_symop_operation_xyz
x,y,z
-x,-y,-z
loop_
_atom_site_type_symbol
_atom_site_label
_atom_site_fract_x
_atom_site_fract_y
_atom_site_fract_z
Si Si1 0.727203 0.224243 0.813003
Si Si2 0.961016 0.041610 0.658069
Si Si3 0.454559 0.912084 0.922317
Si Si4 0.944856 0.099094 0.820598
Si Si5 0.989195 0.699195 0.959089
Si Si6 0.717882 0.091055 0.202081
Si Si7 0.871237 0.234584 0.785632
Si Si8 0.211633 0.164815 0.484309
O O1 0.871361 0.612937 0.520599
O O2 0.730044 0.047994 0.917680
O O3 0.720288 0.159558 0.004385
O O4 0.589264 0.084329 0.794228
O O5 0.872532 0.943282 0.792865
O O6 0.931461 0.773389 0.889763
O O7 0.913115 0.067933 0.480375
O O8 0.308835 0.523486 0.182815
O O9 0.407735 0.029181 0.721439
O O10 0.500000 0.000000 0.000000
O O11 0.071183 0.490221 0.525459
O O12 0.837969 0.988152 0.935568
O O13 0.000000 0.000000 0.000000
O O14 0.136479 0.020115 0.690002
O O15 0.016600 0.603119 0.181150
O O16 0.873271 0.407123 0.069681
O O17 0.683629 0.811897 0.463024
#
# Coordination Sequence:
#
# PCOD8003358 Si02
#       8
#     2   2   2   2   2   2   2   2
#     4  10  20  38  52  82 119 152 188 229 278 337
#     4  11  21  35  62  84 113 153 187 236 283 329
#     4  10  23  37  50  79 123 156 187 224 271 344
#     4  10  20  37  54  84 112 142 190 239 286 324
#     4  12  19  34  58  89 118 147 187 232 284 336
#     4  11  20  34  54  80 117 153 185 224 277 337
#     4  10  21  35  57  82 114 148 184 238 284 330
#     4  12  22  36  58  85 118 153 188 227 280 343
#
# _framework density 19.881701
#
# number of rings (size 3 to 8) (size 9 to 14) (size 15 to 20)
#    0.000    1.250    5.000    3.750    0.000    2.000 
#    2.250    0.000    0.000    0.750    0.000   22.750 
#    0.000    0.000    0.000    0.000    0.000    0.000 
#
# Total GULP energy -198228.477775 kJ/mol
# GULP energy per Si atom -12389.279861 kJ/mol
# Density = 1.983645 g / cm^3
# Si number density = 19.881701 Si / 1000 Ang^3
#
#
#
# Elastic Constant Matrix: (Units=GPa)
#
#
# Indices 1 2 3 4 5 6 
#
# 1 177.0451 47.4001 23.4347 9.6435 18.2269 3.5786
# 2 47.4001 55.0549 20.2853 4.3603 -6.2723 5.3708
# 3 23.4347 20.2853 39.0484 14.6518 10.7359 0.6908
# 4 9.6435 4.3603 14.6518 23.3360 3.3502 3.3844
# 5 18.2269 -6.2723 10.7359 3.3502 29.2782 4.6421
# 6 3.5786 5.3708 0.6908 3.3844 4.6421 35.5642
#
#
#
# Elastic Compliance Matrix: (Units=1/GPa)
#
#
# Indices 1 2 3 4 5 6 
#
# 1 0.008859 -0.009772 0.003215 -0.002876 -0.008766 0.001940
# 2 -0.009772 0.037984 -0.023720 0.009710 0.023113 -0.008233
# 3 0.003215 -0.023720 0.053091 -0.027866 -0.024646 0.008096
# 4 -0.002876 0.009710 -0.027866 0.059585 0.008445 -0.007408
# 5 -0.008766 0.023113 -0.024646 0.008445 0.054222 -0.010011
# 6 0.001940 -0.008233 0.008096 -0.007408 -0.010011 0.031021
#
#
# Mechanical properties :
#
#
# Convention : Reuss Voigt Hill
#
# Bulk Modulus (GPa) = 25.39377 50.37653 37.88515
# Shear Modulus (GPa) = 15.70143 29.63755 22.66949
#
# Velocity S-wave (km/s) = 2.81328 3.86514 3.38038
# Velocity P-wave (km/s) = 4.83249 6.73144 5.85940
#
# Compressibility (1/GPa) = 0.03937974
#
# Stress axis : x y z
#
# Youngs Moduli (GPa) = 112.88222 26.32695 18.83542
#
# Poissons Ratio (x) = 0.25726 -0.06055
# Poissons Ratio (y) = 1.10304 0.44678
# Poissons Ratio (z) = -0.36287 0.62448
#
# Static dielectric constant tensor:
#      x y z
#    x 4.604430 0.089860 0.161160 
#    y 0.089860 3.514160 0.232830 
#    z 0.161160 0.232830 3.325530 
# 
# 
# High freq. dielectric constant tensor:
#      x y z
#    x 1.800660 -0.006640 0.031980 
#    y -0.006640 1.746850 0.019340 
#    z 0.031980 0.019340 1.743440 
# 
# From -- ./inp_files/258802.got.cif
#   From: 2010.06.25/outbox.cif.g09.slc.cpg/sg2_130_cif.got.tgz:258802.got - 2010.06.27 13:26:56.
