data_PCOD8003691
_publ_section_title
;
Structure prediction by ZEFSAII (Michael W. Deem and Ramdas Pophale) SiO2 
 PCOD8003691
Probable space group: P -1
;
_chemical_formula_sum "Si O2"
_cell_formula_units_Z 16
_cell_length_a 12.249455
_cell_length_b 8.527653
_cell_length_c 14.725288
_cell_angle_alpha 136.000495
_cell_angle_beta 46.282329
_cell_angle_gamma 130.327588
_cell_volume 736.988948
_symmetry_space_group_name_H-M "P -1"
_symmetry_group_IT_number 2
_symmetry_cell_setting 'triclinic'
loop_
_space_group_symop_operation_xyz
x,y,z
-x,-y,-z
loop_
_atom_site_type_symbol
_atom_site_label
_atom_site_fract_x
_atom_site_fract_y
_atom_site_fract_z
Si Si1 0.230771 0.762705 0.281268
Si Si2 0.070124 0.499908 0.752096
Si Si3 0.728679 0.145850 0.347291
Si Si4 0.671469 0.664803 0.954272
Si Si5 0.297550 0.466242 0.759596
Si Si6 0.846370 0.746871 0.068591
Si Si7 0.529760 0.005768 0.091182
Si Si8 0.622283 0.987000 0.528313
O O1 0.228371 0.502617 0.212675
O O2 0.366539 0.859411 0.169554
O O3 0.065002 0.721759 0.306262
O O4 0.260503 0.943263 0.423580
O O5 0.194688 0.608122 0.645417
O O6 0.154924 0.403469 0.743360
O O7 0.004824 0.704358 0.920005
O O8 0.556750 0.013628 0.344199
O O9 0.860444 0.001902 0.211044
O O10 0.691991 0.178700 0.488198
O O11 0.500000 0.500000 0.000000
O O12 0.731922 0.757086 0.056527
O O13 0.668061 0.882513 0.981350
O O14 0.229141 0.452499 0.895602
O O15 0.391290 0.275849 0.609775
O O16 0.415581 0.729516 0.789045
O O17 0.500000 0.000000 0.000000
#
# Coordination Sequence:
#
# PCOD8003691 Si02
#       8
#     2   2   2   2   2   2   2   2
#     4  10  22  39  58  85 123 160 203 246 294 356
#     4  11  22  37  60  90 121 157 198 255 310 350
#     4  10  21  38  63  86 114 158 208 252 294 355
#     4   9  17  33  57  82 115 152 194 246 292 341
#     4  11  23  39  62  89 125 162 199 244 301 365
#     4  10  20  37  60  89 119 153 200 251 303 354
#     4  11  22  37  61  92 121 155 199 252 303 350
#     4  10  23  42  61  86 119 164 207 242 289 363
#
# _framework density 21.709959999999999
#
# number of rings (size 3 to 8) (size 9 to 14) (size 15 to 20)
#    0.000    1.750    0.000    6.000    0.000    6.000 
#    0.000    2.500    0.000    0.000    0.000    0.000 
#    0.000    0.000    0.000    0.000    0.000    0.000 
#
# Total GULP energy -198281.561338 kJ/mol
# GULP energy per Si atom -12392.597584 kJ/mol
# Density = 2.166055 g / cm^3
# Si number density = 21.709960 Si / 1000 Ang^3
#
#
#
# Elastic Constant Matrix: (Units=GPa)
#
#
# Indices 1 2 3 4 5 6 
#
# 1 131.4906 42.1046 24.7903 -3.3796 15.4582 -12.3905
# 2 42.1046 98.3660 32.1687 -7.9742 8.2408 -11.3953
# 3 24.7903 32.1687 76.9218 -0.4412 6.6789 -2.3926
# 4 -3.3796 -7.9742 -0.4412 30.4114 0.9580 -0.1428
# 5 15.4582 8.2408 6.6789 0.9580 30.4739 2.7127
# 6 -12.3905 -11.3953 -2.3926 -0.1428 2.7127 36.2352
#
#
#
# Elastic Compliance Matrix: (Units=1/GPa)
#
#
# Indices 1 2 3 4 5 6 
#
# 1 0.009534 -0.002962 -0.001408 0.000399 -0.003965 0.002534
# 2 -0.002962 0.013666 -0.004507 0.003253 -0.001585 0.003119
# 3 -0.001408 -0.004507 0.015425 -0.001076 -0.001344 -0.000784
# 4 0.000399 0.003253 -0.001076 0.033835 -0.002032 0.001374
# 5 -0.003965 -0.001585 -0.001344 -0.002032 0.036027 -0.004648
# 6 0.002534 0.003119 -0.000784 0.001374 -0.004648 0.029746
#
#
# Mechanical properties :
#
#
# Convention : Reuss Voigt Hill
#
# Bulk Modulus (GPa) = 47.91699 56.10060 52.00879
# Shear Modulus (GPa) = 30.68509 33.27177 31.97843
#
# Velocity S-wave (km/s) = 3.76361 3.91904 3.84211
# Velocity P-wave (km/s) = 6.40357 6.80996 6.60989
#
# Compressibility (1/GPa) = 0.02086943
#
# Stress axis : x y z
#
# Youngs Moduli (GPa) = 104.88353 73.17494 64.82929
#
# Poissons Ratio (x) = 0.21677 0.09131
# Poissons Ratio (y) = 0.31071 0.29219
# Poissons Ratio (z) = 0.14773 0.32981
#
# Static dielectric constant tensor:
#      x y z
#    x 4.492610 -0.388650 -0.205090 
#    y -0.388650 3.910650 0.096460 
#    z -0.205090 0.096460 3.828740 
# 
# 
# High freq. dielectric constant tensor:
#      x y z
#    x 1.862280 -0.011410 0.002560 
#    y -0.011410 1.840070 -0.001780 
#    z 0.002560 -0.001780 1.838180 
# 
# From -- ./inp_files/307894.got.cif
#   From: 2010.06.25/outbox.cif.g09.slc.cpg/sg2_154_cif.got.tgz:307894.got - 2010.06.27 13:26:56.
