data_PCOD8003486
_publ_section_title
;
Structure prediction by ZEFSAII (Michael W. Deem and Ramdas Pophale) SiO2 
 PCOD8003486
Probable space group: P -1
;
_chemical_formula_sum "Si O2"
_cell_formula_units_Z 14
_cell_length_a 11.904358
_cell_length_b 9.173846
_cell_length_c 12.477255
_cell_angle_alpha 40.310899
_cell_angle_beta 54.847720
_cell_angle_gamma 72.679072
_cell_volume 694.562974
_symmetry_space_group_name_H-M "P -1"
_symmetry_group_IT_number 2
_symmetry_cell_setting 'triclinic'
loop_
_space_group_symop_operation_xyz
x,y,z
-x,-y,-z
loop_
_atom_site_type_symbol
_atom_site_label
_atom_site_fract_x
_atom_site_fract_y
_atom_site_fract_z
Si Si1 0.185767 0.559719 0.786050
Si Si2 0.024105 0.791052 0.243916
Si Si3 0.654629 0.918247 0.559302
Si Si4 0.363404 0.954731 0.740501
Si Si5 0.125185 0.506223 0.077563
Si Si6 0.793025 0.759544 0.215617
Si Si7 0.870345 0.641088 0.619732
O O1 0.272797 0.462869 0.701235
O O2 0.022039 0.451748 0.903028
O O3 0.231490 0.840953 0.603009
O O4 0.206584 0.458879 0.950847
O O5 0.129219 0.622281 0.267132
O O6 0.880829 0.694416 0.304746
O O7 0.980975 0.808277 0.383323
O O8 0.100964 0.051340 0.023028
O O9 0.508446 0.881112 0.729281
O O10 0.716775 0.694832 0.665618
O O11 0.616509 0.924975 0.452982
O O12 0.341574 0.151598 0.723625
O O13 0.222756 0.740284 0.947719
O O14 0.091793 0.313066 0.299434
#
# Coordination Sequence:
#
# PCOD8003486 Si02
#       7
#     2   2   2   2   2   2   2
#     4  10  22  36  57  89 116 154 189 235 293 341
#     4  10  21  33  59  92 110 150 193 246 285 327
#     4  10  23  37  58  88 118 150 194 236 286 344
#     4  10  20  40  61  81 111 165 199 222 274 357
#     4  10  20  37  58  85 115 151 196 230 287 336
#     4  11  18  38  60  80 116 155 194 233 277 360
#     4  11  20  36  56  91 120 142 193 250 285 328
#
# _framework density 20.156559000000001
#
# number of rings (size 3 to 8) (size 9 to 14) (size 15 to 20)
#    0.000    1.714    4.286    0.857    4.000    1.714 
#    0.000    0.000    0.000    0.857    0.000    0.000 
#    0.000    0.000    0.000    0.000    0.000    0.000 
#
# Total GULP energy -173450.204094 kJ/mol
# GULP energy per Si atom -12389.300292 kJ/mol
# Density = 2.011068 g / cm^3
# Si number density = 20.156559 Si / 1000 Ang^3
#
#
#
# Elastic Constant Matrix: (Units=GPa)
#
#
# Indices 1 2 3 4 5 6 
#
# 1 71.7714 53.1836 34.1467 6.7292 8.3891 -19.5371
# 2 53.1836 136.4938 23.1889 13.0083 7.1368 -14.7298
# 3 34.1467 23.1889 70.5393 13.4275 16.7139 4.1599
# 4 6.7292 13.0083 13.4275 23.7173 4.2362 7.6651
# 5 8.3891 7.1368 16.7139 4.2362 33.3965 2.8605
# 6 -19.5371 -14.7298 4.1599 7.6651 2.8605 35.7260
#
#
#
# Elastic Compliance Matrix: (Units=1/GPa)
#
#
# Indices 1 2 3 4 5 6 
#
# 1 0.029830 -0.007682 -0.012231 -0.002061 -0.000760 0.015073
# 2 -0.007682 0.010712 0.001110 -0.004606 -0.000425 0.001108
# 3 -0.012231 0.001110 0.023148 -0.006708 -0.007307 -0.006902
# 4 -0.002061 -0.004606 -0.006708 0.053634 -0.000772 -0.013691
# 5 -0.000760 -0.000425 -0.007307 -0.000772 0.034178 -0.002311
# 6 0.015073 0.001108 -0.006902 -0.013691 -0.002311 0.040616
#
#
# Mechanical properties :
#
#
# Convention : Reuss Voigt Hill
#
# Bulk Modulus (GPa) = 38.34042 55.53808 46.93925
# Shear Modulus (GPa) = 20.97130 29.78697 25.37914
#
# Velocity S-wave (km/s) = 3.22905 3.84836 3.55223
# Velocity P-wave (km/s) = 5.74152 6.88184 6.33738
#
# Compressibility (1/GPa) = 0.02608213
#
# Stress axis : x y z
#
# Youngs Moduli (GPa) = 33.52311 93.35290 43.20030
#
# Poissons Ratio (x) = 0.71718 0.52840
# Poissons Ratio (y) = 0.25754 -0.04794
# Poissons Ratio (z) = 0.41003 -0.10359
#
# Static dielectric constant tensor:
#      x y z
#    x 3.557790 -0.028340 0.217100 
#    y -0.028340 3.930660 0.368930 
#    z 0.217100 0.368930 3.639420 
# 
# 
# High freq. dielectric constant tensor:
#      x y z
#    x 1.750690 -0.006220 0.015870 
#    y -0.006220 1.797730 0.022800 
#    z 0.015870 0.022800 1.774880 
# 
# From -- ./inp_files/168699.got.cif
#   From: 2010.06.25/outbox.cif.g09.slc.cpg/sg2_85_cif.got.tgz:168699.got - 2010.06.27 13:26:56.
