data_PCOD8003850
_publ_section_title
;
Structure prediction by ZEFSAII (Michael W. Deem and Ramdas Pophale) SiO2 
 PCOD8003850
Probable space group: P -1
;
_chemical_formula_sum "Si O2"
_cell_formula_units_Z 12
_cell_length_a 14.755591
_cell_length_b 9.055221
_cell_length_c 8.913249
_cell_angle_alpha 110.530894
_cell_angle_beta 138.773466
_cell_angle_gamma 47.600214
_cell_volume 548.840143
_symmetry_space_group_name_H-M "P -1"
_symmetry_group_IT_number 2
_symmetry_cell_setting 'triclinic'
loop_
_space_group_symop_operation_xyz
x,y,z
-x,-y,-z
loop_
_atom_site_type_symbol
_atom_site_label
_atom_site_fract_x
_atom_site_fract_y
_atom_site_fract_z
Si Si1 0.943117 0.783204 0.001168
Si Si2 0.549622 0.136099 0.558885
Si Si3 0.608092 0.123646 0.284935
Si Si4 0.255181 0.303534 0.756850
Si Si5 0.018763 0.529030 0.276893
Si Si6 0.337256 0.588794 0.446587
O O1 0.958082 0.728905 0.177499
O O2 0.133330 0.724050 0.167775
O O3 0.905571 0.656793 0.811237
O O4 0.758227 0.027706 0.829492
O O5 0.522224 0.161892 0.355687
O O6 0.402700 0.374920 0.531821
O O7 0.500000 0.000000 0.500000
O O8 0.681921 0.246922 0.406459
O O9 0.762797 0.871815 0.361845
O O10 0.461038 0.207996 0.999747
O O11 0.173073 0.458761 0.566836
O O12 0.149197 0.418777 0.820474
O O13 0.500000 0.500000 0.500000
#
# Coordination Sequence:
#
# PCOD8003850 Si02
#       6
#     2   2   2   2   2   2
#     4  11  21  39  64  92 123 152 212 259 302 354
#     4  11  21  38  67  95 120 157 209 257 306 355
#     4  10  21  39  58  88 121 165 200 248 303 369
#     4  10  20  38  63  83 125 163 204 241 309 370
#     4  10  20  37  61  93 112 161 204 258 295 364
#     4  10  23  39  59  94 126 159 203 257 307 355
#
# _framework density 21.86429
#
# number of rings (size 3 to 8) (size 9 to 14) (size 15 to 20)
#    0.000    1.667    1.667    5.000    0.000    2.667 
#    6.000    1.667    0.000    0.000    0.000    0.000 
#    0.000    0.000    0.000    0.000    0.000    0.000 
#
# Total GULP energy -148700.479417 kJ/mol
# GULP energy per Si atom -12391.706618 kJ/mol
# Density = 2.181453 g / cm^3
# Si number density = 21.864290 Si / 1000 Ang^3
#
#
#
# Elastic Constant Matrix: (Units=GPa)
#
#
# Indices 1 2 3 4 5 6 
#
# 1 58.7008 0.6415 30.2283 2.1645 -6.4719 7.0583
# 2 0.6415 101.7041 35.8727 1.8726 5.2394 12.9266
# 3 30.2283 35.8727 134.8363 -20.1416 9.6905 3.4977
# 4 2.1645 1.8726 -20.1416 32.6657 -3.0668 8.3276
# 5 -6.4719 5.2394 9.6905 -3.0668 43.0561 2.2883
# 6 7.0583 12.9266 3.4977 8.3276 2.2883 27.0522
#
#
#
# Elastic Compliance Matrix: (Units=1/GPa)
#
#
# Indices 1 2 3 4 5 6 
#
# 1 0.021452 0.002569 -0.006213 -0.003651 0.004330 -0.005264
# 2 0.002569 0.011893 -0.003886 -0.001912 -0.000043 -0.005259
# 3 -0.006213 -0.003886 0.011100 0.007245 -0.002444 0.000019
# 4 -0.003651 -0.001912 0.007245 0.038364 0.001370 -0.010996
# 5 0.004330 -0.000043 -0.002444 0.001370 0.024705 -0.003305
# 6 -0.005264 -0.005259 0.000019 -0.010996 -0.003305 0.044514
#
#
# Mechanical properties :
#
#
# Convention : Reuss Voigt Hill
#
# Bulk Modulus (GPa) = 34.03010 47.63624 40.83317
# Shear Modulus (GPa) = 28.26753 35.78804 32.02778
#
# Velocity S-wave (km/s) = 3.59954 4.05016 3.83148
# Velocity P-wave (km/s) = 5.73355 6.61107 6.18789
#
# Compressibility (1/GPa) = 0.02938575
#
# Stress axis : x y z
#
# Youngs Moduli (GPa) = 46.61644 84.08528 90.08690
#
# Poissons Ratio (x) = -0.21603 0.55968
# Poissons Ratio (y) = -0.11977 0.35008
# Poissons Ratio (z) = 0.28961 0.32676
#
# Static dielectric constant tensor:
#      x y z
#    x 3.653050 0.129950 -0.022960 
#    y 0.129950 4.675360 -0.212850 
#    z -0.022960 -0.212850 4.052790 
# 
# 
# High freq. dielectric constant tensor:
#      x y z
#    x 1.830350 -0.004350 0.001370 
#    y -0.004350 1.854830 -0.019840 
#    z 0.001370 -0.019840 1.863610 
# 
# From -- ./inp_files/147939.got.cif
#   From: 2010.06.25/outbox.cif.g09.slc.cpg/sg2_74_cif.got.tgz:147939.got - 2010.06.27 13:26:56.
