data_PCOD8003430
_publ_section_title
;
Structure prediction by ZEFSAII (Michael W. Deem and Ramdas Pophale) SiO2 
 PCOD8003430
Probable space group: P -1
;
_chemical_formula_sum "Si O2"
_cell_formula_units_Z 16
_cell_length_a 8.736541
_cell_length_b 18.107905
_cell_length_c 9.814050
_cell_angle_alpha 134.485200
_cell_angle_beta 45.541246
_cell_angle_gamma 122.199857
_cell_volume 787.895637
_symmetry_space_group_name_H-M "P -1"
_symmetry_group_IT_number 2
_symmetry_cell_setting 'triclinic'
loop_
_space_group_symop_operation_xyz
x,y,z
-x,-y,-z
loop_
_atom_site_type_symbol
_atom_site_label
_atom_site_fract_x
_atom_site_fract_y
_atom_site_fract_z
Si Si1 0.477910 0.348414 0.190921
Si Si2 0.213614 0.796414 0.087468
Si Si3 0.785542 0.543844 0.319876
Si Si4 0.128453 0.397908 0.944055
Si Si5 0.615376 0.124752 0.439466
Si Si6 0.222285 0.965788 0.510378
Si Si7 0.061023 0.859651 0.991126
Si Si8 0.342593 0.299500 0.920057
O O1 0.636695 0.436903 0.275700
O O2 0.251376 0.371935 0.430278
O O3 0.556166 0.237037 0.044682
O O4 0.462426 0.355588 0.046725
O O5 0.134110 0.891860 0.347203
O O6 0.228945 0.829592 0.962990
O O7 0.037029 0.701859 0.090485
O O8 0.745238 0.601014 0.276023
O O9 0.024313 0.509008 0.155405
O O10 0.277851 0.388552 0.971384
O O11 0.715167 0.108670 0.503788
O O12 0.506266 0.233172 0.649394
O O13 0.430707 0.033001 0.407166
O O14 0.805563 0.125933 0.212195
O O15 0.036599 0.033812 0.768112
O O16 0.863463 0.771292 0.984935
#
# Coordination Sequence:
#
# PCOD8003430 Si02
#       8
#     2   2   2   2   2   2   2   2
#     4  10  20  37  58  82 112 145 184 229 282 333
#     4  10  20  37  57  82 113 147 186 232 272 329
#     4   9  20  38  58  81 112 144 181 232 284 333
#     4   9  20  38  57  82 113 144 183 231 280 331
#     4  10  21  37  57  84 116 149 183 232 276 324
#     4  10  20  38  57  81 119 147 185 233 273 324
#     4  10  22  37  57  84 116 149 188 226 277 325
#     4  10  21  38  58  85 115 146 186 231 272 333
#
# _framework density 20.307258999999998
#
# number of rings (size 3 to 8) (size 9 to 14) (size 15 to 20)
#    0.000    2.250    1.250    0.750    1.750    2.500 
#    4.500    0.000    0.000    0.000    0.000    0.000 
#    0.000    0.000    0.000    0.000    0.000    0.000 
#
# Total GULP energy -198335.238250 kJ/mol
# GULP energy per Si atom -12395.952391 kJ/mol
# Density = 2.026104 g / cm^3
# Si number density = 20.307259 Si / 1000 Ang^3
#
#
#
# Elastic Constant Matrix: (Units=GPa)
#
#
# Indices 1 2 3 4 5 6 
#
# 1 63.8932 3.4924 17.6401 14.6969 -2.5522 -18.8163
# 2 3.4924 47.7726 23.7122 -5.1334 -8.4203 -14.3867
# 3 17.6401 23.7122 108.4071 -3.3121 -4.2810 -0.6234
# 4 14.6969 -5.1334 -3.3121 24.2437 1.8992 -6.4067
# 5 -2.5522 -8.4203 -4.2810 1.8992 26.5236 4.3437
# 6 -18.8163 -14.3867 -0.6234 -6.4067 4.3437 22.5586
#
#
#
# Elastic Compliance Matrix: (Units=1/GPa)
#
#
# Indices 1 2 3 4 5 6 
#
# 1 0.025812 0.007242 -0.005893 -0.008794 0.000635 0.023365
# 2 0.007242 0.035535 -0.008286 0.009601 0.005001 0.030238
# 3 -0.005893 -0.008286 0.011977 0.000879 0.000256 -0.009669
# 4 -0.008794 0.009601 0.000879 0.052882 -0.003828 0.014568
# 5 0.000635 0.005001 0.000256 -0.003828 0.040512 -0.005162
# 6 0.023365 0.030238 -0.009669 0.014568 -0.005162 0.087966
#
#
# Mechanical properties :
#
#
# Convention : Reuss Voigt Hill
#
# Bulk Modulus (GPa) = 16.82144 34.41804 25.61974
# Shear Modulus (GPa) = 17.33847 26.34706 21.84276
#
# Velocity S-wave (km/s) = 2.92517 3.60588 3.28321
# Velocity P-wave (km/s) = 4.43962 5.85849 5.19770
#
# Compressibility (1/GPa) = 0.05944794
#
# Stress axis : x y z
#
# Youngs Moduli (GPa) = 38.74228 28.14105 83.49107
#
# Poissons Ratio (x) = -0.20379 0.49204
# Poissons Ratio (y) = -0.28055 0.69184
# Poissons Ratio (z) = 0.22832 0.23319
#
# Static dielectric constant tensor:
#      x y z
#    x 3.792550 -0.325440 -0.280090 
#    y -0.325440 3.623810 0.169850 
#    z -0.280090 0.169850 3.870430 
# 
# 
# High freq. dielectric constant tensor:
#      x y z
#    x 1.787980 -0.019800 -0.002100 
#    y -0.019800 1.782600 0.006420 
#    z -0.002100 0.006420 1.797690 
# 
# From -- ./inp_files/188223.got.cif
#   From: 2010.06.25/outbox.cif.g09.slc.cpg/sg2_95_cif.got.tgz:188223.got - 2010.06.27 13:26:56.
