data_PCOD8003874
_publ_section_title
;
Structure prediction by ZEFSAII (Michael W. Deem and Ramdas Pophale) SiO2 
 PCOD8003874
Probable space group: P -1
;
_chemical_formula_sum "Si O2"
_cell_formula_units_Z 16
_cell_length_a 18.012120
_cell_length_b 10.677163
_cell_length_c 8.105897
_cell_angle_alpha 44.372785
_cell_angle_beta 98.075410
_cell_angle_gamma 128.623641
_cell_volume 705.910987
_symmetry_space_group_name_H-M "P -1"
_symmetry_group_IT_number 2
_symmetry_cell_setting 'triclinic'
loop_
_space_group_symop_operation_xyz
x,y,z
-x,-y,-z
loop_
_atom_site_type_symbol
_atom_site_label
_atom_site_fract_x
_atom_site_fract_y
_atom_site_fract_z
Si Si1 0.488450 0.558488 0.697369
Si Si2 0.312708 0.623460 0.365157
Si Si3 0.830076 0.052704 0.353875
Si Si4 0.716945 0.830979 0.203817
Si Si5 0.868554 0.402105 0.613692
Si Si6 0.459228 0.957152 0.779850
Si Si7 0.633133 0.532777 0.945171
Si Si8 0.967913 0.520606 0.198979
O O1 0.418439 0.387346 0.669121
O O2 0.561562 0.519081 0.802865
O O3 0.566251 0.878242 0.409127
O O4 0.386261 0.415578 0.931543
O O5 0.250846 0.320463 0.655526
O O6 0.212421 0.586274 0.361835
O O7 0.404745 0.827596 0.347282
O O8 0.382176 0.743179 0.104924
O O9 0.863981 0.274756 0.278551
O O10 0.738109 0.949323 0.283228
O O11 0.767866 0.785315 0.695762
O O12 0.943826 0.198784 0.147635
O O13 0.795631 0.087180 0.861854
O O14 0.921421 0.549956 0.312307
O O15 0.966951 0.539439 0.651866
O O16 0.417333 0.761105 0.795321
#
# Coordination Sequence:
#
# PCOD8003874 Si02
#       8
#     2   2   2   2   2   2   2   2
#     4  10  23  35  59  92 119 158 197 233 297 361
#     4  10  21  36  61  93 120 158 194 237 294 357
#     4  10  20  37  62  82 120 151 197 251 299 340
#     4  10  20  38  61  89 118 157 193 239 296 356
#     4  10  20  39  66  83 119 156 200 246 303 344
#     4  10  21  36  57  91 128 152 192 239 286 363
#     4  11  21  38  59  86 122 158 195 242 294 356
#     4   9  21  39  59  90 112 154 205 257 290 341
#
# _framework density 22.665748000000001
#
# number of rings (size 3 to 8) (size 9 to 14) (size 15 to 20)
#    0.000    2.000    1.250    1.875    3.500    1.500 
#    0.000    6.250    0.000    0.000    0.000    0.000 
#    0.000    0.000    0.000    0.000    0.000    0.000 
#
# Total GULP energy -198269.307617 kJ/mol
# GULP energy per Si atom -12391.831726 kJ/mol
# Density = 2.261416 g / cm^3
# Si number density = 22.665748 Si / 1000 Ang^3
#
#
#
# Elastic Constant Matrix: (Units=GPa)
#
#
# Indices 1 2 3 4 5 6 
#
# 1 86.6889 19.9635 20.5997 -8.2071 2.1658 2.7122
# 2 19.9635 105.2950 15.5432 -19.1426 -3.5298 3.5629
# 3 20.5997 15.5432 115.2278 -17.8117 -4.3657 -4.8011
# 4 -8.2071 -19.1426 -17.8117 27.2980 -5.6991 2.0799
# 5 2.1658 -3.5298 -4.3657 -5.6991 33.8478 5.7208
# 6 2.7122 3.5629 -4.8011 2.0799 5.7208 13.1505
#
#
#
# Elastic Compliance Matrix: (Units=1/GPa)
#
#
# Indices 1 2 3 4 5 6 
#
# 1 0.012640 -0.001780 -0.001943 0.001388 -0.000535 -0.002821
# 2 -0.001780 0.011800 0.000019 0.009011 0.003866 -0.005930
# 3 -0.001943 0.000019 0.010177 0.006350 0.002140 0.002176
# 4 0.001388 0.009011 0.006350 0.051225 0.012665 -0.014020
# 5 -0.000535 0.003866 0.002140 0.012665 0.035354 -0.017539
# 6 -0.002821 -0.005930 0.002176 -0.014020 -0.017539 0.088873
#
#
# Mechanical properties :
#
#
# Convention : Reuss Voigt Hill
#
# Bulk Modulus (GPa) = 36.75264 46.60273 41.67768
# Shear Modulus (GPa) = 22.07051 31.59960 26.83505
#
# Velocity S-wave (km/s) = 3.12386 3.73789 3.44459
# Velocity P-wave (km/s) = 5.40940 6.26375 5.85219
#
# Compressibility (1/GPa) = 0.02720893
#
# Stress axis : x y z
#
# Youngs Moduli (GPa) = 79.11343 84.74344 98.26438
#
# Poissons Ratio (x) = 0.15083 0.19092
# Poissons Ratio (y) = 0.14081 -0.00184
# Poissons Ratio (z) = 0.15371 -0.00159
#
# Static dielectric constant tensor:
#      x y z
#    x 3.562130 0.106330 -0.223550 
#    y 0.106330 4.185240 -0.000230 
#    z -0.223550 -0.000230 4.388570 
# 
# 
# High freq. dielectric constant tensor:
#      x y z
#    x 1.848500 -0.002360 -0.021670 
#    y -0.002360 1.899330 0.003600 
#    z -0.021670 0.003600 1.908120 
# 
# From -- ./inp_files/345867.got.cif
#   From: 2010.06.25/outbox.cif.g09.slc.cpg/sg2_173_cif.got.tgz:345867.got - 2010.06.27 13:26:56.
