data_PCOD8003919
_publ_section_title
;
Structure prediction by ZEFSAII (Michael W. Deem and Ramdas Pophale) SiO2 
 PCOD8003919
Probable space group: P -1
;
_chemical_formula_sum "Si O2"
_cell_formula_units_Z 16
_cell_length_a 14.663500
_cell_length_b 11.521132
_cell_length_c 15.711564
_cell_angle_alpha 115.653332
_cell_angle_beta 151.247235
_cell_angle_gamma 45.423177
_cell_volume 769.905252
_symmetry_space_group_name_H-M "P -1"
_symmetry_group_IT_number 2
_symmetry_cell_setting 'triclinic'
loop_
_space_group_symop_operation_xyz
x,y,z
-x,-y,-z
loop_
_atom_site_type_symbol
_atom_site_label
_atom_site_fract_x
_atom_site_fract_y
_atom_site_fract_z
Si Si1 0.384016 0.019810 0.289101
Si Si2 0.814644 0.719300 0.420832
Si Si3 0.182597 0.262458 0.894486
Si Si4 0.780784 0.277419 0.176146
Si Si5 0.210829 0.986111 0.296610
Si Si6 0.463569 0.861660 0.010826
Si Si7 0.280606 0.279053 0.160462
Si Si8 0.457294 0.381025 0.464737
O O1 0.523684 0.062799 0.471754
O O2 0.222376 0.172534 0.127365
O O3 0.616693 0.807768 0.370298
O O4 0.176686 0.036681 0.183673
O O5 0.627368 0.824823 0.217171
O O6 0.000000 0.500000 0.500000
O O7 0.005548 0.751190 0.597567
O O8 0.305102 0.275492 0.917720
O O9 0.853646 0.466572 0.699161
O O10 0.366606 0.210153 0.111504
O O11 0.228258 0.086241 0.863306
O O12 0.500000 0.500000 0.000000
O O13 0.701275 0.187929 0.130767
O O14 0.922385 0.168760 0.166959
O O15 0.304808 0.787966 0.325921
O O16 0.506555 0.253925 0.387099
O O17 0.000000 0.500000 0.000000
O O18 0.500000 0.500000 0.500000
#
# Coordination Sequence:
#
# PCOD8003919 Si02
#       8
#     2   2   2   2   2   2   2   2
#     4   9  18  36  61  88 118 156 205 253 312 370
#     4  11  22  39  66  88 129 167 201 259 321 371
#     4  10  22  40  62  88 120 171 208 257 313 373
#     4  11  23  40  63  92 125 163 207 257 315 378
#     4   9  20  35  61  91 118 159 203 259 314 365
#     4  11  23  42  63  89 128 164 215 256 308 378
#     4   9  18  35  59  83 117 158 199 246 309 364
#     4  10  20  37  62  89 126 161 205 258 314 376
#
# _framework density 20.781777000000002
#
# number of rings (size 3 to 8) (size 9 to 14) (size 15 to 20)
#    0.000    2.000    2.500    0.750    1.750    3.000 
#    2.250    1.875    0.000    0.000    0.000    0.000 
#    0.000    0.000    0.000    0.000    0.000    0.000 
#
# Total GULP energy -198281.823770 kJ/mol
# GULP energy per Si atom -12392.613986 kJ/mol
# Density = 2.073448 g / cm^3
# Si number density = 20.781777 Si / 1000 Ang^3
#
#
#
# Elastic Constant Matrix: (Units=GPa)
#
#
# Indices 1 2 3 4 5 6 
#
# 1 162.9127 64.3881 38.6787 5.0901 8.2877 0.2276
# 2 64.3881 123.3402 26.7241 -13.8836 11.0044 5.0769
# 3 38.6787 26.7241 52.5268 -0.9957 4.8138 0.1654
# 4 5.0901 -13.8836 -0.9957 39.5124 0.4465 1.7537
# 5 8.2877 11.0044 4.8138 0.4465 27.7444 -2.4804
# 6 0.2276 5.0769 0.1654 1.7537 -2.4804 34.2460
#
#
#
# Elastic Compliance Matrix: (Units=1/GPa)
#
#
# Indices 1 2 3 4 5 6 
#
# 1 0.008878 -0.003959 -0.004558 -0.002677 -0.000187 0.000673
# 2 -0.003959 0.011646 -0.002617 0.004669 -0.003251 -0.002162
# 3 -0.004558 -0.002617 0.023890 0.000282 -0.001735 0.000163
# 4 -0.002677 0.004669 0.000282 0.027419 -0.001739 -0.002206
# 5 -0.000187 -0.003251 -0.001735 -0.001739 0.038016 0.003334
# 6 0.000673 -0.002162 0.000163 -0.002206 0.003334 0.029870
#
#
# Mechanical properties :
#
#
# Convention : Reuss Voigt Hill
#
# Bulk Modulus (GPa) = 45.15714 66.48461 55.82088
# Shear Modulus (GPa) = 29.52156 34.23317 31.87736
#
# Velocity S-wave (km/s) = 3.77311 4.06306 3.92076
# Velocity P-wave (km/s) = 6.38421 7.35340 6.88588
#
# Compressibility (1/GPa) = 0.02214489
#
# Stress axis : x y z
#
# Youngs Moduli (GPa) = 112.64404 85.86660 41.85906
#
# Poissons Ratio (x) = 0.33995 0.19081
# Poissons Ratio (y) = 0.44597 0.10953
# Poissons Ratio (z) = 0.51349 0.22468
#
# Static dielectric constant tensor:
#      x y z
#    x 4.208080 -0.291400 -0.595510 
#    y -0.291400 4.289650 0.370760 
#    z -0.595510 0.370760 4.307470 
# 
# 
# High freq. dielectric constant tensor:
#      x y z
#    x 1.811660 -0.000090 -0.010350 
#    y -0.000090 1.832160 -0.013250 
#    z -0.010350 -0.013250 1.788700 
# 
# From -- ./inp_files/532637.got.cif
#   From: 2010.06.25/outbox.cif.g09.slc.cpg/sg2_267_cif.got.tgz:532637.got - 2010.06.27 13:26:56.
