data_PCOD8003973
_publ_section_title
;
Structure prediction by ZEFSAII (Michael W. Deem and Ramdas Pophale) SiO2 
 PCOD8003973
Probable space group: P -1
;
_chemical_formula_sum "Si O2"
_cell_formula_units_Z 16
_cell_length_a 12.526892
_cell_length_b 11.214259
_cell_length_c 13.566614
_cell_angle_alpha 60.590086
_cell_angle_beta 150.829192
_cell_angle_gamma 127.561142
_cell_volume 732.161860
_symmetry_space_group_name_H-M "P -1"
_symmetry_group_IT_number 2
_symmetry_cell_setting 'triclinic'
loop_
_space_group_symop_operation_xyz
x,y,z
-x,-y,-z
loop_
_atom_site_type_symbol
_atom_site_label
_atom_site_fract_x
_atom_site_fract_y
_atom_site_fract_z
Si Si1 0.218986 0.254079 0.364861
Si Si2 0.040418 0.060022 0.619084
Si Si3 0.601864 0.336496 0.383871
Si Si4 0.596445 0.160703 0.631219
Si Si5 0.532029 0.142306 0.034376
Si Si6 0.973375 0.579158 0.723985
Si Si7 0.117923 0.347688 0.034609
Si Si8 0.645520 0.144403 0.335798
O O1 0.487149 0.257983 0.570403
O O2 0.138409 0.315212 0.178396
O O3 0.219525 0.367305 0.405484
O O4 0.027422 0.082892 0.304256
O O5 0.900174 0.160136 0.492299
O O6 0.317666 0.182398 0.806524
O O7 0.000000 0.000000 0.500000
O O8 0.540307 0.188789 0.462492
O O9 0.362134 0.366157 0.167403
O O10 0.672022 0.299290 0.346814
O O11 0.833720 0.474964 0.561503
O O12 0.457153 0.985497 0.612800
O O13 0.880132 0.208774 0.857193
O O14 0.794802 0.277192 0.184636
O O15 0.472134 0.100639 0.118315
O O16 0.500000 0.000000 0.000000
O O17 0.071321 0.495982 0.916646
#
# Coordination Sequence:
#
# PCOD8003973 Si02
#       8
#     2   2   2   2   2   2   2   2
#     4  10  20  37  62  94 125 160 208 260 316 364
#     4  11  22  40  66  96 124 156 206 270 319 358
#     4  10  24  43  59  94 130 172 207 246 312 376
#     4   9  21  38  66  96 123 162 212 261 309 364
#     4  12  24  42  65  96 120 158 214 261 312 372
#     4  11  24  40  62  90 135 163 208 258 306 382
#     4  10  22  39  61  92 127 170 208 254 312 369
#     4  11  23  42  68  90 130 165 206 263 310 369
#
# _framework density 21.853092
#
# number of rings (size 3 to 8) (size 9 to 14) (size 15 to 20)
#    0.000    1.500    2.500    1.500    0.000   10.500 
#    0.000    1.250    0.000    0.000    0.000    0.000 
#    0.000    0.000    0.000    0.000    0.000    0.000 
#
# Total GULP energy -198291.432075 kJ/mol
# GULP energy per Si atom -12393.214505 kJ/mol
# Density = 2.180335 g / cm^3
# Si number density = 21.853092 Si / 1000 Ang^3
#
#
#
# Elastic Constant Matrix: (Units=GPa)
#
#
# Indices 1 2 3 4 5 6 
#
# 1 125.8216 45.7866 56.9632 11.7342 5.0271 -30.9456
# 2 45.7866 73.9644 40.5958 2.8682 -2.7400 -12.9314
# 3 56.9632 40.5958 138.2306 8.7348 19.1291 -16.4660
# 4 11.7342 2.8682 8.7348 25.9269 0.2195 -3.5449
# 5 5.0271 -2.7400 19.1291 0.2195 36.8177 1.4859
# 6 -30.9456 -12.9314 -16.4660 -3.5449 1.4859 37.8732
#
#
#
# Elastic Compliance Matrix: (Units=1/GPa)
#
#
# Indices 1 2 3 4 5 6 
#
# 1 0.013353 -0.005394 -0.002628 -0.003507 -0.001147 0.007643
# 2 -0.005394 0.019261 -0.004086 0.001704 0.004267 0.000385
# 3 -0.002628 -0.004086 0.010506 -0.001705 -0.005437 0.001079
# 4 -0.003507 0.001704 -0.001705 0.040632 0.001219 0.000731
# 5 -0.001147 0.004267 -0.005437 0.001219 0.030571 -0.002929
# 6 0.007643 0.000385 0.001079 0.000731 -0.002929 0.033433
#
#
# Mechanical properties :
#
#
# Convention : Reuss Voigt Hill
#
# Bulk Modulus (GPa) = 52.89854 69.41199 61.15526
# Shear Modulus (GPa) = 28.04684 33.10162 30.57423
#
# Velocity S-wave (km/s) = 3.58638 3.89618 3.74449
# Velocity P-wave (km/s) = 6.43494 7.21611 6.83669
#
# Compressibility (1/GPa) = 0.01890411
#
# Stress axis : x y z
#
# Youngs Moduli (GPa) = 74.88980 51.91816 95.18496
#
# Poissons Ratio (x) = 0.28004 0.25012
# Poissons Ratio (y) = 0.40395 0.38894
# Poissons Ratio (z) = 0.19679 0.21215
#
# Static dielectric constant tensor:
#      x y z
#    x 4.285450 0.129830 0.255310 
#    y 0.129830 3.839310 -0.170020 
#    z 0.255310 -0.170020 4.154510 
# 
# 
# High freq. dielectric constant tensor:
#      x y z
#    x 1.861530 0.003370 0.008150 
#    y 0.003370 1.845710 -0.011150 
#    z 0.008150 -0.011150 1.863680 
# 
# From -- ./inp_files/428061.got.cif
#   From: 2010.06.25/outbox.cif.g09.slc.cpg/sg2_215_cif.got.tgz:428061.got - 2010.06.27 13:26:56.
