data_PCOD8003688
_publ_section_title
;
Structure prediction by ZEFSAII (Michael W. Deem and Ramdas Pophale) SiO2 
 PCOD8003688
Probable space group: P -1
;
_chemical_formula_sum "Si O2"
_cell_formula_units_Z 12
_cell_length_a 7.398828
_cell_length_b 16.313924
_cell_length_c 5.129025
_cell_angle_alpha 71.692572
_cell_angle_beta 123.204377
_cell_angle_gamma 108.406065
_cell_volume 483.673049
_symmetry_space_group_name_H-M "P -1"
_symmetry_group_IT_number 2
_symmetry_cell_setting 'triclinic'
loop_
_space_group_symop_operation_xyz
x,y,z
-x,-y,-z
loop_
_atom_site_type_symbol
_atom_site_label
_atom_site_fract_x
_atom_site_fract_y
_atom_site_fract_z
Si Si1 0.242064 0.969884 0.303345
Si Si2 0.737956 0.131334 0.088141
Si Si3 0.311442 0.153009 0.995704
Si Si4 0.012619 0.281247 0.411275
Si Si5 0.596498 0.310804 0.301903
Si Si6 0.556319 0.603087 0.411491
O O1 0.157701 0.926489 0.555209
O O2 0.500000 0.000000 0.500000
O O3 0.201078 0.897807 0.116678
O O4 0.156418 0.062254 0.075222
O O5 0.858976 0.233145 0.105856
O O6 0.475662 0.125474 0.932828
O O7 0.152056 0.212163 0.699448
O O8 0.463720 0.209699 0.281567
O O9 0.855331 0.311979 0.472812
O O10 0.182434 0.366198 0.361613
O O11 0.573778 0.349432 0.529610
O O12 0.508590 0.370689 0.954335
O O13 0.500000 0.500000 0.500000
#
# Coordination Sequence:
#
# PCOD8003688 Si02
#       6
#     2   2   2   2   2   2
#     4  10  20  37  60  88 127 170 217 267 305 359
#     4  10  22  38  59  90 126 170 219 264 311 364
#     4   9  20  38  61  88 128 171 211 261 316 368
#     4  10  24  42  66  96 132 170 212 265 322 383
#     4  10  24  43  66  98 130 165 211 261 320 385
#     4  11  25  46  71  97 127 165 209 263 326 389
#
# _framework density 24.810147000000001
#
# number of rings (size 3 to 8) (size 9 to 14) (size 15 to 20)
#    0.000    2.000    0.000    2.500    0.000   22.667 
#    0.000    0.000    0.000    0.000    0.000    0.000 
#    0.000    0.000    0.000    0.000    0.000    0.000 
#
# Total GULP energy -148799.947245 kJ/mol
# GULP energy per Si atom -12399.995604 kJ/mol
# Density = 2.475368 g / cm^3
# Si number density = 24.810147 Si / 1000 Ang^3
#
#
#
# Elastic Constant Matrix: (Units=GPa)
#
#
# Indices 1 2 3 4 5 6 
#
# 1 114.2889 52.2048 20.9744 12.3586 17.4716 4.1664
# 2 52.2048 141.5859 6.7458 5.5844 0.9503 29.2187
# 3 20.9744 6.7458 50.4376 -2.3929 -12.1040 1.7764
# 4 12.3586 5.5844 -2.3929 33.6978 -1.5571 -3.9350
# 5 17.4716 0.9503 -12.1040 -1.5571 35.6343 -0.1709
# 6 4.1664 29.2187 1.7764 -3.9350 -0.1709 49.6940
#
#
#
# Elastic Compliance Matrix: (Units=1/GPa)
#
#
# Indices 1 2 3 4 5 6 
#
# 1 0.014590 -0.005039 -0.008103 -0.005370 -0.009999 0.001569
# 2 -0.005039 0.009970 0.001596 -0.000209 0.002711 -0.005504
# 3 -0.008103 0.001596 0.026399 0.005100 0.013117 -0.000754
# 4 -0.005370 -0.000209 0.005100 0.032660 0.005812 0.002997
# 5 -0.009999 0.002711 0.013117 0.005812 0.037599 -0.000635
# 6 0.001569 -0.005504 -0.000754 0.002997 -0.000635 0.023490
#
#
# Mechanical properties :
#
#
# Convention : Reuss Voigt Hill
#
# Bulk Modulus (GPa) = 35.88185 51.79580 43.83883
# Shear Modulus (GPa) = 28.23431 38.89773 33.56602
#
# Velocity S-wave (km/s) = 3.37711 3.96386 3.68219
# Velocity P-wave (km/s) = 5.44981 6.47084 5.98215
#
# Compressibility (1/GPa) = 0.02786924
#
# Stress axis : x y z
#
# Youngs Moduli (GPa) = 68.53835 100.29597 37.88041
#
# Poissons Ratio (x) = 0.50535 0.30695
# Poissons Ratio (y) = 0.34533 -0.06047
# Poissons Ratio (z) = 0.55537 -0.16011
#
# Static dielectric constant tensor:
#      x y z
#    x 4.936440 0.486160 0.507490 
#    y 0.486160 5.087330 -0.047560 
#    z 0.507490 -0.047560 4.740810 
# 
# 
# High freq. dielectric constant tensor:
#      x y z
#    x 1.998030 0.005910 0.019990 
#    y 0.005910 1.984020 0.000280 
#    z 0.019990 0.000280 1.988940 
# 
# From -- ./inp_files/29875.got.cif
#   From: 2010.06.25/outbox.cif.g09.slc.cpg/sg2_15_cif.got.tgz:29875.got - 2010.06.27 13:26:56.
