data_PCOD8003466
_publ_section_title
;
Structure prediction by ZEFSAII (Michael W. Deem and Ramdas Pophale) SiO2 
 PCOD8003466
Probable space group: P -1
;
_chemical_formula_sum "Si O2"
_cell_formula_units_Z 14
_cell_length_a 17.193481
_cell_length_b 11.696320
_cell_length_c 6.224460
_cell_angle_alpha 83.182743
_cell_angle_beta 50.367390
_cell_angle_gamma 53.997105
_cell_volume 710.871934
_symmetry_space_group_name_H-M "P -1"
_symmetry_group_IT_number 2
_symmetry_cell_setting 'triclinic'
loop_
_space_group_symop_operation_xyz
x,y,z
-x,-y,-z
loop_
_atom_site_type_symbol
_atom_site_label
_atom_site_fract_x
_atom_site_fract_y
_atom_site_fract_z
Si Si1 0.569227 0.879742 0.102599
Si Si2 0.908441 0.228609 0.497133
Si Si3 0.671376 0.992306 0.205383
Si Si4 0.828860 0.038620 0.642970
Si Si5 0.106290 0.153852 0.814076
Si Si6 0.194890 0.462697 0.224358
Si Si7 0.987047 0.462278 0.797318
O O1 0.463395 0.893652 0.438368
O O2 0.657907 0.900239 0.079682
O O3 0.671915 0.701837 0.878150
O O4 0.500000 0.000000 0.000000
O O5 0.816270 0.185706 0.639332
O O6 0.805789 0.403845 0.732554
O O7 0.027579 0.113834 0.482328
O O8 0.969278 0.215286 0.160048
O O9 0.794401 0.870407 0.175095
O O10 0.703311 0.084267 0.994481
O O11 0.822762 0.002641 0.412562
O O12 0.076399 0.277359 0.668739
O O13 0.051242 0.518598 0.539746
O O14 0.168889 0.456139 0.015677
O O15 0.000000 0.500000 0.000000
#
# Coordination Sequence:
#
# PCOD8003466 Si02
#       7
#     2   2   2   2   2   2   2
#     4  11  23  40  60  82 113 151 193 236 281 337
#     4  10  21  35  55  90 116 150 190 228 287 343
#     4  10  22  38  59  84 110 152 198 228 279 342
#     4  10  20  37  58  81 121 151 188 235 276 341
#     4  11  19  36  60  85 117 152 184 231 293 342
#     4  11  22  35  55  86 118 145 185 236 285 342
#     4  11  20  32  54  86 120 143 175 232 298 340
#
# _framework density 19.694120999999999
#
# number of rings (size 3 to 8) (size 9 to 14) (size 15 to 20)
#    0.000    1.429    2.857    3.857    4.000    1.143 
#    0.000    0.714    0.000    3.429    0.000    0.000 
#    0.000    0.000    0.000    0.000    0.000    0.000 
#
# Total GULP energy -173499.826715 kJ/mol
# GULP energy per Si atom -12392.844765 kJ/mol
# Density = 1.964930 g / cm^3
# Si number density = 19.694121 Si / 1000 Ang^3
#
#
#
# Elastic Constant Matrix: (Units=GPa)
#
#
# Indices 1 2 3 4 5 6 
#
# 1 113.0308 60.8313 43.8170 -2.1164 8.1221 13.8409
# 2 60.8313 115.6108 35.9770 10.7427 3.0788 15.3255
# 3 43.8170 35.9770 77.0969 -2.5328 -1.2584 12.6486
# 4 -2.1164 10.7427 -2.5328 30.6124 4.2497 0.7069
# 5 8.1221 3.0788 -1.2584 4.2497 32.4141 -5.3597
# 6 13.8409 15.3255 12.6486 0.7069 -5.3597 36.6294
#
#
#
# Elastic Compliance Matrix: (Units=1/GPa)
#
#
# Indices 1 2 3 4 5 6 
#
# 1 0.014709 -0.006083 -0.005169 0.003331 -0.004057 -0.001886
# 2 -0.006083 0.013450 -0.002619 -0.005371 0.000477 -0.002251
# 3 -0.005169 -0.002619 0.017688 0.001882 0.001508 -0.002875
# 4 0.003331 -0.005371 0.001882 0.035672 -0.005110 -0.001097
# 5 -0.004057 0.000477 0.001508 -0.005110 0.033512 0.005815
# 6 -0.001886 -0.002251 -0.002875 -0.001097 0.005815 0.030820
#
#
# Mechanical properties :
#
#
# Convention : Reuss Voigt Hill
#
# Bulk Modulus (GPa) = 55.22569 65.22101 60.22335
# Shear Modulus (GPa) = 27.83536 30.93872 29.38704
#
# Velocity S-wave (km/s) = 3.76358 3.96784 3.86706
# Velocity P-wave (km/s) = 6.85483 7.36074 7.11228
#
# Compressibility (1/GPa) = 0.01810752
#
# Stress axis : x y z
#
# Youngs Moduli (GPa) = 67.98459 74.34967 56.53407
#
# Poissons Ratio (x) = 0.45223 0.29221
# Poissons Ratio (y) = 0.41352 0.14805
# Poissons Ratio (z) = 0.35139 0.19471
#
# Static dielectric constant tensor:
#      x y z
#    x 3.683470 0.393840 0.012490 
#    y 0.393840 2.988980 0.031970 
#    z 0.012490 0.031970 3.430730 
# 
# 
# High freq. dielectric constant tensor:
#      x y z
#    x 1.774380 0.003080 0.018600 
#    y 0.003080 1.753500 -0.019460 
#    z 0.018600 -0.019460 1.751130 
# 
# From -- ./inp_files/65923.got.cif
#   From: 2010.06.25/outbox.cif.g09.slc.cpg/sg2_33_cif.got.tgz:65923.got - 2010.06.27 13:26:56.
