data_PCOD8003728
_publ_section_title
;
Structure prediction by ZEFSAII (Michael W. Deem and Ramdas Pophale) SiO2 
 PCOD8003728
Probable space group: P -1
;
_chemical_formula_sum "Si O2"
_cell_formula_units_Z 16
_cell_length_a 9.115521
_cell_length_b 12.238437
_cell_length_c 11.798222
_cell_angle_alpha 124.888387
_cell_angle_beta 135.481692
_cell_angle_gamma 60.420722
_cell_volume 748.507561
_symmetry_space_group_name_H-M "P -1"
_symmetry_group_IT_number 2
_symmetry_cell_setting 'triclinic'
loop_
_space_group_symop_operation_xyz
x,y,z
-x,-y,-z
loop_
_atom_site_type_symbol
_atom_site_label
_atom_site_fract_x
_atom_site_fract_y
_atom_site_fract_z
Si Si1 0.983295 0.763874 0.534558
Si Si2 0.330852 0.230649 0.826892
Si Si3 0.341123 0.526895 0.611727
Si Si4 0.785961 0.596950 0.927078
Si Si5 0.666105 0.392258 0.092880
Si Si6 0.120179 0.281619 0.291572
Si Si7 0.255926 0.971673 0.772045
Si Si8 0.697615 0.852634 0.895939
O O1 0.177860 0.648878 0.540588
O O2 0.042206 0.906689 0.605943
O O3 0.776298 0.741689 0.337954
O O4 0.929929 0.771629 0.643185
O O5 0.278407 0.093092 0.770651
O O6 0.257669 0.357130 0.941645
O O7 0.579449 0.245953 0.961212
O O8 0.589186 0.532529 0.726619
O O9 0.299589 0.536689 0.727719
O O10 0.288494 0.385803 0.451859
O O11 0.827314 0.720053 0.944505
O O12 0.000000 0.500000 0.000000
O O13 0.904947 0.354433 0.154254
O O14 0.500000 0.500000 0.000000
O O15 0.228625 0.153707 0.198954
O O16 0.446778 0.852312 0.775752
O O17 0.259333 0.015278 0.932442
#
# Coordination Sequence:
#
# PCOD8003728 Si02
#       8
#     2   2   2   2   2   2   2   2
#     4  11  21  41  64  92 125 165 209 255 316 375
#     4  10  22  39  66  89 120 172 211 254 311 373
#     4  10  21  37  59  93 128 163 201 252 320 373
#     4  10  22  38  61  95 124 165 210 258 311 371
#     4  10  20  37  60  91 130 167 201 251 316 379
#     4  11  24  37  62  97 126 163 207 258 319 371
#     4  10  22  44  66  85 124 168 219 252 312 371
#     4  10  23  41  63  92 122 166 210 262 309 370
#
# _framework density 21.375869999999999
#
# number of rings (size 3 to 8) (size 9 to 14) (size 15 to 20)
#    0.000    1.750    1.250    3.375   10.500    2.000 
#    0.000    0.625    0.000    0.000    0.000    0.000 
#    0.000    0.000    0.000    0.000    0.000    0.000 
#
# Total GULP energy -198218.110054 kJ/mol
# GULP energy per Si atom -12388.631878 kJ/mol
# Density = 2.132722 g / cm^3
# Si number density = 21.375870 Si / 1000 Ang^3
#
#
#
# Elastic Constant Matrix: (Units=GPa)
#
#
# Indices 1 2 3 4 5 6 
#
# 1 76.2156 34.6061 50.2750 5.4095 7.0710 -8.8374
# 2 34.6061 86.8437 35.3597 -2.2304 1.7370 -3.6006
# 3 50.2750 35.3597 109.3084 -9.0447 6.8243 -10.2077
# 4 5.4095 -2.2304 -9.0447 26.7472 5.6029 3.5182
# 5 7.0710 1.7370 6.8243 5.6029 27.4916 -0.1943
# 6 -8.8374 -3.6006 -10.2077 3.5182 -0.1943 32.4948
#
#
#
# Elastic Compliance Matrix: (Units=1/GPa)
#
#
# Indices 1 2 3 4 5 6 
#
# 1 0.022576 -0.005412 -0.008872 -0.008165 -0.001573 0.003628
# 2 -0.005412 0.014566 -0.002208 0.001508 0.000708 -0.000711
# 3 -0.008872 -0.002208 0.014804 0.007016 -0.002675 0.001217
# 4 -0.008165 0.001508 0.007016 0.043979 -0.008733 -0.004663
# 5 -0.001573 0.000708 -0.002675 -0.008733 0.039178 -0.000010
# 6 0.003628 -0.000711 0.001217 -0.004663 -0.000010 0.032569
#
#
# Mechanical properties :
#
#
# Convention : Reuss Voigt Hill
#
# Bulk Modulus (GPa) = 52.73556 56.98326 54.85941
# Shear Modulus (GPa) = 24.15711 27.48853 25.82282
#
# Velocity S-wave (km/s) = 3.36536 3.58992 3.47945
# Velocity P-wave (km/s) = 6.31071 6.62563 6.47009
#
# Compressibility (1/GPa) = 0.01896254
#
# Stress axis : x y z
#
# Youngs Moduli (GPa) = 44.29455 68.65379 67.54711
#
# Poissons Ratio (x) = 0.37155 0.59925
# Poissons Ratio (y) = 0.23972 0.14918
# Poissons Ratio (z) = 0.39296 0.15162
#
# Static dielectric constant tensor:
#      x y z
#    x 4.226200 0.117610 0.196710 
#    y 0.117610 3.728700 -0.049440 
#    z 0.196710 -0.049440 4.030840 
# 
# 
# High freq. dielectric constant tensor:
#      x y z
#    x 1.830230 0.007360 0.010420 
#    y 0.007360 1.823280 -0.003200 
#    z 0.010420 -0.003200 1.846040 
# 
# From -- ./inp_files/393221.got.cif
#   From: 2010.06.25/outbox.cif.g09.slc.cpg/sg2_197_cif.got.tgz:393221.got - 2010.06.27 13:26:56.
