data_PCOD8003218
_publ_section_title
;
Structure prediction by ZEFSAII (Michael W. Deem and Ramdas Pophale) SiO2 
 PCOD8003218
Probable space group: P -1
;
_chemical_formula_sum "Si O2"
_cell_formula_units_Z 14
_cell_length_a 14.585080
_cell_length_b 9.276114
_cell_length_c 7.872497
_cell_angle_alpha 44.867248
_cell_angle_beta 78.696420
_cell_angle_gamma 102.931168
_cell_volume 627.421724
_symmetry_space_group_name_H-M "P -1"
_symmetry_group_IT_number 2
_symmetry_cell_setting 'triclinic'
loop_
_space_group_symop_operation_xyz
x,y,z
-x,-y,-z
loop_
_atom_site_type_symbol
_atom_site_label
_atom_site_fract_x
_atom_site_fract_y
_atom_site_fract_z
Si Si1 0.386078 0.739454 0.966160
Si Si2 0.695949 0.736077 0.022450
Si Si3 0.224460 0.791266 0.215396
Si Si4 0.125696 0.314368 0.838226
Si Si5 0.541411 0.231507 0.446788
Si Si6 0.115112 0.953369 0.886516
Si Si7 0.337580 0.236932 0.380899
O O1 0.376497 0.731537 0.769197
O O2 0.502824 0.984170 0.771366
O O3 0.285211 0.738285 0.090105
O O4 0.382086 0.499904 0.226368
O O5 0.810613 0.743236 0.993851
O O6 0.600590 0.468472 0.345900
O O7 0.668526 0.761455 0.819993
O O8 0.694983 0.939682 0.965031
O O9 0.184656 0.599124 0.542830
O O10 0.120847 0.787275 0.170673
O O11 0.122045 0.187954 0.767256
O O12 0.000446 0.206733 0.036752
O O13 0.425253 0.171111 0.460148
O O14 0.216547 0.039427 0.651640
#
# Coordination Sequence:
#
# PCOD8003218 Si02
#       7
#     2   2   2   2   2   2   2
#     4  10  20  36  64  87 113 162 199 232 295 353
#     4  10  24  38  59  91 128 150 194 253 297 340
#     4  11  21  40  62  93 117 156 199 246 298 351
#     4  10  22  41  60  91 121 154 199 249 295 354
#     4  10  22  41  59  89 122 159 200 239 290 363
#     4  10  21  40  67  84 118 161 201 242 295 356
#     4  11  21  42  63  87 119 162 200 240 294 358
#
# _framework density 22.313542999999999
#
# number of rings (size 3 to 8) (size 9 to 14) (size 15 to 20)
#    0.000    1.714    2.857    2.143    0.000    5.714 
#    0.000    4.286    0.000    0.000    0.000    0.000 
#    0.000    0.000    0.000    0.000    0.000    0.000 
#
# Total GULP energy -173492.607208 kJ/mol
# GULP energy per Si atom -12392.329086 kJ/mol
# Density = 2.226276 g / cm^3
# Si number density = 22.313543 Si / 1000 Ang^3
#
#
#
# Elastic Constant Matrix: (Units=GPa)
#
#
# Indices 1 2 3 4 5 6 
#
# 1 81.6359 29.8087 17.4585 1.9009 -15.0824 -3.5294
# 2 29.8087 66.2825 20.6443 -18.4340 -7.7508 -13.3157
# 3 17.4585 20.6443 90.5241 -17.8326 -11.3943 -8.6765
# 4 1.9009 -18.4340 -17.8326 28.3895 -3.7131 1.4450
# 5 -15.0824 -7.7508 -11.3943 -3.7131 34.8431 -5.8719
# 6 -3.5294 -13.3157 -8.6765 1.4450 -5.8719 26.5821
#
#
#
# Elastic Compliance Matrix: (Units=1/GPa)
#
#
# Indices 1 2 3 4 5 6 
#
# 1 0.016786 -0.009010 -0.002549 -0.008052 0.003239 -0.001964
# 2 -0.009010 0.027786 0.001537 0.019855 0.007215 0.013739
# 3 -0.002549 0.001537 0.014695 0.010907 0.006219 0.006009
# 4 -0.008052 0.019855 0.010907 0.056533 0.012569 0.012140
# 5 0.003239 0.007215 0.006219 0.012569 0.037380 0.013648
# 6 -0.001964 0.013739 0.006009 0.012140 0.013648 0.048557
#
#
# Mechanical properties :
#
#
# Convention : Reuss Voigt Hill
#
# Bulk Modulus (GPa) = 25.49536 41.58505 33.54021
# Shear Modulus (GPa) = 21.28978 29.33170 25.31074
#
# Velocity S-wave (km/s) = 3.09223 3.62957 3.37162
# Velocity P-wave (km/s) = 4.91935 6.02015 5.49737
#
# Compressibility (1/GPa) = 0.03922282
#
# Stress axis : x y z
#
# Youngs Moduli (GPa) = 59.57481 35.98974 68.04943
#
# Poissons Ratio (x) = 0.32427 0.17347
# Poissons Ratio (y) = 0.53676 -0.10461
# Poissons Ratio (z) = 0.15187 -0.05533
#
# Static dielectric constant tensor:
#      x y z
#    x 3.984870 -0.187730 0.047910 
#    y -0.187730 3.960280 -0.491660 
#    z 0.047910 -0.491660 4.313280 
# 
# 
# High freq. dielectric constant tensor:
#      x y z
#    x 1.874120 -0.019130 0.005610 
#    y -0.019130 1.860180 -0.029310 
#    z 0.005610 -0.029310 1.881090 
# 
# From -- ./inp_files/273749.got.cif
#   From: 2010.06.25/outbox.cif.g09.slc.cpg/sg2_137_cif.got.tgz:273749.got - 2010.06.27 13:26:56.
