data_PCOD8003975
_publ_section_title
;
Structure prediction by ZEFSAII (Michael W. Deem and Ramdas Pophale) SiO2 
 PCOD8003975
Probable space group: P -1
;
_chemical_formula_sum "Si O2"
_cell_formula_units_Z 14
_cell_length_a 9.232160
_cell_length_b 8.254812
_cell_length_c 13.681278
_cell_angle_alpha 50.227701
_cell_angle_beta 124.210776
_cell_angle_gamma 115.510959
_cell_volume 658.566187
_symmetry_space_group_name_H-M "P -1"
_symmetry_group_IT_number 2
_symmetry_cell_setting 'triclinic'
loop_
_space_group_symop_operation_xyz
x,y,z
-x,-y,-z
loop_
_atom_site_type_symbol
_atom_site_label
_atom_site_fract_x
_atom_site_fract_y
_atom_site_fract_z
Si Si1 0.496073 0.706372 0.040456
Si Si2 0.851321 0.102276 0.491429
Si Si3 0.860009 0.361223 0.567653
Si Si4 0.053672 0.780346 0.143419
Si Si5 0.758099 0.782265 0.431609
Si Si6 0.237291 0.581636 0.829212
Si Si7 0.417800 0.838157 0.163781
O O1 0.609896 0.517271 0.133680
O O2 0.444029 0.683314 0.143137
O O3 0.319103 0.695453 0.913093
O O4 0.613121 0.929830 0.978241
O O5 0.758062 0.187880 0.520637
O O6 0.842289 0.256953 0.335473
O O7 0.060842 0.106725 0.592417
O O8 0.764015 0.867603 0.514768
O O9 0.950751 0.230117 0.735805
O O10 0.741421 0.524909 0.513300
O O11 0.000000 0.500000 0.500000
O O12 0.248191 0.743566 0.196175
O O13 0.915627 0.592525 0.122867
O O14 0.000000 0.000000 0.000000
O O15 0.588501 0.863281 0.287474
#
# Coordination Sequence:
#
# PCOD8003975 Si02
#       7
#     2   2   2   2   2   2   2
#     4  10  23  38  68  91 127 181 218 263 322 403
#     4  10  20  37  68  95 117 171 229 265 307 391
#     4  10  21  40  67  93 123 181 218 257 328 396
#     4  12  25  42  64  98 139 169 211 279 336 382
#     4  10  20  37  62  94 127 159 225 271 308 385
#     4  11  20  43  66  93 129 174 226 261 322 405
#     4  11  23  39  61  98 133 168 215 275 332 379
#
# _framework density 21.258303000000002
#
# number of rings (size 3 to 8) (size 9 to 14) (size 15 to 20)
#    0.000    1.429    5.714    0.857    2.000    1.143 
#    0.000    2.143    0.000    0.000    0.000    0.000 
#    0.000    0.000    0.000    0.000    0.000    0.000 
#
# Total GULP energy -173519.859006 kJ/mol
# GULP energy per Si atom -12394.275643 kJ/mol
# Density = 2.120992 g / cm^3
# Si number density = 21.258303 Si / 1000 Ang^3
#
#
#
# Elastic Constant Matrix: (Units=GPa)
#
#
# Indices 1 2 3 4 5 6 
#
# 1 87.1963 43.3694 40.8307 14.5103 1.2640 5.0553
# 2 43.3694 137.4512 26.8940 23.7087 -7.7519 -28.1513
# 3 40.8307 26.8940 89.0877 5.3375 -4.6223 1.6109
# 4 14.5103 23.7087 5.3375 37.6320 -3.4552 1.1201
# 5 1.2640 -7.7519 -4.6223 -3.4552 29.8317 3.1056
# 6 5.0553 -28.1513 1.6109 1.1201 3.1056 36.6615
#
#
#
# Elastic Compliance Matrix: (Units=1/GPa)
#
#
# Indices 1 2 3 4 5 6 
#
# 1 0.018011 -0.005309 -0.006527 -0.002759 -0.002854 -0.005947
# 2 -0.005309 0.012345 -0.001056 -0.005747 0.001531 0.010304
# 3 -0.006527 -0.001056 0.014598 0.001366 0.002506 -0.000806
# 4 -0.002759 -0.005747 0.001366 0.031501 0.003037 -0.005312
# 5 -0.002854 0.001531 0.002506 0.003037 0.034946 -0.001594
# 6 -0.005947 0.010304 -0.000806 -0.005312 -0.001594 0.036341
#
#
# Mechanical properties :
#
#
# Convention : Reuss Voigt Hill
#
# Bulk Modulus (GPa) = 52.16682 59.54704 55.85693
# Shear Modulus (GPa) = 27.79075 34.33445 31.06260
#
# Velocity S-wave (km/s) = 3.61957 4.02320 3.82671
# Velocity P-wave (km/s) = 6.48546 7.04653 6.77180
#
# Compressibility (1/GPa) = 0.01916927
#
# Stress axis : x y z
#
# Youngs Moduli (GPa) = 55.52284 81.00524 68.50211
#
# Poissons Ratio (x) = 0.43003 0.44713
# Poissons Ratio (y) = 0.29475 0.07235
# Poissons Ratio (z) = 0.36241 0.08556
#
# Static dielectric constant tensor:
#      x y z
#    x 3.714770 -0.439170 0.092130 
#    y -0.439170 4.558810 0.224820 
#    z 0.092130 0.224820 3.775350 
# 
# 
# High freq. dielectric constant tensor:
#      x y z
#    x 1.804000 -0.020950 0.019450 
#    y -0.020950 1.844150 0.010940 
#    z 0.019450 0.010940 1.830000 
# 
# From -- ./inp_files/175428.got.cif
#   From: 2010.06.25/outbox.cif.g09.slc.cpg/sg2_88_cif.got.tgz:175428.got - 2010.06.27 13:26:56.
