data_PCOD8003863
_publ_section_title
;
Structure prediction by ZEFSAII (Michael W. Deem and Ramdas Pophale) SiO2 
 PCOD8003863
Probable space group: P -1
;
_chemical_formula_sum "Si O2"
_cell_formula_units_Z 16
_cell_length_a 14.773144
_cell_length_b 8.787127
_cell_length_c 10.870173
_cell_angle_alpha 126.268109
_cell_angle_beta 80.056457
_cell_angle_gamma 132.947034
_cell_volume 766.717316
_symmetry_space_group_name_H-M "P -1"
_symmetry_group_IT_number 2
_symmetry_cell_setting 'triclinic'
loop_
_space_group_symop_operation_xyz
x,y,z
-x,-y,-z
loop_
_atom_site_type_symbol
_atom_site_label
_atom_site_fract_x
_atom_site_fract_y
_atom_site_fract_z
Si Si1 0.912872 0.797998 0.280797
Si Si2 0.086285 0.614053 0.877816
Si Si3 0.119026 0.168397 0.951252
Si Si4 0.121867 0.771269 0.677437
Si Si5 0.788416 0.145471 0.794516
Si Si6 0.792117 0.733392 0.506083
Si Si7 0.650235 0.260856 0.734645
Si Si8 0.342824 0.807122 0.583120
O O1 0.908290 0.595634 0.260990
O O2 0.893641 0.701329 0.096269
O O3 0.799677 0.747637 0.360029
O O4 0.060869 0.109882 0.405930
O O5 0.102574 0.758783 0.821454
O O6 0.936737 0.442773 0.872400
O O7 0.207943 0.854741 0.057228
O O8 0.126895 0.004710 0.770842
O O9 0.259540 0.419946 0.104462
O O10 0.000000 0.000000 0.000000
O O11 0.258374 0.865974 0.664597
O O12 0.000000 0.500000 0.500000
O O13 0.682372 0.130451 0.752122
O O14 0.750627 0.880445 0.628522
O O15 0.690667 0.427820 0.440479
O O16 0.682952 0.263708 0.587880
O O17 0.496848 0.089050 0.708560
#
# Coordination Sequence:
#
# PCOD8003863 Si02
#       8
#     2   2   2   2   2   2   2   2
#     4  10  20  37  61  96 126 159 206 272 327 367
#     4  10  20  37  61  96 126 159 206 272 327 367
#     4  12  25  40  67  98 129 164 217 267 323 382
#     4  12  25  40  67  98 129 164 217 267 323 382
#     4  10  21  37  64  92 130 162 211 264 319 380
#     4  10  21  37  64  92 130 162 211 264 319 380
#     4  11  25  45  63  89 133 177 215 262 323 385
#     4  11  25  45  63  89 133 177 215 262 323 385
#
# _framework density 20.868188
#
# number of rings (size 3 to 8) (size 9 to 14) (size 15 to 20)
#    0.000    1.250    2.500    3.750   10.500    1.000 
#    0.000    2.500    0.000    0.000    0.000    0.000 
#    0.000    0.000    0.000    0.000    0.000    0.000 
#
# Total GULP energy -198223.859967 kJ/mol
# GULP energy per Si atom -12388.991248 kJ/mol
# Density = 2.082069 g / cm^3
# Si number density = 20.868188 Si / 1000 Ang^3
#
#
#
# Elastic Constant Matrix: (Units=GPa)
#
#
# Indices 1 2 3 4 5 6 
#
# 1 96.6038 18.8988 51.5980 1.6398 -6.2122 13.7434
# 2 18.8988 77.8181 42.9931 -9.7873 7.7339 7.1544
# 3 51.5980 42.9931 133.3072 -4.6827 1.1972 13.2766
# 4 1.6398 -9.7873 -4.6827 39.8741 -8.1332 7.7418
# 5 -6.2122 7.7339 1.1972 -8.1332 36.5545 -3.9430
# 6 13.7434 7.1544 13.2766 7.7418 -3.9430 16.0224
#
#
#
# Elastic Compliance Matrix: (Units=1/GPa)
#
#
# Indices 1 2 3 4 5 6 
#
# 1 0.014098 -0.000249 -0.004557 0.000787 0.001897 -0.008119
# 2 -0.000249 0.016844 -0.004525 0.004196 -0.003212 -0.006376
# 3 -0.004557 -0.004525 0.011157 0.001074 -0.000367 -0.003924
# 4 0.000787 0.004196 0.001074 0.030363 0.004122 -0.017095
# 5 0.001897 -0.003212 -0.000367 0.004122 0.029878 0.005472
# 6 -0.008119 -0.006376 -0.003924 -0.017095 0.005472 0.085082
#
#
# Mechanical properties :
#
#
# Convention : Reuss Voigt Hill
#
# Bulk Modulus (GPa) = 42.66861 59.41210 51.04036
# Shear Modulus (GPa) = 23.37590 31.43948 27.40769
#
# Velocity S-wave (km/s) = 3.35052 3.88567 3.62798
# Velocity P-wave (km/s) = 5.95476 6.97591 6.48546
#
# Compressibility (1/GPa) = 0.02343643
#
# Stress axis : x y z
#
# Youngs Moduli (GPa) = 70.93158 59.36839 89.63346
#
# Poissons Ratio (x) = 0.01479 0.40848
# Poissons Ratio (y) = 0.01767 0.40556
# Poissons Ratio (z) = 0.32326 0.26862
#
# Static dielectric constant tensor:
#      x y z
#    x 3.662300 -0.181400 -0.020210 
#    y -0.181400 3.815710 -0.261360 
#    z -0.020210 -0.261360 3.982030 
# 
# 
# High freq. dielectric constant tensor:
#      x y z
#    x 1.805120 -0.024320 -0.014910 
#    y -0.024320 1.811420 -0.017790 
#    z -0.014910 -0.017790 1.833010 
# 
# From -- ./inp_files/448202.got.cif
#   From: 2010.06.25/outbox.cif.g09.slc.cpg/sg2_225_cif.got.tgz:448202.got - 2010.06.27 13:26:56.
