data_PCOD8003657
_publ_section_title
;
Structure prediction by ZEFSAII (Michael W. Deem and Ramdas Pophale) SiO2 
 PCOD8003657
Probable space group: P -1
;
_chemical_formula_sum "Si O2"
_cell_formula_units_Z 12
_cell_length_a 12.564445
_cell_length_b 12.017405
_cell_length_c 8.889566
_cell_angle_alpha 69.501699
_cell_angle_beta 56.738718
_cell_angle_gamma 116.555130
_cell_volume 607.706844
_symmetry_space_group_name_H-M "P -1"
_symmetry_group_IT_number 2
_symmetry_cell_setting 'triclinic'
loop_
_space_group_symop_operation_xyz
x,y,z
-x,-y,-z
loop_
_atom_site_type_symbol
_atom_site_label
_atom_site_fract_x
_atom_site_fract_y
_atom_site_fract_z
Si Si1 0.081083 0.372322 0.606112
Si Si2 0.731963 0.311372 0.476743
Si Si3 0.326966 0.507895 0.762588
Si Si4 0.797859 0.759446 0.265840
Si Si5 0.375689 0.895137 0.805383
Si Si6 0.135297 0.479469 0.183277
O O1 0.259524 0.606775 0.412912
O O2 0.184858 0.321334 0.572911
O O3 0.028703 0.352891 0.481181
O O4 0.859339 0.215174 0.953661
O O5 0.714579 0.391722 0.316126
O O6 0.951975 0.399910 0.256312
O O7 0.525508 0.064651 0.741917
O O8 0.584365 0.677271 0.488222
O O9 0.202015 0.311700 0.858097
O O10 0.232945 0.440219 0.037279
O O11 0.000000 0.000000 0.000000
O O12 0.500000 0.000000 0.500000
O O13 0.329984 0.721565 0.954712
#
# Coordination Sequence:
#
# PCOD8003657 Si02
#       6
#     2   2   2   2   2   2
#     4  10  24  39  56  87 125 148 187 243 293 330
#     4  10  20  37  60  85 120 152 187 234 281 348
#     4  10  21  37  59  85 111 153 197 234 285 333
#     4  10  22  40  61  80 109 156 201 240 271 345
#     4  11  21  34  62  89 114 155 194 224 283 356
#     4  11  23  37  57  92 123 147 183 244 295 338
#
# _framework density 19.746364
#
# number of rings (size 3 to 8) (size 9 to 14) (size 15 to 20)
#    0.000    1.667    1.667    3.500    4.667    3.333 
#    0.000    0.833    0.000    0.000    0.000    0.000 
#    0.000    0.000    0.000    0.000    0.000    0.000 
#
# Total GULP energy -148756.036592 kJ/mol
# GULP energy per Si atom -12396.336383 kJ/mol
# Density = 1.970142 g / cm^3
# Si number density = 19.746364 Si / 1000 Ang^3
#
#
#
# Elastic Constant Matrix: (Units=GPa)
#
#
# Indices 1 2 3 4 5 6 
#
# 1 110.0167 67.0309 57.6664 5.6178 -8.8847 2.2380
# 2 67.0309 111.7971 60.4795 -10.2754 -15.9356 -1.3315
# 3 57.6664 60.4795 93.6465 1.6924 -3.3384 8.7113
# 4 5.6178 -10.2754 1.6924 42.3521 9.9935 -4.0000
# 5 -8.8847 -15.9356 -3.3384 9.9935 18.6745 -4.1309
# 6 2.2380 -1.3315 8.7113 -4.0000 -4.1309 19.2312
#
#
#
# Elastic Compliance Matrix: (Units=1/GPa)
#
#
# Indices 1 2 3 4 5 6 
#
# 1 0.016782 -0.006928 -0.005649 -0.004504 0.003457 -0.000068
# 2 -0.006928 0.020602 -0.009617 0.004311 0.012508 0.010172
# 3 -0.005649 -0.009617 0.021174 -0.001433 -0.008957 -0.011822
# 4 -0.004504 0.004311 -0.001433 0.028850 -0.013130 0.004652
# 5 0.003457 0.012508 -0.008957 -0.013130 0.075264 0.017957
# 6 -0.000068 0.010172 -0.011822 0.004652 0.017957 0.062891
#
#
# Mechanical properties :
#
#
# Convention : Reuss Voigt Hill
#
# Bulk Modulus (GPa) = 70.57294 76.20155 73.38725
# Shear Modulus (GPa) = 18.20335 24.73713 21.47024
#
# Velocity S-wave (km/s) = 3.03951 3.54325 3.30100
# Velocity P-wave (km/s) = 6.93797 7.44402 7.19545
#
# Compressibility (1/GPa) = 0.01416974
#
# Stress axis : x y z
#
# Youngs Moduli (GPa) = 59.58669 48.53979 47.22709
#
# Poissons Ratio (x) = 0.33630 0.26678
# Poissons Ratio (y) = 0.41283 0.45419
# Poissons Ratio (z) = 0.33660 0.46681
#
# Static dielectric constant tensor:
#      x y z
#    x 3.815880 0.033780 -0.046830 
#    y 0.033780 3.861220 -0.066390 
#    z -0.046830 -0.066390 3.389440 
# 
# 
# High freq. dielectric constant tensor:
#      x y z
#    x 1.763900 0.002630 -0.013630 
#    y 0.002630 1.782830 -0.004070 
#    z -0.013630 -0.004070 1.747310 
# 
# From -- ./inp_files/59044.got.cif
#   From: 2010.06.25/outbox.cif.g09.slc.cpg/sg2_30_cif.got.tgz:59044.got - 2010.06.27 13:26:56.
