data_PCOD8003701
_publ_section_title
;
Structure prediction by ZEFSAII (Michael W. Deem and Ramdas Pophale) SiO2 
 PCOD8003701
Probable space group: P -1
;
_chemical_formula_sum "Si O2"
_cell_formula_units_Z 16
_cell_length_a 11.332187
_cell_length_b 10.655994
_cell_length_c 14.762489
_cell_angle_alpha 97.019053
_cell_angle_beta 133.027451
_cell_angle_gamma 119.844385
_cell_volume 774.636839
_symmetry_space_group_name_H-M "P -1"
_symmetry_group_IT_number 2
_symmetry_cell_setting 'triclinic'
loop_
_space_group_symop_operation_xyz
x,y,z
-x,-y,-z
loop_
_atom_site_type_symbol
_atom_site_label
_atom_site_fract_x
_atom_site_fract_y
_atom_site_fract_z
Si Si1 0.873447 0.785608 0.662392
Si Si2 0.290890 0.113297 0.161606
Si Si3 0.774476 0.248906 0.658763
Si Si4 0.124818 0.427578 0.483451
Si Si5 0.709490 0.492974 0.701064
Si Si6 0.319894 0.224050 0.005161
Si Si7 0.105296 0.456091 0.678594
Si Si8 0.052685 0.289693 0.965289
O O1 0.986063 0.763593 0.643017
O O2 0.848133 0.694645 0.736261
O O3 0.605543 0.681757 0.477427
O O4 0.074641 0.030611 0.796095
O O5 0.558174 0.351907 0.362149
O O6 0.361709 0.138633 0.095323
O O7 0.236211 0.952560 0.176172
O O8 0.000000 0.000000 0.000000
O O9 0.751770 0.386100 0.663431
O O10 0.892118 0.278432 0.626073
O O11 0.981479 0.345362 0.856109
O O12 0.500000 0.000000 0.500000
O O13 0.080799 0.369708 0.561531
O O14 0.933105 0.420354 0.351005
O O15 0.815018 0.558957 0.865392
O O16 0.261115 0.318594 0.034717
O O17 0.601255 0.398110 0.113500
#
# Coordination Sequence:
#
# PCOD8003701 Si02
#       8
#     2   2   2   2   2   2   2   2
#     4  11  21  36  66  94 126 149 208 265 304 363
#     4   9  17  32  58  89 116 153 199 247 303 347
#     4  12  25  43  63  88 125 165 209 246 307 379
#     4  10  20  37  60  89 126 155 202 261 307 353
#     4  11  23  38  61  96 123 160 205 257 307 357
#     4  10  21  37  62  93 120 160 202 255 310 354
#     4  10  22  40  59  87 123 163 206 248 311 365
#     4  11  22  39  63  89 131 163 201 248 306 373
#
# _framework density 20.654838999999999
#
# number of rings (size 3 to 8) (size 9 to 14) (size 15 to 20)
#    0.000    1.500    2.500    4.125    5.250    1.000 
#    0.000    1.250    0.000    3.000    0.000    0.000 
#    0.000    0.000    0.000    0.000    0.000    0.000 
#
# Total GULP energy -198257.466069 kJ/mol
# GULP energy per Si atom -12391.091629 kJ/mol
# Density = 2.060783 g / cm^3
# Si number density = 20.654839 Si / 1000 Ang^3
#
#
#
# Elastic Constant Matrix: (Units=GPa)
#
#
# Indices 1 2 3 4 5 6 
#
# 1 113.3067 20.0831 41.3878 7.6962 -3.0552 13.0707
# 2 20.0831 48.4971 14.5390 -5.5381 1.2227 14.5593
# 3 41.3878 14.5390 88.6346 0.0627 -6.2263 6.4625
# 4 7.6962 -5.5381 0.0627 34.9970 0.4580 -0.9833
# 5 -3.0552 1.2227 -6.2263 0.4580 31.7752 -0.2708
# 6 13.0707 14.5593 6.4625 -0.9833 -0.2708 28.8748
#
#
#
# Elastic Compliance Matrix: (Units=1/GPa)
#
#
# Indices 1 2 3 4 5 6 
#
# 1 0.011607 -0.002903 -0.004712 -0.003087 0.000325 -0.002838
# 2 -0.002903 0.026499 -0.002298 0.004541 -0.001912 -0.011396
# 3 -0.004712 -0.002298 0.014011 0.000622 0.002374 0.000199
# 4 -0.003087 0.004541 0.000622 0.029980 -0.000782 -0.000017
# 5 0.000325 -0.001912 0.002374 -0.000782 0.032057 0.000560
# 6 -0.002838 -0.011396 0.000199 -0.000017 0.000560 0.041623
#
#
# Mechanical properties :
#
#
# Convention : Reuss Voigt Hill
#
# Bulk Modulus (GPa) = 30.96737 44.71759 37.84248
# Shear Modulus (GPa) = 26.82894 30.75796 28.79345
#
# Velocity S-wave (km/s) = 3.60796 3.86312 3.73772
# Velocity P-wave (km/s) = 5.69050 6.44944 6.08182
#
# Compressibility (1/GPa) = 0.03229205
#
# Stress axis : x y z
#
# Youngs Moduli (GPa) = 86.15439 37.73781 71.37174
#
# Poissons Ratio (x) = 0.10954 0.33629
# Poissons Ratio (y) = 0.25009 0.16400
# Poissons Ratio (z) = 0.40594 0.08671
#
# Static dielectric constant tensor:
#      x y z
#    x 3.834000 0.147040 0.060280 
#    y 0.147040 3.738090 -0.097840 
#    z 0.060280 -0.097840 3.821490 
# 
# 
# High freq. dielectric constant tensor:
#      x y z
#    x 1.810320 0.006200 0.002820 
#    y 0.006200 1.775840 -0.013690 
#    z 0.002820 -0.013690 1.815480 
# 
# From -- ./inp_files/517991.got.cif
#   From: 2010.06.25/outbox.cif.g09.slc.cpg/sg2_259_cif.got.tgz:517991.got - 2010.06.27 13:26:56.
