data_PCOD8003110
_publ_section_title
;
Structure prediction by ZEFSAII (Michael W. Deem and Ramdas Pophale) SiO2 
 PCOD8003110
Probable space group: P -1
;
_chemical_formula_sum "Si O2"
_cell_formula_units_Z 14
_cell_length_a 26.773591
_cell_length_b 9.489064
_cell_length_c 13.039823
_cell_angle_alpha 34.702083
_cell_angle_beta 158.653057
_cell_angle_gamma 144.337038
_cell_volume 668.854767
_symmetry_space_group_name_H-M "P -1"
_symmetry_group_IT_number 2
_symmetry_cell_setting 'triclinic'
loop_
_space_group_symop_operation_xyz
x,y,z
-x,-y,-z
loop_
_atom_site_type_symbol
_atom_site_label
_atom_site_fract_x
_atom_site_fract_y
_atom_site_fract_z
Si Si1 0.078078 0.429777 0.414212
Si Si2 0.609952 0.050746 0.824933
Si Si3 0.382546 0.733601 0.859500
Si Si4 0.416178 0.602135 0.616101
Si Si5 0.467600 0.751502 0.235726
Si Si6 0.093998 0.381759 0.171549
Si Si7 0.087051 0.992811 0.542218
O O1 0.240213 0.566508 0.640833
O O2 0.023430 0.283150 0.503447
O O3 0.037169 0.205230 0.386968
O O4 0.980415 0.625597 0.078175
O O5 0.567301 0.259658 0.545077
O O6 0.609872 0.125439 0.898608
O O7 0.501895 0.781992 0.760250
O O8 0.766974 0.029815 0.113442
O O9 0.397589 0.029255 0.677604
O O10 0.516897 0.641964 0.125197
O O11 0.370260 0.690488 0.984969
O O12 0.255855 0.534312 0.387559
O O13 0.500000 0.500000 0.500000
O O14 0.096440 0.093989 0.382593
O O15 0.000000 0.500000 0.000000
#
# Coordination Sequence:
#
# PCOD8003110 Si02
#       7
#     2   2   2   2   2   2   2
#     4  10  21  39  60  95 132 162 208 262 320 381
#     4  11  22  38  68  97 131 165 217 274 315 377
#     4  11  24  43  69  94 129 174 217 261 323 384
#     4  11  22  39  68 101 124 168 219 264 327 380
#     4  11  25  43  63  94 133 171 218 267 316 379
#     4  10  22  35  58  95 132 160 203 260 326 380
#     4  10  20  36  62  93 133 162 201 269 324 372
#
# _framework density 20.931298999999999
#
# number of rings (size 3 to 8) (size 9 to 14) (size 15 to 20)
#    0.000    1.429    4.286    0.857    4.000    2.286 
#    0.000    0.714    0.000    8.571    0.000    0.000 
#    0.000    0.000    0.000    0.000    0.000    0.000 
#
# Total GULP energy -173462.785274 kJ/mol
# GULP energy per Si atom -12390.198948 kJ/mol
# Density = 2.088366 g / cm^3
# Si number density = 20.931299 Si / 1000 Ang^3
#
#
#
# Elastic Constant Matrix: (Units=GPa)
#
#
# Indices 1 2 3 4 5 6 
#
# 1 86.0220 41.9229 35.2276 0.8199 -0.5615 10.4723
# 2 41.9229 100.1428 56.3008 -6.8898 -7.2204 29.0244
# 3 35.2276 56.3008 108.0702 -1.3578 5.1368 17.0463
# 4 0.8199 -6.8898 -1.3578 30.1696 20.3938 -1.5844
# 5 -0.5615 -7.2204 5.1368 20.3938 34.4262 -1.9218
# 6 10.4723 29.0244 17.0463 -1.5844 -1.9218 35.9622
#
#
#
# Elastic Compliance Matrix: (Units=1/GPa)
#
#
# Indices 1 2 3 4 5 6 
#
# 1 0.015121 -0.005398 -0.002347 -0.002289 0.000877 0.001012
# 2 -0.005398 0.019593 -0.006921 0.001226 0.003730 -0.010707
# 3 -0.002347 -0.006921 0.013980 0.002538 -0.005108 -0.000519
# 4 -0.002289 0.001226 0.002538 0.056203 -0.033500 -0.000840
# 5 0.000877 0.003730 -0.005108 -0.033500 0.050473 0.000377
# 6 0.001012 -0.010707 -0.000519 -0.000840 0.000377 0.036383
#
#
# Mechanical properties :
#
#
# Convention : Reuss Voigt Hill
#
# Bulk Modulus (GPa) = 51.64481 62.34861 56.99671
# Shear Modulus (GPa) = 21.97421 30.83054 26.40237
#
# Velocity S-wave (km/s) = 3.24362 3.84205 3.55545
# Velocity P-wave (km/s) = 6.22536 7.03802 6.64413
#
# Compressibility (1/GPa) = 0.01936303
#
# Stress axis : x y z
#
# Youngs Moduli (GPa) = 66.13218 51.03844 71.53000
#
# Poissons Ratio (x) = 0.27553 0.16786
# Poissons Ratio (y) = 0.35701 0.49503
# Poissons Ratio (z) = 0.15520 0.35321
#
# Static dielectric constant tensor:
#      x y z
#    x 4.052330 0.546460 -0.608320 
#    y 0.546460 3.994040 -0.579060 
#    z -0.608320 -0.579060 4.233130 
# 
# 
# High freq. dielectric constant tensor:
#      x y z
#    x 1.812800 0.032990 -0.013280 
#    y 0.032990 1.805280 -0.018050 
#    z -0.013280 -0.018050 1.825240 
# 
# From -- ./inp_files/222672.got.cif
#   From: 2010.06.25/outbox.cif.g09.slc.cpg/sg2_112_cif.got.tgz:222672.got - 2010.06.27 13:26:56.
