data_PCOD8003662
_publ_section_title
;
Structure prediction by ZEFSAII (Michael W. Deem and Ramdas Pophale) SiO2 
 PCOD8003662
Probable space group: P -1
;
_chemical_formula_sum "Si O2"
_cell_formula_units_Z 16
_cell_length_a 11.763144
_cell_length_b 16.859294
_cell_length_c 17.057926
_cell_angle_alpha 30.928433
_cell_angle_beta 127.611461
_cell_angle_gamma 148.777479
_cell_volume 799.016288
_symmetry_space_group_name_H-M "P -1"
_symmetry_group_IT_number 2
_symmetry_cell_setting 'triclinic'
loop_
_space_group_symop_operation_xyz
x,y,z
-x,-y,-z
loop_
_atom_site_type_symbol
_atom_site_label
_atom_site_fract_x
_atom_site_fract_y
_atom_site_fract_z
Si Si1 0.360216 0.161574 0.915958
Si Si2 0.981318 0.702359 0.352224
Si Si3 0.328904 0.839748 0.271059
Si Si4 0.081722 0.114371 0.111737
Si Si5 0.674447 0.613976 0.174768
Si Si6 0.121043 0.767938 0.810683
Si Si7 0.101777 0.231639 0.399062
Si Si8 0.142118 0.190310 0.246824
O O1 0.235830 0.144896 0.952196
O O2 0.614779 0.470421 0.742251
O O3 0.187215 0.038097 0.872268
O O4 0.367403 0.985833 0.087890
O O5 0.869252 0.472136 0.557930
O O6 0.776642 0.565697 0.314411
O O7 0.235504 0.861548 0.286087
O O8 0.055475 0.908587 0.263569
O O9 0.586499 0.980998 0.273283
O O10 0.213678 0.265615 0.121662
O O11 0.232412 0.324824 0.926332
O O12 0.377506 0.362713 0.255601
O O13 0.059133 0.762381 0.700026
O O14 0.993034 0.771498 0.815710
O O15 0.000000 0.500000 0.000000
O O16 0.000000 0.000000 0.500000
O O17 0.043108 0.120282 0.556818
#
# Coordination Sequence:
#
# PCOD8003662 Si02
#       8
#     2   2   2   2   2   2   2   2
#     4  11  19  38  63  85 118 155 203 240 282 355
#     4  10  22  36  66  87 114 156 203 248 281 352
#     4  11  20  37  59  90 115 152 207 237 291 342
#     4  11  23  38  59  92 120 154 196 251 300 334
#     4  11  18  40  64  86 114 156 203 248 280 351
#     4  11  21  37  63  86 116 156 197 239 286 362
#     4  10  20  37  60  86 116 154 201 241 281 350
#     4  11  24  38  60  93 120 153 196 246 302 343
#
# _framework density 20.024625
#
# number of rings (size 3 to 8) (size 9 to 14) (size 15 to 20)
#    0.000    1.250    6.250    1.875    5.250    0.500 
#    0.000    1.875    0.000    3.750    0.000    0.000 
#    0.000    0.000    0.000    0.000    0.000    0.000 
#
# Total GULP energy -198227.027371 kJ/mol
# GULP energy per Si atom -12389.189211 kJ/mol
# Density = 1.997905 g / cm^3
# Si number density = 20.024625 Si / 1000 Ang^3
#
#
#
# Elastic Constant Matrix: (Units=GPa)
#
#
# Indices 1 2 3 4 5 6 
#
# 1 74.3061 32.9784 20.8379 6.9010 2.2932 13.2122
# 2 32.9784 59.2941 -2.0768 4.0434 2.2151 8.6286
# 3 20.8379 -2.0768 114.5005 4.0713 11.8664 -2.3716
# 4 6.9010 4.0434 4.0713 27.4266 4.5904 -6.4048
# 5 2.2932 2.2151 11.8664 4.5904 26.7179 5.5301
# 6 13.2122 8.6286 -2.3716 -6.4048 5.5301 31.7815
#
#
#
# Elastic Compliance Matrix: (Units=1/GPa)
#
#
# Indices 1 2 3 4 5 6 
#
# 1 0.021203 -0.010528 -0.004393 -0.005619 0.003636 -0.008049
# 2 -0.010528 0.023205 0.002508 -0.001287 -0.001556 -0.001725
# 3 -0.004393 0.002508 0.010138 0.000766 -0.005074 0.002939
# 4 -0.005619 -0.001287 0.000766 0.042630 -0.009774 0.013034
# 5 0.003636 -0.001556 -0.005074 -0.009774 0.043454 -0.010998
# 6 -0.008049 -0.001725 0.002939 0.013034 -0.010998 0.040039
#
#
# Mechanical properties :
#
#
# Convention : Reuss Voigt Hill
#
# Bulk Modulus (GPa) = 33.64739 39.06442 36.35591
# Shear Modulus (GPa) = 23.21224 30.27597 26.74410
#
# Velocity S-wave (km/s) = 3.40837 3.89258 3.65850
# Velocity P-wave (km/s) = 5.68584 6.30503 6.00343
#
# Compressibility (1/GPa) = 0.02971999
#
# Stress axis : x y z
#
# Youngs Moduli (GPa) = 47.16235 43.09344 98.63796
#
# Poissons Ratio (x) = 0.45370 0.43336
# Poissons Ratio (y) = 0.49653 -0.24741
# Poissons Ratio (z) = 0.20721 -0.10809
#
# Static dielectric constant tensor:
#      x y z
#    x 3.407950 0.240750 -0.134350 
#    y 0.240750 3.520550 0.087600 
#    z -0.134350 0.087600 4.069950 
# 
# 
# High freq. dielectric constant tensor:
#      x y z
#    x 1.751770 0.035410 -0.003690 
#    y 0.035410 1.770990 0.000380 
#    z -0.003690 0.000380 1.802150 
# 
# From -- ./inp_files/216467.got.cif
#   From: 2010.06.25/outbox.cif.g09.slc.cpg/sg2_109_cif.got.tgz:216467.got - 2010.06.27 13:26:56.
