data_PCOD8003574
_publ_section_title
;
Structure prediction by ZEFSAII (Michael W. Deem and Ramdas Pophale) SiO2 
 PCOD8003574
Probable space group: P -1
;
_chemical_formula_sum "Si O2"
_cell_formula_units_Z 14
_cell_length_a 12.004963
_cell_length_b 11.809079
_cell_length_c 11.392580
_cell_angle_alpha 138.672565
_cell_angle_beta 98.581036
_cell_angle_gamma 114.034644
_cell_volume 639.257263
_symmetry_space_group_name_H-M "P -1"
_symmetry_group_IT_number 2
_symmetry_cell_setting 'triclinic'
loop_
_space_group_symop_operation_xyz
x,y,z
-x,-y,-z
loop_
_atom_site_type_symbol
_atom_site_label
_atom_site_fract_x
_atom_site_fract_y
_atom_site_fract_z
Si Si1 0.259691 0.659540 0.974043
Si Si2 0.428015 0.491852 0.602614
Si Si3 0.235318 0.900939 0.754950
Si Si4 0.406520 0.155121 0.504000
Si Si5 0.845165 0.121735 0.527197
Si Si6 0.825389 0.502497 0.426019
Si Si7 0.333323 0.424327 0.946582
O O1 0.267313 0.674362 0.846858
O O2 0.321812 0.548470 0.939296
O O3 0.052929 0.444476 0.822414
O O4 0.400271 0.974006 0.287203
O O5 0.500000 0.500000 0.500000
O O6 0.354921 0.252886 0.489904
O O7 0.253999 0.406668 0.482395
O O8 0.592307 0.793046 0.924745
O O9 0.257547 0.915533 0.629151
O O10 0.231227 0.700683 0.641570
O O11 0.048428 0.779458 0.664875
O O12 0.258559 0.957688 0.431647
O O13 0.614967 0.426908 0.803534
O O14 0.848647 0.918022 0.344306
O O15 0.500000 0.500000 0.000000
#
# Coordination Sequence:
#
# PCOD8003574 Si02
#       7
#     2   2   2   2   2   2   2
#     4  11  22  39  65  94 125 169 212 259 325 379
#     4  12  25  44  66  94 130 172 220 266 329 385
#     4  10  22  43  67  98 125 171 221 260 328 382
#     4  11  23  40  61  96 132 160 211 269 316 382
#     4  10  21  40  65  92 127 168 208 261 321 388
#     4  10  23  43  69  92 130 172 219 271 313 390
#     4  10  20  37  59  86 123 161 204 258 310 371
#
# _framework density 21.900414000000001
#
# number of rings (size 3 to 8) (size 9 to 14) (size 15 to 20)
#    0.000    1.429    1.429    4.286    2.000    1.714 
#    2.571    0.000    0.000    0.000    0.000    0.000 
#    0.000    0.000    0.000    0.000    0.000    0.000 
#
# Total GULP energy -173598.252088 kJ/mol
# GULP energy per Si atom -12399.875149 kJ/mol
# Density = 2.185057 g / cm^3
# Si number density = 21.900414 Si / 1000 Ang^3
#
#
#
# Elastic Constant Matrix: (Units=GPa)
#
#
# Indices 1 2 3 4 5 6 
#
# 1 82.4313 50.9506 0.4188 -9.8658 -0.8285 -13.5229
# 2 50.9506 143.7260 0.0902 -1.1382 -0.3440 -18.5486
# 3 0.4188 0.0902 60.4363 -0.3808 -4.2364 -5.8234
# 4 -9.8658 -1.1382 -0.3808 24.2367 -9.0379 -2.5502
# 5 -0.8285 -0.3440 -4.2364 -9.0379 22.8138 -0.1292
# 6 -13.5229 -18.5486 -5.8234 -2.5502 -0.1292 43.3894
#
#
#
# Elastic Compliance Matrix: (Units=1/GPa)
#
#
# Indices 1 2 3 4 5 6 
#
# 1 0.017240 -0.005570 0.000577 0.008674 0.004106 0.003591
# 2 -0.005570 0.009186 0.000161 -0.001902 -0.000775 0.002099
# 3 0.000577 0.000161 0.017107 0.002339 0.004142 0.002694
# 4 0.008674 -0.001902 0.002339 0.053490 0.021942 0.005414
# 5 0.004106 -0.000775 0.004142 0.021942 0.053449 0.002953
# 6 0.003591 0.002099 0.002694 0.005414 0.002953 0.025752
#
#
# Mechanical properties :
#
#
# Convention : Reuss Voigt Hill
#
# Bulk Modulus (GPa) = 29.52537 43.27920 36.40228
# Shear Modulus (GPa) = 25.35803 33.76359 29.56081
#
# Velocity S-wave (km/s) = 3.40645 3.93069 3.67793
# Velocity P-wave (km/s) = 5.38357 6.35651 5.89016
#
# Compressibility (1/GPa) = 0.03386918
#
# Stress axis : x y z
#
# Youngs Moduli (GPa) = 58.00580 108.86173 58.45620
#
# Poissons Ratio (x) = 0.60633 -0.03375
# Poissons Ratio (y) = 0.32308 -0.00940
# Poissons Ratio (z) = -0.03349 -0.01750
#
# Static dielectric constant tensor:
#      x y z
#    x 3.872200 -0.182610 -0.007980 
#    y -0.182610 4.246250 0.020050 
#    z -0.007980 0.020050 4.579090 
# 
# 
# High freq. dielectric constant tensor:
#      x y z
#    x 1.843050 -0.015230 0.004210 
#    y -0.015230 1.878730 0.000590 
#    z 0.004210 0.000590 1.865620 
# 
# From -- ./inp_files/357099.got.cif
#   From: 2010.06.25/outbox.cif.g09.slc.cpg/sg2_179_cif.got.tgz:357099.got - 2010.06.27 13:26:56.
