data_PCOD8003747
_publ_section_title
;
Structure prediction by ZEFSAII (Michael W. Deem and Ramdas Pophale) SiO2 
 PCOD8003747
Probable space group: P -1
;
_chemical_formula_sum "Si O2"
_cell_formula_units_Z 16
_cell_length_a 12.451657
_cell_length_b 8.975828
_cell_length_c 10.975948
_cell_angle_alpha 68.825392
_cell_angle_beta 55.369713
_cell_angle_gamma 59.027964
_cell_volume 861.345200
_symmetry_space_group_name_H-M "P -1"
_symmetry_group_IT_number 2
_symmetry_cell_setting 'triclinic'
loop_
_space_group_symop_operation_xyz
x,y,z
-x,-y,-z
loop_
_atom_site_type_symbol
_atom_site_label
_atom_site_fract_x
_atom_site_fract_y
_atom_site_fract_z
Si Si1 0.294513 0.533452 0.563010
Si Si2 0.541610 0.622022 0.275848
Si Si3 0.784645 0.398340 0.009596
Si Si4 0.057147 0.791356 0.800246
Si Si5 0.867575 0.699584 0.788650
Si Si6 0.378417 0.957954 0.148102
Si Si7 0.915722 0.403450 0.515221
Si Si8 0.830657 0.168018 0.821321
O O1 0.433305 0.538083 0.409067
O O2 0.348693 0.392683 0.679801
O O3 0.188660 0.717897 0.639726
O O4 0.213793 0.472582 0.526994
O O5 0.630814 0.521947 0.128622
O O6 0.448965 0.824463 0.251303
O O7 0.890180 0.279747 0.078892
O O8 0.851898 0.516878 0.860578
O O9 0.770919 0.265131 0.958494
O O10 0.931686 0.726687 0.868307
O O11 0.982785 0.002780 0.786910
O O12 0.970334 0.722602 0.613799
O O13 0.723459 0.853865 0.793117
O O14 0.294816 0.883099 0.131830
O O15 0.500000 0.000000 0.000000
O O16 0.854806 0.299889 0.673236
O O17 0.000000 0.500000 0.500000
#
# Coordination Sequence:
#
# PCOD8003747 Si02
#       8
#     2   2   2   2   2   2   2   2
#     4   9  20  38  60  84 109 153 196 236 281 339
#     4  10  20  37  61  82 114 151 195 235 281 342
#     4  11  20  38  56  87 119 152 185 237 291 349
#     4   9  21  36  60  83 114 153 193 236 282 338
#     4  10  21  35  59  85 114 152 196 235 284 336
#     4  11  22  39  57  87 114 151 197 239 285 343
#     4  11  21  38  58  89 116 150 193 241 292 336
#     4  11  23  37  59  86 117 152 191 241 292 338
#
# _framework density 18.575593999999999
#
# number of rings (size 3 to 8) (size 9 to 14) (size 15 to 20)
#    0.000    1.750    3.750    0.750    1.750    2.000 
#    2.250    0.000    0.000    0.750    0.000    0.000 
#    0.000    0.000    0.000    0.000    0.000    0.000 
#
# Total GULP energy -198221.113296 kJ/mol
# GULP energy per Si atom -12388.819581 kJ/mol
# Density = 1.853331 g / cm^3
# Si number density = 18.575594 Si / 1000 Ang^3
#
#
#
# Elastic Constant Matrix: (Units=GPa)
#
#
# Indices 1 2 3 4 5 6 
#
# 1 127.0223 52.0087 42.3036 -6.4099 8.5356 -10.8146
# 2 52.0087 66.3389 24.5180 -5.8959 10.9325 -14.3205
# 3 42.3036 24.5180 90.5804 3.9907 0.0544 -3.4841
# 4 -6.4099 -5.8959 3.9907 20.9929 -4.1839 -4.1514
# 5 8.5356 10.9325 0.0544 -4.1839 31.0012 -3.1942
# 6 -10.8146 -14.3205 -3.4841 -4.1514 -3.1942 34.0312
#
#
#
# Elastic Compliance Matrix: (Units=1/GPa)
#
#
# Indices 1 2 3 4 5 6 
#
# 1 0.012652 -0.008179 -0.003780 0.002328 -0.000232 0.000454
# 2 -0.008179 0.025775 -0.003100 0.005911 -0.005194 0.008164
# 3 -0.003780 -0.003100 0.013791 -0.004689 0.001318 -0.001542
# 4 0.002328 0.005911 -0.004689 0.053958 0.005580 0.009853
# 5 -0.000232 -0.005194 0.001318 0.005580 0.035093 0.001851
# 6 0.000454 0.008164 -0.001542 0.009853 0.001851 0.034182
#
#
# Mechanical properties :
#
#
# Convention : Reuss Voigt Hill
#
# Bulk Modulus (GPa) = 45.24870 57.95580 51.60225
# Shear Modulus (GPa) = 23.48110 28.21249 25.84679
#
# Velocity S-wave (km/s) = 3.55925 3.90140 3.73425
# Velocity P-wave (km/s) = 6.42675 7.18069 6.81415
#
# Compressibility (1/GPa) = 0.02210008
#
# Stress axis : x y z
#
# Youngs Moduli (GPa) = 79.03865 38.79660 72.51132
#
# Poissons Ratio (x) = 0.31731 0.27409
# Poissons Ratio (y) = 0.64644 0.22481
# Poissons Ratio (z) = 0.29877 0.12028
#
# Static dielectric constant tensor:
#      x y z
#    x 3.849600 -0.099390 0.193070 
#    y -0.099390 3.301510 0.102910 
#    z 0.193070 0.102910 3.659300 
# 
# 
# High freq. dielectric constant tensor:
#      x y z
#    x 1.730210 -0.021290 0.001010 
#    y -0.021290 1.705640 0.006060 
#    z 0.001010 0.006060 1.727150 
# 
# From -- ./inp_files/252221.got.cif
#   From: 2010.06.25/outbox.cif.g09.slc.cpg/sg2_127_cif.got.tgz:252221.got - 2010.06.27 13:26:56.
