data_PCOD8003985
_publ_section_title
;
Structure prediction by ZEFSAII (Michael W. Deem and Ramdas Pophale) SiO2 
 PCOD8003985
Probable space group: P -1
;
_chemical_formula_sum "Si O2"
_cell_formula_units_Z 16
_cell_length_a 9.007358
_cell_length_b 11.011301
_cell_length_c 15.798219
_cell_angle_alpha 115.290188
_cell_angle_beta 35.571206
_cell_angle_gamma 100.657570
_cell_volume 783.789398
_symmetry_space_group_name_H-M "P -1"
_symmetry_group_IT_number 2
_symmetry_cell_setting 'triclinic'
loop_
_space_group_symop_operation_xyz
x,y,z
-x,-y,-z
loop_
_atom_site_type_symbol
_atom_site_label
_atom_site_fract_x
_atom_site_fract_y
_atom_site_fract_z
Si Si1 0.196917 0.595336 0.180488
Si Si2 0.717539 0.537954 0.468789
Si Si3 0.164611 0.143670 0.897429
Si Si4 0.736351 0.264401 0.440373
Si Si5 0.172206 0.215512 0.722619
Si Si6 0.060989 0.971147 0.603902
Si Si7 0.668590 0.161212 0.729848
Si Si8 0.303646 0.820793 0.749618
O O1 0.202828 0.713449 0.282049
O O2 0.003525 0.511789 0.282522
O O3 0.079572 0.664980 0.165914
O O4 0.500000 0.500000 0.000000
O O5 0.500000 0.500000 0.500000
O O6 0.756824 0.423301 0.492687
O O7 0.593112 0.703918 0.600925
O O8 0.115293 0.207097 0.845427
O O9 0.345298 0.217656 0.891185
O O10 0.328239 0.976407 0.772814
O O11 0.879348 0.181145 0.085484
O O12 0.438542 0.258707 0.596184
O O13 0.950703 0.160324 0.372400
O O14 0.820306 0.218223 0.291133
O O15 0.203592 0.065371 0.619700
O O16 0.244833 0.918886 0.421980
O O17 0.762099 0.056374 0.736159
#
# Coordination Sequence:
#
# PCOD8003985 Si02
#       8
#     2   2   2   2   2   2   2   2
#     4  11  25  44  65  93 134 171 210 266 333 382
#     4  10  22  40  65  89 124 176 215 255 315 394
#     4  11  22  39  66  98 130 163 218 277 312 371
#     4  11  19  37  68  90 119 169 226 256 304 388
#     4  11  20  39  69  95 119 169 228 264 300 390
#     4  10  20  37  62  99 123 163 215 271 318 374
#     4  10  23  36  65  94 130 161 209 277 328 365
#     4  10  22  38  63  95 130 163 215 265 321 365
#
# _framework density 20.413647000000001
#
# number of rings (size 3 to 8) (size 9 to 14) (size 15 to 20)
#    0.000    1.500    5.000    1.125    7.000    0.000 
#    2.250    5.000    0.000    0.000    0.000    0.000 
#    0.000    0.000    0.000    0.000    0.000    0.000 
#
# Total GULP energy -198308.236225 kJ/mol
# GULP energy per Si atom -12394.264764 kJ/mol
# Density = 2.036718 g / cm^3
# Si number density = 20.413647 Si / 1000 Ang^3
#
#
#
# Elastic Constant Matrix: (Units=GPa)
#
#
# Indices 1 2 3 4 5 6 
#
# 1 108.4880 58.2202 42.0368 -12.7747 -2.9535 -16.1299
# 2 58.2202 137.0685 50.9776 -12.9895 -9.3678 -29.7677
# 3 42.0368 50.9776 99.3796 -10.3400 -8.1932 -10.0975
# 4 -12.7747 -12.9895 -10.3400 26.5513 -2.6239 -4.9909
# 5 -2.9535 -9.3678 -8.1932 -2.6239 24.7580 -5.7905
# 6 -16.1299 -29.7677 -10.0975 -4.9909 -5.7905 31.0057
#
#
#
# Elastic Compliance Matrix: (Units=1/GPa)
#
#
# Indices 1 2 3 4 5 6 
#
# 1 0.013197 -0.003244 -0.003057 0.004304 0.000626 0.003565
# 2 -0.003244 0.013914 -0.003005 0.007350 0.007779 0.013328
# 3 -0.003057 -0.003005 0.013605 0.002915 0.003565 0.001091
# 4 0.004304 0.007350 0.002915 0.049833 0.014444 0.020964
# 5 0.000626 0.007779 0.003565 0.014444 0.050985 0.020802
# 6 0.003565 0.013328 0.001091 0.020964 0.020802 0.054517
#
#
# Mechanical properties :
#
#
# Convention : Reuss Voigt Hill
#
# Bulk Modulus (GPa) = 45.23859 71.93391 58.58625
# Shear Modulus (GPa) = 22.51966 29.37642 25.94804
#
# Velocity S-wave (km/s) = 3.32500 3.79761 3.56913
# Velocity P-wave (km/s) = 6.07864 7.38537 6.76364
#
# Compressibility (1/GPa) = 0.02210502
#
# Stress axis : x y z
#
# Youngs Moduli (GPa) = 75.77721 71.87218 73.50455
#
# Poissons Ratio (x) = 0.23312 0.22467
# Poissons Ratio (y) = 0.24579 0.22086
# Poissons Ratio (z) = 0.23162 0.21596
#
# Static dielectric constant tensor:
#      x y z
#    x 3.835050 -0.237840 -0.054760 
#    y -0.237840 4.280570 0.264220 
#    z -0.054760 0.264220 3.509110 
# 
# 
# High freq. dielectric constant tensor:
#      x y z
#    x 1.788880 -0.008830 -0.005020 
#    y -0.008830 1.809640 0.005400 
#    z -0.005020 0.005400 1.777240 
# 
# From -- ./inp_files/499275.got.cif
#   From: 2010.06.25/outbox.cif.g09.slc.cpg/sg2_250_cif.got.tgz:499275.got - 2010.06.27 13:26:56.
