data_PCOD8003631
_publ_section_title
;
Structure prediction by ZEFSAII (Michael W. Deem and Ramdas Pophale) SiO2 
 PCOD8003631
Probable space group: P -1
;
_chemical_formula_sum "Si O2"
_cell_formula_units_Z 16
_cell_length_a 11.328871
_cell_length_b 16.883195
_cell_length_c 8.497305
_cell_angle_alpha 67.359288
_cell_angle_beta 123.589862
_cell_angle_gamma 147.013311
_cell_volume 725.807682
_symmetry_space_group_name_H-M "P -1"
_symmetry_group_IT_number 2
_symmetry_cell_setting 'triclinic'
loop_
_space_group_symop_operation_xyz
x,y,z
-x,-y,-z
loop_
_atom_site_type_symbol
_atom_site_label
_atom_site_fract_x
_atom_site_fract_y
_atom_site_fract_z
Si Si1 0.047803 0.649738 0.369733
Si Si2 0.177220 0.186443 0.929310
Si Si3 0.538985 0.151283 0.999627
Si Si4 0.793824 0.711165 0.673055
Si Si5 0.722645 0.605499 0.359587
Si Si6 0.675694 0.335635 0.225673
Si Si7 0.031932 0.968564 0.797057
Si Si8 0.765226 0.154806 0.915830
O O1 0.260742 0.691261 0.554669
O O2 0.161413 0.784121 0.253386
O O3 0.903672 0.617590 0.438540
O O4 0.862609 0.507337 0.227264
O O5 0.277887 0.326009 0.834803
O O6 0.013566 0.058435 0.770375
O O7 0.399833 0.234165 0.109498
O O8 0.006488 0.112663 0.013406
O O9 0.710406 0.293472 0.129336
O O10 0.459612 0.022886 0.124461
O O11 0.680114 0.200178 0.905734
O O12 0.298275 0.086672 0.829558
O O13 0.802493 0.690466 0.513686
O O14 0.546108 0.564754 0.690043
O O15 0.834810 0.835632 0.625715
O O16 0.014529 0.773543 0.874248
#
# Coordination Sequence:
#
# PCOD8003631 Si02
#       8
#     2   2   2   2   2   2   2   2
#     4  11  23  38  59  85 113 151 191 230 280 335
#     4  10  20  38  62  85 113 149 188 232 281 334
#     4   9  19  37  57  82 115 149 187 232 281 333
#     4  10  21  36  57  86 117 146 185 236 281 333
#     4  11  22  37  60  86 112 149 192 230 278 336
#     4  10  22  39  57  84 119 146 184 236 282 335
#     4   9  19  37  58  82 114 149 186 232 282 332
#     4  10  20  37  60  83 113 151 189 232 281 333
#
# _framework density 22.044405999999999
#
# number of rings (size 3 to 8) (size 9 to 14) (size 15 to 20)
#    0.000    2.000    0.000    3.750    0.000    3.000 
#    0.000   23.750    0.000    0.000    0.000    0.000 
#    0.000    0.000    0.000    0.000    0.000    0.000 
#
# Total GULP energy -198332.339737 kJ/mol
# GULP energy per Si atom -12395.771234 kJ/mol
# Density = 2.199423 g / cm^3
# Si number density = 22.044406 Si / 1000 Ang^3
#
#
#
# Elastic Constant Matrix: (Units=GPa)
#
#
# Indices 1 2 3 4 5 6 
#
# 1 91.2796 20.5671 13.5929 17.8533 -12.1040 7.4693
# 2 20.5671 78.9105 19.2889 16.0883 -7.6928 -6.3712
# 3 13.5929 19.2889 47.2212 10.5570 6.1096 5.9929
# 4 17.8533 16.0883 10.5570 31.6102 -10.9181 -14.3472
# 5 -12.1040 -7.6928 6.1096 -10.9181 32.1478 3.3902
# 6 7.4693 -6.3712 5.9929 -14.3472 3.3902 34.3802
#
#
#
# Elastic Compliance Matrix: (Units=1/GPa)
#
#
# Indices 1 2 3 4 5 6 
#
# 1 0.014297 -0.002030 -0.000570 -0.009375 0.002618 -0.007553
# 2 -0.002030 0.015721 -0.006104 -0.002343 0.003030 0.003142
# 3 -0.000570 -0.006104 0.030492 -0.016220 -0.011720 -0.011936
# 4 -0.009375 -0.002343 -0.016220 0.062574 0.017202 0.028847
# 5 0.002618 0.003030 -0.011720 0.017202 0.040335 0.005237
# 6 -0.007553 0.003142 -0.011936 0.028847 0.005237 0.044912
#
#
# Mechanical properties :
#
#
# Convention : Reuss Voigt Hill
#
# Bulk Modulus (GPa) = 23.20178 36.03434 29.61806
# Shear Modulus (GPa) = 20.82416 30.55845 25.69130
#
# Velocity S-wave (km/s) = 3.07684 3.72724 3.41755
# Velocity P-wave (km/s) = 4.81357 5.90803 5.38866
#
# Compressibility (1/GPa) = 0.04310015
#
# Stress axis : x y z
#
# Youngs Moduli (GPa) = 69.94687 63.61068 32.79553
#
# Poissons Ratio (x) = 0.12913 0.01870
# Poissons Ratio (y) = 0.14200 0.20019
# Poissons Ratio (z) = 0.03989 0.38829
#
# Static dielectric constant tensor:
#      x y z
#    x 4.255290 -0.241880 -0.208340 
#    y -0.241880 4.082230 0.261650 
#    z -0.208340 0.261650 3.583480 
# 
# 
# High freq. dielectric constant tensor:
#      x y z
#    x 1.885630 -0.010590 -0.014600 
#    y -0.010590 1.870440 0.014940 
#    z -0.014600 0.014940 1.831990 
# 
# From -- ./inp_files/262668.got.cif
#   From: 2010.06.25/outbox.cif.g09.slc.cpg/sg2_132_cif.got.tgz:262668.got - 2010.06.27 13:26:56.
