data_PCOD8003902
_publ_section_title
;
Structure prediction by ZEFSAII (Michael W. Deem and Ramdas Pophale) SiO2 
 PCOD8003902
Probable space group: P -1
;
_chemical_formula_sum "Si O2"
_cell_formula_units_Z 16
_cell_length_a 8.521203
_cell_length_b 15.743742
_cell_length_c 11.523499
_cell_angle_alpha 130.887351
_cell_angle_beta 139.581478
_cell_angle_gamma 50.467171
_cell_volume 727.033542
_symmetry_space_group_name_H-M "P -1"
_symmetry_group_IT_number 2
_symmetry_cell_setting 'triclinic'
loop_
_space_group_symop_operation_xyz
x,y,z
-x,-y,-z
loop_
_atom_site_type_symbol
_atom_site_label
_atom_site_fract_x
_atom_site_fract_y
_atom_site_fract_z
Si Si1 0.262346 0.595472 0.644028
Si Si2 0.719866 0.976450 0.512353
Si Si3 0.105157 0.094457 0.892102
Si Si4 0.204141 0.556674 0.218877
Si Si5 0.806704 0.502380 0.249092
Si Si6 0.888171 0.239320 0.482429
Si Si7 0.395739 0.934532 0.727174
Si Si8 0.711834 0.341644 0.868918
O O1 0.539956 0.543466 0.699568
O O2 0.264414 0.588205 0.779034
O O3 0.173800 0.727232 0.659078
O O4 0.080231 0.516819 0.435609
O O5 0.822450 0.840400 0.412823
O O6 0.500000 0.000000 0.500000
O O7 0.649102 0.056037 0.428077
O O8 0.956274 0.997343 0.735489
O O9 0.883445 0.214113 0.883690
O O10 0.253071 0.059239 0.820218
O O11 0.305484 0.091726 0.104235
O O12 0.114161 0.635227 0.352160
O O13 0.265165 0.648597 0.246408
O O14 0.000000 0.500000 0.000000
O O15 0.587371 0.628071 0.240152
O O16 0.819174 0.440681 0.076917
O O17 0.695619 0.174195 0.372443
#
# Coordination Sequence:
#
# PCOD8003902 Si02
#       8
#     2   2   2   2   2   2   2   2
#     4  10  22  39  60  93 125 168 210 258 318 383
#     4  11  25  45  66  98 130 165 217 270 326 386
#     4  10  22  41  69  94 126 171 216 267 320 386
#     4  11  23  37  61  95 127 165 217 259 311 387
#     4   9  21  39  59  91 133 161 209 261 315 387
#     4  11  23  42  67  89 129 169 210 268 319 378
#     4  10  23  44  67  96 127 167 221 269 323 382
#     4  10  20  37  62  87 125 171 203 257 324 375
#
# _framework density 22.007238999999998
#
# number of rings (size 3 to 8) (size 9 to 14) (size 15 to 20)
#    0.000    1.750    0.000    4.125    5.250    1.500 
#    2.250    0.000    0.000    0.000    0.000    0.000 
#    0.000    0.000    0.000    0.000    0.000    0.000 
#
# Total GULP energy -198252.686446 kJ/mol
# GULP energy per Si atom -12390.792903 kJ/mol
# Density = 2.195715 g / cm^3
# Si number density = 22.007239 Si / 1000 Ang^3
#
#
#
# Elastic Constant Matrix: (Units=GPa)
#
#
# Indices 1 2 3 4 5 6 
#
# 1 95.1669 45.0602 29.4913 -12.2216 3.9531 0.7635
# 2 45.0602 119.0097 26.0653 -15.8418 -0.1869 1.6547
# 3 29.4913 26.0653 99.5992 -14.3001 17.4834 -7.1867
# 4 -12.2216 -15.8418 -14.3001 29.3788 -4.5030 -1.0829
# 5 3.9531 -0.1869 17.4834 -4.5030 27.0474 -6.6714
# 6 0.7635 1.6547 -7.1867 -1.0829 -6.6714 36.8575
#
#
#
# Elastic Compliance Matrix: (Units=1/GPa)
#
#
# Indices 1 2 3 4 5 6 
#
# 1 0.013635 -0.004307 -0.002639 0.002026 -0.000119 -0.000566
# 2 -0.004307 0.010844 -0.001432 0.003690 0.002202 -0.000170
# 3 -0.002639 -0.001432 0.013047 0.003444 -0.007121 0.001475
# 4 0.002026 0.003690 0.003444 0.039353 0.004663 0.002464
# 5 -0.000119 0.002202 -0.007121 0.004663 0.044016 0.006619
# 6 -0.000566 -0.000170 0.001475 0.002464 0.006619 0.028709
#
#
# Mechanical properties :
#
#
# Convention : Reuss Voigt Hill
#
# Bulk Modulus (GPa) = 48.14577 57.22328 52.68453
# Shear Modulus (GPa) = 28.85454 32.86734 30.86094
#
# Velocity S-wave (km/s) = 3.62489 3.86875 3.74880
# Velocity P-wave (km/s) = 6.28049 6.78342 6.53679
#
# Compressibility (1/GPa) = 0.02077026
#
# Stress axis : x y z
#
# Youngs Moduli (GPa) = 73.34234 92.21675 76.64485
#
# Poissons Ratio (x) = 0.39719 0.20228
# Poissons Ratio (y) = 0.31589 0.10972
# Poissons Ratio (z) = 0.19356 0.13202
#
# Static dielectric constant tensor:
#      x y z
#    x 4.037620 -0.159320 -0.079820 
#    y -0.159320 4.073740 -0.221390 
#    z -0.079820 -0.221390 3.980360 
# 
# 
# High freq. dielectric constant tensor:
#      x y z
#    x 1.862800 -0.009360 -0.000500 
#    y -0.009360 1.862110 -0.017070 
#    z -0.000500 -0.017070 1.863000 
# 
# From -- ./inp_files/399695.got.cif
#   From: 2010.06.25/outbox.cif.g09.slc.cpg/sg2_200_cif.got.tgz:399695.got - 2010.06.27 13:26:56.
