data_PCOD8003647
_publ_section_title
;
Structure prediction by ZEFSAII (Michael W. Deem and Ramdas Pophale) SiO2 
 PCOD8003647
Probable space group: P -1
;
_chemical_formula_sum "Si O2"
_cell_formula_units_Z 12
_cell_length_a 23.094261
_cell_length_b 17.564168
_cell_length_c 23.804716
_cell_angle_alpha 17.836346
_cell_angle_beta 11.916519
_cell_angle_gamma 20.322707
_cell_volume 607.638309
_symmetry_space_group_name_H-M "P -1"
_symmetry_group_IT_number 2
_symmetry_cell_setting 'triclinic'
loop_
_space_group_symop_operation_xyz
x,y,z
-x,-y,-z
loop_
_atom_site_type_symbol
_atom_site_label
_atom_site_fract_x
_atom_site_fract_y
_atom_site_fract_z
Si Si1 0.663051 0.783334 0.033938
Si Si2 0.218658 0.029554 0.093266
Si Si3 0.218465 0.294396 0.236987
Si Si4 0.817360 0.552190 0.258495
Si Si5 0.854573 0.690278 0.247616
Si Si6 0.391628 0.793283 0.708803
O O1 0.441906 0.608249 0.392191
O O2 0.833469 0.886876 0.851502
O O3 0.890123 0.624440 0.890827
O O4 0.500000 0.000000 0.000000
O O5 0.167640 0.263464 0.937024
O O6 0.985007 0.838152 0.433792
O O7 0.538002 0.908242 0.872271
O O8 0.009028 0.406639 0.306934
O O9 0.361098 0.539200 0.953348
O O10 0.764971 0.718339 0.248210
O O11 0.588241 0.731132 0.512284
O O12 0.080718 0.885110 0.914182
O O13 0.500000 0.000000 0.500000
#
# Coordination Sequence:
#
# PCOD8003647 Si02
#       6
#     2   2   2   2   2   2
#     4  12  24  39  59  83 120 157 207 238 271 331
#     4  12  22  38  58  85 122 157 195 235 288 340
#     4  10  20  37  60  85 113 149 198 235 288 337
#     4  12  24  39  57  87 120 159 190 240 291 336
#     4  10  20  37  60  86 116 144 200 231 295 333
#     4  10  20  37  66  90 110 143 197 244 286 346
#
# _framework density 19.74859
#
# number of rings (size 3 to 8) (size 9 to 14) (size 15 to 20)
#    1.000    0.000    1.667    7.000    0.000    0.000 
#    0.000    0.000    0.000    6.000    0.000    0.000 
#    0.000    0.000    0.000    0.000    0.000    0.000 
#
# Total GULP energy -148686.282718 kJ/mol
# GULP energy per Si atom -12390.523560 kJ/mol
# Density = 1.970364 g / cm^3
# Si number density = 19.748590 Si / 1000 Ang^3
#
#
#
# Elastic Constant Matrix: (Units=GPa)
#
#
# Indices 1 2 3 4 5 6 
#
# 1 75.4232 36.4812 26.1008 -13.6355 1.3402 3.7502
# 2 36.4812 58.6709 33.9490 -7.2602 3.9437 5.8425
# 3 26.1008 33.9490 144.3638 -6.4511 -0.8140 5.1171
# 4 -13.6355 -7.2602 -6.4511 36.9345 7.0006 -1.2386
# 5 1.3402 3.9437 -0.8140 7.0006 21.6336 -1.6741
# 6 3.7502 5.8425 5.1171 -1.2386 -1.6741 12.9006
#
#
#
# Elastic Compliance Matrix: (Units=1/GPa)
#
#
# Indices 1 2 3 4 5 6 
#
# 1 0.019906 -0.011256 -0.000725 0.005177 -0.000885 -0.000019
# 2 -0.011256 0.027838 -0.004189 0.001373 -0.005619 -0.008271
# 3 -0.000725 -0.004189 0.008087 0.000099 0.001007 -0.000960
# 4 0.005177 0.001373 0.000099 0.031289 -0.010735 -0.000555
# 5 -0.000885 -0.005619 0.001007 -0.010735 0.051438 0.008047
# 6 -0.000019 -0.008271 -0.000960 -0.000555 0.008047 0.082639
#
#
# Mechanical properties :
#
#
# Convention : Reuss Voigt Hill
#
# Bulk Modulus (GPa) = 42.56713 52.39107 47.47910
# Shear Modulus (GPa) = 19.13008 26.42222 22.77615
#
# Velocity S-wave (km/s) = 3.11574 3.66174 3.39972
# Velocity P-wave (km/s) = 5.87751 6.66816 6.28528
#
# Compressibility (1/GPa) = 0.02349230
#
# Stress axis : x y z
#
# Youngs Moduli (GPa) = 50.23485 35.92199 123.65336
#
# Poissons Ratio (x) = 0.40434 0.08965
# Poissons Ratio (y) = 0.56545 0.51793
# Poissons Ratio (z) = 0.03642 0.15046
#
# Static dielectric constant tensor:
#      x y z
#    x 3.203600 -0.043830 -0.054850 
#    y -0.043830 3.456890 -0.011570 
#    z -0.054850 -0.011570 3.954120 
# 
# 
# High freq. dielectric constant tensor:
#      x y z
#    x 1.733610 -0.002980 -0.002720 
#    y -0.002980 1.753420 0.005250 
#    z -0.002720 0.005250 1.803550 
# 
# From -- ./inp_files/59940.got.cif
#   From: 2010.06.25/outbox.cif.g09.slc.cpg/sg2_30_cif.got.tgz:59940.got - 2010.06.27 13:26:56.
