data_PCOD8003678
_publ_section_title
;
Structure prediction by ZEFSAII (Michael W. Deem and Ramdas Pophale) SiO2 
 PCOD8003678
Probable space group: P -1
;
_chemical_formula_sum "Si O2"
_cell_formula_units_Z 16
_cell_length_a 11.875885
_cell_length_b 15.804399
_cell_length_c 12.683167
_cell_angle_alpha 27.776720
_cell_angle_beta 125.727844
_cell_angle_gamma 132.797003
_cell_volume 813.001557
_symmetry_space_group_name_H-M "P -1"
_symmetry_group_IT_number 2
_symmetry_cell_setting 'triclinic'
loop_
_space_group_symop_operation_xyz
x,y,z
-x,-y,-z
loop_
_atom_site_type_symbol
_atom_site_label
_atom_site_fract_x
_atom_site_fract_y
_atom_site_fract_z
Si Si1 0.310089 0.264273 0.475096
Si Si2 0.243199 0.203671 0.871408
Si Si3 0.385592 0.618308 0.371366
Si Si4 0.968607 0.862767 0.983640
Si Si5 0.185691 0.858401 0.749597
Si Si6 0.569372 0.306759 0.929874
Si Si7 0.987332 0.786667 0.515982
Si Si8 0.090205 0.634431 0.155319
O O1 0.459269 0.250069 0.624510
O O2 0.357563 0.478537 0.205751
O O3 0.181860 0.233676 0.527194
O O4 0.241988 0.095525 0.534274
O O5 0.293303 0.393513 0.612844
O O6 0.395183 0.173479 0.018764
O O7 0.127291 0.000369 0.976694
O O8 0.167655 0.246108 0.888044
O O9 0.429503 0.615340 0.276058
O O10 0.266523 0.720816 0.198923
O O11 0.987137 0.685212 0.126224
O O12 0.921962 0.004241 0.726451
O O13 0.075816 0.781140 0.675508
O O14 0.334159 0.817028 0.858791
O O15 0.088751 0.741769 0.926275
O O16 0.977452 0.604824 0.636063
#
# Coordination Sequence:
#
# PCOD8003678 Si02
#       8
#     2   2   2   2   2   2   2   2
#     4  11  20  34  58  87 119 148 182 241 298 334
#     4  10  21  41  58  87 121 151 191 237 291 345
#     4  10  20  37  60  88 119 141 188 247 295 336
#     4  11  23  38  61  83 119 161 189 232 287 352
#     4  11  24  34  61  90 115 153 195 239 288 340
#     4  10  21  37  59  87 118 147 187 248 291 337
#     4  12  22  41  54  89 123 149 197 238 285 340
#     4  11  23  35  61  89 115 153 189 240 292 343
#
# _framework density 19.680159
#
# number of rings (size 3 to 8) (size 9 to 14) (size 15 to 20)
#    0.000    1.250    5.000    3.000    1.750    1.500 
#    0.000    0.625    0.000    3.750    0.000    0.000 
#    0.000    0.000    0.000    0.000    0.000    0.000 
#
# Total GULP energy -198379.963207 kJ/mol
# GULP energy per Si atom -12398.747700 kJ/mol
# Density = 1.963537 g / cm^3
# Si number density = 19.680159 Si / 1000 Ang^3
#
#
#
# Elastic Constant Matrix: (Units=GPa)
#
#
# Indices 1 2 3 4 5 6 
#
# 1 144.7053 56.8465 50.2033 2.5742 6.0717 -5.2590
# 2 56.8465 79.5919 26.5559 1.6509 9.4269 -5.4749
# 3 50.2033 26.5559 62.2199 -4.6662 10.4698 -4.6758
# 4 2.5742 1.6509 -4.6662 25.7292 -4.3514 4.6290
# 5 6.0717 9.4269 10.4698 -4.3514 23.6343 -11.8381
# 6 -5.2590 -5.4749 -4.6758 4.6290 -11.8381 23.9763
#
#
#
# Elastic Compliance Matrix: (Units=1/GPa)
#
#
# Indices 1 2 3 4 5 6 
#
# 1 0.011933 -0.006240 -0.007529 -0.001914 0.003259 0.001703
# 2 -0.006240 0.018364 -0.002078 -0.001830 -0.004981 0.000313
# 3 -0.007529 -0.002078 0.024617 0.004335 -0.008534 -0.002376
# 4 -0.001914 -0.001830 0.004335 0.041724 0.003922 -0.006111
# 5 0.003259 -0.004981 -0.008534 0.003922 0.061830 0.027684
# 6 0.001703 0.000313 -0.002376 -0.006111 0.027684 0.056538
#
#
# Mechanical properties :
#
#
# Convention : Reuss Voigt Hill
#
# Bulk Modulus (GPa) = 43.06946 61.52540 52.29743
# Shear Modulus (GPa) = 19.65088 24.86205 22.25647
#
# Velocity S-wave (km/s) = 3.16335 3.55816 3.36655
# Velocity P-wave (km/s) = 5.93924 6.94343 6.46087
#
# Compressibility (1/GPa) = 0.02321831
#
# Stress axis : x y z
#
# Youngs Moduli (GPa) = 83.79854 54.45481 40.62255
#
# Poissons Ratio (x) = 0.33980 0.30586
# Poissons Ratio (y) = 0.52291 0.08443
# Poissons Ratio (z) = 0.63095 0.11318
#
# Static dielectric constant tensor:
#      x y z
#    x 3.689390 0.160520 0.149520 
#    y 0.160520 3.567700 -0.048310 
#    z 0.149520 -0.048310 3.483460 
# 
# 
# High freq. dielectric constant tensor:
#      x y z
#    x 1.759840 0.009100 0.021090 
#    y 0.009100 1.759780 -0.007950 
#    z 0.021090 -0.007950 1.754050 
# 
# From -- ./inp_files/425102.got.cif
#   From: 2010.06.25/outbox.cif.g09.slc.cpg/sg2_213_cif.got.tgz:425102.got - 2010.06.27 13:26:56.
