data_PCOD8003210
_publ_section_title
;
Structure prediction by ZEFSAII (Michael W. Deem and Ramdas Pophale) SiO2 
 PCOD8003210
Probable space group: P -1
;
_chemical_formula_sum "Si O2"
_cell_formula_units_Z 16
_cell_length_a 15.638662
_cell_length_b 9.204618
_cell_length_c 9.679362
_cell_angle_alpha 72.562594
_cell_angle_beta 82.379660
_cell_angle_gamma 35.697404
_cell_volume 760.143669
_symmetry_space_group_name_H-M "P -1"
_symmetry_group_IT_number 2
_symmetry_cell_setting 'triclinic'
loop_
_space_group_symop_operation_xyz
x,y,z
-x,-y,-z
loop_
_atom_site_type_symbol
_atom_site_label
_atom_site_fract_x
_atom_site_fract_y
_atom_site_fract_z
Si Si1 0.234799 0.445914 0.696123
Si Si2 0.805750 0.167582 0.444038
Si Si3 0.761877 0.232163 0.750491
Si Si4 0.951588 0.397622 0.532021
Si Si5 0.454334 0.651127 0.601207
Si Si6 0.966590 0.372699 0.075514
Si Si7 0.457473 0.970525 0.383642
Si Si8 0.832806 0.442431 0.809395
O O1 0.157968 0.721934 0.664078
O O2 0.205397 0.398892 0.570846
O O3 0.166343 0.440650 0.834673
O O4 0.413430 0.218846 0.709756
O O5 0.755921 0.290888 0.573980
O O6 0.691627 0.234050 0.352665
O O7 0.947647 0.854123 0.515992
O O8 0.583519 0.454917 0.748782
O O9 0.806927 0.301408 0.825353
O O10 0.872903 0.929349 0.828640
O O11 0.951148 0.334050 0.704076
O O12 0.000000 0.500000 0.500000
O O13 0.500000 0.500000 0.500000
O O14 0.409020 0.880819 0.486664
O O15 0.907173 0.359630 0.964495
O O16 0.000000 0.500000 0.000000
O O17 0.500000 0.000000 0.500000
O O18 0.318644 0.243451 0.255647
#
# Coordination Sequence:
#
# PCOD8003210 Si02
#       8
#     2   2   2   2   2   2   2   2
#     4  12  23  43  66  96 130 176 218 268 337 386
#     4  11  21  38  70 102 128 164 223 282 321 392
#     4  11  21  44  67  93 131 176 216 268 335 390
#     4  12  22  36  65  97 128 164 225 280 318 377
#     4  10  20  36  64 107 126 162 211 278 335 370
#     4  12  29  45  64  92 139 180 219 268 329 401
#     4  12  21  40  70 101 135 160 217 284 325 386
#     4  12  25  42  65  96 133 177 215 267 336 392
#
# _framework density 21.048651
#
# number of rings (size 3 to 8) (size 9 to 14) (size 15 to 20)
#    0.000    0.500    7.500    3.000    3.500    0.500 
#    0.000    0.000    0.000    2.250    0.000    0.000 
#    0.000    0.000    0.000    0.000    0.000    0.000 
#
# Total GULP energy -198226.877585 kJ/mol
# GULP energy per Si atom -12389.179849 kJ/mol
# Density = 2.100074 g / cm^3
# Si number density = 21.048651 Si / 1000 Ang^3
#
#
#
# Elastic Constant Matrix: (Units=GPa)
#
#
# Indices 1 2 3 4 5 6 
#
# 1 144.7783 36.0635 33.1646 -3.7281 -9.4979 10.7815
# 2 36.0635 75.1642 17.4758 -10.5225 -0.6495 11.7432
# 3 33.1646 17.4758 71.8311 -0.0773 0.9518 -5.0668
# 4 -3.7281 -10.5225 -0.0773 31.9811 2.4925 1.0344
# 5 -9.4979 -0.6495 0.9518 2.4925 31.1732 -7.1100
# 6 10.7815 11.7432 -5.0668 1.0344 -7.1100 36.7208
#
#
#
# Elastic Compliance Matrix: (Units=1/GPa)
#
#
# Indices 1 2 3 4 5 6 
#
# 1 0.008742 -0.003159 -0.003410 -0.000162 0.002358 -0.001566
# 2 -0.003159 0.017177 -0.003078 0.005630 -0.002234 -0.005581
# 3 -0.003410 -0.003078 0.016547 -0.001465 -0.000532 0.004207
# 4 -0.000162 0.005630 -0.001465 0.033476 -0.003374 -0.003551
# 5 0.002358 -0.002234 -0.000532 -0.003374 0.034573 0.006738
# 6 -0.001566 -0.005581 0.004207 -0.003551 0.006738 0.031462
#
#
# Mechanical properties :
#
#
# Convention : Reuss Voigt Hill
#
# Bulk Modulus (GPa) = 43.15660 51.68682 47.42171
# Shear Modulus (GPa) = 29.58648 33.64632 31.61640
#
# Velocity S-wave (km/s) = 3.75323 4.00247 3.87985
# Velocity P-wave (km/s) = 6.27137 6.78003 6.53066
#
# Compressibility (1/GPa) = 0.02317143
#
# Stress axis : x y z
#
# Youngs Moduli (GPa) = 114.38716 58.21851 60.43441
#
# Poissons Ratio (x) = 0.18394 0.20605
# Poissons Ratio (y) = 0.36140 0.18603
# Poissons Ratio (z) = 0.39001 0.17921
#
# Static dielectric constant tensor:
#      x y z
#    x 5.742620 0.524470 -0.428480 
#    y 0.524470 3.625200 -0.027820 
#    z -0.428480 -0.027820 3.472930 
# 
# 
# High freq. dielectric constant tensor:
#      x y z
#    x 1.850740 0.002190 0.006800 
#    y 0.002190 1.836180 -0.006000 
#    z 0.006800 -0.006000 1.780920 
# 
# From -- ./inp_files/243412.got.cif
#   From: 2010.06.25/outbox.cif.g09.slc.cpg/sg2_122_cif.got.tgz:243412.got - 2010.06.27 13:26:56.
