data_PCOD8003601
_publ_section_title
;
Structure prediction by ZEFSAII (Michael W. Deem and Ramdas Pophale) SiO2 
 PCOD8003601
Probable space group: P -1
;
_chemical_formula_sum "Si O2"
_cell_formula_units_Z 14
_cell_length_a 5.471631
_cell_length_b 14.962865
_cell_length_c 11.431992
_cell_angle_alpha 126.611533
_cell_angle_beta 62.568095
_cell_angle_gamma 106.826446
_cell_volume 666.668346
_symmetry_space_group_name_H-M "P -1"
_symmetry_group_IT_number 2
_symmetry_cell_setting 'triclinic'
loop_
_space_group_symop_operation_xyz
x,y,z
-x,-y,-z
loop_
_atom_site_type_symbol
_atom_site_label
_atom_site_fract_x
_atom_site_fract_y
_atom_site_fract_z
Si Si1 0.215023 0.859122 0.429537
Si Si2 0.753575 0.756598 0.581538
Si Si3 0.603909 0.433322 0.534257
Si Si4 0.848363 0.883786 0.308531
Si Si5 0.114175 0.149192 0.981906
Si Si6 0.605140 0.047257 0.135307
Si Si7 0.816898 0.651579 0.728724
O O1 0.537694 0.829391 0.332628
O O2 0.072984 0.776801 0.493084
O O3 0.047618 0.836098 0.327372
O O4 0.174843 0.984685 0.575812
O O5 0.624169 0.659843 0.449224
O O6 0.607289 0.875210 0.689134
O O7 0.694665 0.718468 0.697545
O O8 0.500000 0.500000 0.500000
O O9 0.670037 0.530255 0.691461
O O10 0.868380 0.366382 0.385832
O O11 0.991362 0.851281 0.128541
O O12 0.349456 0.055981 0.867277
O O13 0.224337 0.272940 0.088346
O O14 0.882797 0.118355 0.104935
O O15 0.500000 0.000000 0.000000
#
# Coordination Sequence:
#
# PCOD8003601 Si02
#       7
#     2   2   2   2   2   2   2
#     4  10  24  40  59  83 121 169 213 239 286 351
#     4  11  21  35  62  86 121 156 200 253 293 363
#     4   9  20  37  57  87 115 151 196 245 314 357
#     4  10  24  40  57  84 123 170 206 242 286 360
#     4  11  23  35  57  87 124 156 194 245 308 367
#     4  11  22  33  53  91 122 152 189 241 315 365
#     4  10  20  37  59  90 115 151 195 251 314 360
#
# _framework density 20.999949000000001
#
# number of rings (size 3 to 8) (size 9 to 14) (size 15 to 20)
#    0.000    1.714    2.857    0.857   12.000    0.000 
#    0.000    0.000    0.000    1.714    0.000    0.000 
#    0.000    0.000    0.000    0.000    0.000    0.000 
#
# Total GULP energy -173526.583723 kJ/mol
# GULP energy per Si atom -12394.755980 kJ/mol
# Density = 2.095215 g / cm^3
# Si number density = 20.999949 Si / 1000 Ang^3
#
#
#
# Elastic Constant Matrix: (Units=GPa)
#
#
# Indices 1 2 3 4 5 6 
#
# 1 97.0153 25.6757 27.0714 10.7932 10.5805 13.2182
# 2 25.6757 65.6970 37.0790 13.6790 6.1476 20.8803
# 3 27.0714 37.0790 88.2517 14.9840 20.0006 0.9088
# 4 10.7932 13.6790 14.9840 30.9778 -1.3122 -0.0947
# 5 10.5805 6.1476 20.0006 -1.3122 34.5526 -1.5000
# 6 13.2182 20.8803 0.9088 -0.0947 -1.5000 32.2512
#
#
#
# Elastic Compliance Matrix: (Units=1/GPa)
#
#
# Indices 1 2 3 4 5 6 
#
# 1 0.012459 -0.001558 -0.002054 -0.002784 -0.002635 -0.004170
# 2 -0.001558 0.028697 -0.010227 -0.007226 0.000250 -0.017662
# 3 -0.002054 -0.010227 0.018782 -0.004185 -0.008299 0.006536
# 4 -0.002784 -0.007226 -0.004185 0.038752 0.006307 0.006344
# 5 -0.002635 0.000250 -0.008299 0.006307 0.034868 0.002792
# 6 -0.004170 -0.017662 0.006536 0.006344 0.002792 0.044115
#
#
# Mechanical properties :
#
#
# Convention : Reuss Voigt Hill
#
# Bulk Modulus (GPa) = 30.99917 47.84624 39.42270
# Shear Modulus (GPa) = 23.13691 30.29885 26.71788
#
# Velocity S-wave (km/s) = 3.32288 3.80255 3.57078
# Velocity P-wave (km/s) = 5.43283 6.48942 5.98449
#
# Compressibility (1/GPa) = 0.03225893
#
# Stress axis : x y z
#
# Youngs Moduli (GPa) = 80.26645 34.84695 53.24181
#
# Poissons Ratio (x) = 0.05429 0.10937
# Poissons Ratio (y) = 0.12506 0.54451
# Poissons Ratio (z) = 0.16489 0.35638
#
# Static dielectric constant tensor:
#      x y z
#    x 4.119100 0.407490 0.144160 
#    y 0.407490 3.993340 0.381640 
#    z 0.144160 0.381640 3.613090 
# 
# 
# High freq. dielectric constant tensor:
#      x y z
#    x 1.840200 0.013170 0.009930 
#    y 0.013170 1.800420 0.020010 
#    z 0.009930 0.020010 1.790130 
# 
# From -- ./inp_files/34070.got.cif
#   From: 2010.06.25/outbox.cif.g09.slc.cpg/sg2_18_cif.got.tgz:34070.got - 2010.06.27 13:26:56.
