data_PCOD8003090
_publ_section_title
;
Structure prediction by ZEFSAII (Michael W. Deem and Ramdas Pophale) SiO2 
 PCOD8003090
Probable space group: P -1
;
_chemical_formula_sum "Si O2"
_cell_formula_units_Z 16
_cell_length_a 21.758892
_cell_length_b 12.389109
_cell_length_c 14.040169
_cell_angle_alpha 144.680656
_cell_angle_beta 154.074406
_cell_angle_gamma 30.500288
_cell_volume 825.376930
_symmetry_space_group_name_H-M "P -1"
_symmetry_group_IT_number 2
_symmetry_cell_setting 'triclinic'
loop_
_space_group_symop_operation_xyz
x,y,z
-x,-y,-z
loop_
_atom_site_type_symbol
_atom_site_label
_atom_site_fract_x
_atom_site_fract_y
_atom_site_fract_z
Si Si1 0.271898 0.088878 0.304472
Si Si2 0.426475 0.336484 0.637629
Si Si3 0.325354 0.123012 0.894606
Si Si4 0.037777 0.926496 0.106675
Si Si5 0.982759 0.676603 0.526902
Si Si6 0.368475 0.490582 0.245897
Si Si7 0.675551 0.644224 0.293138
Si Si8 0.463883 0.682675 0.846273
O O1 0.305643 0.238191 0.383873
O O2 0.304442 0.148892 0.500367
O O3 0.391852 0.836857 0.268285
O O4 0.089224 0.138558 0.075067
O O5 0.426382 0.388194 0.787483
O O6 0.372934 0.554622 0.660769
O O7 0.176676 0.245094 0.702718
O O8 0.319795 0.932479 0.808857
O O9 0.326019 0.309986 0.094954
O O10 0.500000 0.000000 0.000000
O O11 0.214130 0.722622 0.209209
O O12 0.033891 0.114008 0.297312
O O13 0.000000 0.000000 0.000000
O O14 0.000000 0.500000 0.500000
O O15 0.144825 0.567739 0.610436
O O16 0.500000 0.500000 0.500000
O O17 0.427632 0.435207 0.179544
O O18 0.586400 0.681273 0.095458
#
# Coordination Sequence:
#
# PCOD8003090 Si02
#       8
#     2   2   2   2   2   2   2   2
#     4   9  20  36  58  92 127 152 202 253 292 353
#     4   9  20  38  60  91 126 158 204 243 300 357
#     4  10  22  39  57  85 117 153 197 246 300 360
#     4  12  22  35  61  90 117 154 201 251 303 349
#     4  12  23  38  60  88 120 157 199 252 304 355
#     4  11  24  41  60  86 124 158 197 250 308 364
#     4  10  20  36  62  90 120 155 204 248 289 354
#     4  11  21  38  63  89 121 164 201 245 304 358
#
# _framework density 19.385082000000001
#
# number of rings (size 3 to 8) (size 9 to 14) (size 15 to 20)
#    0.750    0.750    0.000    7.875    0.000    2.000 
#    0.000    0.625    0.000    3.000    0.000    0.000 
#    0.000    0.000    0.000    0.000    0.000    0.000 
#
# Total GULP energy -198252.169652 kJ/mol
# GULP energy per Si atom -12390.760603 kJ/mol
# Density = 1.934096 g / cm^3
# Si number density = 19.385082 Si / 1000 Ang^3
#
#
#
# Elastic Constant Matrix: (Units=GPa)
#
#
# Indices 1 2 3 4 5 6 
#
# 1 81.7625 67.5969 48.0118 4.2074 -1.6760 -1.0473
# 2 67.5969 161.3093 80.8163 0.0983 -0.3545 3.2765
# 3 48.0118 80.8163 137.3977 2.4823 6.2709 0.6923
# 4 4.2074 0.0983 2.4823 41.1310 -2.1330 2.5073
# 5 -1.6760 -0.3545 6.2709 -2.1330 25.4996 10.5612
# 6 -1.0473 3.2765 0.6923 2.5073 10.5612 43.7230
#
#
#
# Elastic Compliance Matrix: (Units=1/GPa)
#
#
# Indices 1 2 3 4 5 6 
#
# 1 0.019704 -0.006806 -0.002919 -0.001796 0.001444 0.000782
# 2 -0.006806 0.011241 -0.004311 0.001085 0.001415 -0.001341
# 3 -0.002919 -0.004311 0.010995 -0.000587 -0.003391 0.000932
# 4 -0.001796 0.001085 -0.000587 0.024827 0.003062 -0.002278
# 5 0.001444 0.001415 -0.003391 0.003062 0.045003 -0.011064
# 6 0.000782 -0.001341 0.000932 -0.002278 -0.011064 0.025779
#
#
# Mechanical properties :
#
#
# Convention : Reuss Voigt Hill
#
# Bulk Modulus (GPa) = 72.11587 85.92439 79.02013
# Shear Modulus (GPa) = 29.36992 34.34038 31.85515
#
# Velocity S-wave (km/s) = 3.89662 4.21347 4.05814
# Velocity P-wave (km/s) = 7.58468 8.25181 7.92527
#
# Compressibility (1/GPa) = 0.01386657
#
# Stress axis : x y z
#
# Youngs Moduli (GPa) = 50.75220 88.96213 90.95337
#
# Poissons Ratio (x) = 0.60546 0.26553
# Poissons Ratio (y) = 0.34541 0.39210
# Poissons Ratio (z) = 0.14817 0.38351
#
# Static dielectric constant tensor:
#      x y z
#    x 3.589750 0.037150 0.113300 
#    y 0.037150 3.993540 0.344560 
#    z 0.113300 0.344560 3.610510 
# 
# 
# High freq. dielectric constant tensor:
#      x y z
#    x 1.740550 -0.008470 0.010960 
#    y -0.008470 1.767540 0.024640 
#    z 0.010960 0.024640 1.752350 
# 
# From -- ./inp_files/471241.got.cif
#   From: 2010.06.25/outbox.cif.g09.slc.cpg/sg2_236_cif.got.tgz:471241.got - 2010.06.27 13:26:56.
