data_PCOD8003720
_publ_section_title
;
Structure prediction by ZEFSAII (Michael W. Deem and Ramdas Pophale) SiO2 
 PCOD8003720
Probable space group: P -1
;
_chemical_formula_sum "Si O2"
_cell_formula_units_Z 14
_cell_length_a 8.625322
_cell_length_b 14.477010
_cell_length_c 12.023097
_cell_angle_alpha 35.594707
_cell_angle_beta 136.565723
_cell_angle_gamma 130.186953
_cell_volume 595.120558
_symmetry_space_group_name_H-M "P -1"
_symmetry_group_IT_number 2
_symmetry_cell_setting 'triclinic'
loop_
_space_group_symop_operation_xyz
x,y,z
-x,-y,-z
loop_
_atom_site_type_symbol
_atom_site_label
_atom_site_fract_x
_atom_site_fract_y
_atom_site_fract_z
Si Si1 0.507994 0.085393 0.803498
Si Si2 0.219150 0.360957 0.666520
Si Si3 0.268279 0.564587 0.123282
Si Si4 0.906065 0.734337 0.537929
Si Si5 0.862412 0.680794 0.880144
Si Si6 0.958526 0.314909 0.788356
Si Si7 0.776618 0.009686 0.441336
O O1 0.315415 0.202470 0.585886
O O2 0.766979 0.163684 0.849604
O O3 0.440866 0.972489 0.769846
O O4 0.500000 0.000000 0.000000
O O5 0.485856 0.356788 0.787142
O O6 0.093656 0.257565 0.603211
O O7 0.172735 0.542552 0.460161
O O8 0.137241 0.280321 0.819891
O O9 0.128816 0.447585 0.257885
O O10 0.290747 0.473143 0.106801
O O11 0.099036 0.703150 0.904937
O O12 0.155376 0.834604 0.597007
O O13 0.737396 0.839877 0.654957
O O14 0.903873 0.645411 0.065316
O O15 0.000000 0.000000 0.500000
#
# Coordination Sequence:
#
# PCOD8003720 Si02
#       7
#     2   2   2   2   2   2   2
#     4  11  22  39  66  91 118 159 206 250 301 358
#     4  11  23  39  57  91 129 161 198 249 301 361
#     4  11  21  37  64  92 121 152 211 256 292 351
#     4  11  20  39  61  90 122 156 203 253 296 352
#     4  11  21  37  64  91 122 157 206 250 304 350
#     4  11  22  38  62  88 126 165 197 244 311 358
#     4  10  20  37  60  91 121 149 199 257 301 349
#
# _framework density 23.524643000000001
#
# number of rings (size 3 to 8) (size 9 to 14) (size 15 to 20)
#    0.000    1.143    5.714    3.000    0.000    0.571 
#    0.000    3.571    0.000    0.000    0.000    1.000 
#    0.000    0.000    0.000    0.000    0.000    0.000 
#
# Total GULP energy -173476.380649 kJ/mol
# GULP energy per Si atom -12391.170046 kJ/mol
# Density = 2.347110 g / cm^3
# Si number density = 23.524643 Si / 1000 Ang^3
#
#
#
# Elastic Constant Matrix: (Units=GPa)
#
#
# Indices 1 2 3 4 5 6 
#
# 1 68.8779 46.6658 22.9354 7.3284 -27.5413 -7.8078
# 2 46.6658 154.5295 46.9030 32.4211 -27.2832 -11.1256
# 3 22.9354 46.9030 84.4944 16.8707 -17.1128 8.9453
# 4 7.3284 32.4211 16.8707 39.9290 -10.5956 -10.7177
# 5 -27.5413 -27.2832 -17.1128 -10.5956 36.4032 5.9661
# 6 -7.8078 -11.1256 8.9453 -10.7177 5.9661 23.4977
#
#
#
# Elastic Compliance Matrix: (Units=1/GPa)
#
#
# Indices 1 2 3 4 5 6 
#
# 1 0.024553 -0.004827 -0.002952 0.006116 0.014344 0.006144
# 2 -0.004827 0.010354 -0.003462 -0.005359 0.000589 0.002022
# 3 -0.002952 -0.003462 0.018206 -0.006978 0.003951 -0.013737
# 4 0.006116 -0.005359 -0.006978 0.037425 0.005293 0.017878
# 5 0.014344 0.000589 0.003951 0.005293 0.042974 -0.004956
# 6 0.006144 0.002022 -0.013737 0.017878 -0.004956 0.060198
#
#
# Mechanical properties :
#
#
# Convention : Reuss Voigt Hill
#
# Bulk Modulus (GPa) = 32.64643 60.10114 46.37379
# Shear Modulus (GPa) = 22.08469 32.72581 27.40525
#
# Velocity S-wave (km/s) = 3.06729 3.73383 3.41685
# Velocity P-wave (km/s) = 5.14316 6.64773 5.94324
#
# Compressibility (1/GPa) = 0.03063122
#
# Stress axis : x y z
#
# Youngs Moduli (GPa) = 40.72830 96.58413 54.92762
#
# Poissons Ratio (x) = 0.46621 0.16214
# Poissons Ratio (y) = 0.19660 0.19015
# Poissons Ratio (z) = 0.12022 0.33435
#
# Static dielectric constant tensor:
#      x y z
#    x 3.897460 -0.209940 0.041150 
#    y -0.209940 5.934510 0.494070 
#    z 0.041150 0.494070 5.126770 
# 
# 
# High freq. dielectric constant tensor:
#      x y z
#    x 1.873100 -0.014210 -0.007180 
#    y -0.014210 1.945050 0.013450 
#    z -0.007180 0.013450 1.946280 
# 
# From -- ./inp_files/381052.got.cif
#   From: 2010.06.25/outbox.cif.g09.slc.cpg/sg2_191_cif.got.tgz:381052.got - 2010.06.27 13:26:56.
