data_PCOD8003178
_publ_section_title
;
Structure prediction by ZEFSAII (Michael W. Deem and Ramdas Pophale) SiO2 
 PCOD8003178
Probable space group: P -1
;
_chemical_formula_sum "Si O2"
_cell_formula_units_Z 16
_cell_length_a 30.265795
_cell_length_b 9.336129
_cell_length_c 16.539085
_cell_angle_alpha 134.846959
_cell_angle_beta 18.151210
_cell_angle_gamma 144.510804
_cell_volume 782.253782
_symmetry_space_group_name_H-M "P -1"
_symmetry_group_IT_number 2
_symmetry_cell_setting 'triclinic'
loop_
_space_group_symop_operation_xyz
x,y,z
-x,-y,-z
loop_
_atom_site_type_symbol
_atom_site_label
_atom_site_fract_x
_atom_site_fract_y
_atom_site_fract_z
Si Si1 0.147487 0.662155 0.238546
Si Si2 0.469116 0.176125 0.573369
Si Si3 0.543221 0.738969 0.070579
Si Si4 0.841241 0.434815 0.359040
Si Si5 0.870028 0.103907 0.064284
Si Si6 0.289973 0.234860 0.046773
Si Si7 0.942093 0.633905 0.437965
Si Si8 0.686633 0.548905 0.210345
O O1 0.000000 0.500000 0.500000
O O2 0.032607 0.562644 0.314758
O O3 0.265500 0.974224 0.176526
O O4 0.284182 0.596625 0.966270
O O5 0.663565 0.423294 0.289399
O O6 0.500000 0.000000 0.500000
O O7 0.316389 0.994467 0.697088
O O8 0.400077 0.299852 0.797684
O O9 0.568406 0.705986 0.106878
O O10 0.500000 0.500000 0.000000
O O11 0.375896 0.739945 0.352816
O O12 0.910937 0.289484 0.142290
O O13 0.867305 0.448005 0.415383
O O14 0.958178 0.727131 0.230892
O O15 0.856579 0.866501 0.031450
O O16 0.231885 0.413512 0.234264
O O17 0.097742 0.933854 0.256388
O O18 0.500000 0.500000 0.500000
#
# Coordination Sequence:
#
# PCOD8003178 Si02
#       8
#     2   2   2   2   2   2   2   2
#     4  11  26  43  68  93 134 177 224 272 340 401
#     4  11  20  37  66  95 127 166 230 272 326 393
#     4  11  22  39  64  98 127 168 217 277 328 395
#     4  11  21  41  65  94 134 166 224 274 341 390
#     4  10  23  38  66  92 127 178 213 277 338 396
#     4  10  20  36  63  92 123 168 220 268 323 391
#     4  10  21  38  63  93 126 170 221 272 319 407
#     4  10  23  41  63  95 129 171 223 270 331 398
#
# _framework density 20.453719
#
# number of rings (size 3 to 8) (size 9 to 14) (size 15 to 20)
#    0.000    1.500    2.500    3.750    5.250    0.000 
#    0.000    2.500    0.000    0.000    0.000    0.000 
#    0.000    0.000    0.000    0.000    0.000    0.000 
#
# Total GULP energy -198362.116051 kJ/mol
# GULP energy per Si atom -12397.632253 kJ/mol
# Density = 2.040717 g / cm^3
# Si number density = 20.453719 Si / 1000 Ang^3
#
#
#
# Elastic Constant Matrix: (Units=GPa)
#
#
# Indices 1 2 3 4 5 6 
#
# 1 98.4141 53.4175 48.2717 -3.1240 8.5873 6.2262
# 2 53.4175 107.0788 35.2613 1.3809 18.9489 -1.6241
# 3 48.2717 35.2613 99.3711 5.7742 20.6786 2.7920
# 4 -3.1240 1.3809 5.7742 36.6128 2.7388 8.7134
# 5 8.5873 18.9489 20.6786 2.7388 43.9587 -1.5869
# 6 6.2262 -1.6241 2.7920 8.7134 -1.5869 39.7183
#
#
#
# Elastic Compliance Matrix: (Units=1/GPa)
#
#
# Indices 1 2 3 4 5 6 
#
# 1 0.017227 -0.006966 -0.006495 0.003333 0.002371 -0.003165
# 2 -0.006966 0.013799 -0.000633 -0.001128 -0.004155 0.001782
# 3 -0.006495 -0.000633 0.014660 -0.002528 -0.005186 0.000309
# 4 0.003333 -0.001128 -0.002528 0.029777 -0.001082 -0.006967
# 5 0.002371 -0.004155 -0.005186 -0.001082 0.026624 0.001124
# 6 -0.003165 0.001782 0.000309 -0.006967 0.001124 0.027298
#
#
# Mechanical properties :
#
#
# Convention : Reuss Voigt Hill
#
# Bulk Modulus (GPa) = 57.14220 64.30722 60.72471
# Shear Modulus (GPa) = 30.59894 35.25220 32.92557
#
# Velocity S-wave (km/s) = 3.87202 4.15602 4.01653
# Velocity P-wave (km/s) = 6.92734 7.38503 7.15984
#
# Compressibility (1/GPa) = 0.01750020
#
# Stress axis : x y z
#
# Youngs Moduli (GPa) = 58.04955 72.46910 68.21236
#
# Poissons Ratio (x) = 0.50478 0.44301
# Poissons Ratio (y) = 0.40434 0.04316
# Poissons Ratio (z) = 0.37701 0.04585
#
# Static dielectric constant tensor:
#      x y z
#    x 3.831720 -0.078490 0.161590 
#    y -0.078490 3.919760 -0.052220 
#    z 0.161590 -0.052220 3.926990 
# 
# 
# High freq. dielectric constant tensor:
#      x y z
#    x 1.793370 0.005050 0.010010 
#    y 0.005050 1.785100 0.010680 
#    z 0.010010 0.010680 1.804860 
# 
# From -- ./inp_files/543860.got.cif
#   From: 2010.06.25/outbox.cif.g09.slc.cpg/sg2_272_cif.got.tgz:543860.got - 2010.06.27 13:26:56.
