data_PCOD8003757
_publ_section_title
;
Structure prediction by ZEFSAII (Michael W. Deem and Ramdas Pophale) SiO2 
 PCOD8003757
Probable space group: P -1
;
_chemical_formula_sum "Si O2"
_cell_formula_units_Z 16
_cell_length_a 20.196680
_cell_length_b 14.977140
_cell_length_c 11.684898
_cell_angle_alpha 27.337184
_cell_angle_beta 30.551642
_cell_angle_gamma 39.227958
_cell_volume 824.370479
_symmetry_space_group_name_H-M "P -1"
_symmetry_group_IT_number 2
_symmetry_cell_setting 'triclinic'
loop_
_space_group_symop_operation_xyz
x,y,z
-x,-y,-z
loop_
_atom_site_type_symbol
_atom_site_label
_atom_site_fract_x
_atom_site_fract_y
_atom_site_fract_z
Si Si1 0.103755 0.482363 0.266376
Si Si2 0.323670 0.654467 0.171193
Si Si3 0.373200 0.874151 0.319144
Si Si4 0.120983 0.894576 0.791251
Si Si5 0.917678 0.199841 0.782149
Si Si6 0.609513 0.502467 0.135936
Si Si7 0.596910 0.148712 0.952025
Si Si8 0.520937 0.717607 0.618714
O O1 0.000000 0.500000 0.500000
O O2 0.046499 0.329058 0.439111
O O3 0.113397 0.696443 0.953936
O O4 0.245338 0.415687 0.180029
O O5 0.193258 0.700106 0.243094
O O6 0.345524 0.419956 0.421184
O O7 0.310103 0.770869 0.178758
O O8 0.452417 0.729968 0.830607
O O9 0.255407 0.982350 0.444879
O O10 0.406460 0.652450 0.561849
O O11 0.327759 0.866827 0.262802
O O12 0.500000 0.000000 0.000000
O O13 0.138019 0.847400 0.955509
O O14 0.982800 0.006894 0.846712
O O15 0.579221 0.386400 0.197592
O O16 0.522451 0.696426 0.063077
O O17 0.548791 0.934877 0.294363
#
# Coordination Sequence:
#
# PCOD8003757 Si02
#       8
#     2   2   2   2   2   2   2   2
#     4   9  18  31  53  84 112 143 177 232 288 331
#     4  10  22  37  56  84 119 152 196 235 285 348
#     4  11  21  37  60  85 121 152 187 244 292 334
#     4   9  21  37  57  89 112 146 193 239 287 341
#     4  10  20  37  61  84 116 147 190 238 290 340
#     4  10  21  36  58  89 117 145 195 242 289 342
#     4  11  23  36  58  84 116 157 193 231 294 347
#     4  10  20  38  56  84 117 153 190 244 287 338
#
# _framework density 19.408750000000001
#
# number of rings (size 3 to 8) (size 9 to 14) (size 15 to 20)
#    0.000    2.000    1.250    3.000    1.750    3.000 
#    0.000    0.625    0.000    3.750    0.000    0.000 
#    0.000    0.000    0.000    0.000    0.000    0.000 
#
# Total GULP energy -198241.192926 kJ/mol
# GULP energy per Si atom -12390.074558 kJ/mol
# Density = 1.936457 g / cm^3
# Si number density = 19.408750 Si / 1000 Ang^3
#
#
#
# Elastic Constant Matrix: (Units=GPa)
#
#
# Indices 1 2 3 4 5 6 
#
# 1 108.2778 46.1621 33.9058 1.3389 -1.3129 -9.1231
# 2 46.1621 107.2102 41.8599 -4.0070 0.9266 -15.1047
# 3 33.9058 41.8599 91.3409 3.3588 3.2341 -7.0889
# 4 1.3389 -4.0070 3.3588 29.2804 -5.2580 3.8086
# 5 -1.3129 0.9266 3.2341 -5.2580 29.3676 5.3113
# 6 -9.1231 -15.1047 -7.0889 3.8086 5.3113 36.7119
#
#
#
# Elastic Compliance Matrix: (Units=1/GPa)
#
#
# Indices 1 2 3 4 5 6 
#
# 1 0.011818 -0.004052 -0.002462 -0.000799 0.000642 0.000784
# 2 -0.004052 0.013363 -0.004409 0.001996 -0.000391 0.003489
# 3 -0.002462 -0.004409 0.014123 -0.002613 -0.002154 0.000884
# 4 -0.000799 0.001996 -0.002613 0.036758 0.007638 -0.004800
# 5 0.000642 -0.000391 -0.002154 0.007638 0.036881 -0.006545
# 6 0.000784 0.003489 0.000884 -0.004800 -0.006545 0.030485
#
#
# Mechanical properties :
#
#
# Convention : Reuss Voigt Hill
#
# Bulk Modulus (GPa) = 57.27952 61.18717 59.23335
# Shear Modulus (GPa) = 29.22374 31.39870 30.31122
#
# Velocity S-wave (km/s) = 3.88454 4.02650 3.95616
# Velocity P-wave (km/s) = 7.04953 7.29458 7.17310
#
# Compressibility (1/GPa) = 0.01745825
#
# Stress axis : x y z
#
# Youngs Moduli (GPa) = 84.61828 74.83287 70.80448
#
# Poissons Ratio (x) = 0.30322 0.17434
# Poissons Ratio (y) = 0.34287 0.31216
# Poissons Ratio (z) = 0.20836 0.32992
#
# Static dielectric constant tensor:
#      x y z
#    x 3.591900 0.089350 -0.142560 
#    y 0.089350 3.824880 -0.270780 
#    z -0.142560 -0.270780 4.165620 
# 
# 
# High freq. dielectric constant tensor:
#      x y z
#    x 1.735760 -0.002790 -0.000670 
#    y -0.002790 1.767160 -0.011480 
#    z -0.000670 -0.011480 1.745610 
# 
# From -- ./inp_files/431405.got.cif
#   From: 2010.06.25/outbox.cif.g09.slc.cpg/sg2_216_cif.got.tgz:431405.got - 2010.06.27 13:26:56.
