data_PCOD8003483
_publ_section_title
;
Structure prediction by ZEFSAII (Michael W. Deem and Ramdas Pophale) SiO2 
 PCOD8003483
Probable space group: P -1
;
_chemical_formula_sum "Si O2"
_cell_formula_units_Z 16
_cell_length_a 10.407510
_cell_length_b 9.600843
_cell_length_c 8.646119
_cell_angle_alpha 113.743886
_cell_angle_beta 76.495159
_cell_angle_gamma 75.064109
_cell_volume 706.331433
_symmetry_space_group_name_H-M "P -1"
_symmetry_group_IT_number 2
_symmetry_cell_setting 'triclinic'
loop_
_space_group_symop_operation_xyz
x,y,z
-x,-y,-z
loop_
_atom_site_type_symbol
_atom_site_label
_atom_site_fract_x
_atom_site_fract_y
_atom_site_fract_z
Si Si1 0.198634 0.469280 0.969880
Si Si2 0.932653 0.754242 0.235074
Si Si3 0.699903 0.359708 0.487730
Si Si4 0.589696 0.644591 0.393592
Si Si5 0.303734 0.361557 0.209427
Si Si6 0.265340 0.152893 0.397540
Si Si7 0.149358 0.961271 0.860096
Si Si8 0.598915 0.100338 0.988983
O O1 0.114200 0.399201 0.843908
O O2 0.343476 0.447019 0.827215
O O3 0.238099 0.352414 0.057343
O O4 0.106494 0.664587 0.124590
O O5 0.880284 0.821556 0.454186
O O6 0.860348 0.897455 0.195247
O O7 0.642120 0.511745 0.454328
O O8 0.581663 0.289414 0.541664
O O9 0.749845 0.441498 0.653528
O O10 0.830040 0.205764 0.312052
O O11 0.626986 0.803664 0.498372
O O12 0.235619 0.270172 0.306449
O O13 0.480395 0.288633 0.117818
O O14 0.330440 0.962646 0.229297
O O15 0.278961 0.931487 0.930376
O O16 0.000000 0.000000 0.000000
O O17 0.500000 0.000000 0.000000
#
# Coordination Sequence:
#
# PCOD8003483 Si02
#       8
#     2   2   2   2   2   2   2   2
#     4  10  21  38  61  88 117 153 205 255 295 348
#     4  10  22  39  59  86 120 159 199 244 303 361
#     4  10  20  37  58  84 120 161 198 237 299 364
#     4   9  18  36  60  87 118 154 200 249 295 350
#     4  10  21  37  61  89 117 154 202 254 298 346
#     4   9  19  36  61  89 116 152 200 254 298 346
#     4  12  25  41  62  88 125 164 195 241 305 367
#     4  10  20  39  64  91 118 152 203 251 295 347
#
# _framework density 22.652253999999999
#
# number of rings (size 3 to 8) (size 9 to 14) (size 15 to 20)
#    0.000    2.000    0.000    5.250    0.000    4.000 
#    0.000   10.000    0.000    0.000    0.000    0.000 
#    0.000    0.000    0.000    0.000    0.000    0.000 
#
# Total GULP energy -198248.433345 kJ/mol
# GULP energy per Si atom -12390.527084 kJ/mol
# Density = 2.260070 g / cm^3
# Si number density = 22.652254 Si / 1000 Ang^3
#
#
#
# Elastic Constant Matrix: (Units=GPa)
#
#
# Indices 1 2 3 4 5 6 
#
# 1 51.1682 19.9845 36.4544 -1.6324 -6.7602 -11.2588
# 2 19.9845 38.4683 37.5952 10.3608 0.1727 -8.6660
# 3 36.4544 37.5952 197.9923 8.6104 -21.5839 -5.8953
# 4 -1.6324 10.3608 8.6104 41.8290 -2.4574 1.2225
# 5 -6.7602 0.1727 -21.5839 -2.4574 29.7039 1.3125
# 6 -11.2588 -8.6660 -5.8953 1.2225 1.3125 28.1368
#
#
#
# Elastic Compliance Matrix: (Units=1/GPa)
#
#
# Indices 1 2 3 4 5 6 
#
# 1 0.028222 -0.012140 -0.002367 0.004688 0.004869 0.006627
# 2 -0.012140 0.043047 -0.006193 -0.010608 -0.008743 0.007972
# 3 -0.002367 -0.006193 0.007121 0.000302 0.004768 -0.001598
# 4 0.004688 -0.010608 0.000302 0.026950 0.003696 -0.002671
# 5 0.004869 -0.008743 0.004768 0.003696 0.038670 -0.001710
# 6 0.006627 0.007972 -0.001598 -0.002671 -0.001710 0.040509
#
#
# Mechanical properties :
#
#
# Convention : Reuss Voigt Hill
#
# Bulk Modulus (GPa) = 27.03381 52.85521 39.94451
# Shear Modulus (GPa) = 20.98644 32.84026 26.91335
#
# Velocity S-wave (km/s) = 3.04708 3.81170 3.45064
# Velocity P-wave (km/s) = 4.93354 6.53881 5.79206
#
# Compressibility (1/GPa) = 0.03699071
#
# Stress axis : x y z
#
# Youngs Moduli (GPa) = 35.43332 23.23056 140.42088
#
# Poissons Ratio (x) = 0.28201 0.33236
# Poissons Ratio (y) = 0.43015 0.86963
# Poissons Ratio (z) = 0.08387 0.14387
#
# Static dielectric constant tensor:
#      x y z
#    x 3.965840 -0.044720 -0.266490 
#    y -0.044720 3.860630 0.375150 
#    z -0.266490 0.375150 5.070970 
# 
# 
# High freq. dielectric constant tensor:
#      x y z
#    x 1.864710 0.000820 -0.006640 
#    y 0.000820 1.862670 0.005650 
#    z -0.006640 0.005650 1.925930 
# 
# From -- ./inp_files/244983.got.cif
#   From: 2010.06.25/outbox.cif.g09.slc.cpg/sg2_123_cif.got.tgz:244983.got - 2010.06.27 13:26:56.
