data_PCOD8003182
_publ_section_title
;
Structure prediction by ZEFSAII (Michael W. Deem and Ramdas Pophale) SiO2 
 PCOD8003182
Probable space group: P -1
;
_chemical_formula_sum "Si O2"
_cell_formula_units_Z 16
_cell_length_a 11.675933
_cell_length_b 8.867011
_cell_length_c 16.755818
_cell_angle_alpha 149.557264
_cell_angle_beta 115.564293
_cell_angle_gamma 61.826354
_cell_volume 773.651540
_symmetry_space_group_name_H-M "P -1"
_symmetry_group_IT_number 2
_symmetry_cell_setting 'triclinic'
loop_
_space_group_symop_operation_xyz
x,y,z
-x,-y,-z
loop_
_atom_site_type_symbol
_atom_site_label
_atom_site_fract_x
_atom_site_fract_y
_atom_site_fract_z
Si Si1 0.637949 0.269125 0.108571
Si Si2 0.258966 0.770381 0.664516
Si Si3 0.834320 0.184479 0.747311
Si Si4 0.899233 0.293498 0.134376
Si Si5 0.052043 0.113563 0.648196
Si Si6 0.030852 0.734504 0.682032
Si Si7 0.364013 0.215932 0.535534
Si Si8 0.363594 0.230490 0.991329
O O1 0.757342 0.203943 0.052027
O O2 0.667563 0.548581 0.294849
O O3 0.492366 0.360850 0.069032
O O4 0.627548 0.970139 0.017964
O O5 0.350414 0.423897 0.543572
O O6 0.164546 0.826376 0.739253
O O7 0.169127 0.835075 0.587831
O O8 0.343634 0.027555 0.815625
O O9 0.757899 0.496877 0.903744
O O10 0.937121 0.215135 0.723740
O O11 0.910200 0.022314 0.773535
O O12 0.740604 0.989750 0.590801
O O13 0.890455 0.586281 0.209485
O O14 0.950728 0.389204 0.279332
O O15 0.000000 0.000000 0.000000
O O16 0.000000 0.000000 0.500000
O O17 0.000000 0.500000 0.500000
O O18 0.500000 0.000000 0.500000
#
# Coordination Sequence:
#
# PCOD8003182 Si02
#       8
#     2   2   2   2   2   2   2   2
#     4  10  20  39  60  90 124 162 206 263 315 365
#     4  10  22  39  63  91 124 159 213 263 311 366
#     4  11  22  35  66  92 117 158 224 257 308 373
#     4  12  24  40  63  94 130 168 204 259 329 388
#     4  11  25  39  61  90 132 169 200 262 331 377
#     4  11  20  38  65  88 122 165 215 265 304 371
#     4  11  19  36  65  96 116 159 215 267 303 363
#     4  10  20  36  63  93 116 155 215 267 303 358
#
# _framework density 20.681146999999999
#
# number of rings (size 3 to 8) (size 9 to 14) (size 15 to 20)
#    0.000    1.250    5.000    3.000    1.750    1.000 
#    0.000    0.625    0.000    3.000    0.000    0.000 
#    0.000    0.000    0.000    0.000    0.000    0.000 
#
# Total GULP energy -198222.334266 kJ/mol
# GULP energy per Si atom -12388.895892 kJ/mol
# Density = 2.063408 g / cm^3
# Si number density = 20.681147 Si / 1000 Ang^3
#
#
#
# Elastic Constant Matrix: (Units=GPa)
#
#
# Indices 1 2 3 4 5 6 
#
# 1 114.5747 51.0891 23.2969 10.5404 13.6571 -17.2221
# 2 51.0891 144.2703 33.2163 13.5808 -2.8217 -22.4956
# 3 23.2969 33.2163 65.2512 13.7458 9.6689 -2.5316
# 4 10.5404 13.5808 13.7458 35.9541 -7.1083 -4.2685
# 5 13.6571 -2.8217 9.6689 -7.1083 34.3805 5.5386
# 6 -17.2221 -22.4956 -2.5316 -4.2685 5.5386 33.8635
#
#
#
# Elastic Compliance Matrix: (Units=1/GPa)
#
#
# Indices 1 2 3 4 5 6 
#
# 1 0.011992 -0.003164 -0.001068 -0.002553 -0.005988 0.004575
# 2 -0.003164 0.009669 -0.003945 -0.000247 0.002450 0.004087
# 3 -0.001068 -0.003945 0.020258 -0.007481 -0.006907 -0.001463
# 4 -0.002553 -0.000247 -0.007481 0.033549 0.009940 0.000582
# 5 -0.005988 0.002450 -0.006907 0.009940 0.036741 -0.006690
# 6 0.004575 0.004087 -0.001463 0.000582 -0.006690 0.035630
#
#
# Mechanical properties :
#
#
# Convention : Reuss Voigt Hill
#
# Bulk Modulus (GPa) = 39.11767 59.92230 49.51998
# Shear Modulus (GPa) = 28.94945 35.27255 32.11100
#
# Velocity S-wave (km/s) = 3.74545 4.13430 3.94467
# Velocity P-wave (km/s) = 6.13679 7.19911 6.68907
#
# Compressibility (1/GPa) = 0.02556390
#
# Stress axis : x y z
#
# Youngs Moduli (GPa) = 83.38684 103.42818 49.36419
#
# Poissons Ratio (x) = 0.32727 0.05274
# Poissons Ratio (y) = 0.26386 0.19472
# Poissons Ratio (z) = 0.08909 0.40799
#
# Static dielectric constant tensor:
#      x y z
#    x 3.905610 -0.399750 0.258560 
#    y -0.399750 4.297990 0.188120 
#    z 0.258560 0.188120 3.654990 
# 
# 
# High freq. dielectric constant tensor:
#      x y z
#    x 1.792210 -0.029040 0.025070 
#    y -0.029040 1.815030 0.011680 
#    z 0.025070 0.011680 1.806960 
# 
# From -- ./inp_files/189212.got.cif
#   From: 2010.06.25/outbox.cif.g09.slc.cpg/sg2_95_cif.got.tgz:189212.got - 2010.06.27 13:26:56.
