data_PCOD8003350
_publ_section_title
;
Structure prediction by ZEFSAII (Michael W. Deem and Ramdas Pophale) SiO2 
 PCOD8003350
Probable space group: P -1
;
_chemical_formula_sum "Si O2"
_cell_formula_units_Z 16
_cell_length_a 8.522712
_cell_length_b 11.740235
_cell_length_c 17.140769
_cell_angle_alpha 73.981918
_cell_angle_beta 76.547471
_cell_angle_gamma 138.515031
_cell_volume 790.353483
_symmetry_space_group_name_H-M "P -1"
_symmetry_group_IT_number 2
_symmetry_cell_setting 'triclinic'
loop_
_space_group_symop_operation_xyz
x,y,z
-x,-y,-z
loop_
_atom_site_type_symbol
_atom_site_label
_atom_site_fract_x
_atom_site_fract_y
_atom_site_fract_z
Si Si1 0.170662 0.011435 0.252366
Si Si2 0.516011 0.837927 0.199286
Si Si3 0.388991 0.543598 0.958980
Si Si4 0.689916 0.682041 0.246135
Si Si5 0.064938 0.506386 0.769854
Si Si6 0.049221 0.782201 0.061415
Si Si7 0.250010 0.798331 0.816150
Si Si8 0.267946 0.194375 0.367798
O O1 0.291096 0.171756 0.136981
O O2 0.450232 0.090633 0.210642
O O3 0.120374 0.052158 0.330226
O O4 0.820437 0.743605 0.308956
O O5 0.604336 0.762253 0.224387
O O6 0.134281 0.601371 0.266428
O O7 0.610287 0.977909 0.237553
O O8 0.689187 0.001406 0.070974
O O9 0.300087 0.454048 0.897042
O O10 0.500000 0.500000 0.000000
O O11 0.076842 0.415293 0.053015
O O12 0.366757 0.396659 0.320047
O O13 0.992966 0.840804 0.125097
O O14 0.135917 0.681223 0.766462
O O15 0.403456 0.665276 0.674456
O O16 0.872424 0.297161 0.894023
O O17 0.000000 0.000000 0.500000
#
# Coordination Sequence:
#
# PCOD8003350 Si02
#       8
#     2   2   2   2   2   2   2   2
#     4  11  21  39  62  86 120 154 203 249 288 358
#     4  11  23  33  56  90 128 160 192 238 297 357
#     4  11  21  32  54  89 126 165 194 230 293 351
#     4  11  23  38  59  90 122 154 199 251 300 354
#     4  10  21  38  61  86 116 161 207 244 290 349
#     4  10  20  37  51  86 126 169 201 226 286 357
#     4  10  21  34  54  84 124 162 199 228 286 351
#     4  10  23  46  68  84 110 153 212 260 300 350
#
# _framework density 20.244108000000001
#
# number of rings (size 3 to 8) (size 9 to 14) (size 15 to 20)
#    0.000    1.500    3.750    4.125    5.250    1.500 
#    0.000    0.625    0.000    3.750    0.000    0.000 
#    0.000    0.000    0.000    0.000    0.000    0.000 
#
# Total GULP energy -198228.279933 kJ/mol
# GULP energy per Si atom -12389.267496 kJ/mol
# Density = 2.019803 g / cm^3
# Si number density = 20.244108 Si / 1000 Ang^3
#
#
#
# Elastic Constant Matrix: (Units=GPa)
#
#
# Indices 1 2 3 4 5 6 
#
# 1 98.5293 50.8604 21.9445 2.7923 -5.2610 -16.8912
# 2 50.8604 117.6145 29.8360 5.7746 -2.3984 -24.3717
# 3 21.9445 29.8360 68.7858 -0.6321 -7.7603 -11.8266
# 4 2.7923 5.7746 -0.6321 14.6295 -2.4820 -0.8220
# 5 -5.2610 -2.3984 -7.7603 -2.4820 8.2889 -0.4704
# 6 -16.8912 -24.3717 -11.8266 -0.8220 -0.4704 36.5823
#
#
#
# Elastic Compliance Matrix: (Units=1/GPa)
#
#
# Indices 1 2 3 4 5 6 
#
# 1 0.013782 -0.005026 -0.000971 0.000610 0.006726 0.002802
# 2 -0.005026 0.012734 -0.003575 -0.004621 -0.003961 0.004853
# 3 -0.000971 -0.003575 0.019144 0.005720 0.018196 0.003721
# 4 0.000610 -0.004621 0.005720 0.074935 0.026905 0.001082
# 5 0.006726 -0.003961 0.018196 0.026905 0.149361 0.008874
# 6 0.002802 0.004853 0.003721 0.001082 0.008874 0.033204
#
#
# Mechanical properties :
#
#
# Convention : Reuss Voigt Hill
#
# Bulk Modulus (GPa) = 37.71244 54.46791 46.09018
# Shear Modulus (GPa) = 15.09926 24.05272 19.57599
#
# Velocity S-wave (km/s) = 2.73401 3.45067 3.11303
# Velocity P-wave (km/s) = 5.35123 6.54524 5.97812
#
# Compressibility (1/GPa) = 0.02651645
#
# Stress axis : x y z
#
# Youngs Moduli (GPa) = 72.55902 78.52843 52.23699
#
# Poissons Ratio (x) = 0.39466 0.05071
# Poissons Ratio (y) = 0.36466 0.18675
# Poissons Ratio (z) = 0.07044 0.28075
#
# Static dielectric constant tensor:
#      x y z
#    x 3.539740 -0.156540 -0.083210 
#    y -0.156540 4.369380 -0.126460 
#    z -0.083210 -0.126460 3.275070 
# 
# 
# High freq. dielectric constant tensor:
#      x y z
#    x 1.784950 -0.005840 -0.016130 
#    y -0.005840 1.820940 -0.007800 
#    z -0.016130 -0.007800 1.735330 
# 
# From -- ./inp_files/278070.got.cif
#   From: 2010.06.25/outbox.cif.g09.slc.cpg/sg2_140_cif.got.tgz:278070.got - 2010.06.27 13:26:56.
