data_PCOD8003696
_publ_section_title
;
Structure prediction by ZEFSAII (Michael W. Deem and Ramdas Pophale) SiO2 
 PCOD8003696
Probable space group: P -1
;
_chemical_formula_sum "Si O2"
_cell_formula_units_Z 16
_cell_length_a 11.536523
_cell_length_b 11.323970
_cell_length_c 12.609167
_cell_angle_alpha 124.662745
_cell_angle_beta 131.062979
_cell_angle_gamma 92.687000
_cell_volume 750.902559
_symmetry_space_group_name_H-M "P -1"
_symmetry_group_IT_number 2
_symmetry_cell_setting 'triclinic'
loop_
_space_group_symop_operation_xyz
x,y,z
-x,-y,-z
loop_
_atom_site_type_symbol
_atom_site_label
_atom_site_fract_x
_atom_site_fract_y
_atom_site_fract_z
Si Si1 0.568585 0.704090 0.623475
Si Si2 0.058791 0.878856 0.644055
Si Si3 0.679582 0.718702 0.477910
Si Si4 0.680128 0.201370 0.573370
Si Si5 0.416509 0.275462 0.120901
Si Si6 0.404527 0.773240 0.235943
Si Si7 0.021463 0.374727 0.710884
Si Si8 0.192488 0.668904 0.632705
O O1 0.500000 0.500000 0.500000
O O2 0.734574 0.805216 0.676187
O O3 0.380709 0.688286 0.463820
O O4 0.650517 0.807877 0.840557
O O5 0.222359 0.858168 0.770558
O O6 0.880777 0.779982 0.575135
O O7 0.958521 0.765376 0.412697
O O8 0.204830 0.113222 0.842195
O O9 0.487867 0.483741 0.251757
O O10 0.602000 0.802344 0.404033
O O11 0.719895 0.250401 0.747293
O O12 0.897494 0.276421 0.696342
O O13 0.495468 0.966924 0.325003
O O14 0.602711 0.291962 0.199516
O O15 0.251251 0.585290 0.973139
O O16 0.881771 0.396944 0.568154
O O17 0.000000 0.500000 0.500000
#
# Coordination Sequence:
#
# PCOD8003696 Si02
#       8
#     2   2   2   2   2   2   2   2
#     4   9  19  36  63  87 119 153 192 249 303 349
#     4  10  23  35  58  88 118 159 197 237 304 356
#     4  10  22  40  56  87 123 154 200 250 297 350
#     4  10  20  41  63  89 116 156 205 243 294 357
#     4  11  19  39  61  85 122 157 196 251 299 355
#     4  10  23  40  63  86 121 157 202 251 288 350
#     4  10  22  38  61  90 115 161 200 246 297 350
#     4  10  20  37  60  89 121 154 198 243 303 357
#
# _framework density 21.307689
#
# number of rings (size 3 to 8) (size 9 to 14) (size 15 to 20)
#    0.750    1.250    2.500    0.750    0.000    5.000 
#    0.000    8.750    0.000    0.000    0.000    0.000 
#    0.000    0.000    0.000    0.000    0.000    0.000 
#
# Total GULP energy -198211.499599 kJ/mol
# GULP energy per Si atom -12388.218725 kJ/mol
# Density = 2.125919 g / cm^3
# Si number density = 21.307689 Si / 1000 Ang^3
#
#
#
# Elastic Constant Matrix: (Units=GPa)
#
#
# Indices 1 2 3 4 5 6 
#
# 1 131.5571 22.1350 27.2311 6.7070 -4.0077 9.7431
# 2 22.1350 76.5025 18.5889 9.0461 5.7466 -3.5952
# 3 27.2311 18.5889 100.1430 20.9410 -10.9962 5.3797
# 4 6.7070 9.0461 20.9410 23.8621 -2.6481 2.1978
# 5 -4.0077 5.7466 -10.9962 -2.6481 16.4986 2.5628
# 6 9.7431 -3.5952 5.3797 2.1978 2.5628 23.1397
#
#
#
# Elastic Compliance Matrix: (Units=1/GPa)
#
#
# Indices 1 2 3 4 5 6 
#
# 1 0.008707 -0.002625 -0.001465 0.000517 0.002771 -0.004090
# 2 -0.002625 0.016011 -0.002661 -0.004590 -0.009611 0.005712
# 3 -0.001465 -0.002661 0.014031 -0.009622 0.008864 -0.003127
# 4 0.000517 -0.004590 -0.009622 0.052826 0.004443 -0.004204
# 5 0.002771 -0.009611 0.008864 0.004443 0.073313 -0.013263
# 6 -0.004090 0.005712 -0.003127 -0.004204 -0.013263 0.048420
#
#
# Mechanical properties :
#
#
# Convention : Reuss Voigt Hill
#
# Bulk Modulus (GPa) = 39.60651 49.34584 44.47617
# Shear Modulus (GPa) = 21.25629 28.71658 24.98644
#
# Velocity S-wave (km/s) = 3.16189 3.67510 3.42811
# Velocity P-wave (km/s) = 5.65317 6.42008 6.04879
#
# Compressibility (1/GPa) = 0.02524838
#
# Stress axis : x y z
#
# Youngs Moduli (GPa) = 114.85013 62.45882 71.27032
#
# Poissons Ratio (x) = 0.16395 0.10438
# Poissons Ratio (y) = 0.30148 0.18963
# Poissons Ratio (z) = 0.16820 0.16618
#
# Static dielectric constant tensor:
#      x y z
#    x 7.233430 0.038810 -3.466000 
#    y 0.038810 3.814410 0.115730 
#    z -3.466000 0.115730 6.570870 
# 
# 
# High freq. dielectric constant tensor:
#      x y z
#    x 1.850450 0.005680 -0.014390 
#    y 0.005680 1.828090 0.011700 
#    z -0.014390 0.011700 1.802610 
# 
# From -- ./inp_files/428799.got.cif
#   From: 2010.06.25/outbox.cif.g09.slc.cpg/sg2_215_cif.got.tgz:428799.got - 2010.06.27 13:26:56.
