data_PCOD8003296
_publ_section_title
;
Structure prediction by ZEFSAII (Michael W. Deem and Ramdas Pophale) SiO2 
 PCOD8003296
Probable space group: P -1
;
_chemical_formula_sum "Si O2"
_cell_formula_units_Z 16
_cell_length_a 9.636813
_cell_length_b 22.503936
_cell_length_c 13.859856
_cell_angle_alpha 156.706555
_cell_angle_beta 136.462037
_cell_angle_gamma 34.800471
_cell_volume 672.612281
_symmetry_space_group_name_H-M "P -1"
_symmetry_group_IT_number 2
_symmetry_cell_setting 'triclinic'
loop_
_space_group_symop_operation_xyz
x,y,z
-x,-y,-z
loop_
_atom_site_type_symbol
_atom_site_label
_atom_site_fract_x
_atom_site_fract_y
_atom_site_fract_z
Si Si1 0.226076 0.864138 0.673588
Si Si2 0.222740 0.507598 0.303648
Si Si3 0.309907 0.325209 0.713160
Si Si4 0.712804 0.190495 0.164894
Si Si5 0.989608 0.741515 0.866001
Si Si6 0.688289 0.630456 0.436050
Si Si7 0.248619 0.027408 0.315852
Si Si8 0.489443 0.663222 0.980207
O O1 0.313567 0.875226 0.841444
O O2 0.448273 0.687969 0.465089
O O3 0.984260 0.861332 0.561978
O O4 0.155771 0.049154 0.856800
O O5 0.430291 0.329604 0.198546
O O6 0.162047 0.697189 0.599910
O O7 0.977806 0.512463 0.191407
O O8 0.297602 0.505512 0.226375
O O9 0.411103 0.304929 0.626125
O O10 0.453170 0.375097 0.933613
O O11 0.351360 0.140738 0.499602
O O12 0.846797 0.028465 0.910332
O O13 0.812633 0.728880 0.685087
O O14 0.100420 0.588171 0.777893
O O15 0.232092 0.699412 0.870691
O O16 0.471713 0.846769 0.212424
#
# Coordination Sequence:
#
# PCOD8003296 Si02
#       8
#     2   2   2   2   2   2   2   2
#     4  11  21  41  67  96 134 170 211 274 337 382
#     4  10  22  35  64  98 131 162 218 268 334 382
#     4  12  24  41  65  99 134 171 216 269 327 396
#     4  10  20  36  66 101 126 164 214 278 325 382
#     4  10  24  43  65  92 133 173 222 270 322 386
#     4  11  26  41  66  97 132 172 225 271 326 391
#     4  10  22  39  68  98 130 167 218 273 328 387
#     4  10  23  44  66  93 133 175 216 268 330 393
#
# _framework density 23.787848
#
# number of rings (size 3 to 8) (size 9 to 14) (size 15 to 20)
#    0.000    1.500    1.250    3.000   10.500    0.500 
#    2.250    2.500    0.000    0.000    0.000    0.000 
#    0.000    0.000    0.000    0.000    0.000    0.000 
#
# Total GULP energy -198326.129543 kJ/mol
# GULP energy per Si atom -12395.383096 kJ/mol
# Density = 2.373371 g / cm^3
# Si number density = 23.787848 Si / 1000 Ang^3
#
#
#
# Elastic Constant Matrix: (Units=GPa)
#
#
# Indices 1 2 3 4 5 6 
#
# 1 99.0783 21.5450 14.0998 -11.5506 -23.9934 4.0966
# 2 21.5450 79.1296 18.8569 -8.0942 -17.2353 8.2023
# 3 14.0998 18.8569 42.5076 -8.4587 -19.0676 1.1531
# 4 -11.5506 -8.0942 -8.4587 36.0164 8.3863 -3.4407
# 5 -23.9934 -17.2353 -19.0676 8.3863 33.0446 4.2541
# 6 4.0966 8.2023 1.1531 -3.4407 4.2541 39.8144
#
#
#
# Elastic Compliance Matrix: (Units=1/GPa)
#
#
# Indices 1 2 3 4 5 6 
#
# 1 0.012670 -0.001356 0.000688 0.001723 0.008686 -0.001823
# 2 -0.001356 0.015469 -0.003902 0.000605 0.005119 -0.003429
# 3 0.000688 -0.003902 0.033392 0.003007 0.017202 -0.001812
# 4 0.001723 0.000605 0.003007 0.030543 -0.004805 0.002764
# 5 0.008686 0.005119 0.017202 -0.004805 0.051461 -0.008360
# 6 -0.001823 -0.003429 -0.001812 0.002764 -0.008360 0.027195
#
#
# Mechanical properties :
#
#
# Convention : Reuss Voigt Hill
#
# Bulk Modulus (GPa) = 19.08777 36.63541 27.86159
# Shear Modulus (GPa) = 25.33752 32.85602 29.09677
#
# Velocity S-wave (km/s) = 3.26720 3.72050 3.50119
# Velocity P-wave (km/s) = 4.71957 5.82155 5.29928
#
# Compressibility (1/GPa) = 0.05238956
#
# Stress axis : x y z
#
# Youngs Moduli (GPa) = 78.92708 64.64454 29.94705
#
# Poissons Ratio (x) = 0.08768 -0.02060
# Poissons Ratio (y) = 0.10705 0.11687
# Poissons Ratio (z) = -0.05430 0.25228
#
# Static dielectric constant tensor:
#      x y z
#    x 3.964050 0.117380 0.024250 
#    y 0.117380 4.579650 0.227580 
#    z 0.024250 0.227580 4.174840 
# 
# 
# High freq. dielectric constant tensor:
#      x y z
#    x 1.918330 0.003940 0.005680 
#    y 0.003940 1.965290 0.020300 
#    z 0.005680 0.020300 1.924670 
# 
# From -- ./inp_files/405728.got.cif
#   From: 2010.06.25/outbox.cif.g09.slc.cpg/sg2_203_cif.got.tgz:405728.got - 2010.06.27 13:26:56.
