data_PCOD8003355
_publ_section_title
;
Structure prediction by ZEFSAII (Michael W. Deem and Ramdas Pophale) SiO2 
 PCOD8003355
Probable space group: P -1
;
_chemical_formula_sum "Si O2"
_cell_formula_units_Z 14
_cell_length_a 9.036371
_cell_length_b 15.878348
_cell_length_c 18.098486
_cell_angle_alpha 147.849169
_cell_angle_beta 125.173378
_cell_angle_gamma 37.902300
_cell_volume 814.608434
_symmetry_space_group_name_H-M "P -1"
_symmetry_group_IT_number 2
_symmetry_cell_setting 'triclinic'
loop_
_space_group_symop_operation_xyz
x,y,z
-x,-y,-z
loop_
_atom_site_type_symbol
_atom_site_label
_atom_site_fract_x
_atom_site_fract_y
_atom_site_fract_z
Si Si1 0.143048 0.117285 0.961280
Si Si2 0.632055 0.686163 0.845401
Si Si3 0.783175 0.261386 0.550111
Si Si4 0.240052 0.793127 0.331571
Si Si5 0.290456 0.331911 0.978682
Si Si6 0.424403 0.572777 0.948580
Si Si7 0.217784 0.035957 0.751957
O O1 0.158052 0.052764 0.833314
O O2 0.342490 0.900020 0.905708
O O3 0.191939 0.275410 0.100170
O O4 0.873320 0.239181 0.007236
O O5 0.712634 0.481825 0.669635
O O6 0.670068 0.620294 0.893053
O O7 0.680793 0.290783 0.624691
O O8 0.652743 0.206686 0.419168
O O9 0.089254 0.052797 0.478500
O O10 0.480697 0.631955 0.227428
O O11 0.044057 0.780244 0.232711
O O12 0.387803 0.088815 0.826051
O O13 0.457872 0.330376 0.969259
O O14 0.000000 0.500000 0.000000
O O15 0.500000 0.500000 0.000000
#
# Coordination Sequence:
#
# PCOD8003355 Si02
#       7
#     2   2   2   2   2   2   2
#     4  10  22  34  53  81 109 136 178 221 260 307
#     4  10  20  37  54  78 104 145 179 210 262 318
#     4   9  16  33  56  74 104 137 182 212 253 321
#     4   9  17  30  52  80 102 131 177 216 257 309
#     4  11  18  32  56  78 100 140 179 210 262 309
#     4  12  19  33  54  81 111 130 176 228 263 301
#     4   9  17  33  53  77 100 138 177 208 256 313
#
# _framework density 17.186171999999999
#
# number of rings (size 3 to 8) (size 9 to 14) (size 15 to 20)
#    0.857    1.143    4.286    0.857    0.000    1.143 
#    0.000    0.714    3.143    0.857    0.000    0.000 
#    0.000    0.000    0.000    0.000    0.000    0.000 
#
# Total GULP energy -173448.744341 kJ/mol
# GULP energy per Si atom -12389.196024 kJ/mol
# Density = 1.714706 g / cm^3
# Si number density = 17.186172 Si / 1000 Ang^3
#
#
#
# Elastic Constant Matrix: (Units=GPa)
#
#
# Indices 1 2 3 4 5 6 
#
# 1 109.5977 46.4180 55.4746 9.1027 -3.2172 -7.0350
# 2 46.4180 70.5831 37.5095 7.6468 -7.8013 -8.6540
# 3 55.4746 37.5095 145.1456 8.8433 5.8617 2.1677
# 4 9.1027 7.6468 8.8433 20.0046 4.7145 -0.3495
# 5 -3.2172 -7.8013 5.8617 4.7145 29.1146 -1.6695
# 6 -7.0350 -8.6540 2.1677 -0.3495 -1.6695 23.1125
#
#
#
# Elastic Compliance Matrix: (Units=1/GPa)
#
#
# Indices 1 2 3 4 5 6 
#
# 1 0.014186 -0.006778 -0.003592 -0.002474 0.000999 0.002152
# 2 -0.006778 0.022713 -0.003334 -0.005730 0.007349 0.007198
# 3 -0.003592 -0.003334 0.009339 -0.000505 -0.003287 -0.003463
# 4 -0.002474 -0.005730 -0.000505 0.056059 -0.010945 -0.002794
# 5 0.000999 0.007349 -0.003287 -0.010945 0.039206 0.006030
# 6 0.002152 0.007198 -0.003463 -0.002794 0.006030 0.047335
#
#
# Mechanical properties :
#
#
# Convention : Reuss Voigt Hill
#
# Bulk Modulus (GPa) = 53.10811 67.12563 60.11687
# Shear Modulus (GPa) = 22.46959 26.84129 24.65544
#
# Velocity S-wave (km/s) = 3.61975 3.95624 3.79173
# Velocity P-wave (km/s) = 6.95980 7.74673 7.36379
#
# Compressibility (1/GPa) = 0.01882951
#
# Stress axis : x y z
#
# Youngs Moduli (GPa) = 70.49143 44.02829 107.07360
#
# Poissons Ratio (x) = 0.29844 0.38461
# Poissons Ratio (y) = 0.47781 0.35699
# Poissons Ratio (z) = 0.25320 0.14679
#
# Static dielectric constant tensor:
#      x y z
#    x 2.956170 0.048640 0.123640 
#    y 0.048640 3.112340 -0.036690 
#    z 0.123640 -0.036690 3.474380 
# 
# 
# High freq. dielectric constant tensor:
#      x y z
#    x 1.629290 0.015410 0.006750 
#    y 0.015410 1.654830 -0.005640 
#    z 0.006750 -0.005640 1.673430 
# 
# From -- ./inp_files/311346.got.cif
#   From: 2010.06.25/outbox.cif.g09.slc.cpg/sg2_156_cif.got.tgz:311346.got - 2010.06.27 13:26:56.
