data_PCOD8003135
_publ_section_title
;
Structure prediction by ZEFSAII (Michael W. Deem and Ramdas Pophale) SiO2 
 PCOD8003135
Probable space group: P -1
;
_chemical_formula_sum "Si O2"
_cell_formula_units_Z 16
_cell_length_a 30.724270
_cell_length_b 15.459623
_cell_length_c 9.061996
_cell_angle_alpha 136.358818
_cell_angle_beta 143.766664
_cell_angle_gamma 18.243254
_cell_volume 775.270741
_symmetry_space_group_name_H-M "P -1"
_symmetry_group_IT_number 2
_symmetry_cell_setting 'triclinic'
loop_
_space_group_symop_operation_xyz
x,y,z
-x,-y,-z
loop_
_atom_site_type_symbol
_atom_site_label
_atom_site_fract_x
_atom_site_fract_y
_atom_site_fract_z
Si Si1 0.136067 0.467305 0.743032
Si Si2 0.910978 0.456394 0.939658
Si Si3 0.589606 0.772509 0.856579
Si Si4 0.831199 0.852306 0.195323
Si Si5 0.402825 0.178113 0.595800
Si Si6 0.404225 0.856904 0.601446
Si Si7 0.761535 0.082722 0.982348
Si Si8 0.496708 0.320571 0.040404
O O1 0.954104 0.733418 0.501242
O O2 0.257072 0.175674 0.647328
O O3 0.122045 0.478840 0.895863
O O4 0.217196 0.480678 0.949135
O O5 0.790026 0.549953 0.632122
O O6 0.904879 0.606211 0.042329
O O7 0.088337 0.124954 0.978358
O O8 0.569825 0.667287 0.747532
O O9 0.475867 0.959813 0.632413
O O10 0.500000 0.000000 0.000000
O O11 0.651050 0.101728 0.082142
O O12 0.819747 0.957575 0.151037
O O13 0.500000 0.000000 0.500000
O O14 0.443842 0.257620 0.852458
O O15 0.350160 0.854415 0.315273
O O16 0.457218 0.695968 0.691637
O O17 0.659004 0.368007 0.069081
#
# Coordination Sequence:
#
# PCOD8003135 Si02
#       8
#     2   2   2   2   2   2   2   2
#     4  11  21  39  67  99 122 160 211 270 309 360
#     4  12  23  40  67  96 122 166 219 258 309 368
#     4  10  20  36  63 103 118 156 212 265 309 355
#     4  12  23  42  66  91 131 163 215 261 308 372
#     4  12  21  40  69  92 125 164 211 260 308 378
#     4  11  21  41  67  93 128 164 212 261 310 379
#     4  12  28  39  63  97 130 167 209 260 317 378
#     4  12  25  45  62  92 132 173 200 257 330 375
#
# _framework density 20.637951999999999
#
# number of rings (size 3 to 8) (size 9 to 14) (size 15 to 20)
#    0.000    0.500    7.500    3.000    3.500    0.500 
#    0.000    0.000    0.000    2.250    0.000    0.000 
#    0.000    0.000    0.000    0.000    0.000    0.000 
#
# Total GULP energy -198266.470822 kJ/mol
# GULP energy per Si atom -12391.654426 kJ/mol
# Density = 2.059098 g / cm^3
# Si number density = 20.637952 Si / 1000 Ang^3
#
#
#
# Elastic Constant Matrix: (Units=GPa)
#
#
# Indices 1 2 3 4 5 6 
#
# 1 91.5874 19.1749 17.4232 -5.7133 -5.8767 -3.3108
# 2 19.1749 72.3694 13.6071 -15.6695 6.6395 -5.4876
# 3 17.4232 13.6071 99.6550 -13.6770 1.5132 -1.6816
# 4 -5.7133 -15.6695 -13.6770 21.4345 -4.5875 -2.6584
# 5 -5.8767 6.6395 1.5132 -4.5875 42.5685 -8.1559
# 6 -3.3108 -5.4876 -1.6816 -2.6584 -8.1559 16.3806
#
#
#
# Elastic Compliance Matrix: (Units=1/GPa)
#
#
# Indices 1 2 3 4 5 6 
#
# 1 0.012153 -0.002684 -0.001578 0.001260 0.002868 0.003028
# 2 -0.002684 0.018010 -0.000035 0.013291 -0.000311 0.007489
# 3 -0.001578 -0.000035 0.011333 0.007200 0.000601 0.002301
# 4 0.001260 0.013291 0.007200 0.065742 0.008863 0.020528
# 5 0.002868 -0.000311 0.000601 0.008863 0.027911 0.015872
# 6 0.003028 0.007489 0.002301 0.020528 0.015872 0.075639
#
#
# Mechanical properties :
#
#
# Convention : Reuss Voigt Hill
#
# Bulk Modulus (GPa) = 30.39298 40.44693 35.41995
# Shear Modulus (GPa) = 21.70623 30.30383 26.00503
#
# Velocity S-wave (km/s) = 3.24661 3.83607 3.55358
# Velocity P-wave (km/s) = 5.36774 6.26589 5.83413
#
# Compressibility (1/GPa) = 0.03290234
#
# Stress axis : x y z
#
# Youngs Moduli (GPa) = 82.28614 55.52515 88.23792
#
# Poissons Ratio (x) = 0.14904 0.13922
# Poissons Ratio (y) = 0.22087 0.00306
# Poissons Ratio (z) = 0.12983 0.00192
#
# Static dielectric constant tensor:
#      x y z
#    x 3.034300 -0.233750 -0.258520 
#    y -0.233750 3.457780 -0.182480 
#    z -0.258520 -0.182480 3.684230 
# 
# 
# High freq. dielectric constant tensor:
#      x y z
#    x 1.824560 -0.014490 -0.005630 
#    y -0.014490 1.769980 -0.009940 
#    z -0.005630 -0.009940 1.822640 
# 
# From -- ./inp_files/262383.got.cif
#   From: 2010.06.25/outbox.cif.g09.slc.cpg/sg2_132_cif.got.tgz:262383.got - 2010.06.27 13:26:56.
