data_PCOD8003970
_publ_section_title
;
Structure prediction by ZEFSAII (Michael W. Deem and Ramdas Pophale) SiO2 
 PCOD8003970
Probable space group: P -1
;
_chemical_formula_sum "Si O2"
_cell_formula_units_Z 12
_cell_length_a 11.894297
_cell_length_b 6.522554
_cell_length_c 9.490994
_cell_angle_alpha 115.344233
_cell_angle_beta 84.229551
_cell_angle_gamma 59.417489
_cell_volume 522.742392
_symmetry_space_group_name_H-M "P -1"
_symmetry_group_IT_number 2
_symmetry_cell_setting 'triclinic'
loop_
_space_group_symop_operation_xyz
x,y,z
-x,-y,-z
loop_
_atom_site_type_symbol
_atom_site_label
_atom_site_fract_x
_atom_site_fract_y
_atom_site_fract_z
Si Si1 0.148691 0.685818 0.394931
Si Si2 0.675857 0.364672 0.104351
Si Si3 0.513438 0.748327 0.002298
Si Si4 0.719136 0.063729 0.671597
Si Si5 0.216799 0.444022 0.624623
Si Si6 0.902002 0.746060 0.793250
O O1 0.197279 0.585334 0.518651
O O2 0.138998 0.467847 0.239458
O O3 0.278249 0.679520 0.310252
O O4 0.000000 0.000000 0.500000
O O5 0.661716 0.526028 0.004909
O O6 0.683583 0.522752 0.280982
O O7 0.524371 0.409413 0.151332
O O8 0.810017 0.028123 0.987351
O O9 0.384394 0.874363 0.167788
O O10 0.500000 0.000000 0.000000
O O11 0.703720 0.898140 0.500333
O O12 0.877262 0.831071 0.654848
O O13 0.066385 0.589613 0.765409
#
# Coordination Sequence:
#
# PCOD8003970 Si02
#       6
#     2   2   2   2   2   2
#     4  11  19  38  64  96 132 168 204 246 314 386
#     4  10  24  40  63  93 129 163 214 264 315 371
#     4  10  24  48  65  82 121 174 224 260 311 371
#     4  10  21  39  66  91 124 169 215 254 308 373
#     4  11  21  37  62 101 132 159 206 261 318 378
#     4  10  20  37  62  93 134 169 202 249 321 379
#
# _framework density 22.955860000000001
#
# number of rings (size 3 to 8) (size 9 to 14) (size 15 to 20)
#    0.000    1.667    3.333    1.500    0.000   14.000 
#    0.000    2.500    0.000    0.000    0.000    0.000 
#    0.000    0.000    0.000    0.000    0.000    0.000 
#
# Total GULP energy -148675.405327 kJ/mol
# GULP energy per Si atom -12389.617111 kJ/mol
# Density = 2.290361 g / cm^3
# Si number density = 22.955860 Si / 1000 Ang^3
#
#
#
# Elastic Constant Matrix: (Units=GPa)
#
#
# Indices 1 2 3 4 5 6 
#
# 1 109.7311 45.4121 47.8140 -8.0314 14.2509 21.6133
# 2 45.4121 144.2263 24.8975 11.7037 8.3616 39.2685
# 3 47.8140 24.8975 83.4870 6.8152 30.9568 14.7104
# 4 -8.0314 11.7037 6.8152 30.1322 6.0107 2.8958
# 5 14.2509 8.3616 30.9568 6.0107 47.0794 1.0037
# 6 21.6133 39.2685 14.7104 2.8958 1.0037 41.9449
#
#
#
# Elastic Compliance Matrix: (Units=1/GPa)
#
#
# Indices 1 2 3 4 5 6 
#
# 1 0.014807 -0.003283 -0.007816 0.007137 0.000379 -0.002317
# 2 -0.003283 0.010390 0.000778 -0.004186 -0.000658 -0.008003
# 3 -0.007816 0.000778 0.021374 -0.004647 -0.011157 -0.003609
# 4 0.007137 -0.004186 -0.004647 0.038485 -0.003259 -0.000707
# 5 0.000379 -0.000658 -0.011157 -0.003259 0.028913 0.003867
# 6 -0.002317 -0.008003 -0.003609 -0.000707 0.003867 0.033749
#
#
# Mechanical properties :
#
#
# Convention : Reuss Voigt Hill
#
# Bulk Modulus (GPa) = 38.56760 63.74351 51.15556
# Shear Modulus (GPa) = 28.24799 38.45267 33.35033
#
# Velocity S-wave (km/s) = 3.51170 4.09720 3.81570
# Velocity P-wave (km/s) = 5.76888 7.08596 6.46107
#
# Compressibility (1/GPa) = 0.02592850
#
# Stress axis : x y z
#
# Youngs Moduli (GPa) = 67.53484 96.24642 46.78501
#
# Poissons Ratio (x) = 0.31602 0.36566
# Poissons Ratio (y) = 0.22174 -0.03639
# Poissons Ratio (z) = 0.52784 -0.07485
#
# Static dielectric constant tensor:
#      x y z
#    x 4.389930 -0.013350 -0.071260 
#    y -0.013350 4.498750 0.373090 
#    z -0.071260 0.373090 4.026260 
# 
# 
# High freq. dielectric constant tensor:
#      x y z
#    x 1.910340 0.003440 -0.011470 
#    y 0.003440 1.910420 0.033550 
#    z -0.011470 0.033550 1.895230 
# 
# From -- ./inp_files/59748.got.cif
#   From: 2010.06.25/outbox.cif.g09.slc.cpg/sg2_30_cif.got.tgz:59748.got - 2010.06.27 13:26:56.
