data_PCOD8003563
_publ_section_title
;
Structure prediction by ZEFSAII (Michael W. Deem and Ramdas Pophale) SiO2 
 PCOD8003563
Probable space group: P -1
;
_chemical_formula_sum "Si O2"
_cell_formula_units_Z 14
_cell_length_a 8.781685
_cell_length_b 8.371465
_cell_length_c 15.505416
_cell_angle_alpha 109.832684
_cell_angle_beta 132.145869
_cell_angle_gamma 53.447370
_cell_volume 675.429054
_symmetry_space_group_name_H-M "P -1"
_symmetry_group_IT_number 2
_symmetry_cell_setting 'triclinic'
loop_
_space_group_symop_operation_xyz
x,y,z
-x,-y,-z
loop_
_atom_site_type_symbol
_atom_site_label
_atom_site_fract_x
_atom_site_fract_y
_atom_site_fract_z
Si Si1 0.316252 0.852036 0.667470
Si Si2 0.201658 0.245008 0.225229
Si Si3 0.715851 0.193893 0.163322
Si Si4 0.930190 0.764339 0.470033
Si Si5 0.821150 0.462988 0.979319
Si Si6 0.025327 0.370424 0.356623
Si Si7 0.913215 0.067213 0.883957
O O1 0.606611 0.728783 0.751868
O O2 0.240442 0.923187 0.750491
O O3 0.204581 0.720145 0.570855
O O4 0.239200 0.029170 0.603608
O O5 0.205782 0.322764 0.336884
O O6 0.263241 0.015676 0.219370
O O7 0.943024 0.371560 0.101905
O O8 0.430804 0.331776 0.059843
O O9 0.813257 0.342893 0.235103
O O10 0.858675 0.028173 0.113403
O O11 0.840137 0.771540 0.535464
O O12 0.914343 0.598584 0.381381
O O13 0.778902 0.308434 0.878235
O O14 0.000000 0.500000 0.000000
O O15 0.000000 0.000000 0.000000
#
# Coordination Sequence:
#
# PCOD8003563 Si02
#       7
#     2   2   2   2   2   2   2
#     4  10  20  37  59  85 118 151 190 246 294 344
#     4  10  21  38  56  88 118 148 199 235 289 355
#     4  10  21  40  62  85 124 158 190 241 293 344
#     4   9  20  38  59  84 112 152 196 240 300 343
#     4  11  22  39  59  91 122 153 197 241 283 357
#     4   9  20  38  60  86 111 154 197 237 295 351
#     4   9  22  39  56  86 119 156 199 232 286 350
#
# _framework density 20.727565999999999
#
# number of rings (size 3 to 8) (size 9 to 14) (size 15 to 20)
#    0.000    2.286    1.429    0.000    2.000    8.000 
#    2.571    0.000    0.000    0.000    0.000    0.000 
#    0.000    0.000    0.000    0.000    0.000    0.000 
#
# Total GULP energy -173482.172397 kJ/mol
# GULP energy per Si atom -12391.583743 kJ/mol
# Density = 2.068039 g / cm^3
# Si number density = 20.727566 Si / 1000 Ang^3
#
#
#
# Elastic Constant Matrix: (Units=GPa)
#
#
# Indices 1 2 3 4 5 6 
#
# 1 99.7371 7.5354 24.5424 8.6059 -22.2253 -13.5029
# 2 7.5354 47.1363 20.3761 5.5735 -14.5892 -0.7253
# 3 24.5424 20.3761 73.9602 9.9489 -17.9165 -8.0491
# 4 8.6059 5.5735 9.9489 23.7987 -8.0878 -3.9642
# 5 -22.2253 -14.5892 -17.9165 -8.0878 36.9791 0.2470
# 6 -13.5029 -0.7253 -8.0491 -3.9642 0.2470 32.5580
#
#
#
# Elastic Compliance Matrix: (Units=1/GPa)
#
#
# Indices 1 2 3 4 5 6 
#
# 1 0.012705 0.001236 -0.002299 -0.000853 0.006793 0.004573
# 2 0.001236 0.026052 -0.005485 -0.001619 0.008013 -0.000521
# 3 -0.002299 -0.005485 0.017573 -0.003324 0.004223 0.002832
# 4 -0.000853 -0.001619 -0.003324 0.047422 0.007580 0.004505
# 5 0.006793 0.008013 0.004223 0.007580 0.037959 0.004675
# 6 0.004573 -0.000521 0.002832 0.004505 0.004675 0.033813
#
#
# Mechanical properties :
#
#
# Convention : Reuss Voigt Hill
#
# Bulk Modulus (GPa) = 23.12956 36.19349 29.66152
# Shear Modulus (GPa) = 24.62671 29.89248 27.25960
#
# Velocity S-wave (km/s) = 3.45064 3.80170 3.63042
# Velocity P-wave (km/s) = 5.20182 6.06383 5.64929
#
# Compressibility (1/GPa) = 0.04323472
#
# Stress axis : x y z
#
# Youngs Moduli (GPa) = 78.70897 38.38453 56.90542
#
# Poissons Ratio (x) = -0.04745 0.13080
# Poissons Ratio (y) = -0.09730 0.31215
# Poissons Ratio (z) = 0.18092 0.21056
#
# Static dielectric constant tensor:
#      x y z
#    x 3.997320 0.244410 -0.096180 
#    y 0.244410 3.858020 0.309470 
#    z -0.096180 0.309470 3.872820 
# 
# 
# High freq. dielectric constant tensor:
#      x y z
#    x 1.825740 0.018720 -0.013930 
#    y 0.018720 1.782590 0.011180 
#    z -0.013930 0.011180 1.810650 
# 
# From -- ./inp_files/109953.got.cif
#   From: 2010.06.25/outbox.cif.g09.slc.cpg/sg2_55_cif.got.tgz:109953.got - 2010.06.27 13:26:56.
