data_PCOD8003205
_publ_section_title
;
Structure prediction by ZEFSAII (Michael W. Deem and Ramdas Pophale) SiO2 
 PCOD8003205
Probable space group: P -1
;
_chemical_formula_sum "Si O2"
_cell_formula_units_Z 16
_cell_length_a 8.348474
_cell_length_b 11.714392
_cell_length_c 13.857616
_cell_angle_alpha 131.036591
_cell_angle_beta 137.877370
_cell_angle_gamma 57.763869
_cell_volume 682.742676
_symmetry_space_group_name_H-M "P -1"
_symmetry_group_IT_number 2
_symmetry_cell_setting 'triclinic'
loop_
_space_group_symop_operation_xyz
x,y,z
-x,-y,-z
loop_
_atom_site_type_symbol
_atom_site_label
_atom_site_fract_x
_atom_site_fract_y
_atom_site_fract_z
Si Si1 0.245207 0.991670 0.430062
Si Si2 0.239634 0.446745 0.452339
Si Si3 0.224082 0.198356 0.695868
Si Si4 0.205986 0.588934 0.320286
Si Si5 0.952293 0.313726 0.888398
Si Si6 0.521159 0.420938 0.864774
Si Si7 0.920562 0.258321 0.334870
Si Si8 0.540095 0.726791 0.959140
O O1 0.246707 0.029572 0.567237
O O2 0.054271 0.114754 0.365703
O O3 0.500000 0.000000 0.500000
O O4 0.159405 0.825731 0.292140
O O5 0.186031 0.457005 0.318270
O O6 0.517040 0.384317 0.557544
O O7 0.178357 0.614002 0.562075
O O8 0.083951 0.324055 0.361824
O O9 0.327936 0.297652 0.708391
O O10 0.392744 0.205651 0.869551
O O11 0.951096 0.259436 0.628765
O O12 0.086710 0.552312 0.140342
O O13 0.795515 0.348189 0.933248
O O14 0.233056 0.270600 0.010695
O O15 0.500000 0.500000 0.000000
O O16 0.464360 0.552017 0.832632
O O17 0.694189 0.184750 0.142504
#
# Coordination Sequence:
#
# PCOD8003205 Si02
#       8
#     2   2   2   2   2   2   2   2
#     4  12  24  42  71  91 131 181 228 265 318 405
#     4  10  21  38  65  96 139 163 231 274 334 382
#     4  10  21  41  64  99 127 174 220 267 329 391
#     4  10  20  36  63  98 129 165 215 283 318 382
#     4  11  23  40  65  98 133 177 223 263 333 402
#     4  10  20  38  66  96 130 169 218 278 327 388
#     4  11  23  41  65  95 130 183 215 279 329 390
#     4  10  23  38  65  96 134 166 217 280 340 379
#
# _framework density 23.434891
#
# number of rings (size 3 to 8) (size 9 to 14) (size 15 to 20)
#    0.000    1.500    2.500    2.625    1.750    5.500 
#    0.000    1.875    0.000    0.000    0.000    0.000 
#    0.000    0.000    0.000    0.000    0.000    0.000 
#
# Total GULP energy -198300.901425 kJ/mol
# GULP energy per Si atom -12393.806339 kJ/mol
# Density = 2.338155 g / cm^3
# Si number density = 23.434891 Si / 1000 Ang^3
#
#
#
# Elastic Constant Matrix: (Units=GPa)
#
#
# Indices 1 2 3 4 5 6 
#
# 1 162.5507 28.2944 42.7222 -11.0138 10.3670 -28.0034
# 2 28.2944 43.1280 26.7733 -15.2918 0.0449 -15.7114
# 3 42.7222 26.7733 83.9923 -29.0014 4.9901 -14.7915
# 4 -11.0138 -15.2918 -29.0014 36.6483 -5.5610 3.2447
# 5 10.3670 0.0449 4.9901 -5.5610 39.8591 -0.1401
# 6 -28.0034 -15.7114 -14.7915 3.2447 -0.1401 37.0654
#
#
#
# Elastic Compliance Matrix: (Units=1/GPa)
#
#
# Indices 1 2 3 4 5 6 
#
# 1 0.008096 -0.002571 -0.003085 -0.001724 -0.001943 0.003940
# 2 -0.002571 0.034956 -0.004977 0.009376 0.002596 0.010078
# 3 -0.003085 -0.004977 0.019769 0.012443 0.000077 0.002360
# 4 -0.001724 0.009376 0.012443 0.040863 0.004596 0.004077
# 5 -0.001943 0.002596 0.000077 0.004596 0.026220 -0.000640
# 6 0.003940 0.010078 0.002360 0.004077 -0.000640 0.034810
#
#
# Mechanical properties :
#
#
# Convention : Reuss Voigt Hill
#
# Bulk Modulus (GPa) = 24.06382 53.91676 38.99029
# Shear Modulus (GPa) = 25.02116 35.50663 30.26389
#
# Velocity S-wave (km/s) = 3.27109 3.89667 3.59751
# Velocity P-wave (km/s) = 4.95554 6.58046 5.82494
#
# Compressibility (1/GPa) = 0.04155616
#
# Stress axis : x y z
#
# Youngs Moduli (GPa) = 123.51927 28.60724 50.58520
#
# Poissons Ratio (x) = 0.07354 0.15604
# Poissons Ratio (y) = 0.31753 0.25176
# Poissons Ratio (z) = 0.38101 0.14238
#
# Static dielectric constant tensor:
#      x y z
#    x 5.377560 0.587680 0.660080 
#    y 0.587680 4.769570 0.640790 
#    z 0.660080 0.640790 4.940540 
# 
# 
# High freq. dielectric constant tensor:
#      x y z
#    x 1.957310 -0.011640 0.005920 
#    y -0.011640 1.895880 -0.004900 
#    z 0.005920 -0.004900 1.927200 
# 
# From -- ./inp_files/500907.got.cif
#   From: 2010.06.25/outbox.cif.g09.slc.cpg/sg2_251_cif.got.tgz:500907.got - 2010.06.27 13:26:56.
