data_PCOD8003391
_publ_section_title
;
Structure prediction by ZEFSAII (Michael W. Deem and Ramdas Pophale) SiO2 
 PCOD8003391
Probable space group: P -1
;
_chemical_formula_sum "Si O2"
_cell_formula_units_Z 14
_cell_length_a 16.822346
_cell_length_b 27.225914
_cell_length_c 16.151010
_cell_angle_alpha 160.167819
_cell_angle_beta 17.324042
_cell_angle_gamma 159.552341
_cell_volume 689.453207
_symmetry_space_group_name_H-M "P -1"
_symmetry_group_IT_number 2
_symmetry_cell_setting 'triclinic'
loop_
_space_group_symop_operation_xyz
x,y,z
-x,-y,-z
loop_
_atom_site_type_symbol
_atom_site_label
_atom_site_fract_x
_atom_site_fract_y
_atom_site_fract_z
Si Si1 0.126588 0.693746 0.398888
Si Si2 0.225392 0.961046 0.267579
Si Si3 0.295905 0.303460 0.448186
Si Si4 0.126822 0.639693 0.937134
Si Si5 0.237129 0.891867 0.759483
Si Si6 0.691976 0.782699 0.875498
Si Si7 0.183825 0.043857 0.616700
O O1 0.155454 0.744392 0.545915
O O2 0.915708 0.510462 0.315083
O O3 0.988754 0.792968 0.638768
O O4 0.440755 0.721128 0.094898
O O5 0.289284 0.072957 0.462827
O O6 0.109513 0.778072 0.116677
O O7 0.000000 0.000000 0.500000
O O8 0.500000 0.000000 0.000000
O O9 0.567021 0.302642 0.229363
O O10 0.381966 0.341334 0.325705
O O11 0.043147 0.132606 0.429620
O O12 0.143422 0.413399 0.813209
O O13 0.544149 0.926249 0.548765
O O14 0.986656 0.849318 0.011700
O O15 0.257706 0.043807 0.928240
#
# Coordination Sequence:
#
# PCOD8003391 Si02
#       7
#     2   2   2   2   2   2   2
#     4  12  24  35  54  81 117 156 187 229 267 314
#     4  11  21  38  65  88 105 131 178 235 284 341
#     4  10  20  37  56  79 116 149 185 233 273 323
#     4  11  23  38  55  84 117 144 177 226 298 338
#     4  11  21  38  57  79 116 154 194 222 256 320
#     4  11  21  35  55  81 110 154 204 230 253 301
#     4  10  20  37  61  84 108 143 183 231 278 321
#
# _framework density 20.305945999999999
#
# number of rings (size 3 to 8) (size 9 to 14) (size 15 to 20)
#    0.000    1.143    0.000   11.143    0.000    3.429 
#    0.000    0.000    0.000    5.143    0.000    0.000 
#    0.000    0.000    0.000    0.000    0.000    0.000 
#
# Total GULP energy -173591.230189 kJ/mol
# GULP energy per Si atom -12399.373585 kJ/mol
# Density = 2.025973 g / cm^3
# Si number density = 20.305946 Si / 1000 Ang^3
#
#
#
# Elastic Constant Matrix: (Units=GPa)
#
#
# Indices 1 2 3 4 5 6 
#
# 1 109.5936 54.7236 34.4360 -16.2406 9.8246 34.5233
# 2 54.7236 67.3266 50.5693 -8.6293 6.3015 19.4026
# 3 34.4360 50.5693 67.1588 -54.2074 12.7251 38.1604
# 4 -16.2406 -8.6293 -54.2074 17.5795 3.7992 16.1927
# 5 9.8246 6.3015 12.7251 3.7992 52.6077 -7.3658
# 6 34.5233 19.4026 38.1604 16.1927 -7.3658 23.9872
#
#
#
# Elastic Compliance Matrix: (Units=1/GPa)
#
#
# Indices 1 2 3 4 5 6 
#
# 1 0.014367 -0.007898 -0.005487 -0.006123 -0.000175 -0.001481
# 2 -0.007898 0.028979 -0.003693 0.007819 -0.003422 -0.012527
# 3 -0.005487 -0.003693 0.003204 -0.010701 0.003434 0.014066
# 4 -0.006123 0.007819 -0.010701 0.004175 0.005048 0.018243
# 5 -0.000175 -0.003422 0.003434 0.005048 0.018220 -0.000257
# 6 -0.001481 -0.012527 0.014066 0.018243 -0.000257 0.019182
#
#
# Mechanical properties :
#
#
# Convention : Reuss Voigt Hill
#
# Bulk Modulus (GPa) = 80.68631 58.17076 69.42853
# Shear Modulus (GPa) = 39.55226 25.79157 32.67191
#
# Velocity S-wave (km/s) = 4.41820 3.56778 4.01556
# Velocity P-wave (km/s) = 8.11473 6.75880 7.46761
#
# Compressibility (1/GPa) = 0.01239368
#
# Stress axis : x y z
#
# Youngs Moduli (GPa) = 69.60220 34.50764 312.11106
#
# Poissons Ratio (x) = 0.27254 1.71264
# Poissons Ratio (y) = 0.54972 1.15264
# Poissons Ratio (z) = 0.38193 0.12744
#
# Static dielectric constant tensor:
#      x y z
#    x 3.926120 0.135460 0.584760 
#    y 0.135460 3.475630 -0.162650 
#    z 0.584760 -0.162650 4.507750 
# 
# 
# High freq. dielectric constant tensor:
#      x y z
#    x 1.782330 0.026240 0.012960 
#    y 0.026240 1.772680 -0.020220 
#    z 0.012960 -0.020220 1.819660 
# 
# From -- ./inp_files/359092.got.cif
#   From: 2010.06.25/outbox.cif.g09.slc.cpg/sg2_180_cif.got.tgz:359092.got - 2010.06.27 13:26:56.
