data_PCOD8003768
_publ_section_title
;
Structure prediction by ZEFSAII (Michael W. Deem and Ramdas Pophale) SiO2 
 PCOD8003768
Probable space group: P -1
;
_chemical_formula_sum "Si O2"
_cell_formula_units_Z 10
_cell_length_a 13.218549
_cell_length_b 9.358492
_cell_length_c 8.580279
_cell_angle_alpha 44.147992
_cell_angle_beta 133.021766
_cell_angle_gamma 140.058257
_cell_volume 453.441273
_symmetry_space_group_name_H-M "P -1"
_symmetry_group_IT_number 2
_symmetry_cell_setting 'triclinic'
loop_
_space_group_symop_operation_xyz
x,y,z
-x,-y,-z
loop_
_atom_site_type_symbol
_atom_site_label
_atom_site_fract_x
_atom_site_fract_y
_atom_site_fract_z
Si Si1 0.850928 0.591561 0.882630
Si Si2 0.128561 0.033348 0.981393
Si Si3 0.674771 0.045341 0.184595
Si Si4 0.638464 0.775139 0.661472
Si Si5 0.728991 0.659927 0.389846
O O1 0.717852 0.622173 0.812551
O O2 0.840535 0.637013 0.653055
O O3 0.183123 0.674424 0.917160
O O4 0.039374 0.781076 0.987481
O O5 0.292922 0.096059 0.198290
O O6 0.174454 0.258568 0.737200
O O7 0.000000 0.000000 0.000000
O O8 0.685493 0.987052 0.421224
O O9 0.698237 0.871453 0.233629
O O10 0.500000 0.000000 0.000000
O O11 0.442652 0.597553 0.606194
#
# Coordination Sequence:
#
# PCOD8003768 Si02
#       5
#     2   2   2   2   2
#     4  10  20  38  61  85 114 146 185 236 282 332
#     4  10  23  39  56  83 120 151 182 235 287 324
#     4  11  19  36  63  87 111 143 192 236 274 331
#     4  10  20  37  61  86 112 147 188 231 282 338
#     4  11  20  37  63  85 108 152 195 223 276 344
#
# _framework density 22.053571000000002
#
# number of rings (size 3 to 8) (size 9 to 14) (size 15 to 20)
#    0.000    1.600    4.000    2.400    0.000    1.600 
#    0.000    5.000    0.000    0.000    0.000    0.000 
#    0.000    0.000    0.000    0.000    0.000    0.000 
#
# Total GULP energy -123996.900044 kJ/mol
# GULP energy per Si atom -12399.690004 kJ/mol
# Density = 2.200338 g / cm^3
# Si number density = 22.053571 Si / 1000 Ang^3
#
#
#
# Elastic Constant Matrix: (Units=GPa)
#
#
# Indices 1 2 3 4 5 6 
#
# 1 59.9112 38.8355 48.2334 -5.3038 -29.4368 16.8999
# 2 38.8355 115.5703 81.5710 -1.6534 -28.1325 -11.4947
# 3 48.2334 81.5710 131.6035 -1.6493 -42.7150 -16.2867
# 4 -5.3038 -1.6534 -1.6493 51.1751 -4.9736 -12.8510
# 5 -29.4368 -28.1325 -42.7150 -4.9736 42.4216 -8.3709
# 6 16.8999 -11.4947 -16.2867 -12.8510 -8.3709 23.0913
#
#
#
# Elastic Compliance Matrix: (Units=1/GPa)
#
#
# Indices 1 2 3 4 5 6 
#
# 1 0.082465 -0.014905 -0.044825 -0.026857 -0.025317 -0.123514
# 2 -0.014905 0.018257 -0.000012 0.006410 0.007703 0.026348
# 3 -0.044825 -0.000012 0.049499 0.025127 0.040707 0.096454
# 4 -0.026857 0.006410 0.025127 0.039053 0.029929 0.073153
# 5 -0.025317 0.007703 0.040707 0.029929 0.074291 0.094663
# 6 -0.123514 0.026348 0.096454 0.073153 0.094663 0.289878
#
#
# Mechanical properties :
#
#
# Convention : Reuss Voigt Hill
#
# Bulk Modulus (GPa) = 32.53407 71.59606 52.06507
# Shear Modulus (GPa) = 7.31880 32.56728 19.94304
#
# Velocity S-wave (km/s) = 1.82369 3.84700 3.01042
# Velocity P-wave (km/s) = 4.38392 7.22964 5.97856
#
# Compressibility (1/GPa) = 0.03073701
#
# Stress axis : x y z
#
# Youngs Moduli (GPa) = 12.12641 54.77244 20.20239
#
# Poissons Ratio (x) = 0.81636 0.90557
# Poissons Ratio (y) = 0.18074 0.00025
# Poissons Ratio (z) = 0.54357 0.00068
#
# Static dielectric constant tensor:
#      x y z
#    x 3.908100 -0.118150 -0.500980 
#    y -0.118150 4.548550 0.315660 
#    z -0.500980 0.315660 4.336510 
# 
# 
# High freq. dielectric constant tensor:
#      x y z
#    x 1.842290 0.014400 -0.025170 
#    y 0.014400 1.884570 0.009010 
#    z -0.025170 0.009010 1.870070 
# 
# From -- ./inp_files/144635.got.cif
#   From: 2010.06.25/outbox.cif.g09.slc.cpg/sg2_73_cif.got.tgz:144635.got - 2010.06.27 13:26:56.
