data_PCOD8003170
_publ_section_title
;
Structure prediction by ZEFSAII (Michael W. Deem and Ramdas Pophale) SiO2 
 PCOD8003170
Probable space group: P -1
;
_chemical_formula_sum "Si O2"
_cell_formula_units_Z 16
_cell_length_a 9.333814
_cell_length_b 22.597115
_cell_length_c 9.013456
_cell_angle_alpha 142.604710
_cell_angle_beta 137.647708
_cell_angle_gamma 41.889699
_cell_volume 718.017684
_symmetry_space_group_name_H-M "P -1"
_symmetry_group_IT_number 2
_symmetry_cell_setting 'triclinic'
loop_
_space_group_symop_operation_xyz
x,y,z
-x,-y,-z
loop_
_atom_site_type_symbol
_atom_site_label
_atom_site_fract_x
_atom_site_fract_y
_atom_site_fract_z
Si Si1 0.397334 0.739761 0.842681
Si Si2 0.357069 0.611835 0.826468
Si Si3 0.254185 0.931415 0.320247
Si Si4 0.066911 0.812747 0.170207
Si Si5 0.699701 0.538554 0.181588
Si Si6 0.216530 0.414159 0.350472
Si Si7 0.442166 0.054360 0.907578
Si Si8 0.838088 0.131845 0.333053
O O1 0.357956 0.653081 0.743207
O O2 0.639849 0.687965 0.839318
O O3 0.188946 0.782697 0.648211
O O4 0.400800 0.837213 0.136853
O O5 0.301426 0.508244 0.563912
O O6 0.155945 0.696466 0.938474
O O7 0.602835 0.595959 0.064170
O O8 0.104741 0.895693 0.252196
O O9 0.437596 0.965775 0.612713
O O10 0.077024 0.032149 0.297460
O O11 0.196382 0.811930 0.421848
O O12 0.799655 0.846727 0.069782
O O13 0.736788 0.611172 0.487264
O O14 0.949214 0.444042 0.162074
O O15 0.500000 0.500000 0.000000
O O16 0.629529 0.094923 0.071110
O O17 0.500000 0.000000 0.000000
#
# Coordination Sequence:
#
# PCOD8003170 Si02
#       8
#     2   2   2   2   2   2   2   2
#     4  11  24  39  59  90 131 167 200 246 316 370
#     4  10  22  40  60  91 126 162 204 251 301 369
#     4  10  21  40  58  89 122 158 204 254 306 368
#     4  10  20  36  63  91 115 155 211 255 304 354
#     4   9  20  40  67  86 116 152 208 262 297 346
#     4  10  21  42  66  91 118 163 207 252 307 360
#     4  11  19  36  64  88 115 156 211 259 299 356
#     4  11  21  38  62  86 125 163 201 257 307 359
#
# _framework density 22.283574999999999
#
# number of rings (size 3 to 8) (size 9 to 14) (size 15 to 20)
#    0.000    1.750    2.500    2.250    0.000    5.000 
#    0.000    6.250    0.000    0.000    0.000    0.000 
#    0.000    0.000    0.000    0.000    0.000    0.000 
#
# Total GULP energy -198367.828768 kJ/mol
# GULP energy per Si atom -12397.989298 kJ/mol
# Density = 2.223286 g / cm^3
# Si number density = 22.283575 Si / 1000 Ang^3
#
#
#
# Elastic Constant Matrix: (Units=GPa)
#
#
# Indices 1 2 3 4 5 6 
#
# 1 77.4761 50.9578 44.4639 -8.2324 -19.6835 -0.7621
# 2 50.9578 123.6526 51.8603 -17.4505 -17.5021 -0.4255
# 3 44.4639 51.8603 92.0309 -15.6288 -10.3495 -13.0295
# 4 -8.2324 -17.4505 -15.6288 34.9504 -6.0554 -15.2101
# 5 -19.6835 -17.5021 -10.3495 -6.0554 35.4736 0.7901
# 6 -0.7621 -0.4255 -13.0295 -15.2101 0.7901 51.1905
#
#
#
# Elastic Compliance Matrix: (Units=1/GPa)
#
#
# Indices 1 2 3 4 5 6 
#
# 1 0.022423 -0.005043 -0.007315 0.000140 0.007880 -0.001650
# 2 -0.005043 0.012725 -0.003618 0.004231 0.003140 0.000318
# 3 -0.007315 -0.003618 0.018938 0.008189 0.000921 0.007100
# 4 0.000140 0.004231 0.008189 0.042797 0.011533 0.014660
# 5 0.007880 0.003140 0.000921 0.011533 0.036277 0.003245
# 6 -0.001650 0.000318 0.007100 0.014660 0.003245 0.025626
#
#
# Mechanical properties :
#
#
# Convention : Reuss Voigt Hill
#
# Bulk Modulus (GPa) = 45.17877 65.30261 55.24069
# Shear Modulus (GPa) = 25.23762 34.04807 29.64284
#
# Velocity S-wave (km/s) = 3.36901 3.91313 3.65122
# Velocity P-wave (km/s) = 5.95417 7.05590 6.52832
#
# Compressibility (1/GPa) = 0.02213429
#
# Stress axis : x y z
#
# Youngs Moduli (GPa) = 44.59661 78.58371 52.80302
#
# Poissons Ratio (x) = 0.39631 0.38628
# Poissons Ratio (y) = 0.22491 0.19102
# Poissons Ratio (z) = 0.32624 0.28429
#
# Static dielectric constant tensor:
#      x y z
#    x 4.083550 0.194810 -0.235800 
#    y 0.194810 4.411560 -0.301440 
#    z -0.235800 -0.301440 4.103710 
# 
# 
# High freq. dielectric constant tensor:
#      x y z
#    x 1.867200 0.002710 -0.017120 
#    y 0.002710 1.888730 -0.005920 
#    z -0.017120 -0.005920 1.870990 
# 
# From -- ./inp_files/47505.got.cif
#   From: 2010.06.25/outbox.cif.g09.slc.cpg/sg2_24_cif.got.tgz:47505.got - 2010.06.27 13:26:56.
