data_PCOD8003750
_publ_section_title
;
Structure prediction by ZEFSAII (Michael W. Deem and Ramdas Pophale) SiO2 
 PCOD8003750
Probable space group: P -1
;
_chemical_formula_sum "Si O2"
_cell_formula_units_Z 16
_cell_length_a 6.266891
_cell_length_b 20.814529
_cell_length_c 9.227237
_cell_angle_alpha 133.061894
_cell_angle_beta 54.031642
_cell_angle_gamma 119.348432
_cell_volume 703.599577
_symmetry_space_group_name_H-M "P -1"
_symmetry_group_IT_number 2
_symmetry_cell_setting 'triclinic'
loop_
_space_group_symop_operation_xyz
x,y,z
-x,-y,-z
loop_
_atom_site_type_symbol
_atom_site_label
_atom_site_fract_x
_atom_site_fract_y
_atom_site_fract_z
Si Si1 0.173972 0.392668 0.260073
Si Si2 0.431446 0.063232 0.956497
Si Si3 0.702667 0.893847 0.238338
Si Si4 0.860389 0.219082 0.044607
Si Si5 0.851832 0.199676 0.689777
Si Si6 0.860146 0.955831 0.677386
Si Si7 0.015730 0.514085 0.264267
Si Si8 0.742346 0.378876 0.927507
O O1 0.183319 0.432634 0.481223
O O2 0.173127 0.467817 0.252642
O O3 0.905130 0.318527 0.246578
O O4 0.434647 0.348754 0.048176
O O5 0.197909 0.026065 0.102983
O O6 0.295137 0.092183 0.912849
O O7 0.615825 0.147976 0.093726
O O8 0.616287 0.986273 0.730003
O O9 0.859700 0.814205 0.091645
O O10 0.400085 0.868699 0.378643
O O11 0.861145 0.983269 0.387645
O O12 0.790035 0.228480 0.919589
O O13 0.894221 0.291763 0.725163
O O14 0.109404 0.148134 0.512417
O O15 0.224055 0.579368 0.182646
O O16 0.854845 0.446102 0.112678
#
# Coordination Sequence:
#
# PCOD8003750 Si02
#       8
#     2   2   2   2   2   2   2   2
#     4  11  21  43  66  92 127 167 204 256 320 372
#     4   9  21  39  57  86 121 159 203 258 301 365
#     4  10  20  37  61  82 117 161 202 248 305 364
#     4  10  21  38  58  86 124 158 204 253 305 372
#     4  11  22  37  58  89 122 160 204 257 308 365
#     4  10  21  38  58  87 120 159 204 254 307 361
#     4  10  24  41  67  95 123 164 209 256 316 379
#     4  11  22  43  63  95 128 161 210 261 309 377
#
# _framework density 22.740209
#
# number of rings (size 3 to 8) (size 9 to 14) (size 15 to 20)
#    0.000    1.750    2.500    1.500    0.000    6.500 
#    2.250    1.250    0.000    0.000    0.000    0.000 
#    0.000    0.000    0.000    0.000    0.000    0.000 
#
# Total GULP energy -198248.085095 kJ/mol
# GULP energy per Si atom -12390.505318 kJ/mol
# Density = 2.268845 g / cm^3
# Si number density = 22.740209 Si / 1000 Ang^3
#
#
#
# Elastic Constant Matrix: (Units=GPa)
#
#
# Indices 1 2 3 4 5 6 
#
# 1 51.5333 16.5028 16.4392 2.1404 6.7857 -3.3243
# 2 16.5028 92.8879 42.9552 14.6299 -3.7781 -6.5257
# 3 16.4392 42.9552 92.4637 7.8699 -0.7079 0.4593
# 4 2.1404 14.6299 7.8699 36.8569 -5.5331 0.8320
# 5 6.7857 -3.7781 -0.7079 -5.5331 25.2427 -2.3132
# 6 -3.3243 -6.5257 0.4593 0.8320 -2.3132 31.2225
#
#
#
# Elastic Compliance Matrix: (Units=1/GPa)
#
#
# Indices 1 2 3 4 5 6 
#
# 1 0.022097 -0.002773 -0.002644 -0.000615 -0.006440 0.001351
# 2 -0.002773 0.015091 -0.006154 -0.004258 0.002194 0.003225
# 3 -0.002644 -0.006154 0.014187 -0.000402 -0.000063 -0.001770
# 4 -0.000615 -0.004258 -0.000402 0.029866 0.005944 -0.001305
# 5 -0.006440 0.002194 -0.000063 0.005944 0.043234 0.002819
# 6 0.001351 0.003225 -0.001770 -0.001305 0.002819 0.033116
#
#
# Mechanical properties :
#
#
# Convention : Reuss Voigt Hill
#
# Bulk Modulus (GPa) = 35.42130 43.18660 39.30395
# Shear Modulus (GPa) = 26.29574 29.39692 27.84633
#
# Velocity S-wave (km/s) = 3.40421 3.59935 3.50314
# Velocity P-wave (km/s) = 5.57332 6.02547 5.80380
#
# Compressibility (1/GPa) = 0.02823160
#
# Stress axis : x y z
#
# Youngs Moduli (GPa) = 45.25453 66.26475 70.48814
#
# Poissons Ratio (x) = 0.18378 0.18637
# Poissons Ratio (y) = 0.12551 0.43381
# Poissons Ratio (z) = 0.11965 0.40782
#
# Static dielectric constant tensor:
#      x y z
#    x 4.030780 -0.017520 -0.017000 
#    y -0.017520 4.286380 0.096650 
#    z -0.017000 0.096650 3.813910 
# 
# 
# High freq. dielectric constant tensor:
#      x y z
#    x 1.895480 -0.010840 0.001500 
#    y -0.010840 1.907900 0.007910 
#    z 0.001500 0.007910 1.872700 
# 
# From -- ./inp_files/141571.got.cif
#   From: 2010.06.25/outbox.cif.g09.slc.cpg/sg2_71_cif.got.tgz:141571.got - 2010.06.27 13:26:56.
