data_PCOD8003726
_publ_section_title
;
Structure prediction by ZEFSAII (Michael W. Deem and Ramdas Pophale) SiO2 
 PCOD8003726
Probable space group: P -1
;
_chemical_formula_sum "Si O2"
_cell_formula_units_Z 16
_cell_length_a 20.459637
_cell_length_b 17.207411
_cell_length_c 14.832279
_cell_angle_alpha 143.180308
_cell_angle_beta 152.575557
_cell_angle_gamma 19.071547
_cell_volume 759.872500
_symmetry_space_group_name_H-M "P -1"
_symmetry_group_IT_number 2
_symmetry_cell_setting 'triclinic'
loop_
_space_group_symop_operation_xyz
x,y,z
-x,-y,-z
loop_
_atom_site_type_symbol
_atom_site_label
_atom_site_fract_x
_atom_site_fract_y
_atom_site_fract_z
Si Si1 0.320422 0.364828 0.222224
Si Si2 0.549110 0.865782 0.305557
Si Si3 0.338231 0.631827 0.064771
Si Si4 0.705441 0.875558 0.944538
Si Si5 0.379161 0.352782 0.077960
Si Si6 0.972757 0.366871 0.254918
Si Si7 0.247804 0.859148 0.991355
Si Si8 0.632724 0.349613 0.683258
O O1 0.431198 0.146810 0.200973
O O2 0.333844 0.332993 0.102718
O O3 0.499862 0.344563 0.454586
O O4 0.016720 0.631474 0.125719
O O5 0.782973 0.614840 0.303056
O O6 0.709309 0.847886 0.545063
O O7 0.344058 0.090639 0.192383
O O8 0.389374 0.889903 0.196381
O O9 0.596293 0.356256 0.085868
O O10 0.421935 0.636980 0.265243
O O11 0.090228 0.727523 0.871605
O O12 0.238246 0.814120 0.039806
O O13 0.594112 0.095250 0.052498
O O14 0.490980 0.413518 0.273122
O O15 0.098022 0.571705 0.881122
O O16 0.947204 0.104881 0.814948
#
# Coordination Sequence:
#
# PCOD8003726 Si02
#       8
#     2   2   2   2   2   2   2   2
#     4  11  24  41  60  90 120 162 209 254 299 360
#     4   9  17  35  60  88 116 157 198 246 302 358
#     4   9  20  38  58  88 129 161 196 250 313 359
#     4  10  23  42  61  84 128 159 202 258 302 360
#     4  10  21  41  63  88 118 164 203 250 306 364
#     4   8  17  34  61  88 117 153 200 244 301 364
#     4  10  20  37  60  91 125 161 203 252 300 372
#     4  11  23  38  62  91 122 158 208 256 303 359
#
# _framework density 21.056163000000002
#
# number of rings (size 3 to 8) (size 9 to 14) (size 15 to 20)
#    0.000    2.250    0.000    2.625    1.750    1.500 
#    6.750    3.125    0.000    0.000    0.000    0.000 
#    0.000    0.000    0.000    0.000    0.000    0.000 
#
# Total GULP energy -198401.021082 kJ/mol
# GULP energy per Si atom -12400.063818 kJ/mol
# Density = 2.100824 g / cm^3
# Si number density = 21.056163 Si / 1000 Ang^3
#
#
#
# Elastic Constant Matrix: (Units=GPa)
#
#
# Indices 1 2 3 4 5 6 
#
# 1 129.4172 12.3752 45.5227 -5.2942 3.7991 22.5037
# 2 12.3752 73.8228 27.3649 -3.7743 9.2241 13.6629
# 3 45.5227 27.3649 120.0222 -4.1690 10.2157 3.0867
# 4 -5.2942 -3.7743 -4.1690 18.2342 -0.9780 1.0558
# 5 3.7991 9.2241 10.2157 -0.9780 25.7285 4.4520
# 6 22.5037 13.6629 3.0867 1.0558 4.4520 29.8824
#
#
#
# Elastic Compliance Matrix: (Units=1/GPa)
#
#
# Indices 1 2 3 4 5 6 
#
# 1 0.010596 0.001309 -0.004097 0.002962 0.001165 -0.008433
# 2 0.001309 0.016737 -0.003721 0.003277 -0.003227 -0.007889
# 3 -0.004097 -0.003721 0.010896 0.000127 -0.003095 0.004118
# 4 0.002962 0.003277 0.000127 0.056838 0.001532 -0.005978
# 5 0.001165 -0.003227 -0.003095 0.001532 0.042075 -0.005405
# 6 -0.008433 -0.007889 0.004118 -0.005978 -0.005405 0.044013
#
#
# Mechanical properties :
#
#
# Convention : Reuss Voigt Hill
#
# Bulk Modulus (GPa) = 39.66507 54.86532 47.26520
# Shear Modulus (GPa) = 24.68213 30.63564 27.65888
#
# Velocity S-wave (km/s) = 3.42746 3.81852 3.62826
# Velocity P-wave (km/s) = 5.87724 6.74942 6.32837
#
# Compressibility (1/GPa) = 0.02521110
#
# Stress axis : x y z
#
# Youngs Moduli (GPa) = 94.37346 59.74926 91.77684
#
# Poissons Ratio (x) = -0.07821 0.37599
# Poissons Ratio (y) = -0.12354 0.34151
# Poissons Ratio (z) = 0.38663 0.22233
#
# Static dielectric constant tensor:
#      x y z
#    x 3.927120 0.131400 -0.047900 
#    y 0.131400 3.846980 0.068390 
#    z -0.047900 0.068390 3.823040 
# 
# 
# High freq. dielectric constant tensor:
#      x y z
#    x 1.832560 0.001110 -0.003940 
#    y 0.001110 1.833930 0.007460 
#    z -0.003940 0.007460 1.811870 
# 
# From -- ./inp_files/541540.got.cif
#   From: 2010.06.25/outbox.cif.g09.slc.cpg/sg2_271_cif.got.tgz:541540.got - 2010.06.27 13:26:56.
