data_PCOD8003424
_publ_section_title
;
Structure prediction by ZEFSAII (Michael W. Deem and Ramdas Pophale) SiO2 
 PCOD8003424
Probable space group: P -1
;
_chemical_formula_sum "Si O2"
_cell_formula_units_Z 16
_cell_length_a 15.938478
_cell_length_b 6.553081
_cell_length_c 11.575692
_cell_angle_alpha 125.228014
_cell_angle_beta 110.475164
_cell_angle_gamma 94.477821
_cell_volume 861.137790
_symmetry_space_group_name_H-M "P -1"
_symmetry_group_IT_number 2
_symmetry_cell_setting 'triclinic'
loop_
_space_group_symop_operation_xyz
x,y,z
-x,-y,-z
loop_
_atom_site_type_symbol
_atom_site_label
_atom_site_fract_x
_atom_site_fract_y
_atom_site_fract_z
Si Si1 0.772154 0.702851 0.024155
Si Si2 0.758609 0.120774 0.793857
Si Si3 0.610424 0.396367 0.231041
Si Si4 0.609506 0.543560 0.540693
Si Si5 0.277690 0.150580 0.723646
Si Si6 0.595937 0.809579 0.005411
Si Si7 0.757626 0.316874 0.609518
Si Si8 0.886564 0.885974 0.911895
O O1 0.747780 0.387093 0.925243
O O2 0.675323 0.743025 0.944807
O O3 0.855149 0.847592 0.019246
O O4 0.797900 0.831204 0.208081
O O5 0.771408 0.152327 0.672442
O O6 0.664478 0.860589 0.688242
O O7 0.850492 0.091496 0.891703
O O8 0.622273 0.437573 0.386232
O O9 0.701623 0.628761 0.294483
O O10 0.507268 0.406514 0.149097
O O11 0.609257 0.116490 0.088953
O O12 0.500000 0.500000 0.500000
O O13 0.658100 0.378644 0.591622
O O14 0.237988 0.851666 0.556169
O O15 0.381586 0.214158 0.855984
O O16 0.846193 0.599230 0.734588
O O17 0.000000 0.000000 0.000000
#
# Coordination Sequence:
#
# PCOD8003424 Si02
#       8
#     2   2   2   2   2   2   2   2
#     4   9  22  36  61  87 114 149 198 242 289 346
#     4  10  22  39  60  84 117 156 191 239 304 343
#     4  11  20  34  54  80 118 172 195 241 281 322
#     4  11  23  32  54  84 123 160 205 237 277 341
#     4  10  20  37  57  80 118 153 199 238 283 343
#     4   9  22  34  52  82 119 155 210 234 276 335
#     4  10  21  41  57  88 115 160 193 241 299 346
#     4  10  23  43  66  89 114 145 191 248 311 363
#
# _framework density 18.580069999999999
#
# number of rings (size 3 to 8) (size 9 to 14) (size 15 to 20)
#    0.750    1.250    2.500    0.375    7.000    4.500 
#    0.000    0.625    0.000    1.500    0.000    0.000 
#    0.000    0.000    0.000    0.000    0.000    0.000 
#
# Total GULP energy -198250.103142 kJ/mol
# GULP energy per Si atom -12390.631446 kJ/mol
# Density = 1.853778 g / cm^3
# Si number density = 18.580070 Si / 1000 Ang^3
#
#
#
# Elastic Constant Matrix: (Units=GPa)
#
#
# Indices 1 2 3 4 5 6 
#
# 1 120.6985 55.0232 58.6300 7.1368 3.9939 0.2022
# 2 55.0232 102.1738 38.9349 3.4508 -1.0631 -3.4795
# 3 58.6300 38.9349 93.0041 7.2766 -10.9407 -4.2790
# 4 7.1368 3.4508 7.2766 26.8053 -2.7509 -4.7278
# 5 3.9939 -1.0631 -10.9407 -2.7509 33.1014 -3.3917
# 6 0.2022 -3.4795 -4.2790 -4.7278 -3.3917 21.9911
#
#
#
# Elastic Compliance Matrix: (Units=1/GPa)
#
#
# Indices 1 2 3 4 5 6 
#
# 1 0.014636 -0.005050 -0.007694 -0.002330 -0.005045 -0.003710
# 2 -0.005050 0.013451 -0.002348 0.000645 0.000517 0.001936
# 3 -0.007694 -0.002348 0.017676 -0.001021 0.007020 0.004002
# 4 -0.002330 0.000645 -0.001021 0.040183 0.004248 0.009219
# 5 -0.005045 0.000517 0.007020 0.004248 0.034298 0.007697
# 6 -0.003710 0.001936 0.004002 0.009219 0.007697 0.049761
#
#
# Mechanical properties :
#
#
# Convention : Reuss Voigt Hill
#
# Bulk Modulus (GPa) = 64.19379 69.00585 66.59982
# Shear Modulus (GPa) = 24.34511 27.26544 25.80527
#
# Velocity S-wave (km/s) = 3.62371 3.83489 3.73080
# Velocity P-wave (km/s) = 7.22033 7.53849 7.38113
#
# Compressibility (1/GPa) = 0.01557783
#
# Stress axis : x y z
#
# Youngs Moduli (GPa) = 68.32686 74.34360 56.57544
#
# Poissons Ratio (x) = 0.37542 0.43530
# Poissons Ratio (y) = 0.34504 0.13285
# Poissons Ratio (z) = 0.52571 0.17458
#
# Static dielectric constant tensor:
#      x y z
#    x 3.057440 -0.158460 -0.127290 
#    y -0.158460 3.490480 -0.051770 
#    z -0.127290 -0.051770 3.475010 
# 
# 
# High freq. dielectric constant tensor:
#      x y z
#    x 1.683800 -0.008990 -0.016020 
#    y -0.008990 1.730650 -0.000350 
#    z -0.016020 -0.000350 1.725820 
# 
# From -- ./inp_files/441438.got.cif
#   From: 2010.06.25/outbox.cif.g09.slc.cpg/sg2_221_cif.got.tgz:441438.got - 2010.06.27 13:26:56.
