data_PCOD8003976
_publ_section_title
;
Structure prediction by ZEFSAII (Michael W. Deem and Ramdas Pophale) SiO2 
 PCOD8003976
Probable space group: P -1
;
_chemical_formula_sum "Si O2"
_cell_formula_units_Z 12
_cell_length_a 8.211110
_cell_length_b 12.059428
_cell_length_c 7.157594
_cell_angle_alpha 58.326757
_cell_angle_beta 98.012207
_cell_angle_gamma 61.108601
_cell_volume 448.655127
_symmetry_space_group_name_H-M "P -1"
_symmetry_group_IT_number 2
_symmetry_cell_setting 'triclinic'
loop_
_space_group_symop_operation_xyz
x,y,z
-x,-y,-z
loop_
_atom_site_type_symbol
_atom_site_label
_atom_site_fract_x
_atom_site_fract_y
_atom_site_fract_z
Si Si1 0.444705 0.224448 0.358801
Si Si2 0.589020 0.217041 0.985923
Si Si3 0.974004 0.843845 0.432665
Si Si4 0.838228 0.702651 0.278612
Si Si5 0.470861 0.553387 0.734625
Si Si6 0.170517 0.159955 0.208864
O O1 0.560200 0.223075 0.196734
O O2 0.402654 0.374680 0.351270
O O3 0.223366 0.268465 0.227319
O O4 0.612405 0.033421 0.643881
O O5 0.838213 0.036617 0.151718
O O6 0.410574 0.217055 0.858319
O O7 0.558840 0.385658 0.770536
O O8 0.845187 0.780480 0.402784
O O9 0.981136 0.839824 0.667533
O O10 0.217133 0.716732 0.503148
O O11 0.000000 0.500000 0.500000
O O12 0.933204 0.745743 0.088662
O O13 0.500000 0.500000 0.000000
#
# Coordination Sequence:
#
# PCOD8003976 Si02
#       6
#     2   2   2   2   2   2
#     4   8  17  36  60  89 130 155 199 265 298 354
#     4   9  19  36  59  93 120 160 209 244 304 371
#     4  11  22  39  71  88 120 172 202 249 317 358
#     4  11  21  39  63  93 130 156 204 268 301 357
#     4  10  20  37  62  94 128 161 202 256 306 368
#     4   9  20  38  64  95 116 161 214 248 304 370
#
# _framework density 26.746601999999999
#
# number of rings (size 3 to 8) (size 9 to 14) (size 15 to 20)
#    0.000    2.333    1.667    1.500    0.000    6.667 
#    0.000    0.833    0.000    9.000    0.000    0.000 
#    0.000    0.000    0.000    0.000    0.000    0.000 
#
# Total GULP energy -148681.019897 kJ/mol
# GULP energy per Si atom -12390.084991 kJ/mol
# Density = 2.668573 g / cm^3
# Si number density = 26.746602 Si / 1000 Ang^3
#
#
#
# Elastic Constant Matrix: (Units=GPa)
#
#
# Indices 1 2 3 4 5 6 
#
# 1 36.5791 13.4186 15.4255 -13.3038 -1.1421 14.0626
# 2 13.4186 89.6312 26.2231 -23.1681 0.7036 18.7920
# 3 15.4255 26.2231 121.7701 -26.0218 3.1697 -6.5534
# 4 -13.3038 -23.1681 -26.0218 47.3983 -2.0483 -5.1095
# 5 -1.1421 0.7036 3.1697 -2.0483 33.9414 -4.8307
# 6 14.0626 18.7920 -6.5534 -5.1095 -4.8307 42.8734
#
#
#
# Elastic Compliance Matrix: (Units=1/GPa)
#
#
# Indices 1 2 3 4 5 6 
#
# 1 0.035787 -0.000153 -0.003683 0.006734 0.000336 -0.011394
# 2 -0.000153 0.014454 -0.002324 0.005059 -0.000652 -0.006111
# 3 -0.003683 -0.002324 0.010247 0.003904 -0.000194 0.004236
# 4 0.006734 0.005059 0.003904 0.027622 0.001370 -0.000383
# 5 0.000336 -0.000652 -0.000194 0.001370 0.030115 0.003702
# 6 -0.011394 -0.006111 0.004236 -0.000383 0.003702 0.030759
#
#
# Mechanical properties :
#
#
# Convention : Reuss Voigt Hill
#
# Bulk Modulus (GPa) = 20.76131 39.79054 30.27593
# Shear Modulus (GPa) = 28.19118 37.70350 32.94734
#
# Velocity S-wave (km/s) = 3.25007 3.75861 3.51356
# Velocity P-wave (km/s) = 4.67579 5.80908 5.27297
#
# Compressibility (1/GPa) = 0.04816651
#
# Stress axis : x y z
#
# Youngs Moduli (GPa) = 27.94276 69.18656 97.59381
#
# Poissons Ratio (x) = 0.01060 0.35947
# Poissons Ratio (y) = 0.00428 0.22680
# Poissons Ratio (z) = 0.10292 0.16079
#
# Static dielectric constant tensor:
#      x y z
#    x 4.674460 0.799610 -0.275710 
#    y 0.799610 5.379460 -0.345830 
#    z -0.275710 -0.345830 5.152100 
# 
# 
# High freq. dielectric constant tensor:
#      x y z
#    x 2.045030 0.029160 -0.007210 
#    y 0.029160 2.069240 -0.010880 
#    z -0.007210 -0.010880 2.079800 
# 
# From -- ./inp_files/185198.got.cif
#   From: 2010.06.25/outbox.cif.g09.slc.cpg/sg2_93_cif.got.tgz:185198.got - 2010.06.27 13:26:56.
