data_PCOD8003506
_publ_section_title
;
Structure prediction by ZEFSAII (Michael W. Deem and Ramdas Pophale) SiO2 
 PCOD8003506
Probable space group: P -1
;
_chemical_formula_sum "Si O2"
_cell_formula_units_Z 16
_cell_length_a 8.603434
_cell_length_b 16.304685
_cell_length_c 16.154247
_cell_angle_alpha 34.759975
_cell_angle_beta 119.145151
_cell_angle_gamma 92.890826
_cell_volume 803.353650
_symmetry_space_group_name_H-M "P -1"
_symmetry_group_IT_number 2
_symmetry_cell_setting 'triclinic'
loop_
_space_group_symop_operation_xyz
x,y,z
-x,-y,-z
loop_
_atom_site_type_symbol
_atom_site_label
_atom_site_fract_x
_atom_site_fract_y
_atom_site_fract_z
Si Si1 0.748970 0.726084 0.258451
Si Si2 0.712224 0.979305 0.533497
Si Si3 0.632685 0.354578 0.232113
Si Si4 0.796315 0.941585 0.393377
Si Si5 0.262347 0.774759 0.255996
Si Si6 0.454050 0.614088 0.266954
Si Si7 0.253045 0.703355 0.964706
Si Si8 0.532598 0.906958 0.219018
O O1 0.525183 0.740437 0.173423
O O2 0.734094 0.803259 0.282364
O O3 0.000000 0.500000 0.500000
O O4 0.718866 0.867646 0.064278
O O5 0.630382 0.185692 0.362884
O O6 0.500000 0.000000 0.500000
O O7 0.735755 0.943699 0.471125
O O8 0.983878 0.789596 0.800199
O O9 0.915568 0.251596 0.393949
O O10 0.500000 0.500000 0.000000
O O11 0.481153 0.483552 0.167669
O O12 0.634359 0.921689 0.315700
O O13 0.723328 0.146608 0.184718
O O14 0.290652 0.683536 0.249487
O O15 0.301206 0.629676 0.457129
O O16 0.473298 0.774562 0.330633
O O17 0.000000 0.000000 0.000000
O O18 0.283403 0.671136 0.097557
#
# Coordination Sequence:
#
# PCOD8003506 Si02
#       8
#     2   2   2   2   2   2   2   2
#     4  10  20  37  58  88 119 154 201 247 293 356
#     4  11  25  43  63  94 131 159 203 268 312 366
#     4  11  21  42  67  89 120 173 205 251 317 368
#     4  11  22  40  65  92 130 159 211 262 307 369
#     4  10  22  41  59  85 131 162 194 253 309 361
#     4  10  22  38  60  90 119 161 204 243 302 365
#     4  11  22  42  66  94 125 164 214 253 306 383
#     4  10  22  36  59  90 118 155 204 249 298 359
#
# _framework density 19.916509000000001
#
# number of rings (size 3 to 8) (size 9 to 14) (size 15 to 20)
#    0.000    1.500    3.750    1.500    1.750    4.500 
#    2.250    0.000    0.000    0.000    0.000    0.000 
#    0.000    0.000    0.000    0.000    0.000    0.000 
#
# Total GULP energy -198398.754021 kJ/mol
# GULP energy per Si atom -12399.922126 kJ/mol
# Density = 1.987118 g / cm^3
# Si number density = 19.916509 Si / 1000 Ang^3
#
#
#
# Elastic Constant Matrix: (Units=GPa)
#
#
# Indices 1 2 3 4 5 6 
#
# 1 78.2887 43.0806 26.8248 6.9711 1.3238 -6.5671
# 2 43.0806 144.0368 60.7262 17.3036 9.8206 -9.5774
# 3 26.8248 60.7262 116.5523 -3.7557 4.1179 -17.2194
# 4 6.9711 17.3036 -3.7557 41.8279 -4.8584 -1.9487
# 5 1.3238 9.8206 4.1179 -4.8584 30.7628 -3.4663
# 6 -6.5671 -9.5774 -17.2194 -1.9487 -3.4663 24.1588
#
#
#
# Elastic Compliance Matrix: (Units=1/GPa)
#
#
# Indices 1 2 3 4 5 6 
#
# 1 0.015613 -0.003932 -0.001341 -0.000919 0.000818 0.001772
# 2 -0.003932 0.010975 -0.005019 -0.004804 -0.003556 -0.001193
# 3 -0.001341 -0.005019 0.012640 0.003931 0.001397 0.007173
# 4 -0.000919 -0.004804 0.003931 0.027241 0.005763 0.003672
# 5 0.000818 -0.003556 0.001397 0.005763 0.034925 0.005284
# 6 0.001772 -0.001193 0.007173 0.003672 0.005284 0.047569
#
#
# Mechanical properties :
#
#
# Convention : Reuss Voigt Hill
#
# Bulk Modulus (GPa) = 53.63471 66.68235 60.15853
# Shear Modulus (GPa) = 28.44758 33.23297 30.84027
#
# Velocity S-wave (km/s) = 3.78344 4.08930 3.93934
# Velocity P-wave (km/s) = 6.78779 7.47329 7.13878
#
# Compressibility (1/GPa) = 0.01864464
#
# Stress axis : x y z
#
# Youngs Moduli (GPa) = 64.04880 91.11871 79.11152
#
# Poissons Ratio (x) = 0.35826 0.10613
# Poissons Ratio (y) = 0.25182 0.39702
# Poissons Ratio (z) = 0.08592 0.45728
#
# Static dielectric constant tensor:
#      x y z
#    x 3.655690 0.034110 -0.103220 
#    y 0.034110 3.842800 -0.223320 
#    z -0.103220 -0.223320 3.882430 
# 
# 
# High freq. dielectric constant tensor:
#      x y z
#    x 1.762210 -0.000290 -0.006180 
#    y -0.000290 1.785250 -0.008070 
#    z -0.006180 -0.008070 1.788290 
# 
# From -- ./inp_files/82436.got.cif
#   From: 2010.06.25/outbox.cif.g09.slc.cpg/sg2_42_cif.got.tgz:82436.got - 2010.06.27 13:26:56.
