data_PCOD8003184
_publ_section_title
;
Structure prediction by ZEFSAII (Michael W. Deem and Ramdas Pophale) SiO2 
 PCOD8003184
Probable space group: P -1
;
_chemical_formula_sum "Si O2"
_cell_formula_units_Z 16
_cell_length_a 14.146010
_cell_length_b 11.358941
_cell_length_c 8.991675
_cell_angle_alpha 106.596892
_cell_angle_beta 142.529718
_cell_angle_gamma 90.990762
_cell_volume 765.019340
_symmetry_space_group_name_H-M "P -1"
_symmetry_group_IT_number 2
_symmetry_cell_setting 'triclinic'
loop_
_space_group_symop_operation_xyz
x,y,z
-x,-y,-z
loop_
_atom_site_type_symbol
_atom_site_label
_atom_site_fract_x
_atom_site_fract_y
_atom_site_fract_z
Si Si1 0.121139 0.009879 0.792256
Si Si2 0.547370 0.488866 0.813452
Si Si3 0.778813 0.732928 0.807394
Si Si4 0.900918 0.602163 0.137954
Si Si5 0.866765 0.795516 0.614838
Si Si6 0.233767 0.797110 0.795919
Si Si7 0.044915 0.611762 0.723294
Si Si8 0.512133 0.319191 0.989060
O O1 0.260867 0.953308 0.894496
O O2 0.012452 0.922112 0.763750
O O3 0.000000 0.000000 0.500000
O O4 0.223105 0.162863 0.030150
O O5 0.415150 0.375655 0.499548
O O6 0.590549 0.415994 0.980710
O O7 0.721874 0.580012 0.982749
O O8 0.461095 0.587433 0.798387
O O9 0.866262 0.817400 0.799366
O O10 0.892356 0.655004 0.980156
O O11 0.919334 0.458817 0.109789
O O12 0.054754 0.717974 0.458948
O O13 0.687025 0.776350 0.314261
O O14 0.890961 0.656356 0.573931
O O15 0.212084 0.740458 0.919074
O O16 0.388467 0.777521 0.900665
O O17 0.000000 0.500000 0.500000
#
# Coordination Sequence:
#
# PCOD8003184 Si02
#       8
#     2   2   2   2   2   2   2   2
#     4  11  22  44  67  84 117 165 217 244 294 368
#     4  10  21  36  59  92 129 157 192 252 307 370
#     4  11  24  38  62  91 125 164 200 247 310 352
#     4  11  20  36  60  91 126 156 201 241 308 365
#     4  10  23  41  63  90 121 162 202 256 301 356
#     4  10  20  36  65  90 114 163 208 249 288 364
#     4   9  18  32  60  90 118 155 196 244 299 358
#     4  10  20  36  63  93 120 156 202 250 313 349
#
# _framework density 20.914501999999999
#
# number of rings (size 3 to 8) (size 9 to 14) (size 15 to 20)
#    0.000    1.750    2.500    3.000    8.750    0.500 
#    0.000    3.125    2.750    0.000    0.000    0.000 
#    0.000    0.000    0.000    0.000    0.000    0.000 
#
# Total GULP energy -198295.916533 kJ/mol
# GULP energy per Si atom -12393.494783 kJ/mol
# Density = 2.086690 g / cm^3
# Si number density = 20.914502 Si / 1000 Ang^3
#
#
#
# Elastic Constant Matrix: (Units=GPa)
#
#
# Indices 1 2 3 4 5 6 
#
# 1 72.7166 35.4548 45.8608 -4.9409 9.2571 -27.4630
# 2 35.4548 112.8624 49.8970 -12.9466 0.4586 -28.8122
# 3 45.8608 49.8970 109.3710 -0.8621 -5.7174 -16.7552
# 4 -4.9409 -12.9466 -0.8621 22.3633 -4.9702 -2.3710
# 5 9.2571 0.4586 -5.7174 -4.9702 27.6738 -2.4967
# 6 -27.4630 -28.8122 -16.7552 -2.3710 -2.4967 42.4276
#
#
#
# Elastic Compliance Matrix: (Units=1/GPa)
#
#
# Indices 1 2 3 4 5 6 
#
# 1 0.025887 -0.000248 -0.009206 0.004663 -0.008573 0.012708
# 2 -0.000248 0.014284 -0.005033 0.009145 0.001183 0.008132
# 3 -0.009206 -0.005033 0.015042 -0.003533 0.005336 -0.003320
# 4 0.004663 0.009145 -0.003533 0.053944 0.008270 0.011334
# 5 -0.008573 0.001183 0.005336 0.008270 0.041596 0.000271
# 6 0.012708 0.008132 -0.003320 0.011334 0.000271 0.036657
#
#
# Mechanical properties :
#
#
# Convention : Reuss Voigt Hill
#
# Bulk Modulus (GPa) = 38.11155 61.93057 50.02106
# Shear Modulus (GPa) = 22.20954 29.40878 25.80916
#
# Velocity S-wave (km/s) = 3.26225 3.75393 3.51669
# Velocity P-wave (km/s) = 5.69665 6.96167 6.36069
#
# Compressibility (1/GPa) = 0.02623876
#
# Stress axis : x y z
#
# Youngs Moduli (GPa) = 38.62961 70.01041 66.48090
#
# Poissons Ratio (x) = 0.01737 0.61203
# Poissons Ratio (y) = 0.00959 0.33457
# Poissons Ratio (z) = 0.35563 0.35233
#
# Static dielectric constant tensor:
#      x y z
#    x 3.703200 -0.000350 -0.127400 
#    y -0.000350 4.330410 -0.261580 
#    z -0.127400 -0.261580 3.547890 
# 
# 
# High freq. dielectric constant tensor:
#      x y z
#    x 1.805780 -0.004720 -0.001050 
#    y -0.004720 1.825010 -0.008100 
#    z -0.001050 -0.008100 1.792990 
# 
# From -- ./inp_files/308229.got.cif
#   From: 2010.06.25/outbox.cif.g09.slc.cpg/sg2_155_cif.got.tgz:308229.got - 2010.06.27 13:26:56.
