data_PCOD8003132
_publ_section_title
;
Structure prediction by ZEFSAII (Michael W. Deem and Ramdas Pophale) SiO2 
 PCOD8003132
Probable space group: P -1
;
_chemical_formula_sum "Si O2"
_cell_formula_units_Z 16
_cell_length_a 18.665950
_cell_length_b 10.527793
_cell_length_c 13.652241
_cell_angle_alpha 147.516765
_cell_angle_beta 147.781441
_cell_angle_gamma 32.498565
_cell_volume 684.780932
_symmetry_space_group_name_H-M "P -1"
_symmetry_group_IT_number 2
_symmetry_cell_setting 'triclinic'
loop_
_space_group_symop_operation_xyz
x,y,z
-x,-y,-z
loop_
_atom_site_type_symbol
_atom_site_label
_atom_site_fract_x
_atom_site_fract_y
_atom_site_fract_z
Si Si1 0.289595 0.744835 0.230399
Si Si2 0.810640 0.375336 0.692850
Si Si3 0.980233 0.910439 0.090733
Si Si4 0.710727 0.920939 0.274839
Si Si5 0.377282 0.249877 0.122325
Si Si6 0.585369 0.841948 0.363160
Si Si7 0.758182 0.462225 0.154141
Si Si8 0.271105 0.250578 0.329132
O O1 0.402846 0.482142 0.248941
O O2 0.121264 0.822937 0.124400
O O3 0.339245 0.969364 0.457288
O O4 0.305502 0.675770 0.088595
O O5 0.705006 0.647222 0.803467
O O6 0.807006 0.469197 0.638416
O O7 0.973624 0.237154 0.845583
O O8 0.754850 0.152701 0.494933
O O9 0.903881 0.229086 0.223112
O O10 0.860771 0.828477 0.849194
O O11 0.809238 0.662583 0.287193
O O12 0.540031 0.006608 0.170246
O O13 0.723756 0.840966 0.123238
O O14 0.629885 0.611914 0.184330
O O15 0.655558 0.701584 0.456707
O O16 0.404568 0.010834 0.267991
#
# Coordination Sequence:
#
# PCOD8003132 Si02
#       8
#     2   2   2   2   2   2   2   2
#     4  10  21  42  69  94 129 161 216 273 312 375
#     4  11  22  41  63  86 130 175 205 254 318 387
#     4  11  24  44  66  96 131 171 210 263 324 379
#     4  10  20  36  62  99 124 156 218 268 314 369
#     4   9  19  36  63  96 123 163 208 272 317 361
#     4  11  24  43  68  96 124 171 218 266 316 375
#     4  11  22  40  67  97 125 165 214 270 317 371
#     4  11  25  46  63  93 135 171 213 260 320 384
#
# _framework density 23.365138000000002
#
# number of rings (size 3 to 8) (size 9 to 14) (size 15 to 20)
#    0.000    1.500    1.250    4.125    0.000    2.500 
#    6.750    0.625    0.000    0.000    0.000    0.000 
#    0.000    0.000    0.000    0.000    0.000    0.000 
#
# Total GULP energy -198370.107006 kJ/mol
# GULP energy per Si atom -12398.131688 kJ/mol
# Density = 2.331196 g / cm^3
# Si number density = 23.365138 Si / 1000 Ang^3
#
#
#
# Elastic Constant Matrix: (Units=GPa)
#
#
# Indices 1 2 3 4 5 6 
#
# 1 65.6230 33.1886 15.3100 -0.5648 -2.0819 3.5258
# 2 33.1886 113.5623 21.9708 4.0437 -4.6606 24.0608
# 3 15.3100 21.9708 59.6222 -2.0692 -5.2232 -8.6434
# 4 -0.5648 4.0437 -2.0692 24.5297 -5.6925 -13.9189
# 5 -2.0819 -4.6606 -5.2232 -5.6925 33.1085 -7.2440
# 6 3.5258 24.0608 -8.6434 -13.9189 -7.2440 29.3414
#
#
#
# Elastic Compliance Matrix: (Units=1/GPa)
#
#
# Indices 1 2 3 4 5 6 
#
# 1 0.018623 -0.006559 -0.001135 0.005263 0.002256 0.005860
# 2 -0.006559 0.022727 -0.014859 -0.031336 -0.013806 -0.040500
# 3 -0.001135 -0.014859 0.031150 0.032429 0.017333 0.041160
# 4 0.005263 -0.031336 0.032429 0.115400 0.042737 0.099911
# 5 0.002256 -0.013806 0.017333 0.042737 0.049108 0.048554
# 6 0.005860 -0.040500 0.041160 0.099911 0.048554 0.138096
#
#
# Mechanical properties :
#
#
# Convention : Reuss Voigt Hill
#
# Bulk Modulus (GPa) = 36.50497 42.19402 39.34950
# Shear Modulus (GPa) = 11.64572 28.61844 20.13208
#
# Velocity S-wave (km/s) = 2.23496 3.50356 2.93854
# Velocity P-wave (km/s) = 4.72416 5.87063 5.32832
#
# Compressibility (1/GPa) = 0.02739353
#
# Stress axis : x y z
#
# Youngs Moduli (GPa) = 53.69774 43.99967 32.10266
#
# Poissons Ratio (x) = 0.28861 0.03644
# Poissons Ratio (y) = 0.35223 0.47701
# Poissons Ratio (z) = 0.06095 0.65379
#
# Static dielectric constant tensor:
#      x y z
#    x 4.003240 0.243110 -0.262960 
#    y 0.243110 4.615320 -0.044070 
#    z -0.262960 -0.044070 3.979640 
# 
# 
# High freq. dielectric constant tensor:
#      x y z
#    x 1.904950 0.019230 -0.017480 
#    y 0.019230 1.941730 0.000130 
#    z -0.017480 0.000130 1.910020 
# 
# From -- ./inp_files/541018.got.cif
#   From: 2010.06.25/outbox.cif.g09.slc.cpg/sg2_271_cif.got.tgz:541018.got - 2010.06.27 13:26:56.
