data_PCOD8003441
_publ_section_title
;
Structure prediction by ZEFSAII (Michael W. Deem and Ramdas Pophale) SiO2 
 PCOD8003441
Probable space group: P -1
;
_chemical_formula_sum "Si O2"
_cell_formula_units_Z 16
_cell_length_a 10.579267
_cell_length_b 17.290524
_cell_length_c 9.201188
_cell_angle_alpha 29.006852
_cell_angle_beta 74.639538
_cell_angle_gamma 66.861167
_cell_volume 738.694517
_symmetry_space_group_name_H-M "P -1"
_symmetry_group_IT_number 2
_symmetry_cell_setting 'triclinic'
loop_
_space_group_symop_operation_xyz
x,y,z
-x,-y,-z
loop_
_atom_site_type_symbol
_atom_site_label
_atom_site_fract_x
_atom_site_fract_y
_atom_site_fract_z
Si Si1 0.569885 0.705575 0.211822
Si Si2 0.499635 0.177038 0.264456
Si Si3 0.015274 0.174786 0.163514
Si Si4 0.672181 0.587327 0.845604
Si Si5 0.023670 0.514766 0.137752
Si Si6 0.317584 0.003415 0.259811
Si Si7 0.408587 0.700836 0.537731
Si Si8 0.119067 0.558665 0.442760
O O1 0.448795 0.679526 0.390682
O O2 0.721234 0.561854 0.422257
O O3 0.509990 0.704331 0.068356
O O4 0.578675 0.889052 0.950074
O O5 0.364684 0.268309 0.256040
O O6 0.637932 0.137164 0.389809
O O7 0.500000 0.000000 0.500000
O O8 0.164571 0.136891 0.105940
O O9 0.000000 0.000000 0.500000
O O10 0.011533 0.291166 0.114861
O O11 0.898169 0.266395 0.925680
O O12 0.811574 0.581647 0.728398
O O13 0.555898 0.627145 0.693902
O O14 0.689060 0.407813 0.213535
O O15 0.928994 0.423814 0.401898
O O16 0.000000 0.500000 0.000000
O O17 0.329071 0.897890 0.280780
O O18 0.000000 0.500000 0.500000
#
# Coordination Sequence:
#
# PCOD8003441 Si02
#       8
#     2   2   2   2   2   2   2   2
#     4  11  19  37  61  87 119 149 213 244 300 361
#     4   9  21  36  57  84 117 159 190 249 303 363
#     4  11  23  41  64  92 126 163 206 258 311 363
#     4  10  21  37  57  84 123 153 202 243 310 357
#     4  11  22  39  65  90 122 168 209 253 301 371
#     4  10  20  37  57  85 125 154 200 241 307 363
#     4  10  21  35  57  89 116 157 195 258 299 352
#     4  10  20  37  62  92 117 165 209 250 300 369
#
# _framework density 21.659832000000002
#
# number of rings (size 3 to 8) (size 9 to 14) (size 15 to 20)
#    0.000    1.750    2.500    3.375    1.750    2.500 
#    0.000    1.875    0.000    0.000    0.000    0.000 
#    0.000    0.000    0.000    0.000    0.000    0.000 
#
# Total GULP energy -198266.574430 kJ/mol
# GULP energy per Si atom -12391.660902 kJ/mol
# Density = 2.161053 g / cm^3
# Si number density = 21.659832 Si / 1000 Ang^3
#
#
#
# Elastic Constant Matrix: (Units=GPa)
#
#
# Indices 1 2 3 4 5 6 
#
# 1 30.6059 22.5530 10.1919 -4.5246 10.8520 -5.9126
# 2 22.5530 142.6587 47.8469 0.9842 10.2596 -15.7498
# 3 10.1919 47.8469 110.0660 1.2689 8.9481 5.7894
# 4 -4.5246 0.9842 1.2689 40.0239 0.8839 4.7959
# 5 10.8520 10.2596 8.9481 0.8839 34.7694 -0.0376
# 6 -5.9126 -15.7498 5.7894 4.7959 -0.0376 25.3853
#
#
#
# Elastic Compliance Matrix: (Units=1/GPa)
#
#
# Indices 1 2 3 4 5 6 
#
# 1 0.042679 -0.004793 -0.001308 0.004475 -0.011677 0.006402
# 2 -0.004793 0.009872 -0.004133 -0.001391 -0.000311 0.006213
# 3 -0.001308 -0.004133 0.011398 0.000283 -0.001319 -0.005524
# 4 0.004475 -0.001391 0.000283 0.026133 -0.001729 -0.004825
# 5 -0.011677 -0.000311 -0.001319 -0.001729 0.032878 -0.002237
# 6 0.006402 0.006213 -0.005524 -0.004825 -0.002237 0.046907
#
#
# Mechanical properties :
#
#
# Convention : Reuss Voigt Hill
#
# Bulk Modulus (GPa) = 22.99818 49.39047 36.19432
# Shear Modulus (GPa) = 24.41086 33.55163 28.98125
#
# Velocity S-wave (km/s) = 3.36074 3.94004 3.66186
# Velocity P-wave (km/s) = 5.06955 6.59930 5.88435
#
# Compressibility (1/GPa) = 0.04348171
#
# Stress axis : x y z
#
# Youngs Moduli (GPa) = 23.43057 101.30136 87.73745
#
# Poissons Ratio (x) = 0.48553 0.11472
# Poissons Ratio (y) = 0.11230 0.36261
# Poissons Ratio (z) = 0.03064 0.41867
#
# Static dielectric constant tensor:
#      x y z
#    x 3.839160 -0.013800 0.279440 
#    y -0.013800 4.260110 0.340660 
#    z 0.279440 0.340660 4.599240 
# 
# 
# High freq. dielectric constant tensor:
#      x y z
#    x 1.820190 -0.008190 0.011830 
#    y -0.008190 1.864740 0.001200 
#    z 0.011830 0.001200 1.850550 
# 
# From -- ./inp_files/255106.got.cif
#   From: 2010.06.25/outbox.cif.g09.slc.cpg/sg2_128_cif.got.tgz:255106.got - 2010.06.27 13:26:56.
