data_PCOD8003731
_publ_section_title
;
Structure prediction by ZEFSAII (Michael W. Deem and Ramdas Pophale) SiO2 
 PCOD8003731
Probable space group: P -1
;
_chemical_formula_sum "Si O2"
_cell_formula_units_Z 16
_cell_length_a 15.243692
_cell_length_b 15.310565
_cell_length_c 6.936899
_cell_angle_alpha 127.605994
_cell_angle_beta 118.838671
_cell_angle_gamma 36.315045
_cell_volume 759.444208
_symmetry_space_group_name_H-M "P -1"
_symmetry_group_IT_number 2
_symmetry_cell_setting 'triclinic'
loop_
_space_group_symop_operation_xyz
x,y,z
-x,-y,-z
loop_
_atom_site_type_symbol
_atom_site_label
_atom_site_fract_x
_atom_site_fract_y
_atom_site_fract_z
Si Si1 0.344867 0.674372 0.286616
Si Si2 0.501308 0.335357 0.902849
Si Si3 0.709030 0.695050 0.397425
Si Si4 0.960964 0.110274 0.934139
Si Si5 0.280778 0.876713 0.826731
Si Si6 0.977435 0.339746 0.336171
Si Si7 0.757212 0.849037 0.914354
Si Si8 0.864152 0.674032 0.183620
O O1 0.389046 0.509662 0.129455
O O2 0.176301 0.826131 0.243742
O O3 0.359235 0.721720 0.570328
O O4 0.461647 0.642584 0.233404
O O5 0.655210 0.194518 0.988461
O O6 0.428339 0.275452 0.719428
O O7 0.842746 0.533773 0.444541
O O8 0.662681 0.840827 0.668979
O O9 0.760931 0.679526 0.213650
O O10 0.914816 0.266972 0.179783
O O11 0.104044 0.004359 0.806783
O O12 0.000000 0.000000 0.000000
O O13 0.321224 0.967824 0.924634
O O14 0.078023 0.276887 0.169568
O O15 0.071493 0.281760 0.552265
O O16 0.763677 0.806405 0.086152
O O17 0.000000 0.500000 0.000000
#
# Coordination Sequence:
#
# PCOD8003731 Si02
#       8
#     2   2   2   2   2   2   2   2
#     4  11  24  45  67  92 127 171 213 256 316 380
#     4  11  25  45  65  90 132 172 208 259 315 383
#     4  11  21  39  62  92 127 168 209 254 317 374
#     4  11  22  42  67  97 127 164 208 267 320 361
#     4  11  25  43  66  95 129 164 214 263 314 378
#     4  10  20  37  60  92 130 159 204 261 313 369
#     4  10  22  38  62  93 124 162 205 267 311 364
#     4  11  19  35  61  92 126 159 209 260 309 367
#
# _framework density 21.068038000000001
#
# number of rings (size 3 to 8) (size 9 to 14) (size 15 to 20)
#    0.000    1.250    5.000    1.500    1.750    2.500 
#    2.250    1.250    0.000    0.000    0.000    0.000 
#    0.000    0.000    0.000    0.000    0.000    0.000 
#
# Total GULP energy -198443.443595 kJ/mol
# GULP energy per Si atom -12402.715225 kJ/mol
# Density = 2.102009 g / cm^3
# Si number density = 21.068038 Si / 1000 Ang^3
#
#
#
# Elastic Constant Matrix: (Units=GPa)
#
#
# Indices 1 2 3 4 5 6 
#
# 1 95.1151 14.0766 44.2185 -1.8400 12.4727 9.6269
# 2 14.0766 58.5074 12.0497 -1.1911 0.1949 6.5712
# 3 44.2185 12.0497 101.2754 3.4961 3.9108 4.8576
# 4 -1.8400 -1.1911 3.4961 32.4753 7.9751 2.0949
# 5 12.4727 0.1949 3.9108 7.9751 31.3396 -4.3126
# 6 9.6269 6.5712 4.8576 2.0949 -4.3126 36.0228
#
#
#
# Elastic Compliance Matrix: (Units=1/GPa)
#
#
# Indices 1 2 3 4 5 6 
#
# 1 0.014850 -0.001834 -0.005944 0.003258 -0.006509 -0.003801
# 2 -0.001834 0.018108 -0.001262 0.000819 0.000199 -0.002667
# 3 -0.005944 -0.001262 0.012619 -0.002110 0.001392 0.000406
# 4 0.003258 0.000819 -0.002110 0.034001 -0.010233 -0.003938
# 5 -0.006509 0.000199 0.001392 -0.010233 0.037842 0.006641
# 6 -0.003801 -0.002667 0.000406 -0.003938 0.006641 0.030232
#
#
# Mechanical properties :
#
#
# Convention : Reuss Voigt Hill
#
# Bulk Modulus (GPa) = 36.36684 43.95416 40.16050
# Shear Modulus (GPa) = 28.58813 32.27107 30.42960
#
# Velocity S-wave (km/s) = 3.68767 3.91801 3.80458
# Velocity P-wave (km/s) = 5.95239 6.43242 6.19705
#
# Compressibility (1/GPa) = 0.02749758
#
# Stress axis : x y z
#
# Youngs Moduli (GPa) = 67.34161 55.22277 79.24447
#
# Poissons Ratio (x) = 0.10126 0.47105
# Poissons Ratio (y) = 0.12348 0.10001
# Poissons Ratio (z) = 0.40030 0.06969
#
# Static dielectric constant tensor:
#      x y z
#    x 3.795690 0.181660 0.148510 
#    y 0.181660 3.782530 0.127100 
#    z 0.148510 0.127100 3.908540 
# 
# 
# High freq. dielectric constant tensor:
#      x y z
#    x 1.819470 0.012510 0.009170 
#    y 0.012510 1.822360 0.003140 
#    z 0.009170 0.003140 1.827680 
# 
# From -- ./inp_files/70336.got.cif
#   From: 2010.06.25/outbox.cif.g09.slc.cpg/sg2_36_cif.got.tgz:70336.got - 2010.06.27 13:26:56.
