data_PCOD8003423
_publ_section_title
;
Structure prediction by ZEFSAII (Michael W. Deem and Ramdas Pophale) SiO2 
 PCOD8003423
Probable space group: P -1
;
_chemical_formula_sum "Si O2"
_cell_formula_units_Z 14
_cell_length_a 8.983417
_cell_length_b 11.500032
_cell_length_c 9.926522
_cell_angle_alpha 55.440014
_cell_angle_beta 120.409983
_cell_angle_gamma 98.868208
_cell_volume 715.469458
_symmetry_space_group_name_H-M "P -1"
_symmetry_group_IT_number 2
_symmetry_cell_setting 'triclinic'
loop_
_space_group_symop_operation_xyz
x,y,z
-x,-y,-z
loop_
_atom_site_type_symbol
_atom_site_label
_atom_site_fract_x
_atom_site_fract_y
_atom_site_fract_z
Si Si1 0.233546 0.375269 0.589880
Si Si2 0.590613 0.301763 0.207227
Si Si3 0.767893 0.796289 0.855857
Si Si4 0.545929 0.445958 0.835948
Si Si5 0.323364 0.303120 0.388688
Si Si6 0.976065 0.304637 0.731951
Si Si7 0.293842 0.866657 0.389256
O O1 0.433619 0.365455 0.737330
O O2 0.239452 0.294765 0.502124
O O3 0.143719 0.539976 0.425405
O O4 0.128613 0.291147 0.698755
O O5 0.393868 0.272307 0.120736
O O6 0.589657 0.442662 0.207192
O O7 0.714309 0.171334 0.428856
O O8 0.658212 0.330525 0.068532
O O9 0.797840 0.758995 0.735412
O O10 0.724455 0.965366 0.748865
O O11 0.940917 0.725651 0.062558
O O12 0.672053 0.529353 0.753547
O O13 0.519661 0.210616 0.534292
O O14 0.861507 0.184293 0.729148
#
# Coordination Sequence:
#
# PCOD8003423 Si02
#       7
#     2   2   2   2   2   2   2
#     4  11  21  36  56  85 118 136 177 233 284 324
#     4   9  16  31  55  84 101 142 182 223 265 316
#     4  10  20  37  57  80 112 147 189 217 265 334
#     4   9  16  30  56  81 109 131 180 227 271 317
#     4  10  21  36  60  83 109 142 184 233 271 312
#     4  11  22  35  58  82 113 149 175 222 286 327
#     4  10  20  37  60  79 108 149 190 220 263 327
#
# _framework density 19.567571000000001
#
# number of rings (size 3 to 8) (size 9 to 14) (size 15 to 20)
#    0.000    2.286    4.286    2.571    0.000    0.571 
#    0.000    1.429    0.000    0.000    0.000    0.000 
#    0.000    0.000    0.000    0.000    0.000    0.000 
#
# Total GULP energy -173552.664558 kJ/mol
# GULP energy per Si atom -12396.618897 kJ/mol
# Density = 1.952303 g / cm^3
# Si number density = 19.567571 Si / 1000 Ang^3
#
#
#
# Elastic Constant Matrix: (Units=GPa)
#
#
# Indices 1 2 3 4 5 6 
#
# 1 44.2714 31.7739 23.3943 16.2194 -9.5108 -3.3259
# 2 31.7739 83.9959 33.1969 20.0522 -6.6058 8.5595
# 3 23.3943 33.1969 94.4956 27.0892 -3.7159 0.1416
# 4 16.2194 20.0522 27.0892 37.5823 3.9586 0.1352
# 5 -9.5108 -6.6058 -3.7159 3.9586 23.6129 12.0683
# 6 -3.3259 8.5595 0.1416 0.1352 12.0683 18.9816
#
#
#
# Elastic Compliance Matrix: (Units=1/GPa)
#
#
# Indices 1 2 3 4 5 6 
#
# 1 0.037909 -0.010452 -0.002285 -0.010380 0.011666 0.004030
# 2 -0.010452 0.021248 -0.002611 -0.006148 0.012080 -0.019030
# 3 -0.002285 -0.002611 0.014566 -0.008378 0.002480 -0.000849
# 4 -0.010380 -0.006148 -0.008378 0.042654 -0.021826 0.014589
# 5 0.011666 0.012080 0.002480 -0.021826 0.083174 -0.056147
# 6 0.004030 -0.019030 -0.000849 0.014589 -0.056147 0.097570
#
#
# Mechanical properties :
#
#
# Convention : Reuss Voigt Hill
#
# Bulk Modulus (GPa) = 23.24130 44.38812 33.81471
# Shear Modulus (GPa) = 14.61313 24.99520 19.80416
#
# Velocity S-wave (km/s) = 2.73573 3.57792 3.18479
# Velocity P-wave (km/s) = 4.67785 6.30892 5.55359
#
# Compressibility (1/GPa) = 0.04302685
#
# Stress axis : x y z
#
# Youngs Moduli (GPa) = 26.37925 47.06301 68.65326
#
# Poissons Ratio (x) = 0.49191 0.15686
# Poissons Ratio (y) = 0.27572 0.17924
# Poissons Ratio (z) = 0.06027 0.12287
#
# Static dielectric constant tensor:
#      x y z
#    x 3.188070 0.195000 -0.194560 
#    y 0.195000 3.471390 0.158850 
#    z -0.194560 0.158850 3.970070 
# 
# 
# High freq. dielectric constant tensor:
#      x y z
#    x 1.716980 0.023320 -0.011330 
#    y 0.023320 1.750830 0.015440 
#    z -0.011330 0.015440 1.778220 
# 
# From -- ./inp_files/175523.got.cif
#   From: 2010.06.25/outbox.cif.g09.slc.cpg/sg2_88_cif.got.tgz:175523.got - 2010.06.27 13:26:56.
