data_PCOD8003719
_publ_section_title
;
Structure prediction by ZEFSAII (Michael W. Deem and Ramdas Pophale) SiO2 
 PCOD8003719
Probable space group: P -1
;
_chemical_formula_sum "Si O2"
_cell_formula_units_Z 16
_cell_length_a 14.673460
_cell_length_b 8.898678
_cell_length_c 9.599588
_cell_angle_alpha 96.704356
_cell_angle_beta 121.433385
_cell_angle_gamma 119.453342
_cell_volume 805.286138
_symmetry_space_group_name_H-M "P -1"
_symmetry_group_IT_number 2
_symmetry_cell_setting 'triclinic'
loop_
_space_group_symop_operation_xyz
x,y,z
-x,-y,-z
loop_
_atom_site_type_symbol
_atom_site_label
_atom_site_fract_x
_atom_site_fract_y
_atom_site_fract_z
Si Si1 0.563904 0.496922 0.909702
Si Si2 0.659772 0.246428 0.559069
Si Si3 0.120829 0.528204 0.456072
Si Si4 0.596260 0.518750 0.461898
Si Si5 0.828618 0.899836 0.223271
Si Si6 0.201312 0.779431 0.805487
Si Si7 0.140987 0.199659 0.461944
Si Si8 0.587165 0.176377 0.802446
O O1 0.482193 0.531497 0.748029
O O2 0.546578 0.304113 0.842209
O O3 0.500000 0.500000 0.000000
O O4 0.728837 0.686094 0.046881
O O5 0.816616 0.383210 0.637200
O O6 0.592033 0.341253 0.474795
O O7 0.677917 0.255131 0.741134
O O8 0.562102 0.031964 0.383618
O O9 0.209379 0.717448 0.650867
O O10 0.146648 0.383583 0.520875
O O11 0.956100 0.412234 0.291605
O O12 0.500000 0.500000 0.500000
O O13 0.755529 0.734448 0.582496
O O14 0.818966 0.861930 0.377637
O O15 0.776205 0.020728 0.164654
O O16 0.978876 0.008020 0.281048
O O17 0.323228 0.827695 0.008566
#
# Coordination Sequence:
#
# PCOD8003719 Si02
#       8
#     2   2   2   2   2   2   2   2
#     4  12  24  38  62  93 120 156 205 254 303 356
#     4  10  23  41  62  85 121 165 202 245 302 360
#     4   9  20  38  62  90 118 158 198 248 306 359
#     4  11  21  41  63  88 123 160 198 251 304 363
#     4  10  20  37  60  91 120 151 202 251 298 358
#     4  10  21  37  62  91 121 154 200 251 303 359
#     4   9  19  37  62  86 121 157 197 247 300 358
#     4  11  24  41  59  88 124 159 204 249 298 365
#
# _framework density 19.868715999999999
#
# number of rings (size 3 to 8) (size 9 to 14) (size 15 to 20)
#    0.000    1.750    2.500    1.500    3.500    2.000 
#    0.000    0.625    2.750    0.000    0.000    0.000 
#    0.000    0.000    0.000    0.000    0.000    0.000 
#
# Total GULP energy -198213.761597 kJ/mol
# GULP energy per Si atom -12388.360100 kJ/mol
# Density = 1.982349 g / cm^3
# Si number density = 19.868716 Si / 1000 Ang^3
#
#
#
# Elastic Constant Matrix: (Units=GPa)
#
#
# Indices 1 2 3 4 5 6 
#
# 1 103.7452 34.3695 15.7277 13.0625 -13.0060 18.8350
# 2 34.3695 88.6230 19.1904 10.1000 -5.4411 7.3766
# 3 15.7277 19.1904 61.7395 7.1052 -0.9741 -1.4132
# 4 13.0625 10.1000 7.1052 28.3101 -1.9234 -2.4618
# 5 -13.0060 -5.4411 -0.9741 -1.9234 28.4143 -4.7287
# 6 18.8350 7.3766 -1.4132 -2.4618 -4.7287 35.0105
#
#
#
# Elastic Compliance Matrix: (Units=1/GPa)
#
#
# Indices 1 2 3 4 5 6 
#
# 1 0.013301 -0.003450 -0.001854 -0.004717 0.003997 -0.006295
# 2 -0.003450 0.013731 -0.003110 -0.002599 0.000556 -0.001270
# 3 -0.001854 -0.003110 0.017951 -0.002399 -0.000638 0.002123
# 4 -0.004717 -0.002599 -0.002399 0.039604 0.000923 0.005898
# 5 0.003997 0.000556 -0.000638 0.000923 0.037646 0.002856
# 6 -0.006295 -0.001270 0.002123 0.005898 0.002856 0.033104
#
#
# Mechanical properties :
#
#
# Convention : Reuss Voigt Hill
#
# Bulk Modulus (GPa) = 35.51888 43.63144 39.57516
# Shear Modulus (GPa) = 27.54057 30.66831 29.10444
#
# Velocity S-wave (km/s) = 3.72711 3.93306 3.83147
# Velocity P-wave (km/s) = 6.03634 6.52938 6.28770
#
# Compressibility (1/GPa) = 0.02815404
#
# Stress axis : x y z
#
# Youngs Moduli (GPa) = 75.18276 72.82634 55.70777
#
# Poissons Ratio (x) = 0.25124 0.10329
# Poissons Ratio (y) = 0.25937 0.17328
# Poissons Ratio (z) = 0.13940 0.22652
#
# Static dielectric constant tensor:
#      x y z
#    x 3.428540 0.205380 0.232720 
#    y 0.205380 3.854100 0.021350 
#    z 0.232720 0.021350 3.516420 
# 
# 
# High freq. dielectric constant tensor:
#      x y z
#    x 1.780680 0.008110 0.010770 
#    y 0.008110 1.790280 -0.004150 
#    z 0.010770 -0.004150 1.759650 
# 
# From -- ./inp_files/295613.got.cif
#   From: 2010.06.25/outbox.cif.g09.slc.cpg/sg2_148_cif.got.tgz:295613.got - 2010.06.27 13:26:56.
