data_PCOD8003168
_publ_section_title
;
Structure prediction by ZEFSAII (Michael W. Deem and Ramdas Pophale) SiO2 
 PCOD8003168
Probable space group: P -1
;
_chemical_formula_sum "Si O2"
_cell_formula_units_Z 14
_cell_length_a 9.295407
_cell_length_b 8.944072
_cell_length_c 15.348248
_cell_angle_alpha 92.371854
_cell_angle_beta 46.027066
_cell_angle_gamma 122.305302
_cell_volume 652.284758
_symmetry_space_group_name_H-M "P -1"
_symmetry_group_IT_number 2
_symmetry_cell_setting 'triclinic'
loop_
_space_group_symop_operation_xyz
x,y,z
-x,-y,-z
loop_
_atom_site_type_symbol
_atom_site_label
_atom_site_fract_x
_atom_site_fract_y
_atom_site_fract_z
Si Si1 0.039075 0.116714 0.106875
Si Si2 0.882896 0.430976 0.644937
Si Si3 0.658705 0.692875 0.181986
Si Si4 0.013211 0.604375 0.778489
Si Si5 0.968027 0.788992 0.339247
Si Si6 0.405694 0.572260 0.655513
Si Si7 0.444768 0.145129 0.040729
O O1 0.992770 0.221861 0.199249
O O2 0.303032 0.149734 0.018088
O O3 0.097043 0.215523 0.988648
O O4 0.761169 0.867490 0.215229
O O5 0.591862 0.363961 0.766818
O O6 0.051480 0.598689 0.657967
O O7 0.000000 0.500000 0.500000
O O8 0.873948 0.251058 0.668797
O O9 0.577337 0.496541 0.258987
O O10 0.285990 0.677929 0.714405
O O11 0.739197 0.385421 0.934924
O O12 0.724963 0.748600 0.491620
O O13 0.817256 0.633652 0.315957
O O14 0.214034 0.035264 0.213483
O O15 0.500000 0.000000 0.000000
#
# Coordination Sequence:
#
# PCOD8003168 Si02
#       7
#     2   2   2   2   2   2   2
#     4  11  24  39  64  95 129 161 210 265 311 370
#     4  11  21  38  67  94 122 163 211 258 310 375
#     4  11  21  39  66  93 123 165 210 258 316 369
#     4  11  24  41  66  94 127 166 212 259 314 367
#     4  10  20  36  63  90 124 166 213 244 312 387
#     4  10  20  38  62  90 124 169 205 252 315 381
#     4  12  19  38  64  94 118 168 213 250 306 380
#
# _framework density 21.463018999999999
#
# number of rings (size 3 to 8) (size 9 to 14) (size 15 to 20)
#    0.000    1.143    7.143    0.429    0.000    1.714 
#    0.000    2.857    0.000    2.571    0.000    0.000 
#    0.000    0.000    0.000    0.000    0.000    0.000 
#
# Total GULP energy -173472.716649 kJ/mol
# GULP energy per Si atom -12390.908332 kJ/mol
# Density = 2.141417 g / cm^3
# Si number density = 21.463019 Si / 1000 Ang^3
#
#
#
# Elastic Constant Matrix: (Units=GPa)
#
#
# Indices 1 2 3 4 5 6 
#
# 1 138.8031 25.3048 41.5036 6.9504 -9.0981 -21.8380
# 2 25.3048 69.1441 16.4617 17.9172 6.1681 -9.4597
# 3 41.5036 16.4617 110.4330 3.7051 24.5027 -5.6835
# 4 6.9504 17.9172 3.7051 18.4412 -6.1778 -2.5393
# 5 -9.0981 6.1681 24.5027 -6.1778 35.5208 2.3602
# 6 -21.8380 -9.4597 -5.6835 -2.5393 2.3602 20.0354
#
#
#
# Elastic Compliance Matrix: (Units=1/GPa)
#
#
# Indices 1 2 3 4 5 6 
#
# 1 0.010798 -0.003074 -0.004717 0.003244 0.006545 0.008620
# 2 -0.003074 0.023400 0.001071 -0.024378 -0.010236 0.006117
# 3 -0.004717 0.001071 0.013450 -0.005906 -0.011687 -0.000193
# 4 0.003244 -0.024378 -0.005906 0.085745 0.024159 -0.001628
# 5 0.006545 -0.010236 -0.011687 0.024159 0.044079 -0.003144
# 6 0.008620 0.006117 -0.000193 -0.001628 -0.003144 0.062305
#
#
# Mechanical properties :
#
#
# Convention : Reuss Voigt Hill
#
# Bulk Modulus (GPa) = 29.23388 53.88006 41.55697
# Shear Modulus (GPa) = 18.89503 30.47347 24.68425
#
# Velocity S-wave (km/s) = 2.97029 3.77213 3.39497
# Velocity P-wave (km/s) = 5.04120 6.64305 5.89677
#
# Compressibility (1/GPa) = 0.03420688
#
# Stress axis : x y z
#
# Youngs Moduli (GPa) = 92.60769 42.73576 74.35046
#
# Poissons Ratio (x) = 0.13137 0.35075
# Poissons Ratio (y) = 0.28467 -0.07963
# Poissons Ratio (z) = 0.43688 -0.04577
#
# Static dielectric constant tensor:
#      x y z
#    x 4.172240 -0.152410 -0.108440 
#    y -0.152410 3.433890 -0.086420 
#    z -0.108440 -0.086420 4.091180 
# 
# 
# High freq. dielectric constant tensor:
#      x y z
#    x 1.862440 -0.018080 -0.002040 
#    y -0.018080 1.788820 -0.002400 
#    z -0.002040 -0.002400 1.849710 
# 
# From -- ./inp_files/176880.got.cif
#   From: 2010.06.25/outbox.cif.g09.slc.cpg/sg2_89_cif.got.tgz:176880.got - 2010.06.27 13:26:56.
