data_PCOD8003449
_publ_section_title
;
Structure prediction by ZEFSAII (Michael W. Deem and Ramdas Pophale) SiO2 
 PCOD8003449
Probable space group: P -1
;
_chemical_formula_sum "Si O2"
_cell_formula_units_Z 14
_cell_length_a 20.262538
_cell_length_b 9.977099
_cell_length_c 8.005650
_cell_angle_alpha 131.638979
_cell_angle_beta 83.962757
_cell_angle_gamma 133.450572
_cell_volume 668.500172
_symmetry_space_group_name_H-M "P -1"
_symmetry_group_IT_number 2
_symmetry_cell_setting 'triclinic'
loop_
_space_group_symop_operation_xyz
x,y,z
-x,-y,-z
loop_
_atom_site_type_symbol
_atom_site_label
_atom_site_fract_x
_atom_site_fract_y
_atom_site_fract_z
Si Si1 0.943199 0.786918 0.676504
Si Si2 0.280098 0.583137 0.747463
Si Si3 0.409250 0.215543 0.092610
Si Si4 0.644937 0.632057 0.497175
Si Si5 0.782497 0.232884 0.482715
Si Si6 0.874387 0.306164 0.839731
Si Si7 0.836474 0.612441 0.056724
O O1 0.846823 0.704267 0.551607
O O2 0.874291 0.452897 0.481598
O O3 0.000000 0.000000 0.000000
O O4 0.052537 0.004008 0.696357
O O5 0.358032 0.589810 0.670360
O O6 0.256219 0.503450 0.887540
O O7 0.351321 0.925533 0.977552
O O8 0.550203 0.487821 0.262468
O O9 0.393920 0.370939 0.318352
O O10 0.349226 0.101527 0.831807
O O11 0.778017 0.992905 0.720198
O O12 0.831750 0.190846 0.560604
O O13 0.774045 0.404645 0.728350
O O14 0.884759 0.540204 0.078731
O O15 0.000000 0.500000 0.000000
#
# Coordination Sequence:
#
# PCOD8003449 Si02
#       7
#     2   2   2   2   2   2   2
#     4   9  17  32  57  86 115 159 189 232 294 344
#     4  11  20  37  60  85 117 154 198 237 292 348
#     4  10  21  43  59  86 116 155 204 240 286 339
#     4  11  23  37  64  85 117 158 197 240 290 351
#     4   8  19  36  61  81 120 157 190 250 284 339
#     4  10  20  37  57  88 117 151 192 237 296 351
#     4   9  18  35  58  82 120 155 189 236 293 346
#
# _framework density 20.942405000000001
#
# number of rings (size 3 to 8) (size 9 to 14) (size 15 to 20)
#    0.857    1.429    1.429    1.714    0.000    0.571 
#    0.000    7.143    0.000    0.000    0.000    0.000 
#    0.000    0.000    0.000    0.000    0.000    0.000 
#
# Total GULP energy -173448.958230 kJ/mol
# GULP energy per Si atom -12389.211302 kJ/mol
# Density = 2.089474 g / cm^3
# Si number density = 20.942405 Si / 1000 Ang^3
#
#
#
# Elastic Constant Matrix: (Units=GPa)
#
#
# Indices 1 2 3 4 5 6 
#
# 1 88.6023 19.9547 36.2247 -13.1830 6.1261 16.4648
# 2 19.9547 54.8321 7.7141 -2.9246 3.4155 8.0186
# 3 36.2247 7.7141 97.4252 -11.8608 26.8563 13.8563
# 4 -13.1830 -2.9246 -11.8608 23.8943 -0.4436 6.4878
# 5 6.1261 3.4155 26.8563 -0.4436 41.7201 1.3004
# 6 16.4648 8.0186 13.8563 6.4878 1.3004 24.1709
#
#
#
# Elastic Compliance Matrix: (Units=1/GPa)
#
#
# Indices 1 2 3 4 5 6 
#
# 1 0.017075 -0.003550 -0.003268 0.010468 0.000354 -0.011409
# 2 -0.003550 0.020444 0.001361 0.002757 -0.001819 -0.005787
# 3 -0.003268 0.001361 0.016564 0.009010 -0.009899 -0.009606
# 4 0.010468 0.002757 0.009010 0.060212 -0.006017 -0.029049
# 5 0.000354 -0.001819 -0.009899 -0.006017 0.030186 0.006028
# 6 -0.011409 -0.005787 -0.009606 -0.029049 0.006028 0.064043
#
#
# Mechanical properties :
#
#
# Convention : Reuss Voigt Hill
#
# Bulk Modulus (GPa) = 23.16436 40.96073 32.06254
# Shear Modulus (GPa) = 21.38317 29.75479 25.56898
#
# Velocity S-wave (km/s) = 3.19885 3.77343 3.49796
# Velocity P-wave (km/s) = 4.97278 6.21178 5.62649
#
# Compressibility (1/GPa) = 0.04316976
#
# Stress axis : x y z
#
# Youngs Moduli (GPa) = 58.56402 48.91307 60.37336
#
# Poissons Ratio (x) = 0.17362 0.19733
# Poissons Ratio (y) = 0.20788 -0.08218
# Poissons Ratio (z) = 0.19141 -0.06658
#
# Static dielectric constant tensor:
#      x y z
#    x 3.469020 -0.042560 0.130900 
#    y -0.042560 3.937010 0.160210 
#    z 0.130900 0.160210 3.956350 
# 
# 
# High freq. dielectric constant tensor:
#      x y z
#    x 1.781420 -0.002260 0.012180 
#    y -0.002260 1.812950 0.005550 
#    z 0.012180 0.005550 1.826820 
# 
# From -- ./inp_files/239791.got.cif
#   From: 2010.06.25/outbox.cif.g09.slc.cpg/sg2_120_cif.got.tgz:239791.got - 2010.06.27 13:26:56.
