data_PCOD8003301
_publ_section_title
;
Structure prediction by ZEFSAII (Michael W. Deem and Ramdas Pophale) SiO2 
 PCOD8003301
Probable space group: P -1
;
_chemical_formula_sum "Si O2"
_cell_formula_units_Z 16
_cell_length_a 8.400006
_cell_length_b 9.381420
_cell_length_c 21.797524
_cell_angle_alpha 153.084673
_cell_angle_beta 76.529106
_cell_angle_gamma 102.528130
_cell_volume 756.013767
_symmetry_space_group_name_H-M "P -1"
_symmetry_group_IT_number 2
_symmetry_cell_setting 'triclinic'
loop_
_space_group_symop_operation_xyz
x,y,z
-x,-y,-z
loop_
_atom_site_type_symbol
_atom_site_label
_atom_site_fract_x
_atom_site_fract_y
_atom_site_fract_z
Si Si1 0.293240 0.241765 0.534557
Si Si2 0.553226 0.891789 0.299103
Si Si3 0.816287 0.873763 0.981256
Si Si4 0.129809 0.081614 0.318061
Si Si5 0.719270 0.538497 0.256084
Si Si6 0.185966 0.685403 0.617110
Si Si7 0.084052 0.720270 0.309413
Si Si8 0.634763 0.436144 0.912214
O O1 0.382114 0.357817 0.634384
O O2 0.195148 0.529043 0.623227
O O3 0.431510 0.134372 0.433967
O O4 0.163991 0.945071 0.440856
O O5 0.672544 0.744018 0.281650
O O6 0.454816 0.623824 0.167990
O O7 0.661697 0.076449 0.310786
O O8 0.797845 0.584362 0.823584
O O9 0.766076 0.724873 0.996224
O O10 0.698456 0.172035 0.097488
O O11 0.000000 0.000000 0.000000
O O12 0.197777 0.428592 0.462775
O O13 0.980806 0.119313 0.298395
O O14 0.073241 0.902454 0.315753
O O15 0.269291 0.874888 0.193692
O O16 0.899078 0.609376 0.296495
O O17 0.500000 0.500000 0.000000
#
# Coordination Sequence:
#
# PCOD8003301 Si02
#       8
#     2   2   2   2   2   2   2   2
#     4  11  22  38  61  95 126 163 215 268 323 380
#     4  12  23  39  60  92 133 165 205 277 337 370
#     4   9  20  41  67  85 124 177 215 257 321 386
#     4   9  18  39  63  87 123 167 210 255 322 384
#     4  11  23  36  64  92 124 169 219 258 316 398
#     4  10  20  36  66  88 120 167 208 258 328 383
#     4   9  17  41  60  86 123 167 211 263 317 378
#     4  11  24  42  66  95 130 169 216 275 328 385
#
# _framework density 21.163637000000001
#
# number of rings (size 3 to 8) (size 9 to 14) (size 15 to 20)
#    0.000    1.750    5.000    1.125    1.750    0.500 
#    0.000    4.375    0.000    0.000    0.000    0.000 
#    0.000    0.000    0.000    0.000    0.000    0.000 
#
# Total GULP energy -198214.974726 kJ/mol
# GULP energy per Si atom -12388.435920 kJ/mol
# Density = 2.111547 g / cm^3
# Si number density = 21.163637 Si / 1000 Ang^3
#
#
#
# Elastic Constant Matrix: (Units=GPa)
#
#
# Indices 1 2 3 4 5 6 
#
# 1 80.7540 28.5048 35.9609 5.2248 -8.9427 6.8645
# 2 28.5048 75.0484 45.6670 3.9899 0.0093 9.0249
# 3 35.9609 45.6670 93.5821 4.8022 -10.7431 -13.8070
# 4 5.2248 3.9899 4.8022 30.7291 5.1516 -3.2862
# 5 -8.9427 0.0093 -10.7431 5.1516 29.4844 1.9584
# 6 6.8645 9.0249 -13.8070 -3.2862 1.9584 30.7714
#
#
#
# Elastic Compliance Matrix: (Units=1/GPa)
#
#
# Indices 1 2 3 4 5 6 
#
# 1 0.016852 -0.001872 -0.005905 -0.003045 0.003919 -0.006434
# 2 -0.001872 0.023425 -0.012922 -0.001287 -0.004254 -0.012117
# 3 -0.005905 -0.012922 0.022032 -0.000080 0.005282 0.014648
# 4 -0.003045 -0.001287 -0.000080 0.035044 -0.007423 0.005235
# 5 0.003919 -0.004254 0.005282 -0.007423 0.038360 -0.000491
# 6 -0.006434 -0.012117 0.014648 0.005235 -0.000491 0.044650
#
#
# Mechanical properties :
#
#
# Convention : Reuss Voigt Hill
#
# Bulk Modulus (GPa) = 47.82226 52.18332 50.00279
# Shear Modulus (GPa) = 21.85971 27.48042 24.67007
#
# Velocity S-wave (km/s) = 3.21735 3.60734 3.41791
# Velocity P-wave (km/s) = 6.03716 6.48546 6.26532
#
# Compressibility (1/GPa) = 0.02091077
#
# Stress axis : x y z
#
# Youngs Moduli (GPa) = 59.34079 42.69003 45.38800
#
# Poissons Ratio (x) = 0.07992 0.26803
# Poissons Ratio (y) = 0.11109 0.58649
# Poissons Ratio (z) = 0.35042 0.55162
#
# Static dielectric constant tensor:
#      x y z
#    x 3.834960 0.114580 -0.106230 
#    y 0.114580 3.697840 0.310100 
#    z -0.106230 0.310100 4.133260 
# 
# 
# High freq. dielectric constant tensor:
#      x y z
#    x 1.819690 0.016120 -0.011320 
#    y 0.016120 1.810660 0.017960 
#    z -0.011320 0.017960 1.834300 
# 
# From -- ./inp_files/261967.got.cif
#   From: 2010.06.25/outbox.cif.g09.slc.cpg/sg2_131_cif.got.tgz:261967.got - 2010.06.27 13:26:56.
