data_PCOD8003048
_publ_section_title
;
Structure prediction by ZEFSAII (Michael W. Deem and Ramdas Pophale) SiO2 
 PCOD8003048
Probable space group: P -1
;
_chemical_formula_sum "Si O2"
_cell_formula_units_Z 16
_cell_length_a 11.119185
_cell_length_b 10.383326
_cell_length_c 10.673362
_cell_angle_alpha 121.603431
_cell_angle_beta 74.711307
_cell_angle_gamma 134.540974
_cell_volume 737.016242
_symmetry_space_group_name_H-M "P -1"
_symmetry_group_IT_number 2
_symmetry_cell_setting 'triclinic'
loop_
_space_group_symop_operation_xyz
x,y,z
-x,-y,-z
loop_
_atom_site_type_symbol
_atom_site_label
_atom_site_fract_x
_atom_site_fract_y
_atom_site_fract_z
Si Si1 0.267716 0.002331 0.320769
Si Si2 0.698378 0.792885 0.834896
Si Si3 0.966742 0.103493 0.270841
Si Si4 0.511230 0.972044 0.338053
Si Si5 0.613363 0.743392 0.104542
Si Si6 0.400765 0.395014 0.600766
Si Si7 0.072581 0.316844 0.622354
Si Si8 0.118690 0.652691 0.655558
O O1 0.316610 0.097386 0.216465
O O2 0.332127 0.166945 0.498918
O O3 0.351213 0.909140 0.274755
O O4 0.062998 0.825564 0.302386
O O5 0.542743 0.539876 0.742961
O O6 0.881539 0.865761 0.814707
O O7 0.676126 0.852773 0.005711
O O8 0.934852 0.217720 0.242043
O O9 0.013419 0.193468 0.444323
O O10 0.787203 0.859295 0.198247
O O11 0.505229 0.787495 0.220947
O O12 0.500000 0.000000 0.500000
O O13 0.683095 0.193878 0.356165
O O14 0.500000 0.500000 0.000000
O O15 0.500000 0.500000 0.500000
O O16 0.249044 0.389773 0.654586
O O17 0.091404 0.514864 0.708221
O O18 0.000000 0.500000 0.500000
#
# Coordination Sequence:
#
# PCOD8003048 Si02
#       8
#     2   2   2   2   2   2   2   2
#     4  11  23  37  63  97 131 174 218 273 328 393
#     4  11  24  40  64  93 138 177 220 268 341 402
#     4  10  21  40  63  93 132 175 219 273 328 393
#     4  11  24  44  68  96 131 170 227 280 330 395
#     4  11  27  44  66  96 133 181 219 275 338 398
#     4  10  20  36  61  98 130 172 213 271 327 388
#     4  11  20  37  64 102 132 166 225 278 328 387
#     4   9  19  33  60  93 128 163 210 275 328 375
#
# _framework density 21.709156
#
# number of rings (size 3 to 8) (size 9 to 14) (size 15 to 20)
#    0.000    1.500    2.500    4.500    5.250    1.500 
#    0.000    0.000    0.000    4.500    0.000    0.000 
#    0.000    0.000    0.000    0.000    0.000    0.000 
#
# Total GULP energy -198326.880089 kJ/mol
# GULP energy per Si atom -12395.430006 kJ/mol
# Density = 2.165974 g / cm^3
# Si number density = 21.709156 Si / 1000 Ang^3
#
#
#
# Elastic Constant Matrix: (Units=GPa)
#
#
# Indices 1 2 3 4 5 6 
#
# 1 130.8670 32.8778 39.6088 0.6335 -20.4190 21.8639
# 2 32.8778 94.8712 26.2706 12.2703 -9.9782 11.4290
# 3 39.6088 26.2706 89.2960 -4.7452 -9.9266 -3.9293
# 4 0.6335 12.2703 -4.7452 39.2628 -0.2415 4.3319
# 5 -20.4190 -9.9782 -9.9266 -0.2415 28.3218 -0.8576
# 6 21.8639 11.4290 -3.9293 4.3319 -0.8576 39.7180
#
#
#
# Elastic Compliance Matrix: (Units=1/GPa)
#
#
# Indices 1 2 3 4 5 6 
#
# 1 0.011190 -0.001442 -0.004121 0.000479 0.005935 -0.006077
# 2 -0.001442 0.013064 -0.003292 -0.004135 0.002289 -0.002790
# 3 -0.004121 -0.003292 0.014435 0.002360 0.001082 0.004410
# 4 0.000479 -0.004135 0.002360 0.027239 -0.000107 -0.001813
# 5 0.005935 0.002289 0.001082 -0.000107 0.040684 -0.002929
# 6 -0.006077 -0.002790 0.004410 -0.001813 -0.002929 0.029896
#
#
# Mechanical properties :
#
#
# Convention : Reuss Voigt Hill
#
# Bulk Modulus (GPa) = 47.66889 56.94986 52.30937
# Shear Modulus (GPa) = 31.01533 35.87896 33.44715
#
# Velocity S-wave (km/s) = 3.78388 4.06977 3.92942
# Velocity P-wave (km/s) = 6.41062 6.95514 6.68842
#
# Compressibility (1/GPa) = 0.02097804
#
# Stress axis : x y z
#
# Youngs Moduli (GPa) = 89.36506 76.54804 69.27646
#
# Poissons Ratio (x) = 0.11041 0.28551
# Poissons Ratio (y) = 0.12890 0.22803
# Poissons Ratio (z) = 0.36831 0.25196
#
# Static dielectric constant tensor:
#      x y z
#    x 4.335600 0.435120 0.494070 
#    y 0.435120 4.961270 1.178490 
#    z 0.494070 1.178490 5.133530 
# 
# 
# High freq. dielectric constant tensor:
#      x y z
#    x 1.858500 0.010730 -0.000460 
#    y 0.010730 1.865160 0.004170 
#    z -0.000460 0.004170 1.825760 
# 
# From -- ./inp_files/426675.got.cif
#   From: 2010.06.25/outbox.cif.g09.slc.cpg/sg2_214_cif.got.tgz:426675.got - 2010.06.27 13:26:56.
