data_PCOD8003948
_publ_section_title
;
Structure prediction by ZEFSAII (Michael W. Deem and Ramdas Pophale) SiO2 
 PCOD8003948
Probable space group: P -1
;
_chemical_formula_sum "Si O2"
_cell_formula_units_Z 12
_cell_length_a 11.433466
_cell_length_b 15.521805
_cell_length_c 13.739993
_cell_angle_alpha 149.086172
_cell_angle_beta 153.169949
_cell_angle_gamma 27.937616
_cell_volume 486.906155
_symmetry_space_group_name_H-M "P -1"
_symmetry_group_IT_number 2
_symmetry_cell_setting 'triclinic'
loop_
_space_group_symop_operation_xyz
x,y,z
-x,-y,-z
loop_
_atom_site_type_symbol
_atom_site_label
_atom_site_fract_x
_atom_site_fract_y
_atom_site_fract_z
Si Si1 0.926094 0.120295 0.320911
Si Si2 0.134491 0.107003 0.118846
Si Si3 0.628553 0.733793 0.207797
Si Si4 0.717449 0.510368 0.251646
Si Si5 0.686283 0.553137 0.863637
Si Si6 0.608347 0.231810 0.571490
O O1 0.576317 0.277865 0.233978
O O2 0.088756 0.241424 0.534239
O O3 0.085242 0.979192 0.395219
O O4 0.959840 0.986838 0.125970
O O5 0.329543 0.199405 0.308734
O O6 0.825480 0.278041 0.105675
O O7 0.330916 0.951318 0.197941
O O8 0.640405 0.585644 0.156184
O O9 0.660864 0.633808 0.031303
O O10 0.438381 0.649911 0.247688
O O11 0.000000 0.500000 0.500000
O O12 0.652283 0.361287 0.648308
O O13 0.000000 0.500000 0.000000
#
# Coordination Sequence:
#
# PCOD8003948 Si02
#       6
#     2   2   2   2   2   2
#     4  10  21  40  61  87 122 156 196 247 296 351
#     4   9  20  37  60  91 124 157 194 238 293 357
#     4  10  22  40  61  91 123 155 196 241 299 357
#     4  10  20  37  62  91 125 159 193 238 292 357
#     4  11  25  43  63  86 115 157 207 253 296 347
#     4  10  22  39  60  88 120 157 199 242 295 351
#
# _framework density 24.645406000000001
#
# number of rings (size 3 to 8) (size 9 to 14) (size 15 to 20)
#    0.000    2.000    0.000    3.000    0.000   11.333 
#    0.000   19.167    0.000    0.000    0.000    0.000 
#    0.000    0.000    0.000    0.000    0.000    0.000 
#
# Total GULP energy -148745.263953 kJ/mol
# GULP energy per Si atom -12395.438663 kJ/mol
# Density = 2.458931 g / cm^3
# Si number density = 24.645406 Si / 1000 Ang^3
#
#
#
# Elastic Constant Matrix: (Units=GPa)
#
#
# Indices 1 2 3 4 5 6 
#
# 1 43.8097 47.0523 4.0757 8.4572 15.0383 4.2154
# 2 47.0523 177.0658 40.5259 -5.1594 27.6107 -16.3261
# 3 4.0757 40.5259 134.6864 12.6921 14.7325 6.6555
# 4 8.4572 -5.1594 12.6921 49.5795 13.5697 5.7883
# 5 15.0383 27.6107 14.7325 13.5697 28.1048 4.4923
# 6 4.2154 -16.3261 6.6555 5.7883 4.4923 21.7725
#
#
#
# Elastic Compliance Matrix: (Units=1/GPa)
#
#
# Indices 1 2 3 4 5 6 
#
# 1 0.040634 -0.012412 0.004548 -0.005736 -0.006659 -0.015665
# 2 -0.012412 0.012404 -0.003584 0.005034 -0.008199 0.013153
# 3 0.004548 -0.003584 0.009034 -0.002387 -0.001639 -0.005357
# 4 -0.005736 0.005034 -0.002387 0.025746 -0.013298 0.001514
# 5 -0.006659 -0.008199 -0.001639 -0.013298 0.056473 -0.012474
# 6 -0.015665 0.013153 -0.005357 0.001514 -0.012474 0.062634
#
#
# Mechanical properties :
#
#
# Convention : Reuss Voigt Hill
#
# Bulk Modulus (GPa) = 25.52552 59.87441 42.69997
# Shear Modulus (GPa) = 20.58629 37.48523 29.03576
#
# Velocity S-wave (km/s) = 2.89329 3.90421 3.43613
# Velocity P-wave (km/s) = 4.64124 6.68363 5.75378
#
# Compressibility (1/GPa) = 0.03917648
#
# Stress axis : x y z
#
# Youngs Moduli (GPa) = 24.61005 80.61834 110.68716
#
# Poissons Ratio (x) = 1.00062 -0.50340
# Poissons Ratio (y) = 0.30545 0.39672
# Poissons Ratio (z) = -0.11193 0.28895
#
# Static dielectric constant tensor:
#      x y z
#    x 3.916120 -0.140360 -0.093140 
#    y -0.140360 5.300020 0.309460 
#    z -0.093140 0.309460 5.607990 
# 
# 
# High freq. dielectric constant tensor:
#      x y z
#    x 1.914890 -0.000950 0.015270 
#    y -0.000950 2.017230 -0.000930 
#    z 0.015270 -0.000930 2.027800 
# 
# From -- ./inp_files/265331.got.cif
#   From: 2010.06.25/outbox.cif.g09.slc.cpg/sg2_133_cif.got.tgz:265331.got - 2010.06.27 13:26:56.
