data_PCOD8003589
_publ_section_title
;
Structure prediction by ZEFSAII (Michael W. Deem and Ramdas Pophale) SiO2 
 PCOD8003589
Probable space group: P -1
;
_chemical_formula_sum "Si O2"
_cell_formula_units_Z 16
_cell_length_a 19.004903
_cell_length_b 7.531709
_cell_length_c 20.174209
_cell_angle_alpha 117.980492
_cell_angle_beta 20.726016
_cell_angle_gamma 127.051580
_cell_volume 768.751177
_symmetry_space_group_name_H-M "P -1"
_symmetry_group_IT_number 2
_symmetry_cell_setting 'triclinic'
loop_
_space_group_symop_operation_xyz
x,y,z
-x,-y,-z
loop_
_atom_site_type_symbol
_atom_site_label
_atom_site_fract_x
_atom_site_fract_y
_atom_site_fract_z
Si Si1 0.144931 0.179653 0.190871
Si Si2 0.356221 0.029653 0.401573
Si Si3 0.855034 0.299925 0.040152
Si Si4 0.523473 0.991030 0.108286
Si Si5 0.932869 0.467594 0.857406
Si Si6 0.766266 0.793202 0.035705
Si Si7 0.750299 0.422826 0.521214
Si Si8 0.904001 0.409339 0.641564
O O1 0.186052 0.423446 0.224713
O O2 0.311394 0.112345 0.069310
O O3 0.218460 0.223771 0.058286
O O4 0.875141 0.956346 0.401769
O O5 0.415722 0.929938 0.266575
O O6 0.274418 0.829522 0.494249
O O7 0.593979 0.261444 0.258293
O O8 0.971446 0.379430 0.878796
O O9 0.000000 0.500000 0.000000
O O10 0.845970 0.062870 0.030699
O O11 0.311588 0.863646 0.220288
O O12 0.681320 0.274833 0.012233
O O13 0.135009 0.486952 0.635975
O O14 0.930792 0.709877 0.909967
O O15 0.502669 0.607328 0.260147
O O16 0.911045 0.589715 0.469728
O O17 0.000000 0.500000 0.500000
#
# Coordination Sequence:
#
# PCOD8003589 Si02
#       8
#     2   2   2   2   2   2   2   2
#     4  11  18  36  66  84 120 179 204 248 315 361
#     4   9  18  37  62  85 125 162 204 246 320 374
#     4  10  23  45  70  96 126 155 206 265 314 388
#     4  11  21  36  58  94 126 169 216 260 302 367
#     4  11  23  40  65  92 127 164 210 255 320 374
#     4  11  21  43  67  88 127 175 202 248 334 371
#     4  10  20  37  59  88 128 168 211 255 305 364
#     4  11  19  35  61  92 128 170 221 261 300 359
#
# _framework density 20.812975999999999
#
# number of rings (size 3 to 8) (size 9 to 14) (size 15 to 20)
#    0.000    1.500    8.750    0.375    0.000    3.000 
#    0.000    3.750    0.000    0.000    0.000    0.000 
#    0.000    0.000    0.000    0.000    0.000    0.000 
#
# Total GULP energy -198241.404645 kJ/mol
# GULP energy per Si atom -12390.087790 kJ/mol
# Density = 2.076560 g / cm^3
# Si number density = 20.812976 Si / 1000 Ang^3
#
#
#
# Elastic Constant Matrix: (Units=GPa)
#
#
# Indices 1 2 3 4 5 6 
#
# 1 55.8196 27.4460 35.2283 -11.4517 0.0054 23.8326
# 2 27.4460 93.5662 31.1685 -7.6316 -2.7560 19.0891
# 3 35.2283 31.1685 131.2030 -2.8082 9.6509 22.1698
# 4 -11.4517 -7.6316 -2.8082 25.1064 -0.8974 -10.4306
# 5 0.0054 -2.7560 9.6509 -0.8974 28.8853 -3.0960
# 6 23.8326 19.0891 22.1698 -10.4306 -3.0960 36.9314
#
#
#
# Elastic Compliance Matrix: (Units=1/GPa)
#
#
# Indices 1 2 3 4 5 6 
#
# 1 0.029464 -0.004026 -0.004759 0.006619 0.000099 -0.012198
# 2 -0.004026 0.013108 -0.001651 0.000847 0.001527 -0.002819
# 3 -0.004759 -0.001651 0.010081 -0.003069 -0.003977 -0.003327
# 4 0.006619 0.000847 -0.003069 0.047398 0.003739 0.010834
# 5 0.000099 0.001527 -0.003977 0.003739 0.036819 0.005677
# 6 -0.012198 -0.002819 -0.003327 0.010834 0.005677 0.041939
#
#
# Mechanical properties :
#
#
# Convention : Reuss Voigt Hill
#
# Bulk Modulus (GPa) = 31.46569 52.03049 41.74809
# Shear Modulus (GPa) = 23.77856 30.63436 27.20646
#
# Velocity S-wave (km/s) = 3.38374 3.84068 3.61943
# Velocity P-wave (km/s) = 5.51519 6.68738 6.12937
#
# Compressibility (1/GPa) = 0.03178065
#
# Stress axis : x y z
#
# Youngs Moduli (GPa) = 33.93976 76.29162 99.19834
#
# Poissons Ratio (x) = 0.30715 0.47210
# Poissons Ratio (y) = 0.13664 0.16375
# Poissons Ratio (z) = 0.16152 0.12594
#
# Static dielectric constant tensor:
#      x y z
#    x 3.464620 -0.093810 -0.096180 
#    y -0.093810 4.404570 0.263210 
#    z -0.096180 0.263210 4.361610 
# 
# 
# High freq. dielectric constant tensor:
#      x y z
#    x 1.780910 -0.004860 0.008060 
#    y -0.004860 1.795200 -0.003550 
#    z 0.008060 -0.003550 1.833580 
# 
# From -- ./inp_files/601167.got.cif
#   From: 2010.06.25/outbox.cif.g09.slc.cpg/sg2_301_cif.got.tgz:601167.got - 2010.06.27 13:26:56.
