data_PCOD8003019
_publ_section_title
;
Structure prediction by ZEFSAII (Michael W. Deem and Ramdas Pophale) SiO2 
 PCOD8003019
Probable space group: P -1
;
_chemical_formula_sum "Si O2"
_cell_formula_units_Z 16
_cell_length_a 15.307756
_cell_length_b 18.794237
_cell_length_c 11.069806
_cell_angle_alpha 148.713806
_cell_angle_beta 49.666420
_cell_angle_gamma 149.903782
_cell_volume 775.702808
_symmetry_space_group_name_H-M "P -1"
_symmetry_group_IT_number 2
_symmetry_cell_setting 'triclinic'
loop_
_space_group_symop_operation_xyz
x,y,z
-x,-y,-z
loop_
_atom_site_type_symbol
_atom_site_label
_atom_site_fract_x
_atom_site_fract_y
_atom_site_fract_z
Si Si1 0.505348 0.305901 0.423214
Si Si2 0.974462 0.594152 0.808566
Si Si3 0.246527 0.079924 0.685861
Si Si4 0.402861 0.726337 0.449703
Si Si5 0.353464 0.976787 0.881281
Si Si6 0.839736 0.758585 0.848560
Si Si7 0.885393 0.203500 0.375695
Si Si8 0.109785 0.967596 0.382641
O O1 0.587559 0.304092 0.462660
O O2 0.664030 0.570908 0.641314
O O3 0.306376 0.181004 0.451209
O O4 0.487888 0.194765 0.159624
O O5 0.158303 0.748699 0.787213
O O6 0.804315 0.489212 0.728379
O O7 0.925840 0.403587 0.638290
O O8 0.010127 0.739006 0.089963
O O9 0.458822 0.235039 0.698624
O O10 0.153289 0.893150 0.597462
O O11 0.126736 0.954824 0.490481
O O12 0.241975 0.236626 0.955666
O O13 0.466112 0.944756 0.703003
O O14 0.296554 0.998032 0.838036
O O15 0.937211 0.704801 0.712116
O O16 0.000000 0.000000 0.000000
O O17 0.000000 0.000000 0.500000
#
# Coordination Sequence:
#
# PCOD8003019 Si02
#       8
#     2   2   2   2   2   2   2   2
#     4  10  21  36  62  88 116 159 198 254 297 352
#     4  10  21  37  63  93 117 161 202 247 300 355
#     4  10  24  39  57  88 121 163 200 246 310 356
#     4  10  20  36  61  91 121 152 202 248 303 359
#     4  10  20  36  61  94 118 152 203 251 298 355
#     4  10  22  40  60  85 118 166 202 240 299 365
#     4  10  21  41  62  82 125 164 200 246 300 363
#     4  10  24  39  61  93 124 154 200 258 298 360
#
# _framework density 20.626456999999998
#
# number of rings (size 3 to 8) (size 9 to 14) (size 15 to 20)
#    0.000    2.000    0.000    3.375    7.000    5.500 
#    0.000    6.250    0.000    0.000    0.000    0.000 
#    0.000    0.000    0.000    0.000    0.000    0.000 
#
# Total GULP energy -198308.697096 kJ/mol
# GULP energy per Si atom -12394.293568 kJ/mol
# Density = 2.057951 g / cm^3
# Si number density = 20.626457 Si / 1000 Ang^3
#
#
#
# Elastic Constant Matrix: (Units=GPa)
#
#
# Indices 1 2 3 4 5 6 
#
# 1 94.8520 42.1205 54.3588 -0.6912 2.3278 12.1259
# 2 42.1205 75.9442 68.1716 -4.7272 -3.7512 12.1068
# 3 54.3588 68.1716 168.0799 4.2148 11.8200 19.1646
# 4 -0.6912 -4.7272 4.2148 36.8777 3.7869 -3.4592
# 5 2.3278 -3.7512 11.8200 3.7869 30.3108 -3.7991
# 6 12.1259 12.1068 19.1646 -3.4592 -3.7991 35.6667
#
#
#
# Elastic Compliance Matrix: (Units=1/GPa)
#
#
# Indices 1 2 3 4 5 6 
#
# 1 0.014674 -0.006205 -0.001890 -0.000356 -0.001370 -0.002047
# 2 -0.006205 0.024927 -0.008550 0.003330 0.006385 -0.000755
# 3 -0.001890 -0.008550 0.010794 -0.002110 -0.005237 -0.003017
# 4 -0.000356 0.003330 -0.002110 0.028225 -0.001931 0.002656
# 5 -0.001370 0.006385 -0.005237 -0.001931 0.036777 0.004842
# 6 -0.002047 -0.000755 -0.003017 0.002656 0.004842 0.031384
#
#
# Mechanical properties :
#
#
# Convention : Reuss Voigt Hill
#
# Bulk Modulus (GPa) = 58.46488 74.24198 66.35343
# Shear Modulus (GPa) = 26.91444 32.18606 29.55025
#
# Velocity S-wave (km/s) = 3.61619 3.95451 3.78913
# Velocity P-wave (km/s) = 6.77067 7.54470 7.16814
#
# Compressibility (1/GPa) = 0.01710429
#
# Stress axis : x y z
#
# Youngs Moduli (GPa) = 68.14581 40.11757 92.64596
#
# Poissons Ratio (x) = 0.24894 0.17513
# Poissons Ratio (y) = 0.42287 0.79209
# Poissons Ratio (z) = 0.12882 0.34299
#
# Static dielectric constant tensor:
#      x y z
#    x 3.867010 0.387470 -0.060890 
#    y 0.387470 3.820420 -0.148160 
#    z -0.060890 -0.148160 4.099510 
# 
# 
# High freq. dielectric constant tensor:
#      x y z
#    x 1.806520 0.020960 -0.000180 
#    y 0.020960 1.799360 -0.006660 
#    z -0.000180 -0.006660 1.817380 
# 
# From -- ./inp_files/258942.got.cif
#   From: 2010.06.25/outbox.cif.g09.slc.cpg/sg2_130_cif.got.tgz:258942.got - 2010.06.27 13:26:56.
