data_PCOD8003494
_publ_section_title
;
Structure prediction by ZEFSAII (Michael W. Deem and Ramdas Pophale) SiO2 
 PCOD8003494
Probable space group: P -1
;
_chemical_formula_sum "Si O2"
_cell_formula_units_Z 14
_cell_length_a 19.323201
_cell_length_b 9.845827
_cell_length_c 5.545683
_cell_angle_alpha 122.432051
_cell_angle_beta 116.075686
_cell_angle_gamma 45.284821
_cell_volume 629.399406
_symmetry_space_group_name_H-M "P -1"
_symmetry_group_IT_number 2
_symmetry_cell_setting 'triclinic'
loop_
_space_group_symop_operation_xyz
x,y,z
-x,-y,-z
loop_
_atom_site_type_symbol
_atom_site_label
_atom_site_fract_x
_atom_site_fract_y
_atom_site_fract_z
Si Si1 0.120226 0.992637 0.323651
Si Si2 0.622759 0.789521 0.236333
Si Si3 0.257887 0.910559 0.832243
Si Si4 0.080615 0.297971 0.179230
Si Si5 0.055207 0.675932 0.362922
Si Si6 0.598085 0.002705 0.903759
Si Si7 0.784036 0.341389 0.199118
O O1 0.225653 0.868139 0.494912
O O2 0.103867 0.186051 0.359148
O O3 0.127518 0.828816 0.004763
O O4 0.028933 0.089721 0.456844
O O5 0.631927 0.875264 0.583879
O O6 0.707848 0.548846 0.137859
O O7 0.518694 0.834318 0.111430
O O8 0.636727 0.871541 0.087184
O O9 0.272440 0.746161 0.886380
O O10 0.171481 0.146374 0.994269
O O11 0.360088 0.870739 0.918871
O O12 0.069806 0.503071 0.399474
O O13 0.978678 0.353590 0.972781
O O14 0.158893 0.637991 0.477088
#
# Coordination Sequence:
#
# PCOD8003494 Si02
#       7
#     2   2   2   2   2   2   2
#     4  10  22  37  55  89 126 171 207 259 326 374
#     4  10  24  45  71 100 123 167 218 266 323 378
#     4  10  23  38  61  90 130 167 208 262 327 380
#     4   9  20  38  58  86 119 169 220 263 312 372
#     4  10  20  37  58  85 123 168 219 264 310 376
#     4  10  23  46  72  95 129 165 215 269 318 389
#     4  11  24  37  60  94 129 166 211 265 324 385
#
# _framework density 22.243428999999999
#
# number of rings (size 3 to 8) (size 9 to 14) (size 15 to 20)
#    0.000    2.000    0.000    1.714    8.000    6.857 
#    0.000    0.714    0.000    0.000    0.000    0.000 
#    0.000    0.000    0.000    0.000    0.000    0.000 
#
# Total GULP energy -173511.644156 kJ/mol
# GULP energy per Si atom -12393.688868 kJ/mol
# Density = 2.219280 g / cm^3
# Si number density = 22.243429 Si / 1000 Ang^3
#
#
#
# Elastic Constant Matrix: (Units=GPa)
#
#
# Indices 1 2 3 4 5 6 
#
# 1 102.9928 38.8982 48.6023 -2.4628 23.7961 10.0361
# 2 38.8982 93.5155 30.8728 -5.1969 8.1392 5.6351
# 3 48.6023 30.8728 88.8678 -8.3104 6.0572 7.8117
# 4 -2.4628 -5.1969 -8.3104 31.4075 2.8580 -2.2701
# 5 23.7961 8.1392 6.0572 2.8580 42.6469 -4.4326
# 6 10.0361 5.6351 7.8117 -2.2701 -4.4326 16.7468
#
#
#
# Elastic Compliance Matrix: (Units=1/GPa)
#
#
# Indices 1 2 3 4 5 6 
#
# 1 0.017110 -0.003651 -0.006856 -0.000883 -0.008674 -0.008243
# 2 -0.003651 0.013145 -0.002339 0.001223 -0.000332 -0.001066
# 3 -0.006856 -0.002339 0.016153 0.003075 0.001584 -0.001803
# 4 -0.000883 0.001223 0.003075 0.033169 -0.002128 0.002616
# 5 -0.008674 -0.000332 0.001584 -0.002128 0.029527 0.012098
# 6 -0.008243 -0.001066 -0.001803 0.002616 0.012098 0.069409
#
#
# Mechanical properties :
#
#
# Convention : Reuss Voigt Hill
#
# Bulk Modulus (GPa) = 48.27214 58.01366 53.14290
# Shear Modulus (GPa) = 23.68427 29.29375 26.48901
#
# Velocity S-wave (km/s) = 3.26663 3.63293 3.45464
# Velocity P-wave (km/s) = 5.99806 6.61328 6.31317
#
# Compressibility (1/GPa) = 0.02071588
#
# Stress axis : x y z
#
# Youngs Moduli (GPa) = 58.44613 76.07187 61.90839
#
# Poissons Ratio (x) = 0.27774 0.42444
# Poissons Ratio (y) = 0.21338 0.14482
# Poissons Ratio (z) = 0.40070 0.17795
#
# Static dielectric constant tensor:
#      x y z
#    x 3.777330 0.033700 -0.004740 
#    y 0.033700 3.935580 -0.085850 
#    z -0.004740 -0.085850 4.107910 
# 
# 
# High freq. dielectric constant tensor:
#      x y z
#    x 1.859600 0.008470 0.003920 
#    y 0.008470 1.871990 -0.009220 
#    z 0.003920 -0.009220 1.880700 
# 
# From -- ./inp_files/35539.got.cif
#   From: 2010.06.25/outbox.cif.g09.slc.cpg/sg2_18_cif.got.tgz:35539.got - 2010.06.27 13:26:56.
