data_PCOD8003823
_publ_section_title
;
Structure prediction by ZEFSAII (Michael W. Deem and Ramdas Pophale) SiO2 
 PCOD8003823
Probable space group: P -1
;
_chemical_formula_sum "Si O2"
_cell_formula_units_Z 14
_cell_length_a 7.727029
_cell_length_b 16.147158
_cell_length_c 9.583355
_cell_angle_alpha 144.208714
_cell_angle_beta 77.189535
_cell_angle_gamma 94.563053
_cell_volume 671.257605
_symmetry_space_group_name_H-M "P -1"
_symmetry_group_IT_number 2
_symmetry_cell_setting 'triclinic'
loop_
_space_group_symop_operation_xyz
x,y,z
-x,-y,-z
loop_
_atom_site_type_symbol
_atom_site_label
_atom_site_fract_x
_atom_site_fract_y
_atom_site_fract_z
Si Si1 0.689490 0.917919 0.401694
Si Si2 0.932870 0.807191 0.670412
Si Si3 0.536756 0.829125 0.765931
Si Si4 0.320098 0.650753 0.371379
Si Si5 0.022129 0.084294 0.891445
Si Si6 0.672249 0.170890 0.933865
Si Si7 0.507066 0.662502 0.065164
O O1 0.665793 0.752360 0.199842
O O2 0.831724 0.937787 0.285932
O O3 0.500000 0.000000 0.500000
O O4 0.727372 0.000091 0.648934
O O5 0.743471 0.760092 0.595491
O O6 0.102622 0.677983 0.453663
O O7 0.967033 0.933004 0.733735
O O8 0.898880 0.855125 0.902170
O O9 0.398914 0.773243 0.608582
O O10 0.496984 0.790840 0.880263
O O11 0.500000 0.000000 0.000000
O O12 0.375780 0.654641 0.206618
O O13 0.393673 0.495670 0.213620
O O14 0.850186 0.198419 0.022059
O O15 0.624609 0.270778 0.944602
#
# Coordination Sequence:
#
# PCOD8003823 Si02
#       7
#     2   2   2   2   2   2   2
#     4  10  20  37  61  90 124 163 209 261 311 368
#     4  11  21  39  65  95 129 165 208 264 319 377
#     4  12  22  41  70  97 127 164 215 263 320 372
#     4  11  24  46  63  93 130 172 210 261 316 386
#     4  11  21  37  62  99 127 157 215 266 319 372
#     4  11  21  40  64  98 125 164 213 269 313 370
#     4  10  24  44  64  87 132 172 211 257 321 377
#
# _framework density 20.856373999999999
#
# number of rings (size 3 to 8) (size 9 to 14) (size 15 to 20)
#    0.000    1.143    2.857    5.571    0.000    0.571 
#    2.571    2.857    0.000    0.000    0.000    0.000 
#    0.000    0.000    0.000    0.000    0.000    0.000 
#
# Total GULP energy -173560.192864 kJ/mol
# GULP energy per Si atom -12397.156633 kJ/mol
# Density = 2.080890 g / cm^3
# Si number density = 20.856374 Si / 1000 Ang^3
#
#
#
# Elastic Constant Matrix: (Units=GPa)
#
#
# Indices 1 2 3 4 5 6 
#
# 1 126.0813 37.8012 33.0062 -2.4923 -28.9923 3.4718
# 2 37.8012 69.2132 25.6077 6.9776 -9.7494 -7.5525
# 3 33.0062 25.6077 80.8593 7.7756 -19.8902 1.7789
# 4 -2.4923 6.9776 7.7756 29.3585 6.1606 -10.7586
# 5 -28.9923 -9.7494 -19.8902 6.1606 32.2691 -7.5915
# 6 3.4718 -7.5525 1.7789 -10.7586 -7.5915 33.8215
#
#
#
# Elastic Compliance Matrix: (Units=1/GPa)
#
#
# Indices 1 2 3 4 5 6 
#
# 1 0.011561 -0.004803 -0.001311 0.000740 0.007947 -0.000171
# 2 -0.004803 0.019317 -0.003850 -0.002521 0.000653 0.004354
# 3 -0.001311 -0.003850 0.016933 -0.006122 0.008897 -0.001566
# 4 0.000740 -0.002521 -0.006122 0.042361 -0.009356 0.011058
# 5 0.007947 0.000653 0.008897 -0.009356 0.047117 0.006462
# 6 -0.000171 0.004354 -0.001566 0.011058 0.006462 0.035607
#
#
# Mechanical properties :
#
#
# Convention : Reuss Voigt Hill
#
# Bulk Modulus (GPa) = 35.86263 52.10932 43.98598
# Shear Modulus (GPa) = 24.73809 31.07239 27.90524
#
# Velocity S-wave (km/s) = 3.44774 3.86401 3.66180
# Velocity P-wave (km/s) = 5.75166 6.70422 6.24613
#
# Compressibility (1/GPa) = 0.02788418
#
# Stress axis : x y z
#
# Youngs Moduli (GPa) = 86.49566 51.76785 59.05647
#
# Poissons Ratio (x) = 0.24866 0.07740
# Poissons Ratio (y) = 0.41546 0.22734
# Poissons Ratio (z) = 0.11337 0.19928
#
# Static dielectric constant tensor:
#      x y z
#    x 4.333770 0.172890 0.357380 
#    y 0.172890 3.772240 0.126020 
#    z 0.357380 0.126020 4.130670 
# 
# 
# High freq. dielectric constant tensor:
#      x y z
#    x 1.824030 -0.003950 -0.007750 
#    y -0.003950 1.813840 -0.025070 
#    z -0.007750 -0.025070 1.804840 
# 
# From -- ./inp_files/189885.got.cif
#   From: 2010.06.25/outbox.cif.g09.slc.cpg/sg2_95_cif.got.tgz:189885.got - 2010.06.27 13:26:56.
