data_PCOD8003510
_publ_section_title
;
Structure prediction by ZEFSAII (Michael W. Deem and Ramdas Pophale) SiO2 
 PCOD8003510
Probable space group: P -1
;
_chemical_formula_sum "Si O2"
_cell_formula_units_Z 12
_cell_length_a 12.465578
_cell_length_b 8.709996
_cell_length_c 21.784062
_cell_angle_alpha 50.296403
_cell_angle_beta 19.484445
_cell_angle_gamma 49.603624
_cell_volume 597.199070
_symmetry_space_group_name_H-M "P -1"
_symmetry_group_IT_number 2
_symmetry_cell_setting 'triclinic'
loop_
_space_group_symop_operation_xyz
x,y,z
-x,-y,-z
loop_
_atom_site_type_symbol
_atom_site_label
_atom_site_fract_x
_atom_site_fract_y
_atom_site_fract_z
Si Si1 0.819878 0.141448 0.904475
Si Si2 0.410564 0.799862 0.345921
Si Si3 0.455703 0.375700 0.937296
Si Si4 0.238753 0.294930 0.941455
Si Si5 0.714565 0.757685 0.732527
Si Si6 0.811587 0.587907 0.287747
O O1 0.717938 0.203031 0.873792
O O2 0.099603 0.261802 0.745835
O O3 0.493275 0.213346 0.101117
O O4 0.946946 0.899401 0.905035
O O5 0.481797 0.745326 0.250340
O O6 0.720838 0.714891 0.241904
O O7 0.095901 0.703685 0.560206
O O8 0.338306 0.042322 0.332368
O O9 0.409920 0.303953 0.911885
O O10 0.608113 0.578749 0.796628
O O11 0.117507 0.414906 0.148650
O O12 0.000000 0.500000 0.000000
O O13 0.500000 0.500000 0.500000
#
# Coordination Sequence:
#
# PCOD8003510 Si02
#       6
#     2   2   2   2   2   2
#     4  10  22  38  61  86 115 150 192 235 284 335
#     4  10  20  37  58  89 114 147 194 237 280 341
#     4  11  21  38  60  84 118 150 191 232 290 339
#     4  11  23  38  58  84 120 156 185 230 286 344
#     4   9  20  36  62  87 111 148 194 239 286 324
#     4  11  21  36  63  85 114 146 197 241 282 330
#
# _framework density 20.093802
#
# number of rings (size 3 to 8) (size 9 to 14) (size 15 to 20)
#    0.000    1.667    1.667    4.500    2.333    2.667 
#    0.000    0.833    3.667    0.000    0.000    0.000 
#    0.000    0.000    0.000    0.000    0.000    0.000 
#
# Total GULP energy -148796.914945 kJ/mol
# GULP energy per Si atom -12399.742912 kJ/mol
# Density = 2.004807 g / cm^3
# Si number density = 20.093802 Si / 1000 Ang^3
#
#
#
# Elastic Constant Matrix: (Units=GPa)
#
#
# Indices 1 2 3 4 5 6 
#
# 1 142.2389 48.0403 29.4442 -11.7737 -12.1487 -2.4623
# 2 48.0403 116.0456 41.7274 -11.3089 -8.1784 0.4045
# 3 29.4442 41.7274 100.5534 -21.7079 -17.0979 1.5753
# 4 -11.7737 -11.3089 -21.7079 24.4177 -0.6431 -6.1235
# 5 -12.1487 -8.1784 -17.0979 -0.6431 21.9005 0.8745
# 6 -2.4623 0.4045 1.5753 -6.1235 0.8745 27.4204
#
#
#
# Elastic Compliance Matrix: (Units=1/GPa)
#
#
# Indices 1 2 3 4 5 6 
#
# 1 0.008658 -0.003020 0.000037 0.003266 0.003743 0.001430
# 2 -0.003020 0.011228 -0.003766 0.000353 -0.000407 -0.000129
# 3 0.000037 -0.003766 0.016407 0.013616 0.011752 0.001782
# 4 0.003266 0.000353 0.013616 0.058185 0.013801 0.012059
# 5 0.003743 -0.000407 0.011752 0.013801 0.057128 0.000927
# 6 0.001430 -0.000129 0.001782 0.012059 0.000927 0.039161
#
#
# Mechanical properties :
#
#
# Convention : Reuss Voigt Hill
#
# Bulk Modulus (GPa) = 43.87102 66.36242 55.11672
# Shear Modulus (GPa) = 23.60026 30.72279 27.16153
#
# Velocity S-wave (km/s) = 3.43082 3.91444 3.68059
# Velocity P-wave (km/s) = 6.12981 7.31632 6.74919
#
# Compressibility (1/GPa) = 0.02279409
#
# Stress axis : x y z
#
# Youngs Moduli (GPa) = 115.50588 89.06318 60.95056
#
# Poissons Ratio (x) = 0.26901 -0.00228
# Poissons Ratio (y) = 0.34888 0.22954
# Poissons Ratio (z) = -0.00431 0.33541
#
# Static dielectric constant tensor:
#      x y z
#    x 3.678110 -0.046170 -0.124680 
#    y -0.046170 3.923720 -0.159120 
#    z -0.124680 -0.159120 3.549560 
# 
# 
# High freq. dielectric constant tensor:
#      x y z
#    x 1.788350 -0.012420 -0.006220 
#    y -0.012420 1.789400 -0.014770 
#    z -0.006220 -0.014770 1.770980 
# 
# From -- ./inp_files/144519.got.cif
#   From: 2010.06.25/outbox.cif.g09.slc.cpg/sg2_73_cif.got.tgz:144519.got - 2010.06.27 13:26:56.
