data_PCOD8003234
_publ_section_title
;
Structure prediction by ZEFSAII (Michael W. Deem and Ramdas Pophale) SiO2 
 PCOD8003234
Probable space group: P -1
;
_chemical_formula_sum "Si O2"
_cell_formula_units_Z 16
_cell_length_a 15.788431
_cell_length_b 15.143599
_cell_length_c 12.822862
_cell_angle_alpha 57.470976
_cell_angle_beta 25.886434
_cell_angle_gamma 41.837269
_cell_volume 794.956561
_symmetry_space_group_name_H-M "P -1"
_symmetry_group_IT_number 2
_symmetry_cell_setting 'triclinic'
loop_
_space_group_symop_operation_xyz
x,y,z
-x,-y,-z
loop_
_atom_site_type_symbol
_atom_site_label
_atom_site_fract_x
_atom_site_fract_y
_atom_site_fract_z
Si Si1 0.174408 0.842676 0.457255
Si Si2 0.976665 0.677651 0.575868
Si Si3 0.405619 0.569445 0.888798
Si Si4 0.422877 0.338012 0.057560
Si Si5 0.625418 0.158959 0.549511
Si Si6 0.112086 0.823779 0.201612
Si Si7 0.547942 0.552784 0.515147
Si Si8 0.887863 0.741489 0.864963
O O1 0.342314 0.824104 0.377569
O O2 0.978323 0.826408 0.727243
O O3 0.387469 0.714936 0.220028
O O4 0.000000 0.000000 0.500000
O O5 0.287932 0.521066 0.351608
O O6 0.970382 0.792478 0.453767
O O7 0.818518 0.653208 0.695570
O O8 0.814514 0.751024 0.818334
O O9 0.391059 0.565692 0.781813
O O10 0.299005 0.502702 0.105023
O O11 0.202843 0.738405 0.045718
O O12 0.618914 0.229592 0.005524
O O13 0.560993 0.287545 0.474454
O O14 0.366107 0.179636 0.825509
O O15 0.893739 0.998859 0.307196
O O16 0.500000 0.500000 0.500000
O O17 0.872820 0.430332 0.255843
#
# Coordination Sequence:
#
# PCOD8003234 Si02
#       8
#     2   2   2   2   2   2   2   2
#     4  12  21  36  60  96 126 152 190 251 307 353
#     4  10  20  36  64  92 120 156 195 244 296 354
#     4  10  23  42  59  88 120 157 208 240 289 361
#     4  11  19  37  64  88 123 159 194 243 301 351
#     4  12  24  37  61  90 122 161 197 248 304 343
#     4  11  24  38  57  90 128 159 193 239 297 369
#     4  11  22  44  66  84 110 158 208 257 296 343
#     4  11  22  38  62  94 119 152 202 249 297 356
#
# _framework density 20.126885999999999
#
# number of rings (size 3 to 8) (size 9 to 14) (size 15 to 20)
#    0.000    1.000    7.500    1.875    1.750    3.500 
#    0.000    0.000    0.000    0.750    0.000    0.000 
#    0.000    0.000    0.000    0.000    0.000    0.000 
#
# Total GULP energy -198397.625141 kJ/mol
# GULP energy per Si atom -12399.851571 kJ/mol
# Density = 2.008108 g / cm^3
# Si number density = 20.126886 Si / 1000 Ang^3
#
#
#
# Elastic Constant Matrix: (Units=GPa)
#
#
# Indices 1 2 3 4 5 6 
#
# 1 87.5662 27.2169 32.5739 2.8370 -5.2441 3.9942
# 2 27.2169 141.0265 40.2278 12.1950 -7.8587 -2.6642
# 3 32.5739 40.2278 59.9099 0.7187 -4.1579 5.5686
# 4 2.8370 12.1950 0.7187 30.5237 12.1761 1.0736
# 5 -5.2441 -7.8587 -4.1579 12.1761 31.8119 -2.7430
# 6 3.9942 -2.6642 5.5686 1.0736 -2.7430 31.7409
#
#
#
# Elastic Compliance Matrix: (Units=1/GPa)
#
#
# Indices 1 2 3 4 5 6 
#
# 1 0.014499 -0.000428 -0.007407 -0.001775 0.001967 -0.000331
# 2 -0.000428 0.009631 -0.006139 -0.005233 0.003719 0.002438
# 3 -0.007407 -0.006139 0.025124 0.003095 -0.000999 -0.004182
# 4 -0.001775 -0.005233 0.003095 0.042101 -0.017614 -0.003705
# 5 0.001967 0.003719 -0.000999 -0.017614 0.039657 0.004263
# 6 -0.000331 0.002438 -0.004182 -0.003705 0.004263 0.032979
#
#
# Mechanical properties :
#
#
# Convention : Reuss Voigt Hill
#
# Bulk Modulus (GPa) = 46.94079 54.28219 50.61149
# Shear Modulus (GPa) = 25.12058 31.38092 28.25075
#
# Velocity S-wave (km/s) = 3.53669 3.95290 3.75057
# Velocity P-wave (km/s) = 6.32856 6.91826 6.62997
#
# Compressibility (1/GPa) = 0.02130343
#
# Stress axis : x y z
#
# Youngs Moduli (GPa) = 68.97102 103.83582 39.80308
#
# Poissons Ratio (x) = 0.04449 0.29482
# Poissons Ratio (y) = 0.02955 0.24437
# Poissons Ratio (z) = 0.51087 0.63749
#
# Static dielectric constant tensor:
#      x y z
#    x 3.764960 0.066380 0.003650 
#    y 0.066380 3.640030 0.086160 
#    z 0.003650 0.086160 3.487770 
# 
# 
# High freq. dielectric constant tensor:
#      x y z
#    x 1.780860 0.008780 -0.001980 
#    y 0.008780 1.783070 0.003710 
#    z -0.001980 0.003710 1.774090 
# 
# From -- ./inp_files/428940.got.cif
#   From: 2010.06.25/outbox.cif.g09.slc.cpg/sg2_215_cif.got.tgz:428940.got - 2010.06.27 13:26:56.
