data_PCOD8003569
_publ_section_title
;
Structure prediction by ZEFSAII (Michael W. Deem and Ramdas Pophale) SiO2 
 PCOD8003569
Probable space group: P -1
;
_chemical_formula_sum "Si O2"
_cell_formula_units_Z 16
_cell_length_a 13.625662
_cell_length_b 11.146100
_cell_length_c 9.084178
_cell_angle_alpha 82.389619
_cell_angle_beta 89.127059
_cell_angle_gamma 146.053392
_cell_volume 743.873694
_symmetry_space_group_name_H-M "P -1"
_symmetry_group_IT_number 2
_symmetry_cell_setting 'triclinic'
loop_
_space_group_symop_operation_xyz
x,y,z
-x,-y,-z
loop_
_atom_site_type_symbol
_atom_site_label
_atom_site_fract_x
_atom_site_fract_y
_atom_site_fract_z
Si Si1 0.828330 0.150134 0.787205
Si Si2 0.649564 0.799646 0.057831
Si Si3 0.211888 0.959524 0.529853
Si Si4 0.434860 0.798480 0.498375
Si Si5 0.896000 0.467368 0.631400
Si Si6 0.124460 0.067553 0.710089
Si Si7 0.737496 0.653780 0.912491
Si Si8 0.201524 0.405055 0.770750
O O1 0.768047 0.042077 0.644320
O O2 0.832173 0.300633 0.777039
O O3 0.023444 0.299559 0.791641
O O4 0.689877 0.967497 0.947297
O O5 0.708632 0.761616 0.942572
O O6 0.768340 0.906030 0.182118
O O7 0.437000 0.571836 0.138212
O O8 0.180213 0.069635 0.548982
O O9 0.040443 0.713301 0.648368
O O10 0.393629 0.099084 0.582144
O O11 0.276382 0.637626 0.407804
O O12 0.363802 0.656439 0.668885
O O13 0.500000 0.000000 0.500000
O O14 0.000000 0.500000 0.500000
O O15 0.181718 0.266477 0.688557
O O16 0.911824 0.829683 0.777491
O O17 0.758610 0.592585 0.065203
#
# Coordination Sequence:
#
# PCOD8003569 Si02
#       8
#     2   2   2   2   2   2   2   2
#     4  11  18  38  63  89 113 154 211 246 284 355
#     4  10  20  38  62  86 115 163 209 239 284 362
#     4  11  24  38  60  91 126 156 193 253 309 347
#     4  12  21  39  63  88 117 156 208 255 290 345
#     4  10  20  37  59  86 114 153 203 248 288 349
#     4  11  23  41  57  89 136 155 186 249 312 359
#     4  10  20  37  63  86 118 164 204 239 289 359
#     4  11  20  37  65  91 117 160 204 243 294 361
#
# _framework density 21.509027
#
# number of rings (size 3 to 8) (size 9 to 14) (size 15 to 20)
#    0.000    1.250    7.500    1.500    0.000    2.000 
#    0.000    0.625    0.000    1.500    0.000    0.000 
#    0.000    0.000    0.000    0.000    0.000    0.000 
#
# Total GULP energy -198359.157130 kJ/mol
# GULP energy per Si atom -12397.447321 kJ/mol
# Density = 2.146007 g / cm^3
# Si number density = 21.509027 Si / 1000 Ang^3
#
#
#
# Elastic Constant Matrix: (Units=GPa)
#
#
# Indices 1 2 3 4 5 6 
#
# 1 78.7929 30.1515 7.6578 -10.2390 2.6576 22.6989
# 2 30.1515 94.3237 20.1169 -22.1154 -4.2606 27.9051
# 3 7.6578 20.1169 33.6240 -20.3272 13.4127 -4.1174
# 4 -10.2390 -22.1154 -20.3272 27.4267 -5.0374 5.7002
# 5 2.6576 -4.2606 13.4127 -5.0374 35.5737 -3.2638
# 6 22.6989 27.9051 -4.1174 5.7002 -3.2638 45.7914
#
#
#
# Elastic Compliance Matrix: (Units=1/GPa)
#
#
# Indices 1 2 3 4 5 6 
#
# 1 0.016494 -0.001460 0.001087 0.007204 -0.001549 -0.008196
# 2 -0.001460 0.020300 -0.007135 0.014481 0.006028 -0.013661
# 3 0.001087 -0.007135 0.065648 0.038943 -0.019857 0.003449
# 4 0.007204 0.014481 0.038943 0.083096 -0.003508 -0.019489
# 5 -0.001549 0.006028 -0.019857 -0.003508 0.035782 -0.001704
# 6 -0.008196 -0.013661 0.003449 -0.019489 -0.001704 0.036841
#
#
# Mechanical properties :
#
#
# Convention : Reuss Voigt Hill
#
# Bulk Modulus (GPa) = 11.43846 35.84368 23.64107
# Shear Modulus (GPa) = 16.53880 31.67932 24.10906
#
# Velocity S-wave (km/s) = 2.77596 3.84192 3.35159
# Velocity P-wave (km/s) = 3.95020 6.03168 5.09830
#
# Compressibility (1/GPa) = 0.08742437
#
# Stress axis : x y z
#
# Youngs Moduli (GPa) = 60.62725 49.26213 15.23272
#
# Poissons Ratio (x) = 0.07195 -0.01656
# Poissons Ratio (y) = 0.08855 0.10869
# Poissons Ratio (z) = -0.06589 0.35149
#
# Static dielectric constant tensor:
#      x y z
#    x 4.230580 0.038620 0.414560 
#    y 0.038620 4.302540 -0.305910 
#    z 0.414560 -0.305910 3.675120 
# 
# 
# High freq. dielectric constant tensor:
#      x y z
#    x 1.850110 0.015370 0.022000 
#    y 0.015370 1.855040 -0.020890 
#    z 0.022000 -0.020890 1.807250 
# 
# From -- ./inp_files/307367.got.cif
#   From: 2010.06.25/outbox.cif.g09.slc.cpg/sg2_154_cif.got.tgz:307367.got - 2010.06.27 13:26:56.
