data_PCOD8003261
_publ_section_title
;
Structure prediction by ZEFSAII (Michael W. Deem and Ramdas Pophale) SiO2 
 PCOD8003261
Probable space group: P -1
;
_chemical_formula_sum "Si O2"
_cell_formula_units_Z 16
_cell_length_a 18.627215
_cell_length_b 8.407422
_cell_length_c 11.224709
_cell_angle_alpha 39.730138
_cell_angle_beta 37.853412
_cell_angle_gamma 41.494391
_cell_volume 642.854860
_symmetry_space_group_name_H-M "P -1"
_symmetry_group_IT_number 2
_symmetry_cell_setting 'triclinic'
loop_
_space_group_symop_operation_xyz
x,y,z
-x,-y,-z
loop_
_atom_site_type_symbol
_atom_site_label
_atom_site_fract_x
_atom_site_fract_y
_atom_site_fract_z
Si Si1 0.911550 0.675737 0.849315
Si Si2 0.672775 0.170641 0.913762
Si Si3 0.473611 0.656491 0.234649
Si Si4 0.280724 0.487866 0.137723
Si Si5 0.587174 0.818546 0.392947
Si Si6 0.256192 0.958930 0.489613
Si Si7 0.867995 0.236000 0.028652
Si Si8 0.153101 0.607278 0.684610
O O1 0.052901 0.680947 0.664724
O O2 0.815504 0.978311 0.812008
O O3 0.882953 0.524519 0.859706
O O4 0.905836 0.475666 0.075752
O O5 0.608970 0.308515 0.797585
O O6 0.668295 0.406733 0.874726
O O7 0.597156 0.994868 0.166615
O O8 0.482240 0.377943 0.445060
O O9 0.402731 0.870472 0.306202
O O10 0.610040 0.653219 0.022988
O O11 0.215236 0.276581 0.381553
O O12 0.181722 0.745844 0.052488
O O13 0.723678 0.643945 0.369221
O O14 0.500000 0.000000 0.500000
O O15 0.233716 0.815964 0.720997
O O16 0.183145 0.872461 0.527496
O O17 0.000000 0.000000 0.000000
#
# Coordination Sequence:
#
# PCOD8003261 Si02
#       8
#     2   2   2   2   2   2   2   2
#     4   9  19  41  67  90 127 175 223 272 331 395
#     4  11  24  42  70 102 134 178 233 284 336 403
#     4  11  24  45  70  98 137 182 232 284 333 411
#     4  12  26  42  68 103 143 179 222 287 347 401
#     4  10  20  36  64  98 134 164 226 277 333 395
#     4  10  24  46  68 101 138 177 233 274 350 413
#     4  11  27  46  70 100 140 179 224 284 346 411
#     4   8  18  37  68  89 124 174 221 273 322 396
#
# _framework density 24.888977000000001
#
# number of rings (size 3 to 8) (size 9 to 14) (size 15 to 20)
#    0.000    1.750    1.250    2.250    7.000    3.000 
#    2.250    3.125    0.000    0.000    0.000    0.000 
#    0.000    0.000    0.000    0.000    0.000    0.000 
#
# Total GULP energy -198290.003364 kJ/mol
# GULP energy per Si atom -12393.125210 kJ/mol
# Density = 2.483233 g / cm^3
# Si number density = 24.888977 Si / 1000 Ang^3
#
#
#
# Elastic Constant Matrix: (Units=GPa)
#
#
# Indices 1 2 3 4 5 6 
#
# 1 62.0173 3.4821 21.6522 -13.8960 -1.4296 0.8945
# 2 3.4821 92.9260 22.4838 -2.0724 -9.0101 11.2863
# 3 21.6522 22.4838 91.6606 -26.2860 -10.5775 15.3503
# 4 -13.8960 -2.0724 -26.2860 41.8381 6.8287 -6.1000
# 5 -1.4296 -9.0101 -10.5775 6.8287 32.3023 1.5718
# 6 0.8945 11.2863 15.3503 -6.1000 1.5718 24.8318
#
#
#
# Elastic Compliance Matrix: (Units=1/GPa)
#
#
# Indices 1 2 3 4 5 6 
#
# 1 0.018335 -0.000199 -0.003667 0.004446 -0.001525 0.002885
# 2 -0.000199 0.012204 -0.002391 -0.002206 0.003313 -0.004813
# 3 -0.003667 -0.002391 0.015972 0.007134 0.003239 -0.007107
# 4 0.004446 -0.002206 0.007134 0.031192 -0.004891 0.004405
# 5 -0.001525 0.003313 0.003239 -0.004891 0.034241 -0.006822
# 6 0.002885 -0.004813 -0.007107 0.004405 -0.006822 0.048262
#
#
# Mechanical properties :
#
#
# Convention : Reuss Voigt Hill
#
# Bulk Modulus (GPa) = 29.41306 37.98224 33.69765
# Shear Modulus (GPa) = 27.16636 33.06015 30.11325
#
# Velocity S-wave (km/s) = 3.30737 3.64855 3.48214
# Velocity P-wave (km/s) = 5.14085 5.74830 5.45304
#
# Compressibility (1/GPa) = 0.03399850
#
# Stress axis : x y z
#
# Youngs Moduli (GPa) = 54.53986 81.94170 62.60872
#
# Poissons Ratio (x) = 0.01631 0.22956
# Poissons Ratio (y) = 0.01086 0.14968
# Poissons Ratio (z) = 0.19997 0.19591
#
# Static dielectric constant tensor:
#      x y z
#    x 4.308790 -0.056920 -0.174340 
#    y -0.056920 4.384040 0.127890 
#    z -0.174340 0.127890 4.656180 
# 
# 
# High freq. dielectric constant tensor:
#      x y z
#    x 1.969150 -0.001690 -0.007040 
#    y -0.001690 1.987100 -0.006340 
#    z -0.007040 -0.006340 2.006730 
# 
# From -- ./inp_files/461789.got.cif
#   From: 2010.06.25/outbox.cif.g09.slc.cpg/sg2_231_cif.got.tgz:461789.got - 2010.06.27 13:26:56.
