data_PCOD8003575
_publ_section_title
;
Structure prediction by ZEFSAII (Michael W. Deem and Ramdas Pophale) SiO2 
 PCOD8003575
Probable space group: P -1
;
_chemical_formula_sum "Si O2"
_cell_formula_units_Z 14
_cell_length_a 17.115250
_cell_length_b 20.641078
_cell_length_c 8.401363
_cell_angle_alpha 141.060829
_cell_angle_beta 132.663391
_cell_angle_gamma 19.887632
_cell_volume 614.188466
_symmetry_space_group_name_H-M "P -1"
_symmetry_group_IT_number 2
_symmetry_cell_setting 'triclinic'
loop_
_space_group_symop_operation_xyz
x,y,z
-x,-y,-z
loop_
_atom_site_type_symbol
_atom_site_label
_atom_site_fract_x
_atom_site_fract_y
_atom_site_fract_z
Si Si1 0.323817 0.219649 0.567246
Si Si2 0.645466 0.572346 0.982530
Si Si3 0.016731 0.755819 0.901832
Si Si4 0.642646 0.974859 0.003485
Si Si5 0.053217 0.243658 0.688776
Si Si6 0.099895 0.491592 0.295432
Si Si7 0.869784 0.015063 0.918217
O O1 0.416157 0.254538 0.732632
O O2 0.300538 0.188067 0.300158
O O3 0.065389 0.451606 0.739533
O O4 0.500000 0.000000 0.500000
O O5 0.794990 0.386498 0.971786
O O6 0.402209 0.720454 0.910022
O O7 0.794294 0.438626 0.770455
O O8 0.114904 0.575772 0.592721
O O9 0.755958 0.958447 0.003824
O O10 0.000414 0.869369 0.983386
O O11 0.759620 0.886527 0.167585
O O12 0.362041 0.226874 0.111645
O O13 0.142477 0.065615 0.380348
O O14 0.033241 0.359636 0.766850
O O15 0.000000 0.000000 0.000000
#
# Coordination Sequence:
#
# PCOD8003575 Si02
#       7
#     2   2   2   2   2   2   2
#     4  11  23  38  60  91 129 170 203 237 289 353
#     4  11  23  42  60  86 128 159 197 253 299 353
#     4   9  21  40  61  88 121 157 195 247 309 358
#     4  10  21  39  62  91 127 164 201 237 287 358
#     4  10  22  40  63  92 121 159 203 245 300 358
#     4  10  20  37  59  86 125 164 199 239 286 350
#     4  11  24  44  67  88 114 153 205 261 312 362
#
# _framework density 22.794308000000001
#
# number of rings (size 3 to 8) (size 9 to 14) (size 15 to 20)
#    0.000    1.714    0.000    5.143    0.000    9.714 
#    0.000   13.571    0.000    0.000    0.000    0.000 
#    0.000    0.000    0.000    0.000    0.000    0.000 
#
# Total GULP energy -173645.614114 kJ/mol
# GULP energy per Si atom -12403.258151 kJ/mol
# Density = 2.274243 g / cm^3
# Si number density = 22.794308 Si / 1000 Ang^3
#
#
#
# Elastic Constant Matrix: (Units=GPa)
#
#
# Indices 1 2 3 4 5 6 
#
# 1 146.6330 50.4594 28.3146 13.3415 -0.3917 -13.2832
# 2 50.4594 95.7582 35.0026 14.0467 -1.5264 -10.2194
# 3 28.3146 35.0026 58.5295 8.3263 -23.0503 0.5247
# 4 13.3415 14.0467 8.3263 29.2537 1.0143 -13.6217
# 5 -0.3917 -1.5264 -23.0503 1.0143 29.6061 -0.3617
# 6 -13.2832 -10.2194 0.5247 -13.6217 -0.3617 35.7529
#
#
#
# Elastic Compliance Matrix: (Units=1/GPa)
#
#
# Indices 1 2 3 4 5 6 
#
# 1 0.008783 -0.003142 -0.003366 -0.000409 -0.002625 0.002232
# 2 -0.003142 0.016708 -0.011403 -0.001638 -0.007965 0.003071
# 3 -0.003366 -0.011403 0.038476 -0.008738 0.029524 -0.008105
# 4 -0.000409 -0.001638 -0.008738 0.045785 -0.008256 0.016868
# 5 -0.002625 -0.007965 0.029524 -0.008256 0.056524 -0.006259
# 6 0.002232 0.003071 -0.008105 0.016868 -0.006259 0.036159
#
#
# Mechanical properties :
#
#
# Convention : Reuss Voigt Hill
#
# Bulk Modulus (GPa) = 35.52919 58.71930 47.12425
# Shear Modulus (GPa) = 20.19071 31.39883 25.79477
#
# Velocity S-wave (km/s) = 2.97943 3.71548 3.36762
# Velocity P-wave (km/s) = 5.23992 6.65002 5.98663
#
# Compressibility (1/GPa) = 0.02814587
#
# Stress axis : x y z
#
# Youngs Moduli (GPa) = 113.85404 59.85273 25.99001
#
# Poissons Ratio (x) = 0.18803 0.08748
# Poissons Ratio (y) = 0.35768 0.29637
# Poissons Ratio (z) = 0.38323 0.68251
#
# Static dielectric constant tensor:
#      x y z
#    x 4.300950 0.139220 -0.448860 
#    y 0.139220 4.124140 0.061670 
#    z -0.448860 0.061670 4.090980 
# 
# 
# High freq. dielectric constant tensor:
#      x y z
#    x 1.900550 0.006850 -0.038210 
#    y 0.006850 1.910040 0.009750 
#    z -0.038210 0.009750 1.885370 
# 
# From -- ./inp_files/337420.got.cif
#   From: 2010.06.25/outbox.cif.g09.slc.cpg/sg2_169_cif.got.tgz:337420.got - 2010.06.27 13:26:56.
