data_PCOD8003326
_publ_section_title
;
Structure prediction by ZEFSAII (Michael W. Deem and Ramdas Pophale) SiO2 
 PCOD8003326
Probable space group: P -1
;
_chemical_formula_sum "Si O2"
_cell_formula_units_Z 16
_cell_length_a 14.061372
_cell_length_b 13.917343
_cell_length_c 10.804992
_cell_angle_alpha 134.342126
_cell_angle_beta 32.592976
_cell_angle_gamma 131.674594
_cell_volume 798.578466
_symmetry_space_group_name_H-M "P -1"
_symmetry_group_IT_number 2
_symmetry_cell_setting 'triclinic'
loop_
_space_group_symop_operation_xyz
x,y,z
-x,-y,-z
loop_
_atom_site_type_symbol
_atom_site_label
_atom_site_fract_x
_atom_site_fract_y
_atom_site_fract_z
Si Si1 0.852193 0.199171 0.590180
Si Si2 0.975630 0.655830 0.686218
Si Si3 0.546709 0.809113 0.952203
Si Si4 0.076322 0.999976 0.278593
Si Si5 0.640955 0.599107 0.851654
Si Si6 0.098834 0.448437 0.674002
Si Si7 0.648701 0.633481 0.477630
Si Si8 0.953627 0.708184 0.043851
O O1 0.867364 0.242492 0.468060
O O2 0.962721 0.080860 0.388139
O O3 0.931953 0.332988 0.705596
O O4 0.642193 0.140732 0.794910
O O5 0.787985 0.681875 0.858493
O O6 0.000000 0.500000 0.500000
O O7 0.978591 0.701861 0.864943
O O8 0.712595 0.934559 0.899592
O O9 0.545697 0.699360 0.964689
O O10 0.557867 0.744672 0.746078
O O11 0.000000 0.000000 0.500000
O O12 0.064001 0.848429 0.103947
O O13 0.746926 0.514240 0.566948
O O14 0.500000 0.500000 0.000000
O O15 0.182757 0.390489 0.648208
O O16 0.031937 0.584777 0.908292
O O17 0.500000 0.500000 0.500000
O O18 0.740983 0.689902 0.296855
#
# Coordination Sequence:
#
# PCOD8003326 Si02
#       8
#     2   2   2   2   2   2   2   2
#     4  11  22  45  73  94 135 178 225 271 342 396
#     4  11  21  40  68  99 131 173 219 279 340 386
#     4  11  23  44  69  95 132 187 217 276 338 397
#     4  12  25  49  65  97 142 182 222 272 336 407
#     4  10  20  36  67  99 134 168 223 277 331 398
#     4  10  21  41  65  98 131 176 217 288 334 379
#     4  11  23  39  64 102 132 164 233 284 330 387
#     4  12  24  40  68  97 135 176 223 275 337 402
#
# _framework density 20.035601
#
# number of rings (size 3 to 8) (size 9 to 14) (size 15 to 20)
#    0.000    1.000    7.500    1.875    3.500    2.000 
#    2.250    0.625    0.000    0.000    0.000    0.000 
#    0.000    0.000    0.000    0.000    0.000    0.000 
#
# Total GULP energy -198378.736594 kJ/mol
# GULP energy per Si atom -12398.671037 kJ/mol
# Density = 1.999000 g / cm^3
# Si number density = 20.035601 Si / 1000 Ang^3
#
#
#
# Elastic Constant Matrix: (Units=GPa)
#
#
# Indices 1 2 3 4 5 6 
#
# 1 64.3324 14.6243 31.0989 -10.1780 12.7143 7.9518
# 2 14.6243 115.3960 49.0925 -14.3086 5.3225 16.0487
# 3 31.0989 49.0925 96.2115 -21.4827 4.5877 16.2057
# 4 -10.1780 -14.3086 -21.4827 44.2319 2.9746 0.4425
# 5 12.7143 5.3225 4.5877 2.9746 40.7450 -2.7039
# 6 7.9518 16.0487 16.2057 0.4425 -2.7039 33.7096
#
#
#
# Elastic Compliance Matrix: (Units=1/GPa)
#
#
# Indices 1 2 3 4 5 6 
#
# 1 0.020017 0.000834 -0.005509 0.002642 -0.006127 -0.002997
# 2 0.000834 0.011473 -0.005148 0.001538 -0.001512 -0.003325
# 3 -0.005509 -0.005148 0.016715 0.005240 -0.000163 -0.004367
# 4 0.002642 0.001538 0.005240 0.026563 -0.003855 -0.004532
# 5 -0.006127 -0.001512 -0.000163 -0.003855 0.027249 0.004480
# 6 -0.002997 -0.003325 -0.004367 -0.004532 0.004480 0.034473
#
#
# Mechanical properties :
#
#
# Convention : Reuss Voigt Hill
#
# Bulk Modulus (GPa) = 35.01596 51.73013 43.37304
# Shear Modulus (GPa) = 30.18298 35.81224 32.99761
#
# Velocity S-wave (km/s) = 3.88553 4.23239 4.06266
# Velocity P-wave (km/s) = 6.13552 7.05403 6.61075
#
# Compressibility (1/GPa) = 0.02855840
#
# Stress axis : x y z
#
# Youngs Moduli (GPa) = 49.95759 87.15942 59.82823
#
# Poissons Ratio (x) = -0.07267 0.32958
# Poissons Ratio (y) = -0.04165 0.30800
# Poissons Ratio (z) = 0.27520 0.44871
#
# Static dielectric constant tensor:
#      x y z
#    x 3.207440 -0.153840 -0.976350 
#    y -0.153840 3.678200 -0.253460 
#    z -0.976350 -0.253460 2.013620 
# 
# 
# High freq. dielectric constant tensor:
#      x y z
#    x 1.785120 -0.007670 0.006030 
#    y -0.007670 1.772050 -0.018570 
#    z 0.006030 -0.018570 1.785380 
# 
# From -- ./inp_files/455044.got.cif
#   From: 2010.06.25/outbox.cif.g09.slc.cpg/sg2_228_cif.got.tgz:455044.got - 2010.06.27 13:26:56.
