data_PCOD8003425
_publ_section_title
;
Structure prediction by ZEFSAII (Michael W. Deem and Ramdas Pophale) SiO2 
 PCOD8003425
Probable space group: P -1
;
_chemical_formula_sum "Si O2"
_cell_formula_units_Z 14
_cell_length_a 6.530252
_cell_length_b 15.047303
_cell_length_c 15.164572
_cell_angle_alpha 28.195442
_cell_angle_beta 68.027173
_cell_angle_gamma 74.074589
_cell_volume 647.671112
_symmetry_space_group_name_H-M "P -1"
_symmetry_group_IT_number 2
_symmetry_cell_setting 'triclinic'
loop_
_space_group_symop_operation_xyz
x,y,z
-x,-y,-z
loop_
_atom_site_type_symbol
_atom_site_label
_atom_site_fract_x
_atom_site_fract_y
_atom_site_fract_z
Si Si1 0.103033 0.560913 0.052716
Si Si2 0.451312 0.248345 0.790082
Si Si3 0.463425 0.775568 0.932872
Si Si4 0.877409 0.091224 0.859135
Si Si5 0.359751 0.508315 0.718462
Si Si6 0.344882 0.159605 0.683196
Si Si7 0.105602 0.197841 0.266514
O O1 0.286923 0.677854 0.978871
O O2 0.064569 0.705951 0.853013
O O3 0.186227 0.364541 0.178125
O O4 0.886961 0.493735 0.204784
O O5 0.713983 0.247477 0.773420
O O6 0.368473 0.438150 0.676421
O O7 0.411094 0.232537 0.706458
O O8 0.293778 0.073534 0.016300
O O9 0.686077 0.855535 0.775298
O O10 0.369700 0.941132 0.856888
O O11 0.504063 0.622811 0.131609
O O12 0.083222 0.181419 0.685767
O O13 0.000000 0.000000 0.000000
O O14 0.493172 0.718967 0.518008
O O15 0.000000 0.000000 0.500000
#
# Coordination Sequence:
#
# PCOD8003425 Si02
#       7
#     2   2   2   2   2   2   2
#     4  10  23  41  62  89 120 151 188 239 294 349
#     4  10  20  37  57  80 119 161 199 245 287 332
#     4  11  23  39  61  89 121 153 190 240 293 346
#     4   9  18  33  54  77 107 148 195 241 288 333
#     4  11  23  38  58  87 120 156 199 242 287 341
#     4  11  23  37  58  87 117 158 204 240 285 341
#     4  10  22  42  66  90 116 149 190 236 292 356
#
# _framework density 21.615911000000001
#
# number of rings (size 3 to 8) (size 9 to 14) (size 15 to 20)
#    0.000    1.714    0.000    5.143    0.000    5.714 
#    0.000    0.000    0.000    0.000    0.000    0.000 
#    0.000    0.000    0.000    0.000    0.000    0.000 
#
# Total GULP energy -173498.249042 kJ/mol
# GULP energy per Si atom -12392.732074 kJ/mol
# Density = 2.156671 g / cm^3
# Si number density = 21.615911 Si / 1000 Ang^3
#
#
#
# Elastic Constant Matrix: (Units=GPa)
#
#
# Indices 1 2 3 4 5 6 
#
# 1 79.9672 11.4085 26.1456 9.6021 -2.2261 1.2483
# 2 11.4085 64.4866 19.7110 17.9638 32.0534 11.7971
# 3 26.1456 19.7110 124.5109 1.1170 -10.3299 4.2303
# 4 9.6021 17.9638 1.1170 7.3741 -19.2879 -10.1740
# 5 -2.2261 32.0534 -10.3299 -19.2879 -6.1821 -7.7185
# 6 1.2483 11.7971 4.2303 -10.1740 -7.7185 30.2666
#
#
#
# Elastic Compliance Matrix: (Units=1/GPa)
#
#
# Indices 1 2 3 4 5 6 
#
# 1 0.014236 -0.002070 -0.002337 -0.004801 0.003307 -0.000224
# 2 -0.002070 0.008188 -0.000291 0.010055 0.009041 0.002620
# 3 -0.002337 -0.000291 0.008599 -0.003525 -0.001001 -0.002432
# 4 -0.004801 0.010055 -0.003525 0.030225 -0.032768 -0.001425
# 5 0.003307 0.009041 -0.001001 -0.032768 0.004538 -0.013378
# 6 -0.000224 0.002620 -0.002432 -0.001425 -0.013378 0.028477
#
#
# Mechanical properties :
#
#
# Convention : Reuss Voigt Hill
#
# Bulk Modulus (GPa) = 46.23338 42.61052 44.42195
# Shear Modulus (GPa) = 45.09873 20.40503 32.75188
#
# Velocity S-wave (km/s) = 4.57263 3.07576 3.89675
# Velocity P-wave (km/s) = 7.02237 5.68939 6.39073
#
# Compressibility (1/GPa) = 0.02162940
#
# Stress axis : x y z
#
# Youngs Moduli (GPa) = 70.24199 122.13138 116.28743
#
# Poissons Ratio (x) = 0.25277 0.27173
# Poissons Ratio (y) = 0.14538 0.03381
# Poissons Ratio (z) = 0.16414 0.03551
#
# Static dielectric constant tensor:
#      x y z
#    x 4.100460 -0.199190 -0.342170 
#    y -0.199190 4.087740 0.034690 
#    z -0.342170 0.034690 4.142410 
# 
# 
# High freq. dielectric constant tensor:
#      x y z
#    x 1.848040 -0.011910 -0.013350 
#    y -0.011910 1.848920 -0.001950 
#    z -0.013350 -0.001950 1.850480 
# 
# From -- ./inp_files/50877.got.cif
#   From: 2010.06.25/outbox.cif.g09.slc.cpg/sg2_26_cif.got.tgz:50877.got - 2010.06.27 13:26:56.
