data_PCOD8003586
_publ_section_title
;
Structure prediction by ZEFSAII (Michael W. Deem and Ramdas Pophale) SiO2 
 PCOD8003586
Probable space group: P -1
;
_chemical_formula_sum "Si O2"
_cell_formula_units_Z 16
_cell_length_a 6.473412
_cell_length_b 9.361790
_cell_length_c 19.137409
_cell_angle_alpha 67.593578
_cell_angle_beta 52.035462
_cell_angle_gamma 53.896392
_cell_volume 738.441949
_symmetry_space_group_name_H-M "P -1"
_symmetry_group_IT_number 2
_symmetry_cell_setting 'triclinic'
loop_
_space_group_symop_operation_xyz
x,y,z
-x,-y,-z
loop_
_atom_site_type_symbol
_atom_site_label
_atom_site_fract_x
_atom_site_fract_y
_atom_site_fract_z
Si Si1 0.902050 0.275419 0.485768
Si Si2 0.633930 0.649349 0.875738
Si Si3 0.866058 0.292639 0.645266
Si Si4 0.934743 0.520168 0.696256
Si Si5 0.548739 0.076951 0.579858
Si Si6 0.049109 0.616321 0.024243
Si Si7 0.275515 0.026602 0.918571
Si Si8 0.416512 0.173665 0.735387
O O1 0.796902 0.370767 0.565678
O O2 0.910156 0.400042 0.400844
O O3 0.669893 0.215521 0.515888
O O4 0.230025 0.110531 0.465552
O O5 0.893116 0.483686 0.894377
O O6 0.720874 0.653448 0.775799
O O7 0.573711 0.832916 0.893436
O O8 0.333408 0.635213 0.939621
O O9 0.675821 0.192016 0.719998
O O10 0.759616 0.451775 0.693955
O O11 0.216384 0.152270 0.605707
O O12 0.193927 0.359109 0.712880
O O13 0.564333 0.035119 0.667370
O O14 0.752215 0.813354 0.055052
O O15 0.000000 0.500000 0.000000
O O16 0.241161 0.103105 0.833400
O O17 0.000000 0.000000 0.000000
#
# Coordination Sequence:
#
# PCOD8003586 Si02
#       8
#     2   2   2   2   2   2   2   2
#     4  10  20  37  59  88 120 163 209 253 311 367
#     4  10  22  40  63  91 121 164 203 252 316 371
#     4  10  22  36  58  88 123 163 204 263 306 363
#     4  11  22  36  60  87 124 164 206 256 308 370
#     4   9  20  38  60  83 120 163 207 259 307 365
#     4  10  22  41  65  90 124 155 203 260 312 375
#     4  10  21  41  66  91 124 162 206 259 314 378
#     4  10  21  39  58  86 123 161 209 258 310 370
#
# _framework density 21.667242999999999
#
# number of rings (size 3 to 8) (size 9 to 14) (size 15 to 20)
#    0.000    2.000    1.250    1.500    1.750    6.000 
#    0.000    7.500    0.000    0.000    0.000    0.000 
#    0.000    0.000    0.000    0.000    0.000    0.000 
#
# Total GULP energy -198245.089364 kJ/mol
# GULP energy per Si atom -12390.318085 kJ/mol
# Density = 2.161793 g / cm^3
# Si number density = 21.667243 Si / 1000 Ang^3
#
#
#
# Elastic Constant Matrix: (Units=GPa)
#
#
# Indices 1 2 3 4 5 6 
#
# 1 76.0131 32.5883 30.0139 -4.0439 0.8971 12.6005
# 2 32.5883 114.7450 33.3991 10.0812 3.2594 13.7790
# 3 30.0139 33.3991 148.8053 -13.1179 0.9825 11.2666
# 4 -4.0439 10.0812 -13.1179 40.8725 8.8402 8.5953
# 5 0.8971 3.2594 0.9825 8.8402 16.5183 7.9610
# 6 12.6005 13.7790 11.2666 8.5953 7.9610 26.4296
#
#
#
# Elastic Compliance Matrix: (Units=1/GPa)
#
#
# Indices 1 2 3 4 5 6 
#
# 1 0.016718 -0.003743 -0.001759 0.003100 0.001523 -0.006736
# 2 -0.003743 0.010850 -0.001808 -0.003374 0.001101 -0.002336
# 3 -0.001759 -0.001808 0.007990 0.003521 -0.000670 -0.002568
# 4 0.003100 -0.003374 0.003521 0.031063 -0.012727 -0.007489
# 5 0.001523 0.001101 -0.000670 -0.012727 0.076722 -0.019986
# 6 -0.006736 -0.002336 -0.002568 -0.007489 -0.019986 0.051816
#
#
# Mechanical properties :
#
#
# Convention : Reuss Voigt Hill
#
# Bulk Modulus (GPa) = 47.75820 59.06291 53.41055
# Shear Modulus (GPa) = 23.06715 33.00155 28.03435
#
# Velocity S-wave (km/s) = 3.26637 3.90694 3.60093
# Velocity P-wave (km/s) = 6.02620 6.90438 6.48018
#
# Compressibility (1/GPa) = 0.02093881
#
# Stress axis : x y z
#
# Youngs Moduli (GPa) = 59.81454 92.16670 125.15555
#
# Poissons Ratio (x) = 0.34497 0.22011
# Poissons Ratio (y) = 0.22388 0.22630
# Poissons Ratio (z) = 0.10520 0.16665
#
# Static dielectric constant tensor:
#      x y z
#    x 3.655810 0.072460 0.039770 
#    y 0.072460 4.439780 0.263500 
#    z 0.039770 0.263500 4.297600 
# 
# 
# High freq. dielectric constant tensor:
#      x y z
#    x 1.820620 0.009390 0.000330 
#    y 0.009390 1.854150 0.011520 
#    z 0.000330 0.011520 1.867960 
# 
# From -- ./inp_files/126380.got.cif
#   From: 2010.06.25/outbox.cif.g09.slc.cpg/sg2_64_cif.got.tgz:126380.got - 2010.06.27 13:26:56.
