data_PCOD8003634
_publ_section_title
;
Structure prediction by ZEFSAII (Michael W. Deem and Ramdas Pophale) SiO2 
 PCOD8003634
Probable space group: P -1
;
_chemical_formula_sum "Si O2"
_cell_formula_units_Z 14
_cell_length_a 6.645871
_cell_length_b 16.653177
_cell_length_c 17.715188
_cell_angle_alpha 21.587419
_cell_angle_beta 108.900865
_cell_angle_gamma 111.576977
_cell_volume 669.873425
_symmetry_space_group_name_H-M "P -1"
_symmetry_group_IT_number 2
_symmetry_cell_setting 'triclinic'
loop_
_space_group_symop_operation_xyz
x,y,z
-x,-y,-z
loop_
_atom_site_type_symbol
_atom_site_label
_atom_site_fract_x
_atom_site_fract_y
_atom_site_fract_z
Si Si1 0.962377 0.753436 0.680197
Si Si2 0.150306 0.166539 0.770916
Si Si3 0.233560 0.235406 0.891065
Si Si4 0.004050 0.976796 0.339581
Si Si5 0.810693 0.297048 0.520270
Si Si6 0.421537 0.032362 0.792906
Si Si7 0.253623 0.430540 0.046215
O O1 0.770486 0.599161 0.839555
O O2 0.922061 0.779810 0.562990
O O3 0.000000 0.000000 0.500000
O O4 0.167807 0.641384 0.818816
O O5 0.238647 0.263585 0.776690
O O6 0.024722 0.339006 0.563021
O O7 0.356972 0.127331 0.782077
O O8 0.973245 0.940539 0.953671
O O9 0.209287 0.466833 0.724716
O O10 0.460766 0.175721 0.997084
O O11 0.160634 0.881988 0.383387
O O12 0.142859 0.201019 0.194138
O O13 0.794365 0.041763 0.218055
O O14 0.590500 0.221057 0.606469
O O15 0.500000 0.500000 0.000000
#
# Coordination Sequence:
#
# PCOD8003634 Si02
#       7
#     2   2   2   2   2   2   2
#     4   9  21  40  61  86 113 145 185 231 284 345
#     4   9  20  38  57  83 118 152 198 248 283 332
#     4  10  20  37  60  83 114 157 199 240 285 336
#     4  10  23  40  56  84 124 151 184 239 290 345
#     4  10  22  36  56  86 117 155 196 236 289 341
#     4  10  22  37  54  84 118 153 194 237 289 341
#     4  10  22  41  65  88 111 148 193 235 285 345
#
# _framework density 20.899471999999999
#
# number of rings (size 3 to 8) (size 9 to 14) (size 15 to 20)
#    0.000    2.286    0.000    0.857    0.000   14.286 
#    0.000    0.000    0.000    0.000    0.000    0.000 
#    0.000    0.000    0.000    0.000    0.000    0.000 
#
# Total GULP energy -173528.940629 kJ/mol
# GULP energy per Si atom -12394.924331 kJ/mol
# Density = 2.085190 g / cm^3
# Si number density = 20.899472 Si / 1000 Ang^3
#
#
#
# Elastic Constant Matrix: (Units=GPa)
#
#
# Indices 1 2 3 4 5 6 
#
# 1 151.8079 45.6597 53.4016 1.9121 12.5255 -4.6330
# 2 45.6597 73.5157 39.2942 10.1482 2.1598 -3.8149
# 3 53.4016 39.2942 124.3162 2.6048 29.0809 -0.7209
# 4 1.9121 10.1482 2.6048 31.0588 -10.1768 -3.2196
# 5 12.5255 2.1598 29.0809 -10.1768 24.9602 2.3698
# 6 -4.6330 -3.8149 -0.7209 -3.2196 2.3698 27.8715
#
#
#
# Elastic Compliance Matrix: (Units=1/GPa)
#
#
# Indices 1 2 3 4 5 6 
#
# 1 0.008758 -0.004336 -0.002066 0.000688 -0.001428 0.001010
# 2 -0.004336 0.019656 -0.005473 -0.003906 0.005170 0.000937
# 3 -0.002066 -0.005473 0.015022 -0.005272 -0.018163 0.000231
# 4 0.000688 -0.003906 -0.005272 0.041609 0.022881 0.002304
# 5 -0.001428 0.005170 -0.018163 0.022881 0.071147 -0.003406
# 6 0.001010 0.000937 0.000231 0.002304 -0.003406 0.036737
#
#
# Mechanical properties :
#
#
# Convention : Reuss Voigt Hill
#
# Bulk Modulus (GPa) = 50.79380 69.59455 60.19418
# Shear Modulus (GPa) = 22.39727 30.86372 26.63049
#
# Velocity S-wave (km/s) = 3.27718 3.84705 3.57349
# Velocity P-wave (km/s) = 6.21905 7.28732 6.77427
#
# Compressibility (1/GPa) = 0.01968744
#
# Stress axis : x y z
#
# Youngs Moduli (GPa) = 114.17910 50.87393 66.56921
#
# Poissons Ratio (x) = 0.22058 0.13755
# Poissons Ratio (y) = 0.49505 0.36431
# Poissons Ratio (z) = 0.23592 0.27841
#
# Static dielectric constant tensor:
#      x y z
#    x 3.662810 -0.775000 0.433420 
#    y -0.775000 2.408170 1.556590 
#    z 0.433420 1.556590 3.127880 
# 
# 
# High freq. dielectric constant tensor:
#      x y z
#    x 1.827210 -0.016660 0.006140 
#    y -0.016660 1.799940 0.013750 
#    z 0.006140 0.013750 1.831290 
# 
# From -- ./inp_files/7400.got.cif
#   From: 2010.06.25/outbox.cif.g09.slc.cpg/sg2_4_cif.got.tgz:7400.got - 2010.06.27 13:26:56.
