data_PCOD8003652
_publ_section_title
;
Structure prediction by ZEFSAII (Michael W. Deem and Ramdas Pophale) SiO2 
 PCOD8003652
Probable space group: P -1
;
_chemical_formula_sum "Si O2"
_cell_formula_units_Z 16
_cell_length_a 11.156454
_cell_length_b 12.907333
_cell_length_c 7.474774
_cell_angle_alpha 123.923699
_cell_angle_beta 120.956980
_cell_angle_gamma 57.196146
_cell_volume 715.184528
_symmetry_space_group_name_H-M "P -1"
_symmetry_group_IT_number 2
_symmetry_cell_setting 'triclinic'
loop_
_space_group_symop_operation_xyz
x,y,z
-x,-y,-z
loop_
_atom_site_type_symbol
_atom_site_label
_atom_site_fract_x
_atom_site_fract_y
_atom_site_fract_z
Si Si1 0.126921 0.577995 0.902721
Si Si2 0.191949 0.406641 0.318744
Si Si3 0.912344 0.305223 0.627315
Si Si4 0.483015 0.961893 0.150977
Si Si5 0.493301 0.230853 0.504978
Si Si6 0.332316 0.788684 0.748917
Si Si7 0.769559 0.711420 0.151656
Si Si8 0.380165 0.638545 0.986026
O O1 0.109433 0.662927 0.150206
O O2 0.213559 0.634896 0.880596
O O3 0.219802 0.421059 0.859018
O O4 0.962087 0.597723 0.718890
O O5 0.173082 0.558345 0.412344
O O6 0.328758 0.346496 0.503763
O O7 0.232429 0.316197 0.086472
O O8 0.837539 0.196079 0.414582
O O9 0.087302 0.246625 0.654922
O O10 0.620653 0.834039 0.206829
O O11 0.470544 0.089355 0.385532
O O12 0.335002 0.920351 0.985534
O O13 0.500000 0.000000 0.000000
O O14 0.566016 0.240502 0.378079
O O15 0.598317 0.247656 0.759751
O O16 0.403123 0.665161 0.821611
O O17 0.500000 0.500000 0.000000
#
# Coordination Sequence:
#
# PCOD8003652 Si02
#       8
#     2   2   2   2   2   2   2   2
#     4   9  19  36  58  89 122 151 195 243 301 354
#     4   9  17  33  62  86 118 157 192 244 296 353
#     4   9  18  33  60  87 117 154 189 250 301 338
#     4  10  20  37  60  85 117 160 206 241 282 356
#     4  11  23  41  62  87 119 161 199 243 301 340
#     4  11  22  39  59  88 121 154 199 248 286 358
#     4   9  16  33  59  91 113 155 205 233 290 360
#     4  12  25  37  61  94 122 153 195 248 305 357
#
# _framework density 22.371849000000001
#
# number of rings (size 3 to 8) (size 9 to 14) (size 15 to 20)
#    0.000    2.000    3.750    3.000    1.750    1.500 
#    0.000   10.625    0.000    1.500    0.000    0.000 
#    0.000    0.000    0.000    0.000    0.000    0.000 
#
# Total GULP energy -198309.081912 kJ/mol
# GULP energy per Si atom -12394.317620 kJ/mol
# Density = 2.232093 g / cm^3
# Si number density = 22.371849 Si / 1000 Ang^3
#
#
#
# Elastic Constant Matrix: (Units=GPa)
#
#
# Indices 1 2 3 4 5 6 
#
# 1 77.7959 17.0003 59.6920 2.1497 28.5716 3.8163
# 2 17.0003 44.5296 7.2510 -2.6285 3.6933 0.0841
# 3 59.6920 7.2510 80.8118 3.8873 17.4816 8.6167
# 4 2.1497 -2.6285 3.8873 27.5984 1.5421 4.7145
# 5 28.5716 3.6933 17.4816 1.5421 40.8497 0.3628
# 6 3.8163 0.0841 8.6167 4.7145 0.3628 21.7327
#
#
#
# Elastic Compliance Matrix: (Units=1/GPa)
#
#
# Indices 1 2 3 4 5 6 
#
# 1 0.041154 -0.010068 -0.026261 -0.000138 -0.016662 0.003532
# 2 -0.010068 0.025492 0.004516 0.002547 0.002715 -0.000719
# 3 -0.026261 0.004516 0.031209 -0.000873 0.004704 -0.007669
# 4 -0.000138 0.002547 -0.000873 0.038017 -0.001126 -0.007868
# 5 -0.016662 0.002715 0.004704 -0.001126 0.033911 0.000728
# 6 0.003532 -0.000719 -0.007669 -0.007868 0.000728 0.050131
#
#
# Mechanical properties :
#
#
# Convention : Reuss Voigt Hill
#
# Bulk Modulus (GPa) = 29.21437 41.22489 35.21963
# Shear Modulus (GPa) = 16.95212 25.98240 21.46726
#
# Velocity S-wave (km/s) = 2.75570 3.41161 3.10105
# Velocity P-wave (km/s) = 4.81789 5.82974 5.34780
#
# Compressibility (1/GPa) = 0.03422973
#
# Stress axis : x y z
#
# Youngs Moduli (GPa) = 24.29923 39.22824 32.04232
#
# Poissons Ratio (x) = 0.39495 0.84145
# Poissons Ratio (y) = 0.24465 -0.14472
# Poissons Ratio (z) = 0.63811 -0.17717
#
# Static dielectric constant tensor:
#      x y z
#    x 4.219740 0.121430 0.452470 
#    y 0.121430 3.904270 0.133450 
#    z 0.452470 0.133450 4.448640 
# 
# 
# High freq. dielectric constant tensor:
#      x y z
#    x 1.878190 0.014510 0.018390 
#    y 0.014510 1.844080 -0.008740 
#    z 0.018390 -0.008740 1.896900 
# 
# From -- ./inp_files/274484.got.cif
#   From: 2010.06.25/outbox.cif.g09.slc.cpg/sg2_138_cif.got.tgz:274484.got - 2010.06.27 13:26:56.
