data_PCOD8003254
_publ_section_title
;
Structure prediction by ZEFSAII (Michael W. Deem and Ramdas Pophale) SiO2 
 PCOD8003254
Probable space group: P -1
;
_chemical_formula_sum "Si O2"
_cell_formula_units_Z 16
_cell_length_a 9.105837
_cell_length_b 10.738339
_cell_length_c 14.793271
_cell_angle_alpha 134.930086
_cell_angle_beta 48.572795
_cell_angle_gamma 109.943403
_cell_volume 745.837282
_symmetry_space_group_name_H-M "P -1"
_symmetry_group_IT_number 2
_symmetry_cell_setting 'triclinic'
loop_
_space_group_symop_operation_xyz
x,y,z
-x,-y,-z
loop_
_atom_site_type_symbol
_atom_site_label
_atom_site_fract_x
_atom_site_fract_y
_atom_site_fract_z
Si Si1 0.908836 0.340650 0.994866
Si Si2 0.946422 0.670364 0.875519
Si Si3 0.107923 0.699829 0.474781
Si Si4 0.815913 0.444396 0.445380
Si Si5 0.517061 0.287568 0.190646
Si Si6 0.618565 0.899046 0.003176
Si Si7 0.830724 0.079294 0.751750
Si Si8 0.290129 0.619013 0.183754
O O1 0.664905 0.399363 0.140031
O O2 0.007178 0.264053 0.010997
O O3 0.951703 0.181139 0.822380
O O4 0.000000 0.500000 0.000000
O O5 0.888609 0.479569 0.815089
O O6 0.143738 0.651270 0.719128
O O7 0.754037 0.816365 0.989964
O O8 0.175367 0.706757 0.555796
O O9 0.303387 0.647878 0.301675
O O10 0.000659 0.536341 0.427569
O O11 0.969211 0.880636 0.582138
O O12 0.601956 0.591904 0.616808
O O13 0.660928 0.095268 0.065840
O O14 0.345478 0.244720 0.169276
O O15 0.380236 0.940580 0.134438
O O16 0.779832 0.184719 0.732467
O O17 0.500000 0.500000 0.000000
#
# Coordination Sequence:
#
# PCOD8003254 Si02
#       8
#     2   2   2   2   2   2   2   2
#     4  11  25  41  63  88 129 172 205 240 314 383
#     4  11  23  39  60  92 125 165 208 250 306 378
#     4  10  21  36  61  98 123 154 205 267 314 351
#     4  10  21  37  62  90 127 154 203 263 312 358
#     4  10  21  39  64  91 121 161 201 262 306 360
#     4  10  20  36  64  96 118 151 214 260 304 351
#     4  11  21  39  64  92 127 159 208 260 305 366
#     4  11  21  36  65  95 121 163 209 259 306 367
#
# _framework density 21.452400999999998
#
# number of rings (size 3 to 8) (size 9 to 14) (size 15 to 20)
#    0.000    1.500    3.750    2.625    5.250    1.000 
#    0.000    0.000    0.000    1.500    0.000    0.000 
#    0.000    0.000    0.000    0.000    0.000    0.000 
#
# Total GULP energy -198243.872778 kJ/mol
# GULP energy per Si atom -12390.242049 kJ/mol
# Density = 2.140357 g / cm^3
# Si number density = 21.452401 Si / 1000 Ang^3
#
#
#
# Elastic Constant Matrix: (Units=GPa)
#
#
# Indices 1 2 3 4 5 6 
#
# 1 85.7128 35.8386 30.4903 -0.2397 4.5559 -21.8978
# 2 35.8386 117.3955 46.2591 -7.2340 -3.9697 -17.1884
# 3 30.4903 46.2591 100.1425 -14.5760 -9.0852 -8.6860
# 4 -0.2397 -7.2340 -14.5760 31.7967 -12.5863 -3.0731
# 5 4.5559 -3.9697 -9.0852 -12.5863 28.3209 -3.1425
# 6 -21.8978 -17.1884 -8.6860 -3.0731 -3.1425 36.2913
#
#
#
# Elastic Compliance Matrix: (Units=1/GPa)
#
#
# Indices 1 2 3 4 5 6 
#
# 1 0.016291 -0.002773 -0.004135 -0.003850 -0.005299 0.006742
# 2 -0.002773 0.011494 -0.003686 0.002072 0.002156 0.003250
# 3 -0.004135 -0.003686 0.015409 0.010158 0.009734 0.001150
# 4 -0.003850 0.002072 0.010158 0.047613 0.026148 0.007386
# 5 -0.005299 0.002156 0.009734 0.026148 0.051969 0.006868
# 6 0.006742 0.003250 0.001150 0.007386 0.006868 0.034657
#
#
# Mechanical properties :
#
#
# Convention : Reuss Voigt Hill
#
# Bulk Modulus (GPa) = 45.44498 58.71410 52.07954
# Shear Modulus (GPa) = 24.27707 31.99264 28.13485
#
# Velocity S-wave (km/s) = 3.36768 3.86597 3.62539
# Velocity P-wave (km/s) = 6.02925 6.88160 6.46948
#
# Compressibility (1/GPa) = 0.02200463
#
# Stress axis : x y z
#
# Youngs Moduli (GPa) = 61.38509 87.00445 64.89809
#
# Poissons Ratio (x) = 0.24127 0.26837
# Poissons Ratio (y) = 0.17022 0.23921
# Poissons Ratio (z) = 0.25385 0.32069
#
# Static dielectric constant tensor:
#      x y z
#    x 3.630750 -0.204520 0.193260 
#    y -0.204520 4.220760 -0.257780 
#    z 0.193260 -0.257780 4.033750 
# 
# 
# High freq. dielectric constant tensor:
#      x y z
#    x 1.810040 -0.020940 -0.002850 
#    y -0.020940 1.852370 -0.015040 
#    z -0.002850 -0.015040 1.837200 
# 
# From -- ./inp_files/500933.got.cif
#   From: 2010.06.25/outbox.cif.g09.slc.cpg/sg2_251_cif.got.tgz:500933.got - 2010.06.27 13:26:56.
