data_PCOD8003150
_publ_section_title
;
Structure prediction by ZEFSAII (Michael W. Deem and Ramdas Pophale) SiO2 
 PCOD8003150
Probable space group: P -1
;
_chemical_formula_sum "Si O2"
_cell_formula_units_Z 16
_cell_length_a 14.045345
_cell_length_b 14.581602
_cell_length_c 9.442137
_cell_angle_alpha 110.832882
_cell_angle_beta 117.835114
_cell_angle_gamma 28.915149
_cell_volume 820.430543
_symmetry_space_group_name_H-M "P -1"
_symmetry_group_IT_number 2
_symmetry_cell_setting 'triclinic'
loop_
_space_group_symop_operation_xyz
x,y,z
-x,-y,-z
loop_
_atom_site_type_symbol
_atom_site_label
_atom_site_fract_x
_atom_site_fract_y
_atom_site_fract_z
Si Si1 0.376722 0.800732 0.940422
Si Si2 0.809969 0.383962 0.919376
Si Si3 0.681690 0.885167 0.672062
Si Si4 0.472141 0.110611 0.933899
Si Si5 0.748070 0.307131 0.565717
Si Si6 0.027422 0.930242 0.666206
Si Si7 0.865588 0.944542 0.832381
Si Si8 0.970388 0.471283 0.113324
O O1 0.582059 0.573506 0.936324
O O2 0.184943 0.896252 0.787306
O O3 0.413680 0.877551 0.930131
O O4 0.329726 0.854404 0.105608
O O5 0.812129 0.341970 0.738255
O O6 0.939292 0.382602 0.003503
O O7 0.936640 0.209298 0.008892
O O8 0.808286 0.880695 0.699483
O O9 0.842087 0.671604 0.716036
O O10 0.500000 0.000000 0.500000
O O11 0.567992 0.001997 0.797916
O O12 0.231618 0.321166 0.844016
O O13 0.500000 0.000000 0.000000
O O14 0.500000 0.500000 0.500000
O O15 0.854659 0.241743 0.448465
O O16 0.825047 0.137487 0.566555
O O17 0.937848 0.951131 0.754708
O O18 0.000000 0.500000 0.000000
#
# Coordination Sequence:
#
# PCOD8003150 Si02
#       8
#     2   2   2   2   2   2   2   2
#     4  10  20  36  63  87 116 153 204 242 287 358
#     4  10  21  38  63  85 119 157 197 245 293 350
#     4  10  22  42  59  88 125 154 196 259 304 354
#     4  10  20  37  64  90 117 159 201 246 302 358
#     4  11  23  40  55  87 126 153 194 251 294 346
#     4  11  23  39  60  87 120 159 197 240 303 353
#     4  10  22  41  60  85 118 159 200 242 296 361
#     4  10  20  38  63  91 114 155 211 241 292 366
#
# _framework density 19.501954999999999
#
# number of rings (size 3 to 8) (size 9 to 14) (size 15 to 20)
#    0.000    1.750    3.750    0.375    0.000    2.000 
#    9.000    0.000    0.000    0.000    0.000    0.000 
#    0.000    0.000    0.000    0.000    0.000    0.000 
#
# Total GULP energy -198259.770940 kJ/mol
# GULP energy per Si atom -12391.235684 kJ/mol
# Density = 1.945757 g / cm^3
# Si number density = 19.501955 Si / 1000 Ang^3
#
#
#
# Elastic Constant Matrix: (Units=GPa)
#
#
# Indices 1 2 3 4 5 6 
#
# 1 104.8866 40.0307 34.8400 -8.8502 -11.7464 -7.5078
# 2 40.0307 130.8649 36.3165 -6.0545 -2.8442 -14.2295
# 3 34.8400 36.3165 78.2364 -17.7714 6.4411 0.1374
# 4 -8.8502 -6.0545 -17.7714 33.4089 -5.7671 -2.0706
# 5 -11.7464 -2.8442 6.4411 -5.7671 25.8749 0.4300
# 6 -7.5078 -14.2295 0.1374 -2.0706 0.4300 23.0662
#
#
#
# Elastic Compliance Matrix: (Units=1/GPa)
#
#
# Indices 1 2 3 4 5 6 
#
# 1 0.013230 -0.002035 -0.005138 0.001878 0.007428 0.003112
# 2 -0.002035 0.009935 -0.003861 -0.000286 0.000975 0.005446
# 3 -0.005138 -0.003861 0.018888 0.006755 -0.005896 -0.003450
# 4 0.001878 -0.000286 0.006755 0.035387 0.006970 0.003441
# 5 0.007428 0.000975 -0.005896 0.006970 0.045101 0.002840
# 6 0.003112 0.005446 -0.003450 0.003441 0.002840 0.048002
#
#
# Mechanical properties :
#
#
# Convention : Reuss Voigt Hill
#
# Bulk Modulus (GPa) = 50.03165 59.59583 54.81374
# Shear Modulus (GPa) = 25.09131 29.99005 27.54068
#
# Velocity S-wave (km/s) = 3.59082 3.92573 3.76200
# Velocity P-wave (km/s) = 6.54999 7.15358 6.85843
#
# Compressibility (1/GPa) = 0.01998735
#
# Stress axis : x y z
#
# Youngs Moduli (GPa) = 75.58379 100.65078 52.94505
#
# Poissons Ratio (x) = 0.20478 0.27201
# Poissons Ratio (y) = 0.15378 0.20440
# Poissons Ratio (z) = 0.38832 0.38858
#
# Static dielectric constant tensor:
#      x y z
#    x 2.669670 -0.506700 -0.623900 
#    y -0.506700 3.895810 -0.209820 
#    z -0.623900 -0.209820 3.053440 
# 
# 
# High freq. dielectric constant tensor:
#      x y z
#    x 1.752810 -0.013920 -0.000360 
#    y -0.013920 1.781280 0.002140 
#    z -0.000360 0.002140 1.745030 
# 
# From -- ./inp_files/296789.got.cif
#   From: 2010.06.25/outbox.cif.g09.slc.cpg/sg2_149_cif.got.tgz:296789.got - 2010.06.27 13:26:56.
