data_PCOD8003524
_publ_section_title
;
Structure prediction by ZEFSAII (Michael W. Deem and Ramdas Pophale) SiO2 
 PCOD8003524
Probable space group: P -1
;
_chemical_formula_sum "Si O2"
_cell_formula_units_Z 16
_cell_length_a 8.575280
_cell_length_b 9.109631
_cell_length_c 22.804592
_cell_angle_alpha 38.832831
_cell_angle_beta 106.932052
_cell_angle_gamma 78.793109
_cell_volume 760.855529
_symmetry_space_group_name_H-M "P -1"
_symmetry_group_IT_number 2
_symmetry_cell_setting 'triclinic'
loop_
_space_group_symop_operation_xyz
x,y,z
-x,-y,-z
loop_
_atom_site_type_symbol
_atom_site_label
_atom_site_fract_x
_atom_site_fract_y
_atom_site_fract_z
Si Si1 0.770342 0.311470 0.674943
Si Si2 0.443948 0.200185 0.873085
Si Si3 0.894402 0.049258 0.409992
Si Si4 0.061315 0.203862 0.953723
Si Si5 0.793535 0.670830 0.468597
Si Si6 0.725951 0.064163 0.560434
Si Si7 0.292192 0.103128 0.258808
Si Si8 0.018129 0.380899 0.761454
O O1 0.811330 0.413641 0.587604
O O2 0.527146 0.601391 0.589451
O O3 0.956036 0.203258 0.777393
O O4 0.796631 0.009473 0.759567
O O5 0.318611 0.575941 0.751399
O O6 0.259117 0.230515 0.806650
O O7 0.500000 0.000000 0.000000
O O8 0.683123 0.013125 0.924047
O O9 0.805863 0.872705 0.453242
O O10 0.000000 0.000000 0.500000
O O11 0.102651 0.885394 0.437816
O O12 0.881551 0.502357 0.886329
O O13 0.054856 0.326097 0.851588
O O14 0.000000 0.000000 0.000000
O O15 0.000000 0.500000 0.500000
O O16 0.552125 0.918950 0.329576
O O17 0.707626 0.992545 0.646095
O O18 0.817354 0.780208 0.611206
#
# Coordination Sequence:
#
# PCOD8003524 Si02
#       8
#     2   2   2   2   2   2   2   2
#     4  11  20  35  54  80 114 149 184 229 286 344
#     4   9  19  36  56  78 110 150 188 224 275 342
#     4  11  21  34  57  91 115 139 187 247 287 320
#     4  10  20  37  59  79 103 143 194 238 275 333
#     4  11  21  34  53  82 117 148 182 232 289 342
#     4   9  18  34  54  79 113 150 180 218 281 352
#     4  10  21  36  55  78 109 154 193 223 280 354
#     4   9  19  34  56  81 106 143 187 229 277 333
#
# _framework density 21.028962
#
# number of rings (size 3 to 8) (size 9 to 14) (size 15 to 20)
#    0.000    2.000    0.000    6.375    0.000    3.000 
#    0.000    2.500    0.000    3.000    0.000    0.000 
#    0.000    0.000    0.000    0.000    0.000    0.000 
#
# Total GULP energy -198246.258343 kJ/mol
# GULP energy per Si atom -12390.391146 kJ/mol
# Density = 2.098110 g / cm^3
# Si number density = 21.028962 Si / 1000 Ang^3
#
#
#
# Elastic Constant Matrix: (Units=GPa)
#
#
# Indices 1 2 3 4 5 6 
#
# 1 125.0054 45.9032 46.5861 -28.8983 36.1229 18.7401
# 2 45.9032 94.7671 40.2690 -18.0135 20.1004 33.5660
# 3 46.5861 40.2690 90.5808 -25.2718 22.7579 5.3462
# 4 -28.8983 -18.0135 -25.2718 22.6604 -0.2455 -3.3512
# 5 36.1229 20.1004 22.7579 -0.2455 44.0926 -2.1257
# 6 18.7401 33.5660 5.3462 -3.3512 -2.1257 47.7462
#
#
#
# Elastic Compliance Matrix: (Units=1/GPa)
#
#
# Indices 1 2 3 4 5 6 
#
# 1 0.018945 0.001335 0.001589 0.025697 -0.017169 -0.007513
# 2 0.001335 0.020677 -0.003210 0.012349 -0.009482 -0.014256
# 3 0.001589 -0.003210 0.020364 0.022142 -0.010204 0.000453
# 4 0.025697 0.012349 0.022142 0.108732 -0.038243 -0.015318
# 5 -0.017169 -0.009482 -0.010204 -0.038243 0.046794 0.013946
# 6 -0.007513 -0.014256 0.000453 -0.015318 0.013946 0.033411
#
#
# Mechanical properties :
#
#
# Convention : Reuss Voigt Hill
#
# Bulk Modulus (GPa) = 16.83052 63.98553 40.40803
# Shear Modulus (GPa) = 18.56663 34.73950 26.65306
#
# Velocity S-wave (km/s) = 2.97460 4.06887 3.56398
# Velocity P-wave (km/s) = 4.45180 7.25036 6.01607
#
# Compressibility (1/GPa) = 0.05941585
#
# Stress axis : x y z
#
# Youngs Moduli (GPa) = 52.78333 48.36188 49.10525
#
# Poissons Ratio (x) = -0.06458 -0.07804
# Poissons Ratio (y) = -0.07048 0.15764
# Poissons Ratio (z) = -0.08389 0.15526
#
# Static dielectric constant tensor:
#      x y z
#    x 4.315100 0.123830 0.433430 
#    y 0.123830 3.526190 -0.308800 
#    z 0.433430 -0.308800 3.693890 
# 
# 
# High freq. dielectric constant tensor:
#      x y z
#    x 1.846250 0.012810 0.013510 
#    y 0.012810 1.792330 -0.011880 
#    z 0.013510 -0.011880 1.809450 
# 
# From -- ./inp_files/189243.got.cif
#   From: 2010.06.25/outbox.cif.g09.slc.cpg/sg2_95_cif.got.tgz:189243.got - 2010.06.27 13:26:56.
