data_PCOD8003081
_publ_section_title
;
Structure prediction by ZEFSAII (Michael W. Deem and Ramdas Pophale) SiO2 
 PCOD8003081
Probable space group: P -1
;
_chemical_formula_sum "Si O2"
_cell_formula_units_Z 16
_cell_length_a 8.761385
_cell_length_b 15.388085
_cell_length_c 8.406013
_cell_angle_alpha 96.897581
_cell_angle_beta 106.687404
_cell_angle_gamma 38.082820
_cell_volume 658.735133
_symmetry_space_group_name_H-M "P -1"
_symmetry_group_IT_number 2
_symmetry_cell_setting 'triclinic'
loop_
_space_group_symop_operation_xyz
x,y,z
-x,-y,-z
loop_
_atom_site_type_symbol
_atom_site_label
_atom_site_fract_x
_atom_site_fract_y
_atom_site_fract_z
Si Si1 0.449603 0.492628 0.210134
Si Si2 0.203100 0.299662 0.277076
Si Si3 0.550136 0.790517 0.007644
Si Si4 0.296828 0.917946 0.446450
Si Si5 0.039683 0.268865 0.707116
Si Si6 0.962419 0.795315 0.652437
Si Si7 0.352337 0.430286 0.864881
Si Si8 0.927928 0.940422 0.246695
O O1 0.249219 0.563648 0.312781
O O2 0.491249 0.579801 0.219994
O O3 0.725485 0.321732 0.279238
O O4 0.306437 0.514408 0.019897
O O5 0.318093 0.281852 0.140226
O O6 0.394443 0.231224 0.470338
O O7 0.129493 0.227346 0.235528
O O8 0.936020 0.469258 0.265073
O O9 0.262294 0.954844 0.933859
O O10 0.502563 0.720576 0.071760
O O11 0.724397 0.777652 0.163836
O O12 0.193402 0.973842 0.605880
O O13 0.208208 0.042650 0.349614
O O14 0.198030 0.877407 0.306537
O O15 0.098494 0.231442 0.532191
O O16 0.028050 0.181398 0.774605
#
# Coordination Sequence:
#
# PCOD8003081 Si02
#       8
#     2   2   2   2   2   2   2   2
#     4  10  21  39  62  87 120 151 197 246 284 347
#     4  10  20  36  62  90 114 152 200 241 282 347
#     4  11  21  39  64  85 118 155 197 239 293 347
#     4   9  18  37  61  84 116 155 200 236 286 348
#     4  11  22  39  59  89 124 152 187 244 307 340
#     4  10  21  38  60  90 119 154 195 241 293 344
#     4  10  21  39  62  90 114 154 203 239 283 348
#     4   9  20  37  58  88 114 154 196 245 285 347
#
# _framework density 24.288972999999999
#
# number of rings (size 3 to 8) (size 9 to 14) (size 15 to 20)
#    0.000    2.000    1.250    2.250    0.000    1.000 
#    4.500    1.875    0.000    0.000    0.000    0.000 
#    0.000    0.000    0.000    0.000    0.000    0.000 
#
# Total GULP energy -198316.538832 kJ/mol
# GULP energy per Si atom -12394.783677 kJ/mol
# Density = 2.423369 g / cm^3
# Si number density = 24.288973 Si / 1000 Ang^3
#
#
#
# Elastic Constant Matrix: (Units=GPa)
#
#
# Indices 1 2 3 4 5 6 
#
# 1 66.7969 15.8493 33.7387 -10.2140 22.7153 3.8662
# 2 15.8493 54.5571 23.8560 -31.1142 11.2590 3.3471
# 3 33.7387 23.8560 62.4541 -26.3045 18.1552 -2.5102
# 4 -10.2140 -31.1142 -26.3045 40.7348 -4.5167 3.0357
# 5 22.7153 11.2590 18.1552 -4.5167 42.4146 -11.1127
# 6 3.8662 3.3471 -2.5102 3.0357 -11.1127 34.9654
#
#
#
# Elastic Compliance Matrix: (Units=1/GPa)
#
#
# Indices 1 2 3 4 5 6 
#
# 1 0.024152 -0.001344 -0.011118 -0.002768 -0.009736 -0.006194
# 2 -0.001344 0.036446 0.000512 0.027520 -0.008437 -0.008374
# 3 -0.011118 0.000512 0.030388 0.016616 -0.005363 0.000215
# 4 -0.002768 0.027520 0.016616 0.055228 -0.009389 -0.008914
# 5 -0.009736 -0.008437 -0.005363 -0.009389 0.035924 0.013732
# 6 -0.006194 -0.008374 0.000215 -0.008914 0.013732 0.035240
#
#
# Mechanical properties :
#
#
# Convention : Reuss Voigt Hill
#
# Bulk Modulus (GPa) = 14.90651 36.74401 25.82526
# Shear Modulus (GPa) = 18.96513 30.98059 24.97286
#
# Velocity S-wave (km/s) = 2.79733 3.57529 3.20997
# Velocity P-wave (km/s) = 4.07233 5.67488 4.93904
#
# Compressibility (1/GPa) = 0.06708479
#
# Stress axis : x y z
#
# Youngs Moduli (GPa) = 41.40514 27.43772 32.90724
#
# Poissons Ratio (x) = 0.03688 0.36587
# Poissons Ratio (y) = 0.05565 -0.01684
# Poissons Ratio (z) = 0.46036 -0.01404
#
# Static dielectric constant tensor:
#      x y z
#    x 4.452720 -0.044140 0.193190 
#    y -0.044140 4.073090 -0.451640 
#    z 0.193190 -0.451640 4.323010 
# 
# 
# High freq. dielectric constant tensor:
#      x y z
#    x 1.969470 -0.004370 0.009530 
#    y -0.004370 1.947200 -0.028820 
#    z 0.009530 -0.028820 1.956070 
# 
# From -- ./inp_files/207877.got.cif
#   From: 2010.06.25/outbox.cif.g09.slc.cpg/sg2_104_cif.got.tgz:207877.got - 2010.06.27 13:26:56.
