data_PCOD8003862
_publ_section_title
;
Structure prediction by ZEFSAII (Michael W. Deem and Ramdas Pophale) SiO2 
 PCOD8003862
Probable space group: P -1
;
_chemical_formula_sum "Si O2"
_cell_formula_units_Z 16
_cell_length_a 18.334008
_cell_length_b 12.607891
_cell_length_c 7.647190
_cell_angle_alpha 145.397345
_cell_angle_beta 48.886701
_cell_angle_gamma 134.531978
_cell_volume 701.370478
_symmetry_space_group_name_H-M "P -1"
_symmetry_group_IT_number 2
_symmetry_cell_setting 'triclinic'
loop_
_space_group_symop_operation_xyz
x,y,z
-x,-y,-z
loop_
_atom_site_type_symbol
_atom_site_label
_atom_site_fract_x
_atom_site_fract_y
_atom_site_fract_z
Si Si1 0.112003 0.703077 0.047882
Si Si2 0.728245 0.437542 0.994852
Si Si3 0.300837 0.583867 0.594638
Si Si4 0.037216 0.527554 0.278079
Si Si5 0.969353 0.105186 0.032323
Si Si6 0.163569 0.138285 0.570208
Si Si7 0.246348 0.147259 0.091948
Si Si8 0.619172 0.121622 0.438031
O O1 0.032913 0.638817 0.250274
O O2 0.185874 0.935164 0.286725
O O3 0.183320 0.572338 0.737718
O O4 0.052125 0.691040 0.935111
O O5 0.845384 0.449428 0.850743
O O6 0.666306 0.281085 0.734829
O O7 0.667240 0.378699 0.198078
O O8 0.748594 0.667660 0.209478
O O9 0.308287 0.373448 0.226692
O O10 0.375082 0.765604 0.602830
O O11 0.000206 0.650025 0.654045
O O12 0.042707 0.100422 0.749461
O O13 0.844000 0.999987 0.088510
O O14 0.000000 0.000000 0.000000
O O15 0.180953 0.194626 0.416065
O O16 0.323704 0.037309 0.876192
O O17 0.500000 0.000000 0.500000
#
# Coordination Sequence:
#
# PCOD8003862 Si02
#       8
#     2   2   2   2   2   2   2   2
#     4  10  20  37  61  95 140 193 216 261 340 403
#     4  10  25  44  65 103 135 180 235 284 343 419
#     4  10  24  46  71  99 144 179 223 295 348 410
#     4  10  21  35  57  94 141 179 229 270 320 407
#     4  12  23  35  62 103 139 189 227 269 334 412
#     4  11  24  37  63  96 141 186 220 268 331 417
#     4  11  25  46  66 100 143 181 231 282 342 418
#     4  12  27  50  78 101 129 179 238 303 364 404
#
# _framework density 22.812480999999998
#
# number of rings (size 3 to 8) (size 9 to 14) (size 15 to 20)
#    0.000    1.250    3.750    1.125   10.500    1.500 
#    0.000    2.500    0.000    0.000    0.000    0.000 
#    0.000    0.000    0.000    0.000    0.000    0.000 
#
# Total GULP energy -198239.007433 kJ/mol
# GULP energy per Si atom -12389.937965 kJ/mol
# Density = 2.276056 g / cm^3
# Si number density = 22.812481 Si / 1000 Ang^3
#
#
#
# Elastic Constant Matrix: (Units=GPa)
#
#
# Indices 1 2 3 4 5 6 
#
# 1 61.0082 34.4819 44.4914 1.5823 3.6401 3.6737
# 2 34.4819 127.4837 62.8491 4.1298 -9.2614 -3.1959
# 3 44.4914 62.8491 135.3838 25.4286 2.2987 -2.7934
# 4 1.5823 4.1298 25.4286 44.2672 -8.4001 -3.4506
# 5 3.6401 -9.2614 2.2987 -8.4001 34.3655 5.1155
# 6 3.6737 -3.1959 -2.7934 -3.4506 5.1155 29.8694
#
#
#
# Elastic Compliance Matrix: (Units=1/GPa)
#
#
# Indices 1 2 3 4 5 6 
#
# 1 0.023378 -0.003325 -0.006688 0.002727 -0.001776 -0.003237
# 2 -0.003325 0.011306 -0.004707 0.002632 0.004245 0.000756
# 3 -0.006688 -0.004707 0.013264 -0.007499 -0.003472 0.001288
# 4 0.002727 0.002632 -0.007499 0.028092 0.007612 0.001186
# 5 -0.001776 0.004245 -0.003472 0.007612 0.033187 -0.004456
# 6 -0.003237 0.000756 0.001288 0.001186 -0.004456 0.034979
#
#
# Mechanical properties :
#
#
# Convention : Reuss Voigt Hill
#
# Bulk Modulus (GPa) = 54.03040 67.50226 60.76633
# Shear Modulus (GPa) = 27.80650 33.83731 30.82191
#
# Velocity S-wave (km/s) = 3.49509 3.85552 3.67972
# Velocity P-wave (km/s) = 6.32641 7.03380 6.68946
#
# Compressibility (1/GPa) = 0.01850810
#
# Stress axis : x y z
#
# Youngs Moduli (GPa) = 42.77525 88.44960 75.39487
#
# Poissons Ratio (x) = 0.29406 0.50426
# Poissons Ratio (y) = 0.14221 0.35487
# Poissons Ratio (z) = 0.28609 0.41632
#
# Static dielectric constant tensor:
#      x y z
#    x 4.036180 -0.680750 0.286360 
#    y -0.680750 5.308210 0.169300 
#    z 0.286360 0.169300 4.522980 
# 
# 
# High freq. dielectric constant tensor:
#      x y z
#    x 1.872230 -0.041220 0.011750 
#    y -0.041220 1.906860 0.021430 
#    z 0.011750 0.021430 1.916990 
# 
# From -- ./inp_files/347724.got.cif
#   From: 2010.06.25/outbox.cif.g09.slc.cpg/sg2_174_cif.got.tgz:347724.got - 2010.06.27 13:26:56.
