data_PCOD8003246
_publ_section_title
;
Structure prediction by ZEFSAII (Michael W. Deem and Ramdas Pophale) SiO2 
 PCOD8003246
Probable space group: P -1
;
_chemical_formula_sum "Si O2"
_cell_formula_units_Z 16
_cell_length_a 8.764803
_cell_length_b 11.921386
_cell_length_c 10.023044
_cell_angle_alpha 118.580923
_cell_angle_beta 70.395489
_cell_angle_gamma 71.449284
_cell_volume 706.598873
_symmetry_space_group_name_H-M "P -1"
_symmetry_group_IT_number 2
_symmetry_cell_setting 'triclinic'
loop_
_space_group_symop_operation_xyz
x,y,z
-x,-y,-z
loop_
_atom_site_type_symbol
_atom_site_label
_atom_site_fract_x
_atom_site_fract_y
_atom_site_fract_z
Si Si1 0.686825 0.872403 0.038601
Si Si2 0.624725 0.626719 0.001595
Si Si3 0.005314 0.693339 0.349231
Si Si4 0.052341 0.862239 0.003133
Si Si5 0.645951 0.302823 0.634046
Si Si6 0.491075 0.604855 0.742623
Si Si7 0.912631 0.966623 0.380313
Si Si8 0.666910 0.779583 0.699230
O O1 0.892047 0.823525 0.015397
O O2 0.526718 0.058477 0.205102
O O3 0.607171 0.787872 0.096569
O O4 0.729461 0.814156 0.840343
O O5 0.857955 0.480240 0.853567
O O6 0.511488 0.620789 0.903974
O O7 0.518200 0.619299 0.157961
O O8 0.148292 0.725368 0.401568
O O9 0.848798 0.703112 0.501138
O O10 0.885579 0.829374 0.349115
O O11 0.267587 0.711525 0.816983
O O12 0.062179 0.908878 0.178755
O O13 0.000000 0.000000 0.000000
O O14 0.564662 0.422915 0.599095
O O15 0.704107 0.128534 0.486462
O O16 0.622577 0.649062 0.651858
O O17 0.000000 0.000000 0.500000
#
# Coordination Sequence:
#
# PCOD8003246 Si02
#       8
#     2   2   2   2   2   2   2   2
#     4  10  23  39  64  90 133 166 215 259 325 379
#     4  10  20  39  64  95 123 169 214 268 314 378
#     4  10  20  37  67  94 126 160 224 261 311 378
#     4  12  24  42  66  96 131 170 212 263 324 376
#     4  10  20  36  64  94 124 165 217 264 313 374
#     4  10  20  38  62  90 130 167 212 257 318 378
#     4  10  22  39  66  95 121 166 217 259 307 381
#     4  10  21  39  62  95 126 175 208 264 314 385
#
# _framework density 22.643681000000001
#
# number of rings (size 3 to 8) (size 9 to 14) (size 15 to 20)
#    0.000    1.750    1.250    4.500    3.500    4.500 
#    0.000    6.875    0.000    0.000    0.000    0.000 
#    0.000    0.000    0.000    0.000    0.000    0.000 
#
# Total GULP energy -198325.976612 kJ/mol
# GULP energy per Si atom -12395.373538 kJ/mol
# Density = 2.259214 g / cm^3
# Si number density = 22.643681 Si / 1000 Ang^3
#
#
#
# Elastic Constant Matrix: (Units=GPa)
#
#
# Indices 1 2 3 4 5 6 
#
# 1 83.8129 37.7673 29.8176 -5.1090 -22.7535 -2.7849
# 2 37.7673 205.6154 44.9221 15.2760 -28.1057 4.1497
# 3 29.8176 44.9221 89.2556 -5.4307 -35.3318 -2.0323
# 4 -5.1090 15.2760 -5.4307 34.3548 0.8007 -13.7478
# 5 -22.7535 -28.1057 -35.3318 0.8007 38.7160 -1.3536
# 6 -2.7849 4.1497 -2.0323 -13.7478 -1.3536 23.1177
#
#
#
# Elastic Compliance Matrix: (Units=1/GPa)
#
#
# Indices 1 2 3 4 5 6 
#
# 1 0.015642 -0.002250 -0.000953 0.005326 0.006781 0.005769
# 2 -0.002250 0.006494 -0.002587 -0.005639 0.000974 -0.004961
# 3 -0.000953 -0.002587 0.019488 0.006452 0.015451 0.006805
# 4 0.005326 -0.005639 0.006452 0.045034 0.005018 0.029296
# 5 0.006781 0.000974 0.015451 0.005018 0.044783 0.007607
# 6 0.005769 -0.004961 0.006805 0.029296 0.007607 0.063308
#
#
# Mechanical properties :
#
#
# Convention : Reuss Voigt Hill
#
# Bulk Modulus (GPa) = 33.28618 67.07752 50.18185
# Shear Modulus (GPa) = 23.11121 36.98284 30.04703
#
# Velocity S-wave (km/s) = 3.19822 4.04574 3.64668
# Velocity P-wave (km/s) = 5.32636 7.17714 6.31987
#
# Compressibility (1/GPa) = 0.03004250
#
# Stress axis : x y z
#
# Youngs Moduli (GPa) = 63.93197 153.98286 51.31355
#
# Poissons Ratio (x) = 0.34647 0.04892
# Poissons Ratio (y) = 0.14385 0.13276
# Poissons Ratio (z) = 0.06095 0.39840
#
# Static dielectric constant tensor:
#      x y z
#    x 3.853740 0.346570 0.015460 
#    y 0.346570 6.831830 1.038080 
#    z 0.015460 1.038080 4.215260 
# 
# 
# High freq. dielectric constant tensor:
#      x y z
#    x 1.858710 0.006110 -0.018490 
#    y 0.006110 1.928920 0.005540 
#    z -0.018490 0.005540 1.877430 
# 
# From -- ./inp_files/189163.got.cif
#   From: 2010.06.25/outbox.cif.g09.slc.cpg/sg2_95_cif.got.tgz:189163.got - 2010.06.27 13:26:56.
