data_PCOD8003493
_publ_section_title
;
Structure prediction by ZEFSAII (Michael W. Deem and Ramdas Pophale) SiO2 
 PCOD8003493
Probable space group: P -1
;
_chemical_formula_sum "Si O2"
_cell_formula_units_Z 16
_cell_length_a 9.240662
_cell_length_b 21.428659
_cell_length_c 27.081110
_cell_angle_alpha 18.589008
_cell_angle_beta 30.025666
_cell_angle_gamma 38.470139
_cell_volume 831.146573
_symmetry_space_group_name_H-M "P -1"
_symmetry_group_IT_number 2
_symmetry_cell_setting 'triclinic'
loop_
_space_group_symop_operation_xyz
x,y,z
-x,-y,-z
loop_
_atom_site_type_symbol
_atom_site_label
_atom_site_fract_x
_atom_site_fract_y
_atom_site_fract_z
Si Si1 0.660271 0.772257 0.915969
Si Si2 0.021600 0.270938 0.241712
Si Si3 0.653165 0.970350 0.249571
Si Si4 0.598781 0.888674 0.685566
Si Si5 0.726031 0.877607 0.004378
Si Si6 0.312285 0.459950 0.423561
Si Si7 0.064484 0.963804 0.741363
Si Si8 0.561697 0.600018 0.679251
O O1 0.908528 0.888397 0.793147
O O2 0.820771 0.677124 0.896392
O O3 0.481020 0.930568 0.830476
O O4 0.422710 0.588291 0.149415
O O5 0.791442 0.408962 0.215942
O O6 0.276295 0.297668 0.189867
O O7 0.852724 0.033493 0.469194
O O8 0.637862 0.738419 0.414928
O O9 0.470770 0.975762 0.349766
O O10 0.993513 0.090481 0.066205
O O11 0.293154 0.821453 0.794793
O O12 0.579980 0.641298 0.224699
O O13 0.820679 0.953665 0.863909
O O14 0.500000 0.000000 0.000000
O O15 0.296301 0.428477 0.393376
O O16 0.000000 0.500000 0.500000
O O17 0.258294 0.192166 0.505488
#
# Coordination Sequence:
#
# PCOD8003493 Si02
#       8
#     2   2   2   2   2   2   2   2
#     4  11  23  36  60  88 127 158 186 242 303 341
#     4   9  17  34  58  84 121 158 196 239 288 338
#     4  10  21  39  58  90 119 151 196 247 286 346
#     4   8  16  33  58  82 116 157 197 241 277 341
#     4  11  20  38  65  86 110 151 201 243 290 348
#     4  12  21  38  67  88 109 154 200 240 295 348
#     4  10  20  37  58  85 122 154 196 237 295 346
#     4  11  21  38  59  87 122 157 198 242 288 353
#
# _framework density 19.250515
#
# number of rings (size 3 to 8) (size 9 to 14) (size 15 to 20)
#    0.000    1.750    6.250    0.375    0.000    3.000 
#    0.000    3.125    2.750    3.000    0.000    0.000 
#    0.000    0.000    0.000    0.000    0.000    0.000 
#
# Total GULP energy -198375.350049 kJ/mol
# GULP energy per Si atom -12398.459378 kJ/mol
# Density = 1.920670 g / cm^3
# Si number density = 19.250515 Si / 1000 Ang^3
#
#
#
# Elastic Constant Matrix: (Units=GPa)
#
#
# Indices 1 2 3 4 5 6 
#
# 1 120.9847 28.3101 44.3805 0.1004 3.0874 -14.9811
# 2 28.3101 76.8942 24.7485 9.1858 13.0665 -15.7062
# 3 44.3805 24.7485 115.0997 -8.1972 -1.0185 -11.1094
# 4 0.1004 9.1858 -8.1972 30.4241 0.5207 2.8397
# 5 3.0874 13.0665 -1.0185 0.5207 34.7871 -0.3622
# 6 -14.9811 -15.7062 -11.1094 2.8397 -0.3622 23.9937
#
#
#
# Elastic Compliance Matrix: (Units=1/GPa)
#
#
# Indices 1 2 3 4 5 6 
#
# 1 0.010388 -0.001851 -0.003291 -0.000715 -0.000272 0.003831
# 2 -0.001851 0.018800 -0.002889 -0.007320 -0.006762 0.010578
# 3 -0.003291 -0.002889 0.010926 0.003734 0.001648 0.000696
# 4 -0.000715 -0.007320 0.003734 0.036778 0.002290 -0.007828
# 5 -0.000272 -0.006762 0.001648 0.002290 0.031287 -0.003632
# 6 0.003831 0.010578 0.000696 -0.007828 -0.003632 0.052188
#
#
# Mechanical properties :
#
#
# Convention : Reuss Voigt Hill
#
# Bulk Modulus (GPa) = 41.57620 56.42853 49.00237
# Shear Modulus (GPa) = 27.10826 32.21028 29.65927
#
# Velocity S-wave (km/s) = 3.75665 4.09493 3.92943
# Velocity P-wave (km/s) = 6.36089 7.19266 6.78952
#
# Compressibility (1/GPa) = 0.02405222
#
# Stress axis : x y z
#
# Youngs Moduli (GPa) = 96.26719 53.19067 91.52598
#
# Poissons Ratio (x) = 0.09846 0.30120
# Poissons Ratio (y) = 0.17820 0.26441
# Poissons Ratio (z) = 0.31680 0.15366
#
# Static dielectric constant tensor:
#      x y z
#    x 3.540580 -0.231300 0.077000 
#    y -0.231300 3.569060 0.088160 
#    z 0.077000 0.088160 3.625900 
# 
# 
# High freq. dielectric constant tensor:
#      x y z
#    x 1.735350 -0.011840 0.004670 
#    y -0.011840 1.744540 0.011290 
#    z 0.004670 0.011290 1.752240 
# 
# From -- ./inp_files/207201.got.cif
#   From: 2010.06.25/outbox.cif.g09.slc.cpg/sg2_104_cif.got.tgz:207201.got - 2010.06.27 13:26:56.
