data_PCOD8003071
_publ_section_title
;
Structure prediction by ZEFSAII (Michael W. Deem and Ramdas Pophale) SiO2 
 PCOD8003071
Probable space group: P -1
;
_chemical_formula_sum "Si O2"
_cell_formula_units_Z 12
_cell_length_a 26.893766
_cell_length_b 9.637810
_cell_length_c 15.026343
_cell_angle_alpha 30.388612
_cell_angle_beta 161.328294
_cell_angle_gamma 150.822959
_cell_volume 591.985939
_symmetry_space_group_name_H-M "P -1"
_symmetry_group_IT_number 2
_symmetry_cell_setting 'triclinic'
loop_
_space_group_symop_operation_xyz
x,y,z
-x,-y,-z
loop_
_atom_site_type_symbol
_atom_site_label
_atom_site_fract_x
_atom_site_fract_y
_atom_site_fract_z
Si Si1 0.592106 0.595619 0.238341
Si Si2 0.760301 0.528410 0.816519
Si Si3 0.505990 0.050645 0.268907
Si Si4 0.222175 0.241666 0.096045
Si Si5 0.937430 0.708197 0.839762
Si Si6 0.477960 0.681635 0.172869
O O1 0.577367 0.314411 0.311925
O O2 0.781280 0.752743 0.502771
O O3 0.478351 0.488467 0.192310
O O4 0.534433 0.832778 0.957937
O O5 0.846338 0.658850 0.984585
O O6 0.894977 0.572704 0.942287
O O7 0.634370 0.699582 0.488631
O O8 0.661681 0.181929 0.848102
O O9 0.643845 0.905437 0.568613
O O10 0.308773 0.530240 0.023598
O O11 0.075508 0.026101 0.908254
O O12 0.000000 0.500000 0.000000
O O13 0.500000 0.000000 0.000000
#
# Coordination Sequence:
#
# PCOD8003071 Si02
#       6
#     2   2   2   2   2   2
#     4  10  21  37  59  88 117 152 193 242 283 343
#     4  10  22  37  61  84 118 154 195 235 290 340
#     4  10  20  38  62  85 115 152 199 237 286 339
#     4  11  21  38  63  87 117 152 191 239 291 343
#     4  11  23  39  57  86 122 152 192 235 293 344
#     4  10  20  36  62  88 116 147 202 236 286 340
#
# _framework density 20.270752999999999
#
# number of rings (size 3 to 8) (size 9 to 14) (size 15 to 20)
#    0.000    1.667    1.667    4.500    2.333    2.000 
#    0.000   11.667    0.000    0.000    0.000    0.000 
#    0.000    0.000    0.000    0.000    0.000    0.000 
#
# Total GULP energy -148793.514997 kJ/mol
# GULP energy per Si atom -12399.459583 kJ/mol
# Density = 2.022462 g / cm^3
# Si number density = 20.270753 Si / 1000 Ang^3
#
#
#
# Elastic Constant Matrix: (Units=GPa)
#
#
# Indices 1 2 3 4 5 6 
#
# 1 149.4474 57.2689 34.3072 11.1320 -2.9416 -6.1492
# 2 57.2689 126.1050 37.7155 8.7580 -9.1926 1.4444
# 3 34.3072 37.7155 54.0012 0.2424 -12.1095 -5.8246
# 4 11.1320 8.7580 0.2424 27.6495 3.1587 -8.3728
# 5 -2.9416 -9.1926 -12.1095 3.1587 27.3400 3.5682
# 6 -6.1492 1.4444 -5.8246 -8.3728 3.5682 24.6498
#
#
#
# Elastic Compliance Matrix: (Units=1/GPa)
#
#
# Indices 1 2 3 4 5 6 
#
# 1 0.008835 -0.002828 -0.003883 -0.002157 -0.001595 0.000950
# 2 -0.002828 0.011581 -0.006350 -0.004055 0.001836 -0.004528
# 3 -0.003883 -0.006350 0.027987 0.004237 0.008542 0.006219
# 4 -0.002157 -0.004055 0.004237 0.044142 -0.006999 0.016707
# 5 -0.001595 0.001836 0.008542 -0.006999 0.042531 -0.007021
# 6 0.000950 -0.004528 0.006219 0.016707 -0.007021 0.049232
#
#
# Mechanical properties :
#
#
# Convention : Reuss Voigt Hill
#
# Bulk Modulus (GPa) = 44.88190 65.34853 55.11521
# Shear Modulus (GPa) = 22.95095 29.27865 26.11480
#
# Velocity S-wave (km/s) = 3.36850 3.80462 3.59318
# Velocity P-wave (km/s) = 6.10887 7.18387 6.66807
#
# Compressibility (1/GPa) = 0.02228070
#
# Stress axis : x y z
#
# Youngs Moduli (GPa) = 113.18753 86.35032 35.73064
#
# Poissons Ratio (x) = 0.24422 0.13874
# Poissons Ratio (y) = 0.32012 0.22688
# Poissons Ratio (z) = 0.43951 0.54830
#
# Static dielectric constant tensor:
#      x y z
#    x 4.101190 -0.073170 -0.101580 
#    y -0.073170 3.647530 0.026600 
#    z -0.101580 0.026600 3.512810 
# 
# 
# High freq. dielectric constant tensor:
#      x y z
#    x 1.813460 -0.012370 -0.009880 
#    y -0.012370 1.794340 -0.001990 
#    z -0.009880 -0.001990 1.768980 
# 
# From -- ./inp_files/144493.got.cif
#   From: 2010.06.25/outbox.cif.g09.slc.cpg/sg2_73_cif.got.tgz:144493.got - 2010.06.27 13:26:56.
