data_PCOD8003016
_publ_section_title
;
Structure prediction by ZEFSAII (Michael W. Deem and Ramdas Pophale) SiO2 
 PCOD8003016
Probable space group: P -1
;
_chemical_formula_sum "Si O2"
_cell_formula_units_Z 16
_cell_length_a 6.086866
_cell_length_b 17.265535
_cell_length_c 8.050133
_cell_angle_alpha 95.893797
_cell_angle_beta 87.659653
_cell_angle_gamma 51.516819
_cell_volume 652.763902
_symmetry_space_group_name_H-M "P -1"
_symmetry_group_IT_number 2
_symmetry_cell_setting 'triclinic'
loop_
_space_group_symop_operation_xyz
x,y,z
-x,-y,-z
loop_
_atom_site_type_symbol
_atom_site_label
_atom_site_fract_x
_atom_site_fract_y
_atom_site_fract_z
Si Si1 0.323858 0.760359 0.605666
Si Si2 0.377251 0.168985 0.794247
Si Si3 0.200007 0.063283 0.936566
Si Si4 0.009707 0.031420 0.253020
Si Si5 0.334430 0.304487 0.090957
Si Si6 0.160917 0.634814 0.678059
Si Si7 0.652778 0.519343 0.865197
Si Si8 0.855146 0.657222 0.377298
O O1 0.134280 0.878813 0.586054
O O2 0.500656 0.748692 0.756853
O O3 0.119636 0.734131 0.648545
O O4 0.550315 0.686135 0.437693
O O5 0.150229 0.160301 0.882880
O O6 0.220875 0.237101 0.650714
O O7 0.459393 0.223323 0.922385
O O8 0.670007 0.058929 0.719359
O O9 0.174652 0.005657 0.776004
O O10 0.983819 0.087536 0.094024
O O11 0.500000 0.000000 0.000000
O O12 0.348358 0.391377 0.053288
O O13 0.013463 0.348729 0.147440
O O14 0.487346 0.548121 0.700216
O O15 0.061164 0.605968 0.518691
O O16 0.980651 0.421513 0.797708
O O17 0.500000 0.500000 0.000000
#
# Coordination Sequence:
#
# PCOD8003016 Si02
#       8
#     2   2   2   2   2   2   2   2
#     4  10  22  41  63  90 126 168 208 251 310 372
#     4  11  23  38  61  94 129 163 210 260 304 365
#     4   9  18  34  60  91 122 160 210 261 307 353
#     4  10  20  36  61  90 125 168 209 254 309 365
#     4  10  22  41  66  96 123 157 210 261 308 372
#     4  10  23  43  67  90 127 168 203 255 320 376
#     4  11  25  44  69  95 121 159 209 265 321 371
#     4  11  26  42  60  92 128 166 209 256 312 382
#
# _framework density 24.511161000000001
#
# number of rings (size 3 to 8) (size 9 to 14) (size 15 to 20)
#    0.000    1.750    0.000    4.125    0.000   16.000 
#    0.000    1.250    0.000    0.000    0.000    0.000 
#    0.000    0.000    0.000    0.000    0.000    0.000 
#
# Total GULP energy -198313.103483 kJ/mol
# GULP energy per Si atom -12394.568968 kJ/mol
# Density = 2.445537 g / cm^3
# Si number density = 24.511161 Si / 1000 Ang^3
#
#
#
# Elastic Constant Matrix: (Units=GPa)
#
#
# Indices 1 2 3 4 5 6 
#
# 1 109.5575 35.7014 27.3538 4.9153 -24.5062 23.5680
# 2 35.7014 129.0917 35.2696 14.9220 -22.2248 7.6356
# 3 27.3538 35.2696 76.8563 7.4009 -19.6290 3.9831
# 4 4.9153 14.9220 7.4009 44.3096 -2.9525 -7.4771
# 5 -24.5062 -22.2248 -19.6290 -2.9525 25.4578 -8.1982
# 6 23.5680 7.6356 3.9831 -7.4771 -8.1982 40.4613
#
#
#
# Elastic Compliance Matrix: (Units=1/GPa)
#
#
# Indices 1 2 3 4 5 6 
#
# 1 0.013078 -0.001295 -0.001532 -0.001179 0.008285 -0.005761
# 2 -0.001295 0.009992 -0.002562 -0.002505 0.005113 -0.000306
# 3 -0.001532 -0.002562 0.017300 -0.000932 0.010012 0.001529
# 4 -0.001179 -0.002505 -0.000932 0.024758 0.000757 0.005980
# 5 0.008285 0.005113 0.010012 0.000757 0.061396 0.005804
# 6 -0.005761 -0.000306 0.001529 0.005980 0.005804 0.030259
#
#
# Mechanical properties :
#
#
# Convention : Reuss Voigt Hill
#
# Bulk Modulus (GPa) = 33.79284 56.90611 45.34947
# Shear Modulus (GPa) = 28.18114 36.52447 32.35280
#
# Velocity S-wave (km/s) = 3.39444 3.86439 3.63701
# Velocity P-wave (km/s) = 5.40182 6.57101 6.01489
#
# Compressibility (1/GPa) = 0.02959207
#
# Stress axis : x y z
#
# Youngs Moduli (GPa) = 76.46662 100.07759 57.80444
#
# Poissons Ratio (x) = 0.12957 0.08857
# Poissons Ratio (y) = 0.09900 0.14809
# Poissons Ratio (z) = 0.11716 0.25639
#
# Static dielectric constant tensor:
#      x y z
#    x 4.568470 0.057370 -0.417440 
#    y 0.057370 4.505780 -0.168520 
#    z -0.417440 -0.168520 4.314470 
# 
# 
# High freq. dielectric constant tensor:
#      x y z
#    x 1.973060 -0.002230 -0.013420 
#    y -0.002230 1.977370 -0.008210 
#    z -0.013420 -0.008210 1.952020 
# 
# From -- ./inp_files/139041.got.cif
#   From: 2010.06.25/outbox.cif.g09.slc.cpg/sg2_70_cif.got.tgz:139041.got - 2010.06.27 13:26:56.
