data_PCOD8003556
_publ_section_title
;
Structure prediction by ZEFSAII (Michael W. Deem and Ramdas Pophale) SiO2 
 PCOD8003556
Probable space group: P -1
;
_chemical_formula_sum "Si O2"
_cell_formula_units_Z 14
_cell_length_a 24.032154
_cell_length_b 9.440534
_cell_length_c 6.564189
_cell_angle_alpha 47.779778
_cell_angle_beta 124.785179
_cell_angle_gamma 137.371126
_cell_volume 738.288557
_symmetry_space_group_name_H-M "P -1"
_symmetry_group_IT_number 2
_symmetry_cell_setting 'triclinic'
loop_
_space_group_symop_operation_xyz
x,y,z
-x,-y,-z
loop_
_atom_site_type_symbol
_atom_site_label
_atom_site_fract_x
_atom_site_fract_y
_atom_site_fract_z
Si Si1 0.530686 0.077652 0.769427
Si Si2 0.827060 0.529517 0.506303
Si Si3 0.120913 0.077053 0.073208
Si Si4 0.828143 0.256982 0.398079
Si Si5 0.694119 0.191307 0.873322
Si Si6 0.065122 0.298810 0.053240
Si Si7 0.460747 0.233639 0.193190
O O1 0.631530 0.243885 0.795287
O O2 0.486244 0.203591 0.498449
O O3 0.492625 0.838340 0.791767
O O4 0.500000 0.000000 0.000000
O O5 0.826781 0.347164 0.532380
O O6 0.747953 0.391301 0.624199
O O7 0.908540 0.654292 0.700037
O O8 0.827060 0.723586 0.183863
O O9 0.169692 0.968133 0.352270
O O10 0.108233 0.189458 0.135770
O O11 0.033588 0.874315 0.988805
O O12 0.747035 0.179976 0.172928
O O13 0.907784 0.462882 0.238055
O O14 0.638882 0.935547 0.892967
O O15 0.500000 0.500000 0.000000
#
# Coordination Sequence:
#
# PCOD8003556 Si02
#       7
#     2   2   2   2   2   2   2
#     4   9  20  39  62  82 109 147 185 230 285 335
#     4  10  21  37  54  82 117 152 186 232 285 332
#     4  10  20  37  59  85 112 154 194 228 280 332
#     4  10  21  36  55  86 115 152 188 232 285 326
#     4   9  21  39  56  80 124 142 182 242 282 332
#     4   9  20  38  58  81 119 148 193 240 268 330
#     4   9  20  40  59  85 108 143 190 228 280 341
#
# _framework density 18.962775000000001
#
# number of rings (size 3 to 8) (size 9 to 14) (size 15 to 20)
#    0.857    1.714    0.000    0.857    2.000    3.429 
#   10.286    0.000    0.000    0.000    0.000    0.000 
#    0.000    0.000    0.000    0.000    0.000    0.000 
#
# Total GULP energy -173470.899116 kJ/mol
# GULP energy per Si atom -12390.778508 kJ/mol
# Density = 1.891961 g / cm^3
# Si number density = 18.962775 Si / 1000 Ang^3
#
#
#
# Elastic Constant Matrix: (Units=GPa)
#
#
# Indices 1 2 3 4 5 6 
#
# 1 66.2614 34.5121 54.8906 5.7919 -6.4444 8.5786
# 2 34.5121 97.8719 69.9238 -0.5602 8.9795 15.6975
# 3 54.8906 69.9238 155.4472 2.8043 0.2375 -6.8110
# 4 5.7919 -0.5602 2.8043 34.7204 0.0071 3.8405
# 5 -6.4444 8.9795 0.2375 0.0071 27.1373 -2.0210
# 6 8.5786 15.6975 -6.8110 3.8405 -2.0210 25.4890
#
#
#
# Elastic Compliance Matrix: (Units=1/GPa)
#
#
# Indices 1 2 3 4 5 6 
#
# 1 0.024854 -0.002220 -0.008103 -0.002612 0.006091 -0.008287
# 2 -0.002220 0.021138 -0.009470 0.003245 -0.008629 -0.015975
# 3 -0.008103 -0.009470 0.014132 -0.001348 0.002032 0.012700
# 4 -0.002612 0.003245 -0.001348 0.030083 -0.002151 -0.006183
# 5 0.006091 -0.008629 0.002032 -0.002151 0.041688 0.007437
# 6 -0.008287 -0.015975 0.012700 -0.006183 0.007437 0.056774
#
#
# Mechanical properties :
#
#
# Convention : Reuss Voigt Hill
#
# Bulk Modulus (GPa) = 48.68874 70.91483 59.80179
# Shear Modulus (GPa) = 21.26740 28.15292 24.71016
#
# Velocity S-wave (km/s) = 3.35256 3.85728 3.61375
# Velocity P-wave (km/s) = 6.38106 7.57075 7.00122
#
# Compressibility (1/GPa) = 0.02053863
#
# Stress axis : x y z
#
# Youngs Moduli (GPa) = 40.23501 47.30722 70.76204
#
# Poissons Ratio (x) = 0.10501 0.57339
# Poissons Ratio (y) = 0.08931 0.67012
# Poissons Ratio (z) = 0.32603 0.44800
#
# Static dielectric constant tensor:
#      x y z
#    x 3.179180 0.004750 -0.138900 
#    y 0.004750 3.500150 0.061770 
#    z -0.138900 0.061770 3.387600 
# 
# 
# High freq. dielectric constant tensor:
#      x y z
#    x 1.712790 0.005510 -0.008980 
#    y 0.005510 1.737270 0.009220 
#    z -0.008980 0.009220 1.747970 
# 
# From -- ./inp_files/122783.got.cif
#   From: 2010.06.25/outbox.cif.g09.slc.cpg/sg2_62_cif.got.tgz:122783.got - 2010.06.27 13:26:56.
