data_PCOD8003885
_publ_section_title
;
Structure prediction by ZEFSAII (Michael W. Deem and Ramdas Pophale) SiO2 
 PCOD8003885
Probable space group: P -1
;
_chemical_formula_sum "Si O2"
_cell_formula_units_Z 16
_cell_length_a 13.243669
_cell_length_b 8.837673
_cell_length_c 8.991339
_cell_angle_alpha 110.219216
_cell_angle_beta 45.851472
_cell_angle_gamma 94.345846
_cell_volume 686.993339
_symmetry_space_group_name_H-M "P -1"
_symmetry_group_IT_number 2
_symmetry_cell_setting 'triclinic'
loop_
_space_group_symop_operation_xyz
x,y,z
-x,-y,-z
loop_
_atom_site_type_symbol
_atom_site_label
_atom_site_fract_x
_atom_site_fract_y
_atom_site_fract_z
Si Si1 0.472630 0.275497 0.379397
Si Si2 0.143866 0.627750 0.189268
Si Si3 0.798756 0.172507 0.057700
Si Si4 0.541869 0.356468 0.028689
Si Si5 0.260769 0.274949 0.844382
Si Si6 0.984360 0.900118 0.626064
Si Si7 0.509673 0.099769 0.749484
Si Si8 0.183969 0.964569 0.705283
O O1 0.632092 0.269213 0.276758
O O2 0.449715 0.385805 0.288274
O O3 0.350747 0.352546 0.653651
O O4 0.466162 0.088868 0.288399
O O5 0.018475 0.706809 0.468583
O O6 0.112291 0.718053 0.090710
O O7 0.289777 0.670937 0.114920
O O8 0.157029 0.431264 0.090114
O O9 0.869913 0.132275 0.134520
O O10 0.824687 0.985992 0.887687
O O11 0.500000 0.500000 0.000000
O O12 0.504080 0.196542 0.941746
O O13 0.369386 0.162962 0.812165
O O14 0.164427 0.161429 0.830182
O O15 0.100469 0.934036 0.635715
O O16 0.000000 0.000000 0.500000
O O17 0.645569 0.118999 0.518008
#
# Coordination Sequence:
#
# PCOD8003885 Si02
#       8
#     2   2   2   2   2   2   2   2
#     4  10  21  36  57  90 119 157 194 237 297 352
#     4  10  22  38  57  86 122 155 192 244 299 337
#     4  10  20  37  62  86 111 158 202 245 278 354
#     4  11  21  33  55  87 125 157 187 240 295 355
#     4  11  21  38  60  92 126 149 186 251 301 353
#     4  10  22  41  61  84 113 157 207 241 282 349
#     4  11  19  36  59  89 123 152 192 238 294 363
#     4  11  20  38  64  87 112 156 202 238 294 347
#
# _framework density 23.289891999999998
#
# number of rings (size 3 to 8) (size 9 to 14) (size 15 to 20)
#    0.000    1.500    5.000    1.500    0.000    3.000 
#    0.000    3.125    0.000    0.000    0.000    0.000 
#    0.000    0.000    0.000    0.000    0.000    0.000 
#
# Total GULP energy -198215.116567 kJ/mol
# GULP energy per Si atom -12388.444785 kJ/mol
# Density = 2.323688 g / cm^3
# Si number density = 23.289892 Si / 1000 Ang^3
#
#
#
# Elastic Constant Matrix: (Units=GPa)
#
#
# Indices 1 2 3 4 5 6 
#
# 1 67.4314 37.0347 19.3717 -2.4252 32.2008 -16.1385
# 2 37.0347 79.6472 33.5202 1.2766 14.3591 -21.5826
# 3 19.3717 33.5202 81.1207 11.8689 17.4927 -10.5440
# 4 -2.4252 1.2766 11.8689 44.3527 -2.2165 13.1049
# 5 32.2008 14.3591 17.4927 -2.2165 30.2377 -3.1795
# 6 -16.1385 -21.5826 -10.5440 13.1049 -3.1795 35.7624
#
#
#
# Elastic Compliance Matrix: (Units=1/GPa)
#
#
# Indices 1 2 3 4 5 6 
#
# 1 0.041880 -0.011096 0.005795 -0.004533 -0.041767 0.011859
# 2 -0.011096 0.021178 -0.006323 -0.001263 0.006052 0.006910
# 3 0.005795 -0.006323 0.018155 -0.006626 -0.013593 0.005371
# 4 -0.004533 -0.001263 -0.006626 0.028875 0.009856 -0.014466
# 5 -0.041767 0.006052 -0.013593 0.009856 0.081626 -0.015558
# 6 0.011859 0.006910 0.005371 -0.014466 -0.015558 0.042986
#
#
# Mechanical properties :
#
#
# Convention : Reuss Voigt Hill
#
# Bulk Modulus (GPa) = 17.25200 45.33915 31.29557
# Shear Modulus (GPa) = 18.03301 31.28874 24.66088
#
# Velocity S-wave (km/s) = 2.78562 3.66928 3.25755
# Velocity P-wave (km/s) = 4.21542 6.12055 5.25504
#
# Compressibility (1/GPa) = 0.05796431
#
# Stress axis : x y z
#
# Youngs Moduli (GPa) = 23.87781 47.21911 55.08171
#
# Poissons Ratio (x) = 0.52397 -0.31922
# Poissons Ratio (y) = 0.26496 0.34829
# Poissons Ratio (z) = -0.13838 0.29857
#
# Static dielectric constant tensor:
#      x y z
#    x 4.353680 -0.288960 0.153450 
#    y -0.288960 4.099350 0.089930 
#    z 0.153450 0.089930 5.117800 
# 
# 
# High freq. dielectric constant tensor:
#      x y z
#    x 1.901110 -0.019490 0.018730 
#    y -0.019490 1.906820 0.000490 
#    z 0.018730 0.000490 1.934320 
# 
# From -- ./inp_files/206997.got.cif
#   From: 2010.06.25/outbox.cif.g09.slc.cpg/sg2_104_cif.got.tgz:206997.got - 2010.06.27 13:26:56.
