data_PCOD8003371
_publ_section_title
;
Structure prediction by ZEFSAII (Michael W. Deem and Ramdas Pophale) SiO2 
 PCOD8003371
Probable space group: P -1
;
_chemical_formula_sum "Si O2"
_cell_formula_units_Z 16
_cell_length_a 9.105786
_cell_length_b 14.484011
_cell_length_c 17.390985
_cell_angle_alpha 21.563412
_cell_angle_beta 73.167531
_cell_angle_gamma 72.753396
_cell_volume 804.464188
_symmetry_space_group_name_H-M "P -1"
_symmetry_group_IT_number 2
_symmetry_cell_setting 'triclinic'
loop_
_space_group_symop_operation_xyz
x,y,z
-x,-y,-z
loop_
_atom_site_type_symbol
_atom_site_label
_atom_site_fract_x
_atom_site_fract_y
_atom_site_fract_z
Si Si1 0.074202 0.119162 0.494561
Si Si2 0.844007 0.146791 0.886952
Si Si3 0.334197 0.301149 0.726447
Si Si4 0.221019 0.348069 0.435827
Si Si5 0.203449 0.061494 0.221379
Si Si6 0.917661 0.399298 0.164637
Si Si7 0.497094 0.277599 0.557946
Si Si8 0.910623 0.287818 0.604622
O O1 0.198443 0.227388 0.449042
O O2 0.032720 0.332835 0.270589
O O3 0.156310 0.863279 0.641955
O O4 0.918631 0.042429 0.619266
O O5 0.790687 0.347064 0.806332
O O6 0.878415 0.317488 0.676415
O O7 0.709809 0.965914 0.026883
O O8 0.000000 0.000000 0.000000
O O9 0.417329 0.237262 0.682757
O O10 0.438267 0.443669 0.660883
O O11 0.173509 0.469231 0.611533
O O12 0.384555 0.260353 0.516079
O O13 0.090316 0.260165 0.580581
O O14 0.372704 0.944287 0.308468
O O15 0.162068 0.964463 0.218292
O O16 0.204950 0.365994 0.978210
O O17 0.000000 0.500000 0.000000
#
# Coordination Sequence:
#
# PCOD8003371 Si02
#       8
#     2   2   2   2   2   2   2   2
#     4   9  20  38  64  86 110 138 186 242 287 335
#     4  12  22  32  57  82 111 158 203 236 276 323
#     4  10  21  39  52  75 116 167 201 229 270 328
#     4  11  21  37  56  86 120 152 190 244 285 324
#     4   9  20  35  60  84 110 151 189 226 280 346
#     4   9  18  39  65  88 105 137 185 238 289 345
#     4  10  21  39  53  78 127 156 188 236 282 329
#     4  10  20  37  55  80 116 153 198 243 268 317
#
# _framework density 19.889014
#
# number of rings (size 3 to 8) (size 9 to 14) (size 15 to 20)
#    0.000    2.000    2.500    1.125    1.750    0.500 
#    4.500    0.625    0.000    6.750    0.000    0.000 
#    0.000    0.000    0.000    0.000    0.000    0.000 
#
# Total GULP energy -198276.554246 kJ/mol
# GULP energy per Si atom -12392.284640 kJ/mol
# Density = 1.984375 g / cm^3
# Si number density = 19.889014 Si / 1000 Ang^3
#
#
#
# Elastic Constant Matrix: (Units=GPa)
#
#
# Indices 1 2 3 4 5 6 
#
# 1 124.4046 42.3157 46.9184 -17.3261 12.6844 23.2123
# 2 42.3157 86.8329 41.1915 -23.0680 12.1802 29.2137
# 3 46.9184 41.1915 110.2480 -23.4762 9.4176 12.0289
# 4 -17.3261 -23.0680 -23.4762 41.4457 -4.7830 3.8290
# 5 12.6844 12.1802 9.4176 -4.7830 26.8876 -3.4076
# 6 23.2123 29.2137 12.0289 3.8290 -3.4076 34.2161
#
#
#
# Elastic Compliance Matrix: (Units=1/GPa)
#
#
# Indices 1 2 3 4 5 6 
#
# 1 0.011525 -0.000233 -0.002935 0.003170 -0.004679 -0.007409
# 2 -0.000233 0.026471 -0.003300 0.013671 -0.011327 -0.023940
# 3 -0.002935 -0.003300 0.012464 0.003912 -0.000802 -0.000091
# 4 0.003170 0.013671 0.003912 0.036522 -0.005070 -0.019790
# 5 -0.004679 -0.011327 -0.000802 -0.005070 0.046228 0.018298
# 6 -0.007409 -0.023940 -0.000091 -0.019790 0.018298 0.058761
#
#
# Mechanical properties :
#
#
# Convention : Reuss Voigt Hill
#
# Bulk Modulus (GPa) = 26.64985 64.70407 45.67696
# Shear Modulus (GPa) = 22.99756 33.24721 28.12239
#
# Velocity S-wave (km/s) = 3.40412 4.09300 3.76435
# Velocity P-wave (km/s) = 5.37393 7.41216 6.47376
#
# Compressibility (1/GPa) = 0.03752366
#
# Stress axis : x y z
#
# Youngs Moduli (GPa) = 86.76503 37.77789 80.23242
#
# Poissons Ratio (x) = 0.00882 0.23544
# Poissons Ratio (y) = 0.02026 0.26477
# Poissons Ratio (z) = 0.25461 0.12467
#
# Static dielectric constant tensor:
#      x y z
#    x 3.440540 0.046700 -0.084050 
#    y 0.046700 3.778600 -0.350740 
#    z -0.084050 -0.350740 3.819190 
# 
# 
# High freq. dielectric constant tensor:
#      x y z
#    x 1.758000 0.011390 0.003250 
#    y 0.011390 1.769390 -0.017460 
#    z 0.003250 -0.017460 1.776320 
# 
# From -- ./inp_files/110566.got.cif
#   From: 2010.06.25/outbox.cif.g09.slc.cpg/sg2_56_cif.got.tgz:110566.got - 2010.06.27 13:26:56.
