data_PCOD8003614
_publ_section_title
;
Structure prediction by ZEFSAII (Michael W. Deem and Ramdas Pophale) SiO2 
 PCOD8003614
Probable space group: P -1
;
_chemical_formula_sum "Si O2"
_cell_formula_units_Z 16
_cell_length_a 12.545537
_cell_length_b 10.902717
_cell_length_c 15.722898
_cell_angle_alpha 124.146688
_cell_angle_beta 154.197977
_cell_angle_gamma 51.586222
_cell_volume 733.440279
_symmetry_space_group_name_H-M "P -1"
_symmetry_group_IT_number 2
_symmetry_cell_setting 'triclinic'
loop_
_space_group_symop_operation_xyz
x,y,z
-x,-y,-z
loop_
_atom_site_type_symbol
_atom_site_label
_atom_site_fract_x
_atom_site_fract_y
_atom_site_fract_z
Si Si1 0.017466 0.255419 0.062153
Si Si2 0.797509 0.659772 0.200788
Si Si3 0.820391 0.747720 0.431482
Si Si4 0.805782 0.463512 0.706722
Si Si5 0.739458 0.179965 0.132817
Si Si6 0.486038 0.043427 0.408189
Si Si7 0.074153 0.834732 0.218785
Si Si8 0.396866 0.624460 0.052836
O O1 0.149299 0.378728 0.167970
O O2 0.193642 0.129465 0.205031
O O3 0.758826 0.348680 0.960725
O O4 0.953748 0.164599 0.901953
O O5 0.868618 0.755800 0.367290
O O6 0.654290 0.532804 0.083560
O O7 0.059590 0.581576 0.306907
O O8 0.551076 0.776432 0.017647
O O9 0.092597 0.722263 0.663852
O O10 0.606602 0.898919 0.375935
O O11 0.689965 0.609008 0.290665
O O12 0.500000 0.500000 0.500000
O O13 0.955882 0.319605 0.819617
O O14 0.712017 0.226796 0.031271
O O15 0.869856 0.994936 0.169018
O O16 0.638958 0.166892 0.552718
O O17 0.500000 0.000000 0.500000
#
# Coordination Sequence:
#
# PCOD8003614 Si02
#       8
#     2   2   2   2   2   2   2   2
#     4  11  21  39  64  91 125 167 208 256 314 369
#     4  10  23  41  62  89 124 166 209 255 312 367
#     4  10  20  37  59  93 126 163 201 244 314 370
#     4  11  24  47  64  86 125 164 218 272 305 364
#     4  10  21  39  62  93 127 157 202 253 309 382
#     4  11  22  37  63  97 133 164 202 254 312 378
#     4  11  23  40  64  90 124 166 212 259 312 367
#     4  10  21  36  60  94 130 160 198 254 308 377
#
# _framework density 21.815000999999999
#
# number of rings (size 3 to 8) (size 9 to 14) (size 15 to 20)
#    0.000    1.500    1.250    5.625    0.000    4.000 
#    6.750    2.500    0.000    0.000    0.000    0.000 
#    0.000    0.000    0.000    0.000    0.000    0.000 
#
# Total GULP energy -198239.459577 kJ/mol
# GULP energy per Si atom -12389.966224 kJ/mol
# Density = 2.176535 g / cm^3
# Si number density = 21.815001 Si / 1000 Ang^3
#
#
#
# Elastic Constant Matrix: (Units=GPa)
#
#
# Indices 1 2 3 4 5 6 
#
# 1 81.9736 28.1891 41.4394 5.1478 -1.4964 -14.5402
# 2 28.1891 82.5949 18.5502 -1.2015 -9.0337 -5.0282
# 3 41.4394 18.5502 114.6224 5.4455 -3.5888 -17.6952
# 4 5.1478 -1.2015 5.4455 30.2559 -6.4051 -5.0480
# 5 -1.4964 -9.0337 -3.5888 -6.4051 36.1039 -1.0128
# 6 -14.5402 -5.0282 -17.6952 -5.0480 -1.0128 37.7807
#
#
#
# Elastic Compliance Matrix: (Units=1/GPa)
#
#
# Indices 1 2 3 4 5 6 
#
# 1 0.016912 -0.004648 -0.004790 -0.001888 -0.001179 0.003363
# 2 -0.004648 0.014282 -0.000585 0.002295 0.003737 0.000245
# 3 -0.004790 -0.000585 0.011097 -0.000506 0.000759 0.003229
# 4 -0.001888 0.002295 -0.000506 0.035735 0.006906 0.004301
# 5 -0.001179 0.003737 0.000759 0.006906 0.029944 0.002125
# 6 0.003363 0.000245 0.003229 0.004301 0.002125 0.029939
#
#
# Mechanical properties :
#
#
# Convention : Reuss Voigt Hill
#
# Bulk Modulus (GPa) = 44.95440 50.61648 47.78544
# Shear Modulus (GPa) = 30.23500 33.56227 31.89863
#
# Velocity S-wave (km/s) = 3.72690 3.92662 3.82807
# Velocity P-wave (km/s) = 6.25872 6.61897 6.44137
#
# Compressibility (1/GPa) = 0.02224476
#
# Stress axis : x y z
#
# Youngs Moduli (GPa) = 59.12788 70.01794 90.11389
#
# Poissons Ratio (x) = 0.32544 0.43166
# Poissons Ratio (y) = 0.27482 0.05274
# Poissons Ratio (z) = 0.28323 0.04098
#
# Static dielectric constant tensor:
#      x y z
#    x 3.772160 -0.200490 0.108820 
#    y -0.200490 3.962620 0.168780 
#    z 0.108820 0.168780 4.110500 
# 
# 
# High freq. dielectric constant tensor:
#      x y z
#    x 1.846280 -0.022530 0.004210 
#    y -0.022530 1.857960 0.008160 
#    z 0.004210 0.008160 1.867490 
# 
# From -- ./inp_files/573630.got.cif
#   From: 2010.06.25/outbox.cif.g09.slc.cpg/sg2_287_cif.got.tgz:573630.got - 2010.06.27 13:26:56.
