data_PCOD8003131
_publ_section_title
;
Structure prediction by ZEFSAII (Michael W. Deem and Ramdas Pophale) SiO2 
 PCOD8003131
Probable space group: P -1
;
_chemical_formula_sum "Si O2"
_cell_formula_units_Z 12
_cell_length_a 15.499502
_cell_length_b 9.418964
_cell_length_c 14.743334
_cell_angle_alpha 141.449027
_cell_angle_beta 140.210556
_cell_angle_gamma 69.102853
_cell_volume 678.648787
_symmetry_space_group_name_H-M "P -1"
_symmetry_group_IT_number 2
_symmetry_cell_setting 'triclinic'
loop_
_space_group_symop_operation_xyz
x,y,z
-x,-y,-z
loop_
_atom_site_type_symbol
_atom_site_label
_atom_site_fract_x
_atom_site_fract_y
_atom_site_fract_z
Si Si1 0.035872 0.056529 0.698746
Si Si2 0.523560 0.042079 0.647187
Si Si3 0.906558 0.553809 0.221546
Si Si4 0.259633 0.477819 0.227749
Si Si5 0.810702 0.105887 0.664218
Si Si6 0.968305 0.758675 0.919076
O O1 0.867900 0.005488 0.577441
O O2 0.110827 0.276660 0.785759
O O3 0.986965 0.751759 0.475131
O O4 0.184734 0.193420 0.964030
O O5 0.500000 0.000000 0.500000
O O6 0.456164 0.738930 0.492750
O O7 0.397736 0.118208 0.614338
O O8 0.715974 0.272206 0.949289
O O9 0.027862 0.470259 0.249832
O O10 0.140270 0.574141 0.150462
O O11 0.217573 0.398053 0.260701
O O12 0.882885 0.090140 0.810035
O O13 0.000000 0.000000 0.000000
#
# Coordination Sequence:
#
# PCOD8003131 Si02
#       6
#     2   2   2   2   2   2
#     4  10  17  28  52  73 103 117 163 212 237 276
#     4  10  16  28  54  72 100 120 169 202 234 288
#     4  11  18  29  48  84  94 121 164 209 239 280
#     4   9  17  34  50  70  99 131 162 195 239 287
#     4   9  17  33  50  69  98 128 162 196 244 283
#     4  11  19  32  51  73  99 132 166 195 236 298
#
# _framework density 17.682193999999999
#
# number of rings (size 3 to 8) (size 9 to 14) (size 15 to 20)
#    1.000    1.000    6.667    1.000    0.000    0.667 
#    0.000    4.167    0.000    0.000    0.000   15.167 
#    0.000    0.000    0.000    0.000    0.000    0.000 
#
# Total GULP energy -148659.574068 kJ/mol
# GULP energy per Si atom -12388.297839 kJ/mol
# Density = 1.764195 g / cm^3
# Si number density = 17.682194 Si / 1000 Ang^3
#
#
#
# Elastic Constant Matrix: (Units=GPa)
#
#
# Indices 1 2 3 4 5 6 
#
# 1 105.5979 14.8916 62.4206 15.2365 -7.7407 17.1763
# 2 14.8916 57.4513 20.7238 11.3826 -4.0065 19.9544
# 3 62.4206 20.7238 110.7150 20.1672 -8.5096 6.1130
# 4 15.2365 11.3826 20.1672 14.9850 0.1755 4.5489
# 5 -7.7407 -4.0065 -8.5096 0.1755 33.7675 9.7293
# 6 17.1763 19.9544 6.1130 4.5489 9.7293 22.2842
#
#
#
# Elastic Compliance Matrix: (Units=1/GPa)
#
#
# Indices 1 2 3 4 5 6 
#
# 1 0.018862 0.007907 -0.008996 -0.006540 0.009336 -0.021891
# 2 0.007907 0.035570 -0.004527 -0.016856 0.016659 -0.040537
# 3 -0.008996 -0.004527 0.016660 -0.012699 -0.001065 0.009475
# 4 -0.006540 -0.016856 -0.012699 0.101267 -0.009237 0.006980
# 5 0.009336 0.016659 -0.001065 -0.009237 0.044904 -0.039541
# 6 -0.021891 -0.040537 0.009475 0.006980 -0.039541 0.111287
#
#
# Mechanical properties :
#
#
# Convention : Reuss Voigt Hill
#
# Bulk Modulus (GPa) = 16.70600 52.20400 34.45500
# Shear Modulus (GPa) = 13.89910 25.92257 19.91084
#
# Velocity S-wave (km/s) = 2.80670 3.83303 3.35929
# Velocity P-wave (km/s) = 4.46899 7.01263 5.88000
#
# Compressibility (1/GPa) = 0.05985873
#
# Stress axis : x y z
#
# Youngs Moduli (GPa) = 53.01745 28.11320 60.02457
#
# Poissons Ratio (x) = -0.22228 0.54001
# Poissons Ratio (y) = -0.41919 0.27172
# Poissons Ratio (z) = 0.47697 0.12726
#
# Static dielectric constant tensor:
#      x y z
#    x 3.635820 0.156980 0.054270 
#    y 0.156980 2.822520 0.187350 
#    z 0.054270 0.187350 3.153030 
# 
# 
# High freq. dielectric constant tensor:
#      x y z
#    x 1.702040 0.018570 0.006350 
#    y 0.018570 1.635950 0.013800 
#    z 0.006350 0.013800 1.659690 
# 
# From -- ./inp_files/168073.got.cif
#   From: 2010.06.25/outbox.cif.g09.slc.cpg/sg2_85_cif.got.tgz:168073.got - 2010.06.27 13:26:56.
