data_PCOD8003799
_publ_section_title
;
Structure prediction by ZEFSAII (Michael W. Deem and Ramdas Pophale) SiO2 
 PCOD8003799
Probable space group: P -1
;
_chemical_formula_sum "Si O2"
_cell_formula_units_Z 16
_cell_length_a 6.885968
_cell_length_b 18.904636
_cell_length_c 9.209392
_cell_angle_alpha 69.345743
_cell_angle_beta 127.777228
_cell_angle_gamma 130.428086
_cell_volume 719.329609
_symmetry_space_group_name_H-M "P -1"
_symmetry_group_IT_number 2
_symmetry_cell_setting 'triclinic'
loop_
_space_group_symop_operation_xyz
x,y,z
-x,-y,-z
loop_
_atom_site_type_symbol
_atom_site_label
_atom_site_fract_x
_atom_site_fract_y
_atom_site_fract_z
Si Si1 0.344528 0.551872 0.884292
Si Si2 0.119609 0.290776 0.662785
Si Si3 0.875294 0.121492 0.483607
Si Si4 0.185248 0.016136 0.220586
Si Si5 0.233620 0.633999 0.523970
Si Si6 0.187828 0.167282 0.294807
Si Si7 0.772978 0.377248 0.804593
Si Si8 0.041926 0.266496 0.955410
O O1 0.233626 0.554866 0.668499
O O2 0.037451 0.486315 0.886991
O O3 0.500000 0.500000 0.000000
O O4 0.595841 0.657678 0.968677
O O5 0.481093 0.340486 0.795400
O O6 0.937792 0.229218 0.769964
O O7 0.967248 0.221889 0.506000
O O8 0.076585 0.374424 0.582096
O O9 0.531845 0.057000 0.315665
O O10 0.077698 0.134765 0.430888
O O11 0.954972 0.078867 0.683693
O O12 0.183745 0.087137 0.272671
O O13 0.000000 0.000000 0.000000
O O14 0.482906 0.737235 0.623592
O O15 0.305896 0.626720 0.397531
O O16 0.971376 0.185165 0.090538
O O17 0.888630 0.311899 0.926704
#
# Coordination Sequence:
#
# PCOD8003799 Si02
#       8
#     2   2   2   2   2   2   2   2
#     4   9  19  38  57  87 127 164 205 263 311 360
#     4  11  21  39  61  90 123 161 211 256 312 372
#     4  11  24  42  66  95 127 166 208 255 316 381
#     4  11  25  44  65  96 131 161 202 265 315 373
#     4  10  20  37  61  88 122 162 206 255 306 366
#     4  11  21  42  64  90 123 165 208 250 312 378
#     4  10  20  37  61  88 119 169 208 255 315 370
#     4   9  22  37  60  90 125 163 209 262 309 364
#
# _framework density 22.242932
#
# number of rings (size 3 to 8) (size 9 to 14) (size 15 to 20)
#    0.000    1.750    2.500    1.500    0.000    3.500 
#    0.000    0.000    0.000    0.000    0.000    0.000 
#    0.000    0.000    0.000    0.000    0.000    0.000 
#
# Total GULP energy -198241.125665 kJ/mol
# GULP energy per Si atom -12390.070354 kJ/mol
# Density = 2.219231 g / cm^3
# Si number density = 22.242932 Si / 1000 Ang^3
#
#
#
# Elastic Constant Matrix: (Units=GPa)
#
#
# Indices 1 2 3 4 5 6 
#
# 1 109.2814 16.2686 36.6246 -16.6364 0.8157 6.2744
# 2 16.2686 46.6940 12.9412 -15.6445 1.7966 7.1235
# 3 36.6246 12.9412 109.9013 -21.7599 6.1549 -1.6570
# 4 -16.6364 -15.6445 -21.7599 34.4887 -2.4407 4.6366
# 5 0.8157 1.7966 6.1549 -2.4407 31.0308 4.2339
# 6 6.2744 7.1235 -1.6570 4.6366 4.2339 25.3620
#
#
#
# Elastic Compliance Matrix: (Units=1/GPa)
#
#
# Indices 1 2 3 4 5 6 
#
# 1 0.011048 -0.001452 -0.002964 0.003323 0.001094 -0.003309
# 2 -0.001452 0.027935 -0.000408 0.013131 0.000908 -0.010066
# 3 -0.002964 -0.000408 0.011293 0.005253 -0.001853 0.000935
# 4 0.003323 0.013131 0.005253 0.041742 0.003073 -0.012311
# 5 0.001094 0.000908 -0.001853 0.003073 0.033686 -0.006832
# 6 -0.003309 -0.010066 0.000935 -0.012311 -0.006832 0.046528
#
#
# Mechanical properties :
#
#
# Convention : Reuss Voigt Hill
#
# Bulk Modulus (GPa) = 24.61355 44.17170 34.39262
# Shear Modulus (GPa) = 25.58567 31.51245 28.54906
#
# Velocity S-wave (km/s) = 3.39526 3.76804 3.58650
# Velocity P-wave (km/s) = 5.14395 6.23159 5.71371
#
# Compressibility (1/GPa) = 0.04062804
#
# Stress axis : x y z
#
# Youngs Moduli (GPa) = 90.51531 35.79702 88.55127
#
# Poissons Ratio (x) = 0.05196 0.26247
# Poissons Ratio (y) = 0.13139 0.03616
# Poissons Ratio (z) = 0.26829 0.01462
#
# Static dielectric constant tensor:
#      x y z
#    x 3.798550 0.189040 0.170120 
#    y 0.189040 4.223170 0.012470 
#    z 0.170120 0.012470 4.377290 
# 
# 
# High freq. dielectric constant tensor:
#      x y z
#    x 1.863330 -0.001530 0.004400 
#    y -0.001530 1.870940 0.000740 
#    z 0.004400 0.000740 1.887690 
# 
# From -- ./inp_files/47563.got.cif
#   From: 2010.06.25/outbox.cif.g09.slc.cpg/sg2_24_cif.got.tgz:47563.got - 2010.06.27 13:26:56.
