data_PCOD8003142
_publ_section_title
;
Structure prediction by ZEFSAII (Michael W. Deem and Ramdas Pophale) SiO2 
 PCOD8003142
Probable space group: P -1
;
_chemical_formula_sum "Si O2"
_cell_formula_units_Z 16
_cell_length_a 9.129074
_cell_length_b 11.986679
_cell_length_c 13.268293
_cell_angle_alpha 106.406404
_cell_angle_beta 89.250817
_cell_angle_gamma 39.366772
_cell_volume 817.022764
_symmetry_space_group_name_H-M "P -1"
_symmetry_group_IT_number 2
_symmetry_cell_setting 'triclinic'
loop_
_space_group_symop_operation_xyz
x,y,z
-x,-y,-z
loop_
_atom_site_type_symbol
_atom_site_label
_atom_site_fract_x
_atom_site_fract_y
_atom_site_fract_z
Si Si1 0.541010 0.147899 0.760378
Si Si2 0.677582 0.308932 0.150940
Si Si3 0.169048 0.536298 0.757400
Si Si4 0.506843 0.323787 0.516259
Si Si5 0.716898 0.428992 0.613473
Si Si6 0.652758 0.948358 0.893745
Si Si7 0.194693 0.904550 0.089520
Si Si8 0.712571 0.960425 0.502542
O O1 0.274670 0.360629 0.776060
O O2 0.496652 0.072505 0.822984
O O3 0.687845 0.162042 0.816280
O O4 0.716075 0.995111 0.628423
O O5 0.741061 0.403104 0.177493
O O6 0.417562 0.455964 0.249649
O O7 0.663340 0.284294 0.026097
O O8 0.892755 0.087775 0.143435
O O9 0.261503 0.471698 0.625526
O O10 0.870935 0.716677 0.806189
O O11 0.680144 0.318916 0.550972
O O12 0.410143 0.404293 0.424627
O O13 0.661066 0.104516 0.467681
O O14 0.011571 0.265972 0.582866
O O15 0.765472 0.997782 0.943175
O O16 0.500000 0.000000 0.000000
O O17 0.500000 0.000000 0.500000
#
# Coordination Sequence:
#
# PCOD8003142 Si02
#       8
#     2   2   2   2   2   2   2   2
#     4   9  20  36  56  76 105 155 181 218 282 335
#     4   9  17  35  56  85 113 133 183 238 273 327
#     4   9  17  33  56  79 107 143 179 224 281 334
#     4   9  20  37  61  87 108 151 193 235 287 338
#     4  10  20  36  63  86 113 148 191 237 287 337
#     4   9  18  34  52  76 104 145 186 224 265 327
#     4   8  18  35  55  80 110 143 177 228 283 324
#     4  11  23  40  55  85 122 150 190 236 282 341
#
# _framework density 19.583299
#
# number of rings (size 3 to 8) (size 9 to 14) (size 15 to 20)
#    0.750    2.000    0.000    1.125    3.500    1.500 
#    6.750    0.000    0.000    0.000    0.000    0.000 
#    0.000    0.000    0.000    0.000    0.000    0.000 
#
# Total GULP energy -198236.452181 kJ/mol
# GULP energy per Si atom -12389.778261 kJ/mol
# Density = 1.953873 g / cm^3
# Si number density = 19.583299 Si / 1000 Ang^3
#
#
#
# Elastic Constant Matrix: (Units=GPa)
#
#
# Indices 1 2 3 4 5 6 
#
# 1 48.1654 32.0984 27.8884 1.4285 -13.3235 -7.0518
# 2 32.0984 104.0183 43.6197 2.1295 -19.2519 8.2474
# 3 27.8884 43.6197 116.2921 7.0414 -9.2504 -6.8663
# 4 1.4285 2.1295 7.0414 28.8508 -4.7431 -5.1532
# 5 -13.3235 -19.2519 -9.2504 -4.7431 34.3580 -1.2847
# 6 -7.0518 8.2474 -6.8663 -5.1532 -1.2847 25.0187
#
#
#
# Elastic Compliance Matrix: (Units=1/GPa)
#
#
# Indices 1 2 3 4 5 6 
#
# 1 0.031863 -0.007870 -0.003571 0.003253 0.007870 0.011670
# 2 -0.007870 0.015069 -0.003897 -0.000581 0.003957 -0.008172
# 3 -0.003571 -0.003897 0.011145 -0.001852 -0.000715 0.002919
# 4 0.003253 -0.000581 -0.001852 0.037513 0.005939 0.008632
# 5 0.007870 0.003957 -0.000715 0.005939 0.035142 0.003746
# 6 0.011670 -0.008172 0.002919 0.008632 0.003746 0.048724
#
#
# Mechanical properties :
#
#
# Convention : Reuss Voigt Hill
#
# Bulk Modulus (GPa) = 36.49681 52.85432 44.67556
# Shear Modulus (GPa) = 22.80325 28.63678 25.72002
#
# Velocity S-wave (km/s) = 3.41607 3.82816 3.62797
# Velocity P-wave (km/s) = 5.85120 6.82553 6.35706
#
# Compressibility (1/GPa) = 0.02739966
#
# Stress axis : x y z
#
# Youngs Moduli (GPa) = 31.38388 66.36267 89.72713
#
# Poissons Ratio (x) = 0.52229 0.32043
# Poissons Ratio (y) = 0.24700 0.34969
# Poissons Ratio (z) = 0.11208 0.25864
#
# Static dielectric constant tensor:
#      x y z
#    x 3.242140 0.022660 0.020530 
#    y 0.022660 3.567770 0.128020 
#    z 0.020530 0.128020 3.588520 
# 
# 
# High freq. dielectric constant tensor:
#      x y z
#    x 1.724800 0.001960 -0.001060 
#    y 0.001960 1.761250 0.007800 
#    z -0.001060 0.007800 1.763380 
# 
# From -- ./inp_files/500566.got.cif
#   From: 2010.06.25/outbox.cif.g09.slc.cpg/sg2_251_cif.got.tgz:500566.got - 2010.06.27 13:26:56.
