data_PCOD8003617
_publ_section_title
;
Structure prediction by ZEFSAII (Michael W. Deem and Ramdas Pophale) SiO2 
 PCOD8003617
Probable space group: P -1
;
_chemical_formula_sum "Si O2"
_cell_formula_units_Z 16
_cell_length_a 14.406257
_cell_length_b 11.591453
_cell_length_c 10.673360
_cell_angle_alpha 94.590225
_cell_angle_beta 129.877852
_cell_angle_gamma 124.905195
_cell_volume 789.799381
_symmetry_space_group_name_H-M "P -1"
_symmetry_group_IT_number 2
_symmetry_cell_setting 'triclinic'
loop_
_space_group_symop_operation_xyz
x,y,z
-x,-y,-z
loop_
_atom_site_type_symbol
_atom_site_label
_atom_site_fract_x
_atom_site_fract_y
_atom_site_fract_z
Si Si1 0.396320 0.824045 0.268094
Si Si2 0.108940 0.809517 0.047826
Si Si3 0.504782 0.819592 0.962777
Si Si4 0.842336 0.709255 0.002011
Si Si5 0.688748 0.839116 0.903698
Si Si6 0.651088 0.413538 0.616158
Si Si7 0.302291 0.868735 0.648919
Si Si8 0.168803 0.495392 0.839921
O O1 0.284566 0.850385 0.230342
O O2 0.447764 0.779195 0.424326
O O3 0.609645 0.024960 0.400819
O O4 0.238488 0.640014 0.018853
O O5 0.176082 0.947505 0.007317
O O6 0.063674 0.848310 0.139181
O O7 0.891702 0.577969 0.796522
O O8 0.618428 0.807183 0.982555
O O9 0.427911 0.854189 0.799725
O O10 0.313153 0.614100 0.853514
O O11 0.668963 0.004739 0.216403
O O12 0.833585 0.838805 0.028643
O O13 0.653042 0.518683 0.730431
O O14 0.826249 0.631361 0.114153
O O15 0.486550 0.658646 0.627319
O O16 0.061777 0.648507 0.413013
#
# Coordination Sequence:
#
# PCOD8003617 Si02
#       8
#     2   2   2   2   2   2   2   2
#     4  10  20  37  59  94 119 144 194 237 292 355
#     4  10  22  36  56  90 122 145 192 236 284 352
#     4  10  23  38  58  90 114 152 196 241 282 354
#     4   9  23  41  57  88 116 155 199 236 275 352
#     4  12  22  40  60  83 123 159 190 234 292 337
#     4   9  23  35  60  88 119 154 185 239 289 346
#     4  10  21  39  60  87 119 149 192 242 296 340
#     4  10  22  40  63  84 118 154 191 244 291 332
#
# _framework density 20.258308
#
# number of rings (size 3 to 8) (size 9 to 14) (size 15 to 20)
#    0.750    1.250    1.250    1.500    3.500    2.000 
#    0.000    0.625    0.000    0.000    0.000    0.000 
#    0.000    0.000    0.000    0.000    0.000    0.000 
#
# Total GULP energy -198407.459650 kJ/mol
# GULP energy per Si atom -12400.466228 kJ/mol
# Density = 2.021220 g / cm^3
# Si number density = 20.258308 Si / 1000 Ang^3
#
#
#
# Elastic Constant Matrix: (Units=GPa)
#
#
# Indices 1 2 3 4 5 6 
#
# 1 132.6502 40.3885 20.0967 -7.1425 14.1565 -4.0526
# 2 40.3885 84.2597 -4.6783 0.5706 9.5480 4.8470
# 3 20.0967 -4.6783 27.9980 6.3185 -1.5428 4.9662
# 4 -7.1425 0.5706 6.3185 23.5208 -0.0570 12.2723
# 5 14.1565 9.5480 -1.5428 -0.0570 20.3741 -2.5954
# 6 -4.0526 4.8470 4.9662 12.2723 -2.5954 24.7645
#
#
#
# Elastic Compliance Matrix: (Units=1/GPa)
#
#
# Indices 1 2 3 4 5 6 
#
# 1 0.012182 -0.005924 -0.011771 0.006014 -0.006324 0.001871
# 2 -0.005924 0.015847 0.008006 -0.001613 -0.003374 -0.005231
# 3 -0.011771 0.008006 0.050142 -0.014241 0.007457 -0.005710
# 4 0.006014 -0.001613 -0.014241 0.062647 -0.007856 -0.027713
# 5 -0.006324 -0.003374 0.007457 -0.007856 0.056614 0.007957
# 6 0.001871 -0.005231 -0.005710 -0.027713 0.007957 0.057423
#
#
# Mechanical properties :
#
#
# Convention : Reuss Voigt Hill
#
# Bulk Modulus (GPa) = 17.00942 39.61352 28.31147
# Shear Modulus (GPa) = 17.01668 26.33859 21.67764
#
# Velocity S-wave (km/s) = 2.90139 3.60965 3.27473
# Velocity P-wave (km/s) = 4.43155 6.08025 5.32015
#
# Compressibility (1/GPa) = 0.05879096
#
# Stress axis : x y z
#
# Youngs Moduli (GPa) = 82.09063 63.10532 19.94354
#
# Poissons Ratio (x) = 0.37386 0.23476
# Poissons Ratio (y) = 0.48633 -0.15967
# Poissons Ratio (z) = 0.96631 -0.50523
#
# Static dielectric constant tensor:
#      x y z
#    x 3.532070 0.102300 -0.062450 
#    y 0.102300 3.740010 0.091520 
#    z -0.062450 0.091520 3.389550 
# 
# 
# High freq. dielectric constant tensor:
#      x y z
#    x 1.780130 0.008170 -0.003740 
#    y 0.008170 1.798260 0.008090 
#    z -0.003740 0.008090 1.778480 
# 
# From -- ./inp_files/452422.got.cif
#   From: 2010.06.25/outbox.cif.g09.slc.cpg/sg2_227_cif.got.tgz:452422.got - 2010.06.27 13:26:56.
