data_PCOD8003477
_publ_section_title
;
Structure prediction by ZEFSAII (Michael W. Deem and Ramdas Pophale) SiO2 
 PCOD8003477
Probable space group: P -1
;
_chemical_formula_sum "Si O2"
_cell_formula_units_Z 16
_cell_length_a 8.170790
_cell_length_b 15.500606
_cell_length_c 20.241004
_cell_angle_alpha 21.656445
_cell_angle_beta 121.314499
_cell_angle_gamma 113.595717
_cell_volume 779.896327
_symmetry_space_group_name_H-M "P -1"
_symmetry_group_IT_number 2
_symmetry_cell_setting 'triclinic'
loop_
_space_group_symop_operation_xyz
x,y,z
-x,-y,-z
loop_
_atom_site_type_symbol
_atom_site_label
_atom_site_fract_x
_atom_site_fract_y
_atom_site_fract_z
Si Si1 0.771663 0.615478 0.600256
Si Si2 0.249555 0.085502 0.751251
Si Si3 0.184070 0.340074 0.944163
Si Si4 0.827845 0.176444 0.657983
Si Si5 0.541544 0.592275 0.373192
Si Si6 0.588070 0.423921 0.912846
Si Si7 0.661305 0.610698 0.923859
Si Si8 0.507529 0.159075 0.506519
O O1 0.780655 0.756682 0.433978
O O2 0.647480 0.410750 0.710878
O O3 0.657724 0.807765 0.493734
O O4 0.991786 0.491696 0.758291
O O5 0.418881 0.144332 0.793046
O O6 0.054830 0.148132 0.710092
O O7 0.303523 0.803631 0.946342
O O8 0.375433 0.399223 0.910096
O O9 0.167546 0.404084 0.974251
O O10 0.204815 0.054605 0.143861
O O11 0.744769 0.413558 0.515950
O O12 0.708468 0.208513 0.541492
O O13 0.500000 0.500000 0.500000
O O14 0.730431 0.455992 0.981429
O O15 0.568362 0.661538 0.696662
O O16 0.554443 0.885829 0.684679
O O17 0.500000 0.500000 0.000000
#
# Coordination Sequence:
#
# PCOD8003477 Si02
#       8
#     2   2   2   2   2   2   2   2
#     4  10  20  37  58  84 115 150 190 236 284 336
#     4  11  21  37  58  84 115 152 190 233 281 335
#     4  10  20  37  58  84 115 150 190 236 284 336
#     4  10  20  37  58  83 115 150 189 234 281 334
#     4   9  19  37  59  83 113 150 187 233 284 333
#     4  11  21  37  58  84 115 152 190 233 281 335
#     4   9  19  37  59  83 113 150 187 233 284 333
#     4  10  20  37  58  83 115 150 189 234 281 334
#
# _framework density 20.515549
#
# number of rings (size 3 to 8) (size 9 to 14) (size 15 to 20)
#    0.000    2.000    0.000    6.000    0.000    0.000 
#    0.000   25.000    0.000    0.000    0.000    0.000 
#    0.000    0.000    0.000    0.000    0.000    0.000 
#
# Total GULP energy -198302.317336 kJ/mol
# GULP energy per Si atom -12393.894833 kJ/mol
# Density = 2.046885 g / cm^3
# Si number density = 20.515549 Si / 1000 Ang^3
#
#
#
# Elastic Constant Matrix: (Units=GPa)
#
#
# Indices 1 2 3 4 5 6 
#
# 1 84.3607 32.3945 20.3056 -0.3266 2.5787 -7.4149
# 2 32.3945 91.0711 41.9886 -14.1808 3.6411 1.5782
# 3 20.3056 41.9886 83.3498 -5.6344 -7.9905 3.5635
# 4 -0.3266 -14.1808 -5.6344 38.5237 0.7237 8.2215
# 5 2.5787 3.6411 -7.9905 0.7237 32.9145 1.3710
# 6 -7.4149 1.5782 3.5635 8.2215 1.3710 20.8230
#
#
#
# Elastic Compliance Matrix: (Units=1/GPa)
#
#
# Indices 1 2 3 4 5 6 
#
# 1 0.014934 -0.005158 -0.001724 -0.003603 -0.001252 0.007509
# 2 -0.005158 0.017286 -0.007160 0.006222 -0.003210 -0.004167
# 3 -0.001724 -0.007160 0.016691 0.000427 0.005113 -0.003433
# 4 -0.003603 0.006222 0.000427 0.031310 -0.000401 -0.014164
# 5 -0.001252 -0.003210 0.005113 -0.000401 0.032211 -0.003040
# 6 0.007509 -0.004167 -0.003433 -0.014164 -0.003040 0.057393
#
#
# Mechanical properties :
#
#
# Convention : Reuss Voigt Hill
#
# Bulk Modulus (GPa) = 48.01988 49.79547 48.90768
# Shear Modulus (GPa) = 24.40774 29.39176 26.89975
#
# Velocity S-wave (km/s) = 3.45297 3.78915 3.62496
# Velocity P-wave (km/s) = 6.27334 6.59305 6.43518
#
# Compressibility (1/GPa) = 0.02082471
#
# Stress axis : x y z
#
# Youngs Moduli (GPa) = 66.96135 57.85084 59.91405
#
# Poissons Ratio (x) = 0.29841 0.10331
# Poissons Ratio (y) = 0.34541 0.42900
# Poissons Ratio (z) = 0.11546 0.41423
#
# Static dielectric constant tensor:
#      x y z
#    x 3.669270 0.129140 -0.134610 
#    y 0.129140 4.517400 -0.161680 
#    z -0.134610 -0.161680 3.480360 
# 
# 
# High freq. dielectric constant tensor:
#      x y z
#    x 1.800090 -0.002820 -0.010010 
#    y -0.002820 1.813360 -0.010960 
#    z -0.010010 -0.010960 1.788480 
# 
# From -- ./inp_files/217366.got.cif
#   From: 2010.06.25/outbox.cif.g09.slc.cpg/sg2_109_cif.got.tgz:217366.got - 2010.06.27 13:26:56.
