data_PCOD8003440
_publ_section_title
;
Structure prediction by ZEFSAII (Michael W. Deem and Ramdas Pophale) SiO2 
 PCOD8003440
Probable space group: P -1
;
_chemical_formula_sum "Si O2"
_cell_formula_units_Z 14
_cell_length_a 8.261476
_cell_length_b 9.029767
_cell_length_c 22.265522
_cell_angle_alpha 148.463007
_cell_angle_beta 127.272140
_cell_angle_gamma 71.368125
_cell_volume 609.302731
_symmetry_space_group_name_H-M "P -1"
_symmetry_group_IT_number 2
_symmetry_cell_setting 'triclinic'
loop_
_space_group_symop_operation_xyz
x,y,z
-x,-y,-z
loop_
_atom_site_type_symbol
_atom_site_label
_atom_site_fract_x
_atom_site_fract_y
_atom_site_fract_z
Si Si1 0.259700 0.721490 0.370963
Si Si2 0.651049 0.842115 0.354855
Si Si3 0.886449 0.405636 0.830918
Si Si4 0.605930 0.192571 0.150762
Si Si5 0.589869 0.854516 0.213174
Si Si6 0.807478 0.842525 0.139818
Si Si7 0.700671 0.913460 0.838822
O O1 0.082407 0.662721 0.256081
O O2 0.279565 0.403393 0.278924
O O3 0.500000 0.000000 0.500000
O O4 0.198634 0.849322 0.462501
O O5 0.374601 0.687462 0.245669
O O6 0.721832 0.570979 0.294742
O O7 0.716503 0.959236 0.341819
O O8 0.964300 0.205014 0.824718
O O9 0.044708 0.786071 0.006517
O O10 0.407198 0.084733 0.119621
O O11 0.815276 0.123232 0.195804
O O12 0.500000 0.000000 0.000000
O O13 0.783567 0.923038 0.231072
O O14 0.461202 0.063333 0.241280
O O15 0.411535 0.477484 0.043110
#
# Coordination Sequence:
#
# PCOD8003440 Si02
#       7
#     2   2   2   2   2   2   2
#     4  10  20  37  57  85 119 154 189 236 296 342
#     4  11  22  37  62  87 119 154 193 236 288 350
#     4  10  21  37  62  89 113 150 200 245 277 332
#     4  11  20  35  61  88 115 154 194 233 291 352
#     4   9  19  36  58  85 118 154 189 233 298 342
#     4   9  19  36  58  84 118 151 190 243 285 336
#     4  10  20  37  62  86 113 152 196 240 286 338
#
# _framework density 22.977083
#
# number of rings (size 3 to 8) (size 9 to 14) (size 15 to 20)
#    0.000    2.000    4.286    1.286    0.000    2.857 
#    0.000    1.429    0.000    0.000    0.000    0.000 
#    0.000    0.000    0.000    0.000    0.000    0.000 
#
# Total GULP energy -173538.761495 kJ/mol
# GULP energy per Si atom -12395.625821 kJ/mol
# Density = 2.292479 g / cm^3
# Si number density = 22.977083 Si / 1000 Ang^3
#
#
#
# Elastic Constant Matrix: (Units=GPa)
#
#
# Indices 1 2 3 4 5 6 
#
# 1 38.6957 37.6033 27.0518 5.5814 -25.4931 6.2461
# 2 37.6033 186.6482 53.4694 13.0403 -32.7940 -10.6294
# 3 27.0518 53.4694 83.2534 11.2652 -34.0491 -12.9101
# 4 5.5814 13.0403 11.2652 22.6185 -2.9942 -15.1731
# 5 -25.4931 -32.7940 -34.0491 -2.9942 43.4398 -5.7944
# 6 6.2461 -10.6294 -12.9101 -15.1731 -5.7944 36.7978
#
#
#
# Elastic Compliance Matrix: (Units=1/GPa)
#
#
# Indices 1 2 3 4 5 6 
#
# 1 0.052507 -0.005322 -0.006527 -0.014895 0.018524 -0.015965
# 2 -0.005322 0.007387 -0.002209 -0.000114 0.001031 0.002378
# 3 -0.006527 -0.002209 0.022853 0.000706 0.013926 0.010971
# 4 -0.014895 -0.000114 0.000706 0.068544 0.000599 0.031100
# 5 0.018524 0.001031 0.013926 0.000599 0.046917 0.009674
# 6 -0.015965 0.002378 0.010971 0.031100 0.009674 0.048768
#
#
# Mechanical properties :
#
#
# Convention : Reuss Voigt Hill
#
# Bulk Modulus (GPa) = 18.30524 60.53846 39.42185
# Shear Modulus (GPa) = 17.04717 33.26940 25.15829
#
# Velocity S-wave (km/s) = 2.72678 3.80931 3.31256
# Velocity P-wave (km/s) = 4.23058 6.76404 5.64137
#
# Compressibility (1/GPa) = 0.05462917
#
# Stress axis : x y z
#
# Youngs Moduli (GPa) = 19.04503 135.36601 43.75864
#
# Poissons Ratio (x) = 0.72048 0.28562
# Poissons Ratio (y) = 0.10137 0.09668
# Poissons Ratio (z) = 0.12431 0.29907
#
# Static dielectric constant tensor:
#      x y z
#    x 4.199610 0.324380 -0.798390 
#    y 0.324380 5.171610 -0.934130 
#    z -0.798390 -0.934130 5.243710 
# 
# 
# High freq. dielectric constant tensor:
#      x y z
#    x 1.893880 -0.001390 -0.022460 
#    y -0.001390 1.930170 -0.002050 
#    z -0.022460 -0.002050 1.881120 
# 
# From -- ./inp_files/177500.got.cif
#   From: 2010.06.25/outbox.cif.g09.slc.cpg/sg2_89_cif.got.tgz:177500.got - 2010.06.27 13:26:56.
