data_PCOD8003838
_publ_section_title
;
Structure prediction by ZEFSAII (Michael W. Deem and Ramdas Pophale) SiO2 
 PCOD8003838
Probable space group: P -1
;
_chemical_formula_sum "Si O2"
_cell_formula_units_Z 16
_cell_length_a 20.992398
_cell_length_b 17.866300
_cell_length_c 5.125109
_cell_angle_alpha 95.702814
_cell_angle_beta 69.125508
_cell_angle_gamma 152.680719
_cell_volume 710.722970
_symmetry_space_group_name_H-M "P -1"
_symmetry_group_IT_number 2
_symmetry_cell_setting 'triclinic'
loop_
_space_group_symop_operation_xyz
x,y,z
-x,-y,-z
loop_
_atom_site_type_symbol
_atom_site_label
_atom_site_fract_x
_atom_site_fract_y
_atom_site_fract_z
Si Si1 0.337148 0.297127 0.292211
Si Si2 0.474111 0.923436 0.264075
Si Si3 0.761284 0.642751 0.495030
Si Si4 0.196805 0.798950 0.306935
Si Si5 0.873776 0.043573 0.752182
Si Si6 0.550622 0.394812 0.223931
Si Si7 0.101797 0.555824 0.655158
Si Si8 0.240586 0.989255 0.589792
O O1 0.216473 0.244360 0.539580
O O2 0.405639 0.314869 0.440902
O O3 0.237833 0.145513 0.172357
O O4 0.500000 0.500000 0.000000
O O5 0.280963 0.694231 0.510674
O O6 0.500000 0.000000 0.500000
O O7 0.500000 0.000000 0.000000
O O8 0.625614 0.013745 0.055669
O O9 0.695738 0.542574 0.282649
O O10 0.939876 0.788043 0.360637
O O11 0.627262 0.483706 0.856589
O O12 0.168754 0.684311 0.392253
O O13 0.203430 0.863065 0.562305
O O14 0.025431 0.639114 0.328017
O O15 0.876308 0.084770 0.477652
O O16 0.797210 0.024960 0.064306
O O17 0.443710 0.209023 0.319822
O O18 0.000000 0.500000 0.000000
#
# Coordination Sequence:
#
# PCOD8003838 Si02
#       8
#     2   2   2   2   2   2   2   2
#     4   9  19  37  63  90 117 164 208 254 314 364
#     4  10  20  37  61  92 121 151 196 249 302 360
#     4  11  21  39  62  91 122 156 210 268 310 350
#     4  10  23  40  64  90 126 168 202 254 314 373
#     4  11  24  40  61  90 127 159 208 262 303 370
#     4  10  21  39  61  87 124 162 206 254 305 383
#     4  10  20  39  67  95 125 153 208 263 306 359
#     4  11  24  43  61  84 125 173 203 240 316 379
#
# _framework density 22.512288999999999
#
# number of rings (size 3 to 8) (size 9 to 14) (size 15 to 20)
#    0.000    1.750    1.250    3.750    1.750    3.000 
#    4.500    6.250    0.000    0.000    0.000    0.000 
#    0.000    0.000    0.000    0.000    0.000    0.000 
#
# Total GULP energy -198208.896030 kJ/mol
# GULP energy per Si atom -12388.056002 kJ/mol
# Density = 2.246105 g / cm^3
# Si number density = 22.512289 Si / 1000 Ang^3
#
#
#
# Elastic Constant Matrix: (Units=GPa)
#
#
# Indices 1 2 3 4 5 6 
#
# 1 33.5314 31.0769 0.2395 -4.4025 -5.6027 12.9861
# 2 31.0769 161.0732 32.4488 -1.4693 -23.4096 14.4705
# 3 0.2395 32.4488 78.4694 -5.5283 -8.3267 8.4733
# 4 -4.4025 -1.4693 -5.5283 41.9474 13.0758 -7.3331
# 5 -5.6027 -23.4096 -8.3267 13.0758 32.4006 2.9465
# 6 12.9861 14.4705 8.4733 -7.3331 2.9465 41.9718
#
#
#
# Elastic Compliance Matrix: (Units=1/GPa)
#
#
# Indices 1 2 3 4 5 6 
#
# 1 0.041893 -0.007513 0.004670 0.001744 0.003335 -0.011244
# 2 -0.007513 0.009232 -0.003263 -0.002899 0.005804 -0.001114
# 3 0.004670 -0.003263 0.014728 0.001098 0.002087 -0.003248
# 4 0.001744 -0.002899 0.001098 0.029551 -0.014017 0.006385
# 5 0.003335 0.005804 0.002087 -0.014017 0.042636 -0.008896
# 6 -0.011244 -0.001114 -0.003248 0.006385 -0.008896 0.030084
#
#
# Mechanical properties :
#
#
# Convention : Reuss Voigt Hill
#
# Bulk Modulus (GPa) = 18.64220 44.51160 31.57690
# Shear Modulus (GPa) = 25.22480 37.21788 31.22134
#
# Velocity S-wave (km/s) = 3.35100 4.07040 3.72809
# Velocity P-wave (km/s) = 4.82402 6.47348 5.70864
#
# Compressibility (1/GPa) = 0.05364175
#
# Stress axis : x y z
#
# Youngs Moduli (GPa) = 23.87039 108.31539 67.89592
#
# Poissons Ratio (x) = 0.81374 -0.31705
# Poissons Ratio (y) = 0.17933 0.22154
# Poissons Ratio (z) = -0.11147 0.35342
#
# Static dielectric constant tensor:
#      x y z
#    x 4.328230 0.300010 -0.233810 
#    y 0.300010 4.598950 -0.312540 
#    z -0.233810 -0.312540 4.210230 
# 
# 
# High freq. dielectric constant tensor:
#      x y z
#    x 1.861480 0.018680 -0.000050 
#    y 0.018680 1.905630 -0.004650 
#    z -0.000050 -0.004650 1.878880 
# 
# From -- ./inp_files/127600.got.cif
#   From: 2010.06.25/outbox.cif.g09.slc.cpg/sg2_64_cif.got.tgz:127600.got - 2010.06.27 13:26:56.
