data_PCOD8003458
_publ_section_title
;
Structure prediction by ZEFSAII (Michael W. Deem and Ramdas Pophale) SiO2 
 PCOD8003458
Probable space group: P -1
;
_chemical_formula_sum "Si O2"
_cell_formula_units_Z 14
_cell_length_a 17.002962
_cell_length_b 26.804780
_cell_length_c 4.958869
_cell_angle_alpha 85.037132
_cell_angle_beta 89.002921
_cell_angle_gamma 160.916927
_cell_volume 701.189029
_symmetry_space_group_name_H-M "P -1"
_symmetry_group_IT_number 2
_symmetry_cell_setting 'triclinic'
loop_
_space_group_symop_operation_xyz
x,y,z
-x,-y,-z
loop_
_atom_site_type_symbol
_atom_site_label
_atom_site_fract_x
_atom_site_fract_y
_atom_site_fract_z
Si Si1 0.113498 0.906431 0.184503
Si Si2 0.483613 0.720087 0.262626
Si Si3 0.574124 0.884326 0.418300
Si Si4 0.279071 0.382050 0.373986
Si Si5 0.973040 0.447905 0.280028
Si Si6 0.318393 0.315273 0.007774
Si Si7 0.277088 0.182135 0.305639
O O1 0.984049 0.776110 0.366020
O O2 0.889085 0.810013 0.163219
O O3 0.265786 0.024832 0.361885
O O4 0.291881 0.000613 0.873785
O O5 0.548918 0.815049 0.313955
O O6 0.667437 0.816638 0.963840
O O7 0.521888 0.706200 0.519299
O O8 0.196738 0.542263 0.245530
O O9 0.304922 0.745343 0.590686
O O10 0.500000 0.500000 0.500000
O O11 0.385107 0.498815 0.190555
O O12 0.237750 0.315413 0.179526
O O13 0.000000 0.500000 0.500000
O O14 0.000000 0.500000 0.000000
O O15 0.295807 0.251950 0.210681
O O16 0.000000 0.000000 0.500000
#
# Coordination Sequence:
#
# PCOD8003458 Si02
#       7
#     2   2   2   2   2   2   2
#     4  11  20  34  57  87 113 141 186 250 289 323
#     4  11  24  39  53  81 119 160 192 221 279 347
#     4  11  21  34  59  85 113 147 189 248 288 325
#     4   9  20  37  60  77 113 148 195 243 277 328
#     4  10  20  37  58  79 110 152 198 239 281 328
#     4  10  22  38  55  83 118 153 194 228 282 338
#     4  12  26  37  55  83 122 162 186 220 276 351
#
# _framework density 19.966083999999999
#
# number of rings (size 3 to 8) (size 9 to 14) (size 15 to 20)
#    0.000    1.429    1.429    5.571    6.000    0.000 
#    0.000    0.000    0.000    0.000    0.000    6.000 
#    0.000    0.000    0.000    0.000    0.000    0.000 
#
# Total GULP energy -173438.989438 kJ/mol
# GULP energy per Si atom -12388.499246 kJ/mol
# Density = 1.992064 g / cm^3
# Si number density = 19.966084 Si / 1000 Ang^3
#
#
#
# Elastic Constant Matrix: (Units=GPa)
#
#
# Indices 1 2 3 4 5 6 
#
# 1 59.1244 41.8558 32.3244 -9.6078 17.2549 6.2294
# 2 41.8558 117.6378 58.8173 -7.6283 11.5415 14.5233
# 3 32.3244 58.8173 147.6746 -12.6963 18.6747 3.5618
# 4 -9.6078 -7.6283 -12.6963 51.6952 -4.7077 7.9961
# 5 17.2549 11.5415 18.6747 -4.7077 32.8561 -0.1679
# 6 6.2294 14.5233 3.5618 7.9961 -0.1679 20.7803
#
#
#
# Elastic Compliance Matrix: (Units=1/GPa)
#
#
# Indices 1 2 3 4 5 6 
#
# 1 0.026621 -0.007073 -0.001326 0.003284 -0.010293 -0.004157
# 2 -0.007073 0.013772 -0.003823 0.001002 0.001156 -0.007226
# 3 -0.001326 -0.003823 0.009011 0.000960 -0.002939 0.001132
# 4 0.003284 0.001002 0.000960 0.021975 0.000474 -0.010301
# 5 -0.010293 0.001156 -0.002939 0.000474 0.037189 0.002900
# 6 -0.004157 -0.007226 0.001132 -0.010301 0.002900 0.058212
#
#
# Mechanical properties :
#
#
# Convention : Reuss Voigt Hill
#
# Bulk Modulus (GPa) = 40.06185 65.60352 52.83268
# Shear Modulus (GPa) = 25.05715 33.82894 29.44304
#
# Velocity S-wave (km/s) = 3.54642 4.12068 3.84429
# Velocity P-wave (km/s) = 6.07272 7.45445 6.79878
#
# Compressibility (1/GPa) = 0.02496140
#
# Stress axis : x y z
#
# Youngs Moduli (GPa) = 37.56440 72.60941 110.97010
#
# Poissons Ratio (x) = 0.51357 0.14711
# Poissons Ratio (y) = 0.26569 0.42423
# Poissons Ratio (z) = 0.04980 0.27758
#
# Static dielectric constant tensor:
#      x y z
#    x -3.000640 -5.683880 9.702160 
#    y -5.683880 -1.323310 8.090630 
#    z 9.702160 8.090630 -10.756040 
# 
# 
# High freq. dielectric constant tensor:
#      x y z
#    x 1.700750 0.014180 0.018260 
#    y 0.014180 1.795440 0.001340 
#    z 0.018260 0.001340 1.816290 
# 
# From -- ./inp_files/113134.got.cif
#   From: 2010.06.25/outbox.cif.g09.slc.cpg/sg2_57_cif.got.tgz:113134.got - 2010.06.27 13:26:56.
