data_PCOD8003502
_publ_section_title
;
Structure prediction by ZEFSAII (Michael W. Deem and Ramdas Pophale) SiO2 
 PCOD8003502
Probable space group: P -1
;
_chemical_formula_sum "Si O2"
_cell_formula_units_Z 14
_cell_length_a 11.849530
_cell_length_b 9.478568
_cell_length_c 11.152943
_cell_angle_alpha 61.108517
_cell_angle_beta 68.735259
_cell_angle_gamma 118.669336
_cell_volume 609.482784
_symmetry_space_group_name_H-M "P -1"
_symmetry_group_IT_number 2
_symmetry_cell_setting 'triclinic'
loop_
_space_group_symop_operation_xyz
x,y,z
-x,-y,-z
loop_
_atom_site_type_symbol
_atom_site_label
_atom_site_fract_x
_atom_site_fract_y
_atom_site_fract_z
Si Si1 0.267903 0.060154 0.582511
Si Si2 0.560207 0.548994 0.092948
Si Si3 0.522842 0.967922 0.310522
Si Si4 0.330849 0.085767 0.921605
Si Si5 0.120393 0.461800 0.737551
Si Si6 0.793606 0.780855 0.245184
Si Si7 0.155202 0.428388 0.010505
O O1 0.399301 0.067939 0.598993
O O2 0.385576 0.259753 0.344087
O O3 0.189397 0.123731 0.670502
O O4 0.044995 0.751961 0.755289
O O5 0.773088 0.681452 0.972647
O O6 0.500000 0.500000 0.000000
O O7 0.588896 0.764409 0.042786
O O8 0.658878 0.271773 0.133007
O O9 0.289217 0.778890 0.508697
O O10 0.536873 0.912032 0.192451
O O11 0.097669 0.769871 0.148555
O O12 0.364530 0.282518 0.745297
O O13 0.263769 0.468034 0.626562
O O14 0.081270 0.406314 0.916335
O O15 0.000000 0.000000 0.000000
#
# Coordination Sequence:
#
# PCOD8003502 Si02
#       7
#     2   2   2   2   2   2   2
#     4  11  21  37  63  89 129 155 192 251 313 356
#     4  12  27  43  60  84 120 171 216 240 282 360
#     4  11  22  33  63 101 121 149 187 252 327 364
#     4  10  20  37  58  87 120 151 200 249 305 357
#     4  11  18  32  59  91 128 147 183 247 312 361
#     4   9  14  30  55  88 114 146 182 243 304 349
#     4  12  22  38  59  95 128 152 194 251 308 365
#
# _framework density 22.970293999999999
#
# number of rings (size 3 to 8) (size 9 to 14) (size 15 to 20)
#    0.000    1.143    7.143    2.571    0.000    2.857 
#    0.000    0.714    0.000    1.714    0.000    0.000 
#    0.000    0.000    0.000    0.000    0.000    0.000 
#
# Total GULP energy -173464.537400 kJ/mol
# GULP energy per Si atom -12390.324100 kJ/mol
# Density = 2.291801 g / cm^3
# Si number density = 22.970294 Si / 1000 Ang^3
#
#
#
# Elastic Constant Matrix: (Units=GPa)
#
#
# Indices 1 2 3 4 5 6 
#
# 1 24.3371 7.7118 33.4629 6.6490 -13.0527 3.7131
# 2 7.7118 103.1484 44.2948 2.0701 5.8086 19.5516
# 3 33.4629 44.2948 134.3621 -15.3995 -30.2232 19.8629
# 4 6.6490 2.0701 -15.3995 39.2943 3.4443 -5.6589
# 5 -13.0527 5.8086 -30.2232 3.4443 24.4405 -3.9495
# 6 3.7131 19.5516 19.8629 -5.6589 -3.9495 22.0473
#
#
#
# Elastic Compliance Matrix: (Units=1/GPa)
#
#
# Indices 1 2 3 4 5 6 
#
# 1 0.088146 0.000402 -0.018837 -0.024659 0.027212 0.000315
# 2 0.000402 0.015670 -0.007161 -0.004094 -0.013564 -0.010993
# 3 -0.018837 -0.007161 0.018988 0.009437 0.013344 -0.002771
# 4 -0.024659 -0.004094 0.009437 0.034988 -0.004244 0.007501
# 5 0.027212 -0.013564 0.013344 -0.004244 0.077088 0.008144
# 6 0.000315 -0.010993 -0.002771 0.007501 0.008144 0.060933
#
#
# Mechanical properties :
#
#
# Convention : Reuss Voigt Hill
#
# Bulk Modulus (GPa) = 13.96446 48.08741 31.02593
# Shear Modulus (GPa) = 13.48165 28.91494 21.19829
#
# Velocity S-wave (km/s) = 2.42526 3.55180 3.04115
# Velocity P-wave (km/s) = 3.73297 6.14821 5.08604
#
# Compressibility (1/GPa) = 0.07161035
#
# Stress axis : x y z
#
# Youngs Moduli (GPa) = 11.34483 63.81795 52.66584
#
# Poissons Ratio (x) = -0.02564 0.99207
# Poissons Ratio (y) = -0.00456 0.37715
# Poissons Ratio (z) = 0.21370 0.45701
#
# Static dielectric constant tensor:
#      x y z
#    x 4.061190 -0.899290 -0.268830 
#    y -0.899290 5.006710 -0.526150 
#    z -0.268830 -0.526150 4.443330 
# 
# 
# High freq. dielectric constant tensor:
#      x y z
#    x 1.847630 -0.039570 -0.047730 
#    y -0.039570 1.915760 -0.027480 
#    z -0.047730 -0.027480 1.914120 
# 
# From -- ./inp_files/427553.got.cif
#   From: 2010.06.25/outbox.cif.g09.slc.cpg/sg2_214_cif.got.tgz:427553.got - 2010.06.27 13:26:56.
