data_PCOD8003854
_publ_section_title
;
Structure prediction by ZEFSAII (Michael W. Deem and Ramdas Pophale) SiO2 
 PCOD8003854
Probable space group: P -1
;
_chemical_formula_sum "Si O2"
_cell_formula_units_Z 16
_cell_length_a 11.149166
_cell_length_b 11.778117
_cell_length_c 12.287608
_cell_angle_alpha 32.854566
_cell_angle_beta 110.690405
_cell_angle_gamma 95.673707
_cell_volume 754.059971
_symmetry_space_group_name_H-M "P -1"
_symmetry_group_IT_number 2
_symmetry_cell_setting 'triclinic'
loop_
_space_group_symop_operation_xyz
x,y,z
-x,-y,-z
loop_
_atom_site_type_symbol
_atom_site_label
_atom_site_fract_x
_atom_site_fract_y
_atom_site_fract_z
Si Si1 0.355241 0.273861 0.123239
Si Si2 0.511250 0.221086 0.427880
Si Si3 0.849320 0.574522 0.446851
Si Si4 0.749266 0.848851 0.515330
Si Si5 0.867053 0.361055 0.847416
Si Si6 0.411579 0.377941 0.815170
Si Si7 0.293690 0.930302 0.892506
Si Si8 0.903334 0.695314 0.888626
O O1 0.457734 0.310412 0.217018
O O2 0.193660 0.412971 0.990982
O O3 0.357370 0.017549 0.339183
O O4 0.395847 0.335896 0.970280
O O5 0.402558 0.149868 0.517309
O O6 0.547574 0.405415 0.357070
O O7 0.871435 0.385581 0.699204
O O8 0.736670 0.560771 0.337317
O O9 0.000000 0.500000 0.500000
O O10 0.785725 0.834164 0.259738
O O11 0.839407 0.604748 0.691695
O O12 0.812312 0.893247 0.614044
O O13 0.743783 0.040130 0.271939
O O14 0.752683 0.261486 0.919489
O O15 0.015248 0.208509 0.075253
O O16 0.536568 0.165785 0.968287
O O17 0.000000 0.500000 0.000000
#
# Coordination Sequence:
#
# PCOD8003854 Si02
#       8
#     2   2   2   2   2   2   2   2
#     4  10  21  37  61  92 129 156 202 253 308 362
#     4  10  20  37  61  93 126 156 196 252 309 367
#     4  11  27  45  62  88 126 163 213 263 301 363
#     4   9  18  38  59  91 127 152 198 252 306 363
#     4  10  21  40  62  87 122 161 209 247 304 366
#     4  12  23  40  67  92 121 167 208 254 315 365
#     4  11  23  40  66  93 123 162 208 259 310 366
#     4   9  19  37  62  87 125 171 196 247 307 368
#
# _framework density 21.218471000000001
#
# number of rings (size 3 to 8) (size 9 to 14) (size 15 to 20)
#    0.000    1.750    2.500    1.500    0.000    3.500 
#    0.000    0.000    0.000    0.000    0.000    0.000 
#    0.000    0.000    0.000    0.000    0.000    0.000 
#
# Total GULP energy -198234.456428 kJ/mol
# GULP energy per Si atom -12389.653527 kJ/mol
# Density = 2.117018 g / cm^3
# Si number density = 21.218471 Si / 1000 Ang^3
#
#
#
# Elastic Constant Matrix: (Units=GPa)
#
#
# Indices 1 2 3 4 5 6 
#
# 1 140.2397 40.0707 63.7582 13.9230 3.0851 -14.1184
# 2 40.0707 64.9467 37.5872 9.7899 3.8247 1.2635
# 3 63.7582 37.5872 85.0468 19.6951 -3.0285 3.5177
# 4 13.9230 9.7899 19.6951 34.5814 -7.1270 5.7051
# 5 3.0851 3.8247 -3.0285 -7.1270 38.2874 6.8610
# 6 -14.1184 1.2635 3.5177 5.7051 6.8610 30.4798
#
#
#
# Elastic Compliance Matrix: (Units=1/GPa)
#
#
# Indices 1 2 3 4 5 6 
#
# 1 0.012788 -0.002728 -0.008473 -0.001520 -0.003146 0.008007
# 2 -0.002728 0.021676 -0.007296 -0.001362 -0.002694 -0.000459
# 3 -0.008473 -0.007296 0.023092 -0.006056 0.003162 -0.005866
# 4 -0.001520 -0.001362 -0.006056 0.036453 0.008106 -0.008597
# 5 -0.003146 -0.002694 0.003162 0.008106 0.030196 -0.010025
# 6 0.008007 -0.000459 -0.005866 -0.008597 -0.010025 0.041079
#
#
# Mechanical properties :
#
#
# Convention : Reuss Voigt Hill
#
# Bulk Modulus (GPa) = 48.63176 63.67392 56.15284
# Shear Modulus (GPa) = 23.90824 30.59087 27.24955
#
# Velocity S-wave (km/s) = 3.36037 3.80110 3.58751
# Velocity P-wave (km/s) = 6.16648 7.02413 6.60923
#
# Compressibility (1/GPa) = 0.02056270
#
# Stress axis : x y z
#
# Youngs Moduli (GPa) = 78.19559 46.13425 43.30444
#
# Poissons Ratio (x) = 0.12585 0.36691
# Poissons Ratio (y) = 0.21332 0.31596
# Poissons Ratio (z) = 0.66253 0.33661
#
# Static dielectric constant tensor:
#      x y z
#    x 3.943460 -0.170530 0.363850 
#    y -0.170530 3.933630 0.261240 
#    z 0.363850 0.261240 4.299450 
# 
# 
# High freq. dielectric constant tensor:
#      x y z
#    x 1.840520 -0.020850 0.011150 
#    y -0.020850 1.813820 0.014450 
#    z 0.011150 0.014450 1.830820 
# 
# From -- ./inp_files/422854.got.cif
#   From: 2010.06.25/outbox.cif.g09.slc.cpg/sg2_212_cif.got.tgz:422854.got - 2010.06.27 13:26:56.
