data_PCOD8003679
_publ_section_title
;
Structure prediction by ZEFSAII (Michael W. Deem and Ramdas Pophale) SiO2 
 PCOD8003679
Probable space group: P -1
;
_chemical_formula_sum "Si O2"
_cell_formula_units_Z 16
_cell_length_a 9.664588
_cell_length_b 12.040990
_cell_length_c 15.548820
_cell_angle_alpha 114.124038
_cell_angle_beta 148.600554
_cell_angle_gamma 62.851666
_cell_volume 838.134477
_symmetry_space_group_name_H-M "P -1"
_symmetry_group_IT_number 2
_symmetry_cell_setting 'triclinic'
loop_
_space_group_symop_operation_xyz
x,y,z
-x,-y,-z
loop_
_atom_site_type_symbol
_atom_site_label
_atom_site_fract_x
_atom_site_fract_y
_atom_site_fract_z
Si Si1 0.032024 0.287278 0.697817
Si Si2 0.858823 0.513008 0.796463
Si Si3 0.241401 0.728673 0.711819
Si Si4 0.313331 0.983373 0.142700
Si Si5 0.474285 0.772396 0.671195
Si Si6 0.480539 0.886566 0.014087
Si Si7 0.679970 0.744671 0.334833
Si Si8 0.398255 0.535296 0.180711
O O1 0.220293 0.203124 0.842332
O O2 0.204665 0.311641 0.713917
O O3 0.885779 0.420711 0.700804
O O4 0.805661 0.213377 0.525315
O O5 0.686600 0.646521 0.716278
O O6 0.706499 0.458170 0.774996
O O7 0.157082 0.525969 0.985508
O O8 0.415394 0.772039 0.741472
O O9 0.350417 0.581441 0.738777
O O10 0.922442 0.755075 0.531082
O O11 0.282624 0.805726 0.842652
O O12 0.356828 0.941153 0.054841
O O13 0.491603 0.882107 0.268428
O O14 0.398592 0.112017 0.247509
O O15 0.000000 0.000000 0.000000
O O16 0.500000 0.000000 0.000000
O O17 0.497323 0.660081 0.253699
#
# Coordination Sequence:
#
# PCOD8003679 Si02
#       8
#     2   2   2   2   2   2   2   2
#     4  10  22  38  59  93 112 150 200 237 286 339
#     4  10  20  37  62  87 117 154 196 232 286 343
#     4  10  20  39  61  89 112 154 200 234 285 339
#     4  11  24  42  57  86 121 153 191 233 301 344
#     4  10  21  38  62  83 121 157 188 239 284 344
#     4  11  22  38  65  84 114 153 198 241 277 350
#     4  10  23  38  62  85 121 151 187 246 288 339
#     4  10  20  37  60  88 120 153 188 240 289 339
#
# _framework density 19.090015000000001
#
# number of rings (size 3 to 8) (size 9 to 14) (size 15 to 20)
#    0.000    1.750    2.500    1.500    1.750    3.000 
#    4.500    0.625    0.000    0.000    0.000    0.000 
#    0.000    0.000    0.000    0.000    0.000    0.000 
#
# Total GULP energy -198486.026201 kJ/mol
# GULP energy per Si atom -12405.376638 kJ/mol
# Density = 1.904657 g / cm^3
# Si number density = 19.090015 Si / 1000 Ang^3
#
#
#
# Elastic Constant Matrix: (Units=GPa)
#
#
# Indices 1 2 3 4 5 6 
#
# 1 56.4839 60.7320 50.2606 5.3134 12.5154 -1.9227
# 2 60.7320 144.8185 69.0990 3.7699 10.5499 9.9472
# 3 50.2606 69.0990 128.0220 -4.2196 3.7953 3.7452
# 4 5.3134 3.7699 -4.2196 36.0816 -0.2109 1.5848
# 5 12.5154 10.5499 3.7953 -0.2109 30.5281 3.6735
# 6 -1.9227 9.9472 3.7452 1.5848 3.6735 34.8617
#
#
#
# Elastic Compliance Matrix: (Units=1/GPa)
#
#
# Indices 1 2 3 4 5 6 
#
# 1 0.046039 -0.013571 -0.010843 -0.007124 -0.014014 0.009377
# 2 -0.013571 0.013725 -0.001974 0.000547 0.001629 -0.004649
# 3 -0.010843 -0.001974 0.013195 0.003456 0.003752 -0.002005
# 4 -0.007124 0.000547 0.003456 0.029239 0.002810 -0.002546
# 5 -0.014014 0.001629 0.003752 0.002810 0.038189 -0.005793
# 6 0.009377 -0.004649 -0.002005 -0.002546 -0.005793 0.031470
#
#
# Mechanical properties :
#
#
# Convention : Reuss Voigt Hill
#
# Bulk Modulus (GPa) = 49.55011 76.61194 63.08103
# Shear Modulus (GPa) = 21.61117 30.24313 25.92715
#
# Velocity S-wave (km/s) = 3.36827 3.98457 3.68931
# Velocity P-wave (km/s) = 6.41400 7.83506 7.15987
#
# Compressibility (1/GPa) = 0.02018159
#
# Stress axis : x y z
#
# Youngs Moduli (GPa) = 21.72065 72.86054 75.78578
#
# Poissons Ratio (x) = 0.98880 0.82177
# Poissons Ratio (y) = 0.29477 0.14962
# Poissons Ratio (z) = 0.23553 0.14384
#
# Static dielectric constant tensor:
#      x y z
#    x 3.040180 0.016950 -0.033730 
#    y 0.016950 3.569540 -0.149380 
#    z -0.033730 -0.149380 3.591500 
# 
# 
# High freq. dielectric constant tensor:
#      x y z
#    x 1.726590 -0.003850 -0.000360 
#    y -0.003850 1.751590 -0.007030 
#    z -0.000360 -0.007030 1.756880 
# 
# From -- ./inp_files/176134.got.cif
#   From: 2010.06.25/outbox.cif.g09.slc.cpg/sg2_89_cif.got.tgz:176134.got - 2010.06.27 13:26:56.
