data_PCOD8003921
_publ_section_title
;
Structure prediction by ZEFSAII (Michael W. Deem and Ramdas Pophale) SiO2 
 PCOD8003921
Probable space group: P -1
;
_chemical_formula_sum "Si O2"
_cell_formula_units_Z 16
_cell_length_a 11.425279
_cell_length_b 12.111563
_cell_length_c 18.584975
_cell_angle_alpha 152.044905
_cell_angle_beta 146.322727
_cell_angle_gamma 44.042448
_cell_volume 667.206671
_symmetry_space_group_name_H-M "P -1"
_symmetry_group_IT_number 2
_symmetry_cell_setting 'triclinic'
loop_
_space_group_symop_operation_xyz
x,y,z
-x,-y,-z
loop_
_atom_site_type_symbol
_atom_site_label
_atom_site_fract_x
_atom_site_fract_y
_atom_site_fract_z
Si Si1 0.653510 0.846320 0.371842
Si Si2 0.801724 0.576807 0.899097
Si Si3 0.555147 0.460053 0.194543
Si Si4 0.201622 0.983792 0.932072
Si Si5 0.719549 0.577307 0.110468
Si Si6 0.858235 0.214131 0.603818
Si Si7 0.548134 0.778639 0.680533
Si Si8 0.225923 0.957691 0.175036
O O1 0.692220 0.701939 0.381627
O O2 0.601254 0.657388 0.169300
O O3 0.437898 0.985363 0.349188
O O4 0.854506 0.024540 0.559346
O O5 0.589646 0.491305 0.783281
O O6 0.817445 0.860507 0.060344
O O7 0.807056 0.464433 0.757264
O O8 0.000000 0.500000 0.000000
O O9 0.410890 0.391018 0.011515
O O10 0.720796 0.272250 0.193927
O O11 0.389508 0.116885 0.150472
O O12 0.975143 0.948697 0.833990
O O13 0.923212 0.766344 0.316131
O O14 0.814680 0.321579 0.023813
O O15 0.669666 0.117303 0.398435
O O16 0.500000 0.500000 0.500000
O O17 0.738706 0.872989 0.779083
#
# Coordination Sequence:
#
# PCOD8003921 Si02
#       8
#     2   2   2   2   2   2   2   2
#     4  10  22  38  64  96 127 160 209 266 313 363
#     4  12  23  44  68  86 123 173 219 248 303 387
#     4  11  23  39  64  95 124 168 211 258 305 371
#     4  12  23  41  64  94 127 166 212 257 312 370
#     4  11  19  41  64  96 126 163 216 253 309 379
#     4  11  22  40  66  96 124 166 208 257 321 368
#     4  11  21  36  61  98 129 157 202 265 320 355
#     4  10  20  37  62  89 128 170 200 247 311 385
#
# _framework density 23.980575000000002
#
# number of rings (size 3 to 8) (size 9 to 14) (size 15 to 20)
#    0.000    1.000    3.750    5.625    0.000    1.500 
#    0.000    0.000    0.000    3.750    0.000    0.000 
#    0.000    0.000    0.000    0.000    0.000    0.000 
#
# Total GULP energy -198363.935809 kJ/mol
# GULP energy per Si atom -12397.745988 kJ/mol
# Density = 2.392599 g / cm^3
# Si number density = 23.980575 Si / 1000 Ang^3
#
#
#
# Elastic Constant Matrix: (Units=GPa)
#
#
# Indices 1 2 3 4 5 6 
#
# 1 104.4053 44.6863 12.7690 -6.3820 32.0297 -7.3549
# 2 44.6863 141.0772 20.4294 16.3037 22.6058 5.4588
# 3 12.7690 20.4294 56.0545 7.1252 30.8378 6.4664
# 4 -6.3820 16.3037 7.1252 34.9490 13.6230 12.7359
# 5 32.0297 22.6058 30.8378 13.6230 40.9069 7.5978
# 6 -7.3549 5.4588 6.4664 12.7359 7.5978 43.1774
#
#
#
# Elastic Compliance Matrix: (Units=1/GPa)
#
#
# Indices 1 2 3 4 5 6 
#
# 1 0.018389 -0.004883 0.007916 0.011512 -0.022067 0.003052
# 2 -0.004883 0.009272 -0.003179 -0.005604 0.003038 -0.000410
# 3 0.007916 -0.003179 0.034419 0.008975 -0.033343 -0.000185
# 4 0.011512 -0.005604 0.008975 0.044277 -0.026101 -0.007142
# 5 -0.022067 0.003038 -0.033343 -0.026101 0.074727 -0.004600
# 6 0.003052 -0.000410 -0.000185 -0.007142 -0.004600 0.026676
#
#
# Mechanical properties :
#
#
# Convention : Reuss Voigt Hill
#
# Bulk Modulus (GPa) = 16.18486 50.81182 33.49834
# Shear Modulus (GPa) = 21.86777 38.71683 30.29230
#
# Velocity S-wave (km/s) = 3.02304 4.02245 3.55801
# Velocity P-wave (km/s) = 4.35302 6.54280 5.55684
#
# Compressibility (1/GPa) = 0.06178616
#
# Stress axis : x y z
#
# Youngs Moduli (GPa) = 54.38178 107.85097 29.05399
#
# Poissons Ratio (x) = 0.52667 -0.22998
# Poissons Ratio (y) = 0.26556 0.09236
# Poissons Ratio (z) = -0.43046 0.34284
#
# Static dielectric constant tensor:
#      x y z
#    x 4.279990 0.187450 0.352900 
#    y 0.187450 4.477420 0.287270 
#    z 0.352900 0.287270 4.353620 
# 
# 
# High freq. dielectric constant tensor:
#      x y z
#    x 1.943580 0.004510 0.033310 
#    y 0.004510 1.954920 0.022450 
#    z 0.033310 0.022450 1.944320 
# 
# From -- ./inp_files/381770.got.cif
#   From: 2010.06.25/outbox.cif.g09.slc.cpg/sg2_191_cif.got.tgz:381770.got - 2010.06.27 13:26:56.
