data_PCOD8003781
_publ_section_title
;
Structure prediction by ZEFSAII (Michael W. Deem and Ramdas Pophale) SiO2 
 PCOD8003781
Probable space group: P -1
;
_chemical_formula_sum "Si O2"
_cell_formula_units_Z 12
_cell_length_a 9.644878
_cell_length_b 15.864793
_cell_length_c 10.239537
_cell_angle_alpha 133.304462
_cell_angle_beta 114.806817
_cell_angle_gamma 35.478939
_cell_volume 624.922769
_symmetry_space_group_name_H-M "P -1"
_symmetry_group_IT_number 2
_symmetry_cell_setting 'triclinic'
loop_
_space_group_symop_operation_xyz
x,y,z
-x,-y,-z
loop_
_atom_site_type_symbol
_atom_site_label
_atom_site_fract_x
_atom_site_fract_y
_atom_site_fract_z
Si Si1 0.269423 0.419055 0.147786
Si Si2 0.818743 0.080199 0.130042
Si Si3 0.151171 0.502603 0.900703
Si Si4 0.391574 0.750957 0.376933
Si Si5 0.960321 0.875036 0.207377
Si Si6 0.685981 0.358188 0.537983
O O1 0.536143 0.239319 0.133417
O O2 0.172630 0.610166 0.329587
O O3 0.068755 0.455910 0.175494
O O4 0.290446 0.381326 0.961313
O O5 0.872933 0.149339 0.331076
O O6 0.890311 0.923114 0.075609
O O7 0.000000 0.000000 0.000000
O O8 0.348141 0.374927 0.724781
O O9 0.022151 0.705407 0.082918
O O10 0.456221 0.613966 0.365396
O O11 0.203697 0.808055 0.258321
O O12 0.270320 0.939862 0.595107
O O13 0.500000 0.500000 0.500000
#
# Coordination Sequence:
#
# PCOD8003781 Si02
#       6
#     2   2   2   2   2   2
#     4  10  22  40  54  90 120 148 195 234 293 347
#     4  10  21  37  60  86 115 151 195 241 289 334
#     4  11  22  38  63  83 122 158 183 241 295 342
#     4  10  20  37  61  87 112 152 203 232 288 336
#     4  10  21  36  61  88 113 150 202 241 269 356
#     4   9  19  36  58  81 113 146 195 239 271 347
#
# _framework density 19.202373000000001
#
# number of rings (size 3 to 8) (size 9 to 14) (size 15 to 20)
#    0.000    2.000    1.667    1.500    4.667    0.667 
#    3.000    9.167    0.000    0.000    0.000    0.000 
#    0.000    0.000    0.000    0.000    0.000    0.000 
#
# Total GULP energy -148725.910136 kJ/mol
# GULP energy per Si atom -12393.825845 kJ/mol
# Density = 1.915867 g / cm^3
# Si number density = 19.202373 Si / 1000 Ang^3
#
#
#
# Elastic Constant Matrix: (Units=GPa)
#
#
# Indices 1 2 3 4 5 6 
#
# 1 150.3552 54.2379 74.3691 4.9791 -20.4194 -9.2981
# 2 54.2379 109.1167 34.1014 -10.1347 -16.5826 5.0336
# 3 74.3691 34.1014 85.8307 0.3259 -18.8860 -8.0931
# 4 4.9791 -10.1347 0.3259 29.4773 4.4747 -0.6999
# 5 -20.4194 -16.5826 -18.8860 4.4747 27.1515 -3.6484
# 6 -9.2981 5.0336 -8.0931 -0.6999 -3.6484 29.1240
#
#
#
# Elastic Compliance Matrix: (Units=1/GPa)
#
#
# Indices 1 2 3 4 5 6 
#
# 1 0.013096 -0.003790 -0.009126 -0.003678 0.002125 0.002478
# 2 -0.003790 0.012455 -0.001428 0.004468 0.002580 -0.003329
# 3 -0.009126 -0.001428 0.022449 -0.000388 0.008567 0.004635
# 4 -0.003678 0.004468 -0.000388 0.037053 -0.006683 -0.002001
# 5 0.002125 0.002580 0.008567 -0.006683 0.048205 0.008491
# 6 0.002478 -0.003329 0.004635 -0.002001 0.008491 0.038006
#
#
# Mechanical properties :
#
#
# Convention : Reuss Voigt Hill
#
# Bulk Modulus (GPa) = 51.78063 74.52437 63.15250
# Shear Modulus (GPa) = 24.22613 29.32352 26.77483
#
# Velocity S-wave (km/s) = 3.55579 3.91202 3.73815
# Velocity P-wave (km/s) = 6.62438 7.70062 7.18268
#
# Compressibility (1/GPa) = 0.01931224
#
# Stress axis : x y z
#
# Youngs Moduli (GPa) = 76.36132 80.28721 44.54606
#
# Poissons Ratio (x) = 0.30431 0.40651
# Poissons Ratio (y) = 0.28943 0.06360
# Poissons Ratio (z) = 0.69685 0.11462
#
# Static dielectric constant tensor:
#      x y z
#    x 3.999470 0.987230 0.727550 
#    y 0.987230 4.701550 0.650520 
#    z 0.727550 0.650520 4.270520 
# 
# 
# High freq. dielectric constant tensor:
#      x y z
#    x 1.732140 0.022930 -0.001620 
#    y 0.022930 1.757290 -0.010940 
#    z -0.001620 -0.010940 1.745230 
# 
# From -- ./inp_files/145163.got.cif
#   From: 2010.06.25/outbox.cif.g09.slc.cpg/sg2_73_cif.got.tgz:145163.got - 2010.06.27 13:26:56.
