data_PCOD8003638
_publ_section_title
;
Structure prediction by ZEFSAII (Michael W. Deem and Ramdas Pophale) SiO2 
 PCOD8003638
Probable space group: P -1
;
_chemical_formula_sum "Si O2"
_cell_formula_units_Z 14
_cell_length_a 17.559371
_cell_length_b 21.361827
_cell_length_c 11.417466
_cell_angle_alpha 147.525475
_cell_angle_beta 28.298095
_cell_angle_gamma 162.802676
_cell_volume 600.174885
_symmetry_space_group_name_H-M "P -1"
_symmetry_group_IT_number 2
_symmetry_cell_setting 'triclinic'
loop_
_space_group_symop_operation_xyz
x,y,z
-x,-y,-z
loop_
_atom_site_type_symbol
_atom_site_label
_atom_site_fract_x
_atom_site_fract_y
_atom_site_fract_z
Si Si1 0.521798 0.744954 0.556196
Si Si2 0.762733 0.289010 0.283691
Si Si3 0.351305 0.410283 0.744289
Si Si4 0.151556 0.797846 0.754637
Si Si5 0.263150 0.741300 0.281583
Si Si6 0.088598 0.215009 0.547570
Si Si7 0.287960 0.825442 0.124367
O O1 0.389019 0.680185 0.501501
O O2 0.482140 0.594974 0.427239
O O3 0.346732 0.730148 0.851665
O O4 0.865815 0.976429 0.447462
O O5 0.721652 0.233275 0.387517
O O6 0.111974 0.520425 0.148463
O O7 0.596402 0.087249 0.112171
O O8 0.128378 0.242214 0.677183
O O9 0.612785 0.642000 0.696542
O O10 0.166629 0.364100 0.020786
O O11 0.123409 0.739159 0.567802
O O12 0.383669 0.046211 0.844585
O O13 0.178079 0.748778 0.285646
O O14 0.968664 0.266219 0.743911
#
# Coordination Sequence:
#
# PCOD8003638 Si02
#       7
#     2   2   2   2   2   2   2
#     4  11  22  37  59  88 118 148 188 235 286 343
#     4  10  20  37  60  84 111 149 192 234 281 332
#     4  11  23  37  57  86 119 152 184 232 294 341
#     4  10  22  40  60  86 115 147 196 239 275 338
#     4  10  21  38  64  85 109 152 197 238 278 328
#     4  10  21  37  56  84 118 149 186 234 287 338
#     4  10  21  38  59  87 115 147 195 236 274 342
#
# _framework density 23.326533999999999
#
# number of rings (size 3 to 8) (size 9 to 14) (size 15 to 20)
#    0.000    1.714    0.000    6.000    0.000    6.857 
#    0.000    2.857    0.000   10.286    0.000    0.000 
#    0.000    0.000    0.000    0.000    0.000    0.000 
#
# Total GULP energy -173470.014593 kJ/mol
# GULP energy per Si atom -12390.715328 kJ/mol
# Density = 2.327344 g / cm^3
# Si number density = 23.326534 Si / 1000 Ang^3
#
#
#
# Elastic Constant Matrix: (Units=GPa)
#
#
# Indices 1 2 3 4 5 6 
#
# 1 126.3061 4.5899 35.6103 0.6685 3.5324 -7.3081
# 2 4.5899 86.4625 9.4218 -18.8268 8.7226 0.7908
# 3 35.6103 9.4218 95.1948 -25.8664 14.7895 -3.7825
# 4 0.6685 -18.8268 -25.8664 32.0739 -4.7375 0.5601
# 5 3.5324 8.7226 14.7895 -4.7375 24.1946 -4.4846
# 6 -7.3081 0.7908 -3.7825 0.5601 -4.4846 28.8102
#
#
#
# Elastic Compliance Matrix: (Units=1/GPa)
#
#
# Indices 1 2 3 4 5 6 
#
# 1 0.009413 -0.001134 -0.004787 -0.004543 0.001461 0.002106
# 2 -0.001134 0.013891 0.002254 0.009334 -0.004629 -0.001275
# 3 -0.004787 0.002254 0.017099 0.014053 -0.007914 -0.000536
# 4 -0.004543 0.009334 0.014053 0.047791 -0.002086 -0.000817
# 5 0.001461 -0.004629 -0.007914 -0.002086 0.048523 0.007052
# 6 0.002106 -0.001275 -0.000536 -0.000817 0.007052 0.036322
#
#
# Mechanical properties :
#
#
# Convention : Reuss Voigt Hill
#
# Bulk Modulus (GPa) = 30.23896 45.24524 37.74210
# Shear Modulus (GPa) = 26.12371 34.23851 30.18111
#
# Velocity S-wave (km/s) = 3.35014 3.83533 3.60092
# Velocity P-wave (km/s) = 5.28735 6.24913 5.78825
#
# Compressibility (1/GPa) = 0.03306992
#
# Stress axis : x y z
#
# Youngs Moduli (GPa) = 106.23494 71.98717 58.48304
#
# Poissons Ratio (x) = 0.08163 0.27995
# Poissons Ratio (y) = 0.12047 -0.13183
# Poissons Ratio (z) = 0.50853 -0.16226
#
# Static dielectric constant tensor:
#      x y z
#    x 4.559740 -0.057370 0.014000 
#    y -0.057370 4.595260 -0.353340 
#    z 0.014000 -0.353340 3.605850 
# 
# 
# High freq. dielectric constant tensor:
#      x y z
#    x 1.941630 -0.009200 0.006160 
#    y -0.009200 1.937960 -0.035750 
#    z 0.006160 -0.035750 1.869240 
# 
# From -- ./inp_files/467120.got.cif
#   From: 2010.06.25/outbox.cif.g09.slc.cpg/sg2_234_cif.got.tgz:467120.got - 2010.06.27 13:26:56.
