data_PCOD8003954
_publ_section_title
;
Structure prediction by ZEFSAII (Michael W. Deem and Ramdas Pophale) SiO2 
 PCOD8003954
Probable space group: P -1
;
_chemical_formula_sum "Si O2"
_cell_formula_units_Z 16
_cell_length_a 6.233700
_cell_length_b 20.238915
_cell_length_c 11.977835
_cell_angle_alpha 39.357508
_cell_angle_beta 54.786509
_cell_angle_gamma 48.102820
_cell_volume 707.475869
_symmetry_space_group_name_H-M "P -1"
_symmetry_group_IT_number 2
_symmetry_cell_setting 'triclinic'
loop_
_space_group_symop_operation_xyz
x,y,z
-x,-y,-z
loop_
_atom_site_type_symbol
_atom_site_label
_atom_site_fract_x
_atom_site_fract_y
_atom_site_fract_z
Si Si1 0.818440 0.926461 0.140765
Si Si2 0.731125 0.681141 0.333378
Si Si3 0.046042 0.273933 0.010959
Si Si4 0.890188 0.161360 0.615358
Si Si5 0.159416 0.060902 0.132002
Si Si6 0.039467 0.318050 0.200112
Si Si7 0.646082 0.460285 0.624974
Si Si8 0.422340 0.440991 0.938750
O O1 0.957099 0.831700 0.321581
O O2 0.480120 0.003963 0.163946
O O3 0.842820 0.879977 0.066297
O O4 0.000000 0.000000 0.000000
O O5 0.461541 0.784607 0.339117
O O6 0.695723 0.566176 0.521092
O O7 0.049210 0.656025 0.322070
O O8 0.726312 0.710576 0.163654
O O9 0.979953 0.165888 0.132437
O O10 0.163488 0.256545 0.124520
O O11 0.750189 0.389833 0.949537
O O12 0.002827 0.224425 0.410610
O O13 0.981407 0.030089 0.717151
O O14 0.733740 0.430524 0.132237
O O15 0.264821 0.361760 0.129507
O O16 0.500000 0.500000 0.500000
O O17 0.423996 0.441829 0.801022
#
# Coordination Sequence:
#
# PCOD8003954 Si02
#       8
#     2   2   2   2   2   2   2   2
#     4   9  19  38  64  93 130 164 206 265 319 377
#     4  10  21  37  60  95 122 156 212 258 313 369
#     4  11  23  41  65  89 130 170 209 267 310 382
#     4  11  23  41  66  98 130 166 213 267 319 378
#     4  10  22  40  63  97 125 170 214 256 325 380
#     4  11  24  43  63  92 129 170 217 256 320 386
#     4  10  20  37  62  92 123 158 207 266 311 367
#     4  10  23  44  62  90 125 175 215 253 326 379
#
# _framework density 22.615614000000001
#
# number of rings (size 3 to 8) (size 9 to 14) (size 15 to 20)
#    0.000    1.750    1.250    3.375    0.000    7.500 
#    4.500    1.250    0.000    0.000    0.000    0.000 
#    0.000    0.000    0.000    0.000    0.000    0.000 
#
# Total GULP energy -198320.898794 kJ/mol
# GULP energy per Si atom -12395.056175 kJ/mol
# Density = 2.256414 g / cm^3
# Si number density = 22.615614 Si / 1000 Ang^3
#
#
#
# Elastic Constant Matrix: (Units=GPa)
#
#
# Indices 1 2 3 4 5 6 
#
# 1 60.5631 14.8269 29.2856 5.2665 15.7608 3.5285
# 2 14.8269 66.4191 30.0148 0.3993 10.1834 7.5131
# 3 29.2856 30.0148 149.3910 10.2872 -1.1381 5.9833
# 4 5.2665 0.3993 10.2872 34.2498 2.1391 -2.1195
# 5 15.7608 10.1834 -1.1381 2.1391 35.4314 2.7396
# 6 3.5285 7.5131 5.9833 -2.1195 2.7396 28.3842
#
#
#
# Elastic Compliance Matrix: (Units=1/GPa)
#
#
# Indices 1 2 3 4 5 6 
#
# 1 0.021235 -0.001572 -0.003778 -0.001594 -0.008967 -0.000681
# 2 -0.001572 0.017925 -0.003266 0.001078 -0.004363 -0.003359
# 3 -0.003778 -0.003266 0.008295 -0.002119 0.003081 -0.000870
# 4 -0.001594 0.001078 -0.002119 0.030346 -0.001717 0.002791
# 5 -0.008967 -0.004363 0.003081 -0.001717 0.033806 -0.001771
# 6 -0.000681 -0.003359 -0.000870 0.002791 -0.001771 0.036767
#
#
# Mechanical properties :
#
#
# Convention : Reuss Voigt Hill
#
# Bulk Modulus (GPa) = 33.08729 47.18086 40.13408
# Shear Modulus (GPa) = 28.46058 33.09615 30.77836
#
# Velocity S-wave (km/s) = 3.55131 3.82962 3.69309
# Velocity P-wave (km/s) = 5.61051 6.36097 5.99749
#
# Compressibility (1/GPa) = 0.03022308
#
# Stress axis : x y z
#
# Youngs Moduli (GPa) = 47.09139 55.78721 120.55488
#
# Poissons Ratio (x) = 0.08767 0.45550
# Poissons Ratio (y) = 0.07401 0.39377
# Poissons Ratio (z) = 0.17793 0.18222
#
# Static dielectric constant tensor:
#      x y z
#    x 4.200970 -0.046850 0.094660 
#    y -0.046850 4.073090 0.011150 
#    z 0.094660 0.011150 4.303150 
# 
# 
# High freq. dielectric constant tensor:
#      x y z
#    x 1.880760 -0.000110 -0.001640 
#    y -0.000110 1.883710 -0.010190 
#    z -0.001640 -0.010190 1.891870 
# 
# From -- ./inp_files/370327.got.cif
#   From: 2010.06.25/outbox.cif.g09.slc.cpg/sg2_186_cif.got.tgz:370327.got - 2010.06.27 13:26:56.
