data_PCOD8003148
_publ_section_title
;
Structure prediction by ZEFSAII (Michael W. Deem and Ramdas Pophale) SiO2 
 PCOD8003148
Probable space group: P -1
;
_chemical_formula_sum "Si O2"
_cell_formula_units_Z 14
_cell_length_a 5.062243
_cell_length_b 20.588363
_cell_length_c 17.550908
_cell_angle_alpha 21.351197
_cell_angle_beta 99.132024
_cell_angle_gamma 99.020538
_cell_volume 657.340612
_symmetry_space_group_name_H-M "P -1"
_symmetry_group_IT_number 2
_symmetry_cell_setting 'triclinic'
loop_
_space_group_symop_operation_xyz
x,y,z
-x,-y,-z
loop_
_atom_site_type_symbol
_atom_site_label
_atom_site_fract_x
_atom_site_fract_y
_atom_site_fract_z
Si Si1 0.131872 0.326187 0.293200
Si Si2 0.729633 0.621592 0.912996
Si Si3 0.462915 0.415012 0.901174
Si Si4 0.114722 0.604407 0.563707
Si Si5 0.546775 0.484328 0.607948
Si Si6 0.911476 0.074108 0.682953
Si Si7 0.402312 0.837048 0.942703
O O1 0.194852 0.243637 0.301203
O O2 0.392843 0.394226 0.278785
O O3 0.957502 0.181193 0.489382
O O4 0.980998 0.508157 0.072981
O O5 0.500000 0.500000 0.000000
O O6 0.620015 0.702782 0.898745
O O7 0.197841 0.471507 0.780999
O O8 0.648078 0.293570 0.989520
O O9 0.352806 0.618047 0.497521
O O10 0.852367 0.528534 0.593576
O O11 0.055491 0.799784 0.379895
O O12 0.500000 0.500000 0.500000
O O13 0.482859 0.280059 0.854431
O O14 0.125067 0.918891 0.866932
O O15 0.612879 0.991553 0.759001
#
# Coordination Sequence:
#
# PCOD8003148 Si02
#       7
#     2   2   2   2   2   2   2
#     4  10  20  36  63  86 123 167 215 263 300 364
#     4   9  19  34  61  89 117 160 228 256 298 352
#     4  10  20  38  63  89 119 169 223 255 294 371
#     4  11  22  40  70  93 122 169 212 245 301 379
#     4  11  24  46  69  95 123 162 208 253 304 377
#     4  12  23  40  60  97 130 162 204 256 315 364
#     4  11  25  38  63  93 129 159 203 262 316 363
#
# _framework density 21.297940000000001
#
# number of rings (size 3 to 8) (size 9 to 14) (size 15 to 20)
#    0.000    1.429    1.429    5.571    4.000    0.000 
#    0.000    5.714    0.000    0.000    0.000    0.000 
#    0.000    0.000    0.000    0.000    0.000    0.000 
#
# Total GULP energy -173515.331518 kJ/mol
# GULP energy per Si atom -12393.952251 kJ/mol
# Density = 2.124947 g / cm^3
# Si number density = 21.297940 Si / 1000 Ang^3
#
#
#
# Elastic Constant Matrix: (Units=GPa)
#
#
# Indices 1 2 3 4 5 6 
#
# 1 87.1911 35.3645 5.7581 4.7595 9.6607 -4.7506
# 2 35.3645 135.5721 43.0201 24.8395 6.6644 -18.6657
# 3 5.7581 43.0201 62.1713 6.1069 -3.5692 -16.2028
# 4 4.7595 24.8395 6.1069 31.9587 -10.7667 -1.5750
# 5 9.6607 6.6644 -3.5692 -10.7667 36.1008 -3.8936
# 6 -4.7506 -18.6657 -16.2028 -1.5750 -3.8936 47.0190
#
#
#
# Elastic Compliance Matrix: (Units=1/GPa)
#
#
# Indices 1 2 3 4 5 6 
#
# 1 0.013189 -0.003594 0.001150 -0.000348 -0.002850 0.000054
# 2 -0.003594 0.012918 -0.007567 -0.009636 -0.004891 0.001429
# 3 0.001150 -0.007567 0.022580 0.003310 0.004892 0.005409
# 4 -0.000348 -0.009636 0.003310 0.043288 0.015107 -0.000019
# 5 -0.002850 -0.004891 0.004892 0.015107 0.034661 0.002833
# 6 0.000054 0.001429 0.005409 -0.000019 0.002833 0.023939
#
#
# Mechanical properties :
#
#
# Convention : Reuss Voigt Hill
#
# Bulk Modulus (GPa) = 34.88729 50.35777 42.62253
# Shear Modulus (GPa) = 27.75464 36.40183 32.07824
#
# Velocity S-wave (km/s) = 3.61385 4.13870 3.88515
# Velocity P-wave (km/s) = 5.81630 6.82160 6.33891
#
# Compressibility (1/GPa) = 0.02866373
#
# Stress axis : x y z
#
# Youngs Moduli (GPa) = 75.82357 77.41338 44.28738
#
# Poissons Ratio (x) = 0.27821 -0.05093
# Poissons Ratio (y) = 0.27250 0.33514
# Poissons Ratio (z) = -0.08720 0.58582
#
# Static dielectric constant tensor:
#      x y z
#    x 4.072740 -0.385020 -0.099580 
#    y -0.385020 4.034380 0.199000 
#    z -0.099580 0.199000 3.718560 
# 
# 
# High freq. dielectric constant tensor:
#      x y z
#    x 1.860170 -0.010310 -0.001440 
#    y -0.010310 1.833270 0.014840 
#    z -0.001440 0.014840 1.795620 
# 
# From -- ./inp_files/112272.got.cif
#   From: 2010.06.25/outbox.cif.g09.slc.cpg/sg2_57_cif.got.tgz:112272.got - 2010.06.27 13:26:56.
