data_PCOD8003363
_publ_section_title
;
Structure prediction by ZEFSAII (Michael W. Deem and Ramdas Pophale) SiO2 
 PCOD8003363
Probable space group: P -1
;
_chemical_formula_sum "Si O2"
_cell_formula_units_Z 14
_cell_length_a 11.489713
_cell_length_b 8.930395
_cell_length_c 8.740731
_cell_angle_alpha 105.242858
_cell_angle_beta 39.512028
_cell_angle_gamma 108.078796
_cell_volume 542.041455
_symmetry_space_group_name_H-M "P -1"
_symmetry_group_IT_number 2
_symmetry_cell_setting 'triclinic'
loop_
_space_group_symop_operation_xyz
x,y,z
-x,-y,-z
loop_
_atom_site_type_symbol
_atom_site_label
_atom_site_fract_x
_atom_site_fract_y
_atom_site_fract_z
Si Si1 0.530396 0.205570 0.570163
Si Si2 0.070004 0.624835 0.095029
Si Si3 0.738721 0.599678 0.003454
Si Si4 0.755371 0.049332 0.712842
Si Si5 0.434679 0.936196 0.796592
Si Si6 0.929677 0.164947 0.116835
Si Si7 0.869898 0.738180 0.596918
O O1 0.507369 0.202120 0.405649
O O2 0.739172 0.183607 0.404469
O O3 0.379502 0.060519 0.758402
O O4 0.466466 0.365960 0.735750
O O5 0.243686 0.574862 0.000477
O O6 0.909268 0.632507 0.384740
O O7 0.121314 0.792628 0.997533
O O8 0.000000 0.500000 0.000000
O O9 0.767952 0.619025 0.796135
O O10 0.901418 0.713321 0.955828
O O11 0.946973 0.150914 0.485963
O O12 0.598900 0.052999 0.747985
O O13 0.745898 0.862252 0.698531
O O14 0.717335 0.128521 0.936551
O O15 0.000000 0.000000 0.000000
#
# Coordination Sequence:
#
# PCOD8003363 Si02
#       7
#     2   2   2   2   2   2   2
#     4  11  22  37  66  95 135 172 214 265 328 385
#     4  10  25  43  66  93 130 180 217 264 331 389
#     4  11  24  43  64  96 135 176 215 264 328 392
#     4  10  22  35  63  96 129 164 217 273 327 373
#     4  10  20  37  54  98 135 162 208 277 327 376
#     4  11  24  41  69  99 131 168 222 271 319 382
#     4  11  22  39  65  93 127 174 219 266 326 387
#
# _framework density 25.828285999999999
#
# number of rings (size 3 to 8) (size 9 to 14) (size 15 to 20)
#    0.000    1.429    1.429    3.857   10.000    0.571 
#    0.000    0.000    3.143    5.143    0.000    0.000 
#    0.000    0.000    0.000    0.000    0.000    0.000 
#
# Total GULP energy -173448.884400 kJ/mol
# GULP energy per Si atom -12389.206029 kJ/mol
# Density = 2.576950 g / cm^3
# Si number density = 25.828286 Si / 1000 Ang^3
#
#
#
# Elastic Constant Matrix: (Units=GPa)
#
#
# Indices 1 2 3 4 5 6 
#
# 1 59.4091 21.5466 44.5871 11.9713 9.2322 -12.2405
# 2 21.5466 105.9345 49.5579 19.6127 1.8073 -43.2301
# 3 44.5871 49.5579 173.8704 28.1690 9.7796 -30.9295
# 4 11.9713 19.6127 28.1690 37.0199 2.3745 -2.6567
# 5 9.2322 1.8073 9.7796 2.3745 44.1294 0.2379
# 6 -12.2405 -43.2301 -30.9295 -2.6567 0.2379 43.2298
#
#
#
# Elastic Compliance Matrix: (Units=1/GPa)
#
#
# Indices 1 2 3 4 5 6 
#
# 1 0.021981 -0.001084 -0.004332 -0.002881 -0.003449 0.001883
# 2 -0.001084 0.018377 -0.000674 -0.007641 -0.000058 0.017119
# 3 -0.004332 -0.000674 0.008503 -0.004384 -0.000736 0.003918
# 4 -0.002881 -0.007641 -0.004384 0.034644 0.000074 -0.009464
# 5 -0.003449 -0.000058 -0.000736 0.000074 0.023553 -0.001686
# 6 0.001883 0.017119 0.003918 -0.009464 -0.001686 0.043015
#
#
# Mechanical properties :
#
#
# Convention : Reuss Voigt Hill
#
# Bulk Modulus (GPa) = 27.26128 63.39970 45.33049
# Shear Modulus (GPa) = 28.65666 39.77730 34.21698
#
# Velocity S-wave (km/s) = 3.33454 3.92863 3.64371
# Velocity P-wave (km/s) = 5.04017 6.72151 5.94062
#
# Compressibility (1/GPa) = 0.03668206
#
# Stress axis : x y z
#
# Youngs Moduli (GPa) = 45.49298 54.41621 117.60635
#
# Poissons Ratio (x) = 0.05897 0.50951
# Poissons Ratio (y) = 0.04930 0.07923
# Poissons Ratio (z) = 0.19709 0.03666
#
# Static dielectric constant tensor:
#      x y z
#    x 4.765710 -0.493310 0.210670 
#    y -0.493310 4.963150 0.074170 
#    z 0.210670 0.074170 4.835740 
# 
# 
# High freq. dielectric constant tensor:
#      x y z
#    x 2.041190 -0.008700 0.018340 
#    y -0.008700 2.019360 0.000820 
#    z 0.018340 0.000820 2.038700 
# 
# From -- ./inp_files/244317.got.cif
#   From: 2010.06.25/outbox.cif.g09.slc.cpg/sg2_123_cif.got.tgz:244317.got - 2010.06.27 13:26:56.
