data_PCOD8003186
_publ_section_title
;
Structure prediction by ZEFSAII (Michael W. Deem and Ramdas Pophale) SiO2 
 PCOD8003186
Probable space group: P -1
;
_chemical_formula_sum "Si O2"
_cell_formula_units_Z 14
_cell_length_a 9.397588
_cell_length_b 8.835405
_cell_length_c 11.045605
_cell_angle_alpha 69.633837
_cell_angle_beta 126.547282
_cell_angle_gamma 95.436615
_cell_volume 682.985792
_symmetry_space_group_name_H-M "P -1"
_symmetry_group_IT_number 2
_symmetry_cell_setting 'triclinic'
loop_
_space_group_symop_operation_xyz
x,y,z
-x,-y,-z
loop_
_atom_site_type_symbol
_atom_site_label
_atom_site_fract_x
_atom_site_fract_y
_atom_site_fract_z
Si Si1 0.986549 0.437184 0.645017
Si Si2 0.158269 0.926704 0.690321
Si Si3 0.286321 0.393913 0.149447
Si Si4 0.504720 0.306396 0.073896
Si Si5 0.398405 0.510414 0.571704
Si Si6 0.015291 0.666935 0.822623
Si Si7 0.685842 0.769006 0.222591
O O1 0.793366 0.374861 0.579899
O O2 0.002696 0.574487 0.715191
O O3 0.000000 0.500000 0.500000
O O4 0.152694 0.293306 0.772889
O O5 0.303350 0.778375 0.750481
O O6 0.062617 0.847488 0.775094
O O7 0.277622 0.060264 0.754918
O O8 0.000000 0.000000 0.500000
O O9 0.340483 0.284601 0.087984
O O10 0.480720 0.415699 0.291197
O O11 0.175716 0.303217 0.214264
O O12 0.168326 0.568184 0.011786
O O13 0.500000 0.500000 0.000000
O O14 0.483841 0.219909 0.957062
O O15 0.500000 0.500000 0.500000
O O16 0.346212 0.340473 0.645634
#
# Coordination Sequence:
#
# PCOD8003186 Si02
#       7
#     2   2   2   2   2   2   2
#     4  10  20  36  63  93 124 162 220 258 312 381
#     4  12  26  41  64  98 140 165 209 274 337 377
#     4  11  23  38  70  91 125 167 232 264 306 380
#     4  12  22  44  69  96 122 177 230 257 310 401
#     4  11  21  36  62  97 128 165 216 271 321 378
#     4  11  22  44  63  95 128 174 215 266 319 389
#     4  11  23  40  64  95 127 171 212 271 322 388
#
# _framework density 20.498228999999998
#
# number of rings (size 3 to 8) (size 9 to 14) (size 15 to 20)
#    0.000    0.857    5.714    2.143    4.000    0.000 
#    0.000    2.857    0.000    0.000    0.000    0.000 
#    0.000    0.000    0.000    0.000    0.000    0.000 
#
# Total GULP energy -173446.581123 kJ/mol
# GULP energy per Si atom -12389.041509 kJ/mol
# Density = 2.045157 g / cm^3
# Si number density = 20.498229 Si / 1000 Ang^3
#
#
#
# Elastic Constant Matrix: (Units=GPa)
#
#
# Indices 1 2 3 4 5 6 
#
# 1 169.1146 41.2681 36.4823 -10.6534 -0.0979 9.7781
# 2 41.2681 89.3511 31.0054 0.5949 -2.6356 14.3267
# 3 36.4823 31.0054 87.8067 0.7385 9.4597 1.7854
# 4 -10.6534 0.5949 0.7385 32.2640 -2.2397 0.8075
# 5 -0.0979 -2.6356 9.4597 -2.2397 38.9039 2.2456
# 6 9.7781 14.3267 1.7854 0.8075 2.2456 31.7985
#
#
#
# Elastic Compliance Matrix: (Units=1/GPa)
#
#
# Indices 1 2 3 4 5 6 
#
# 1 0.007196 -0.002373 -0.002216 0.002541 0.000607 -0.001127
# 2 -0.002373 0.014819 -0.004377 -0.000646 0.002363 -0.005852
# 3 -0.002216 -0.004377 0.014249 -0.001307 -0.003967 0.002167
# 4 0.002541 -0.000646 -0.001307 0.032063 0.002206 -0.001387
# 5 0.000607 0.002363 -0.003967 0.002206 0.027131 -0.003001
# 6 -0.001127 -0.005852 0.002167 -0.001387 -0.003001 0.034556
#
#
# Mechanical properties :
#
#
# Convention : Reuss Voigt Hill
#
# Bulk Modulus (GPa) = 54.54769 62.64268 58.59519
# Shear Modulus (GPa) = 32.45576 36.42769 34.44172
#
# Velocity S-wave (km/s) = 3.98344 4.22016 4.10351
# Velocity P-wave (km/s) = 6.91562 7.37378 7.14837
#
# Compressibility (1/GPa) = 0.01833258
#
# Stress axis : x y z
#
# Youngs Moduli (GPa) = 138.97098 67.48166 70.17989
#
# Poissons Ratio (x) = 0.16013 0.15550
# Poissons Ratio (y) = 0.32977 0.30717
# Poissons Ratio (z) = 0.30792 0.29536
#
# Static dielectric constant tensor:
#      x y z
#    x 4.606360 0.015250 0.572980 
#    y 0.015250 3.391280 0.117380 
#    z 0.572980 0.117380 4.628220 
# 
# 
# High freq. dielectric constant tensor:
#      x y z
#    x 1.817270 0.004630 0.013440 
#    y 0.004630 1.756670 0.017020 
#    z 0.013440 0.017020 1.820500 
# 
# From -- ./inp_files/238328.got.cif
#   From: 2010.06.25/outbox.cif.g09.slc.cpg/sg2_120_cif.got.tgz:238328.got - 2010.06.27 13:26:56.
