data_PCOD8003437
_publ_section_title
;
Structure prediction by ZEFSAII (Michael W. Deem and Ramdas Pophale) SiO2 
 PCOD8003437
Probable space group: P -1
;
_chemical_formula_sum "Si O2"
_cell_formula_units_Z 16
_cell_length_a 9.103089
_cell_length_b 9.232148
_cell_length_c 19.083083
_cell_angle_alpha 89.200886
_cell_angle_beta 94.830745
_cell_angle_gamma 31.300475
_cell_volume 818.726877
_symmetry_space_group_name_H-M "P -1"
_symmetry_group_IT_number 2
_symmetry_cell_setting 'triclinic'
loop_
_space_group_symop_operation_xyz
x,y,z
-x,-y,-z
loop_
_atom_site_type_symbol
_atom_site_label
_atom_site_fract_x
_atom_site_fract_y
_atom_site_fract_z
Si Si1 0.914801 0.277359 0.138092
Si Si2 0.872692 0.134803 0.418430
Si Si3 0.531321 0.781011 0.219166
Si Si4 0.843253 0.819956 0.242706
Si Si5 0.142439 0.011017 0.890114
Si Si6 0.590931 0.302594 0.659060
Si Si7 0.687900 0.474900 0.982928
Si Si8 0.551791 0.644046 0.690237
O O1 0.717793 0.499410 0.191876
O O2 0.818352 0.433115 0.059683
O O3 0.895392 0.119684 0.139505
O O4 0.240502 0.053838 0.163250
O O5 0.678972 0.445402 0.407185
O O6 0.656504 0.182554 0.388697
O O7 0.000000 0.000000 0.500000
O O8 0.117240 0.949489 0.371448
O O9 0.711112 0.774957 0.229019
O O10 0.451580 0.804407 0.295714
O O11 0.946471 0.795531 0.172441
O O12 0.125223 0.565540 0.306119
O O13 0.605497 0.132710 0.258040
O O14 0.942466 0.202061 0.947353
O O15 0.473089 0.762233 0.929858
O O16 0.597113 0.434954 0.712583
O O17 0.500000 0.500000 0.000000
#
# Coordination Sequence:
#
# PCOD8003437 Si02
#       8
#     2   2   2   2   2   2   2   2
#     4  11  21  38  59  81 113 150 200 241 293 340
#     4  10  20  37  66  95 115 141 192 240 276 323
#     4  12  24  37  56  87 121 154 187 240 289 338
#     4  12  23  38  56  86 121 154 191 237 288 337
#     4  11  21  37  61  81 111 146 200 243 291 342
#     4  10  20  37  61  90 115 148 192 228 287 325
#     4  10  20  37  57  85 105 147 194 253 292 339
#     4  10  20  38  60  86 114 151 194 228 283 329
#
# _framework density 19.542535999999998
#
# number of rings (size 3 to 8) (size 9 to 14) (size 15 to 20)
#    0.750    0.500    1.250    7.875    0.000    0.000 
#    0.000    3.750    0.000    4.500    0.000    0.000 
#    0.000    0.000    0.000    0.000    0.000    0.000 
#
# Total GULP energy -198262.688148 kJ/mol
# GULP energy per Si atom -12391.418009 kJ/mol
# Density = 1.949806 g / cm^3
# Si number density = 19.542536 Si / 1000 Ang^3
#
#
#
# Elastic Constant Matrix: (Units=GPa)
#
#
# Indices 1 2 3 4 5 6 
#
# 1 8.4881 26.1119 59.9705 -4.7380 13.4810 -26.2416
# 2 26.1119 114.2547 38.7269 -6.1868 5.5483 -31.7682
# 3 59.9705 38.7269 93.9417 -15.7899 6.0361 -7.2420
# 4 -4.7380 -6.1868 -15.7899 37.2379 -12.4338 5.0605
# 5 13.4810 5.5483 6.0361 -12.4338 12.7294 -5.2480
# 6 -26.2416 -31.7682 -7.2420 5.0605 -5.2480 22.7508
#
#
#
# Elastic Compliance Matrix: (Units=1/GPa)
#
#
# Indices 1 2 3 4 5 6 
#
# 1 -0.013747 -0.006114 0.010379 0.008471 0.012272 -0.020144
# 2 -0.006114 0.013988 -0.001003 0.002122 0.008560 0.013663
# 3 0.010379 -0.001003 0.005673 -0.001254 -0.010224 0.010297
# 4 0.008471 0.002122 -0.001254 0.036606 0.031145 0.011377
# 5 0.012272 0.008560 -0.010224 0.031145 0.114561 0.042351
# 6 -0.020144 0.013663 0.010297 0.011377 0.042351 0.050314
#
#
# Mechanical properties :
#
#
# Convention : Reuss Voigt Hill
#
# Bulk Modulus (GPa) = 80.41061 51.81147 66.11104
# Shear Modulus (GPa) = 24.38815 20.66863 22.52839
#
# Velocity S-wave (km/s) = 3.53647 3.25564 3.39896
# Velocity P-wave (km/s) = 7.60995 6.37981 7.02187
#
# Compressibility (1/GPa) = 0.01243617
#
# Stress axis : x y z
#
# Youngs Moduli (GPa) = -72.74200 71.49036 176.28308
#
# Poissons Ratio (x) = 0.43712 -1.82964
# Poissons Ratio (y) = -0.44477 0.17684
# Poissons Ratio (z) = 0.75499 0.07172
#
# Static dielectric constant tensor:
#      x y z
#    x 3.269450 -0.265770 0.157820 
#    y -0.265770 3.932890 -0.181270 
#    z 0.157820 -0.181270 3.451890 
# 
# 
# High freq. dielectric constant tensor:
#      x y z
#    x 1.724710 -0.024800 0.006830 
#    y -0.024800 1.787390 -0.005570 
#    z 0.006830 -0.005570 1.748340 
# 
# From -- ./inp_files/587995.got.cif
#   From: 2010.06.25/outbox.cif.g09.slc.cpg/sg2_294_cif.got.tgz:587995.got - 2010.06.27 13:26:56.
