data_PCOD8003284
_publ_section_title
;
Structure prediction by ZEFSAII (Michael W. Deem and Ramdas Pophale) SiO2 
 PCOD8003284
Probable space group: P -1
;
_chemical_formula_sum "Si O2"
_cell_formula_units_Z 16
_cell_length_a 16.215851
_cell_length_b 7.983638
_cell_length_c 9.819686
_cell_angle_alpha 109.894746
_cell_angle_beta 137.109332
_cell_angle_gamma 92.316109
_cell_volume 725.443224
_symmetry_space_group_name_H-M "P -1"
_symmetry_group_IT_number 2
_symmetry_cell_setting 'triclinic'
loop_
_space_group_symop_operation_xyz
x,y,z
-x,-y,-z
loop_
_atom_site_type_symbol
_atom_site_label
_atom_site_fract_x
_atom_site_fract_y
_atom_site_fract_z
Si Si1 0.286390 0.033991 0.012947
Si Si2 0.718836 0.043881 0.713948
Si Si3 0.575947 0.590772 0.401758
Si Si4 0.884458 0.371746 0.429347
Si Si5 0.311781 0.452975 0.201108
Si Si6 0.442111 0.933522 0.721844
Si Si7 0.384808 0.678814 0.827935
Si Si8 0.064771 0.555205 0.947776
O O1 0.248040 0.213963 0.036666
O O2 0.430221 0.117683 0.133851
O O3 0.314151 0.947762 0.164891
O O4 0.167211 0.861196 0.734855
O O5 0.633293 0.116426 0.529015
O O6 0.877963 0.203995 0.933080
O O7 0.687960 0.819220 0.577260
O O8 0.428636 0.571583 0.261935
O O9 0.624263 0.490640 0.554200
O O10 0.570782 0.482105 0.222842
O O11 0.755704 0.422570 0.283347
O O12 0.000000 0.500000 0.500000
O O13 0.945318 0.421568 0.666378
O O14 0.191655 0.511996 0.057512
O O15 0.350847 0.798961 0.698323
O O16 0.495220 0.169096 0.886374
O O17 0.000000 0.500000 0.000000
#
# Coordination Sequence:
#
# PCOD8003284 Si02
#       8
#     2   2   2   2   2   2   2   2
#     4  10  21  40  64  94 122 163 209 258 320 368
#     4  11  23  36  64  93 125 160 211 261 309 378
#     4  10  21  39  61  99 126 156 201 269 329 359
#     4  11  23  43  65  89 129 174 210 254 303 372
#     4  10  22  38  65  91 128 159 204 266 315 373
#     4  10  20  36  65  93 122 162 204 262 321 371
#     4  10  21  40  64  89 129 163 205 259 318 371
#     4  12  26  44  64  91 124 175 219 247 302 382
#
# _framework density 22.055482999999999
#
# number of rings (size 3 to 8) (size 9 to 14) (size 15 to 20)
#    0.000    1.500    2.500    2.625    5.250    1.000 
#    2.250    1.875    0.000    0.000    0.000    0.000 
#    0.000    0.000    0.000    0.000    0.000    0.000 
#
# Total GULP energy -198349.927013 kJ/mol
# GULP energy per Si atom -12396.870438 kJ/mol
# Density = 2.200528 g / cm^3
# Si number density = 22.055483 Si / 1000 Ang^3
#
#
#
# Elastic Constant Matrix: (Units=GPa)
#
#
# Indices 1 2 3 4 5 6 
#
# 1 104.0402 12.7875 26.1181 19.0262 -5.6408 4.5289
# 2 12.7875 50.6438 20.1690 16.4632 0.1030 9.2891
# 3 26.1181 20.1690 132.9656 21.8906 -17.3578 4.7935
# 4 19.0262 16.4632 21.8906 34.0237 1.6600 -1.9303
# 5 -5.6408 0.1030 -17.3578 1.6600 34.5140 2.9209
# 6 4.5289 9.2891 4.7935 -1.9303 2.9209 31.4396
#
#
#
# Elastic Compliance Matrix: (Units=1/GPa)
#
#
# Indices 1 2 3 4 5 6 
#
# 1 0.011090 -0.000243 -0.000900 -0.005701 0.001796 -0.001906
# 2 -0.000243 0.025750 -0.001583 -0.011781 0.000338 -0.008086
# 3 -0.000900 -0.001583 0.009507 -0.005185 0.005027 -0.001637
# 4 -0.005701 -0.011781 -0.005185 0.042390 -0.006244 0.008275
# 5 0.001796 0.000338 0.005027 -0.006244 0.032478 -0.004526
# 6 -0.001906 -0.008086 -0.001637 0.008275 -0.004526 0.035649
#
#
# Mechanical properties :
#
#
# Convention : Reuss Voigt Hill
#
# Bulk Modulus (GPa) = 24.45270 45.08874 34.77072
# Shear Modulus (GPa) = 28.41778 35.23377 31.82578
#
# Velocity S-wave (km/s) = 3.59342 4.00122 3.80279
# Velocity P-wave (km/s) = 5.32239 6.46792 5.92292
#
# Compressibility (1/GPa) = 0.04089528
#
# Stress axis : x y z
#
# Youngs Moduli (GPa) = 90.16869 38.83551 105.19066
#
# Poissons Ratio (x) = 0.00943 0.09466
# Poissons Ratio (y) = 0.02189 0.16652
# Poissons Ratio (z) = 0.08114 0.06148
#
# Static dielectric constant tensor:
#      x y z
#    x 4.057810 0.216280 0.257710 
#    y 0.216280 3.805190 0.377170 
#    z 0.257710 0.377170 5.797710 
# 
# 
# High freq. dielectric constant tensor:
#      x y z
#    x 1.864030 0.015890 -0.021960 
#    y 0.015890 1.850080 0.028890 
#    z -0.021960 0.028890 1.876870 
# 
# From -- ./inp_files/299364.got.cif
#   From: 2010.06.25/outbox.cif.g09.slc.cpg/sg2_150_cif.got.tgz:299364.got - 2010.06.27 13:26:56.
