data_PCOD8003044
_publ_section_title
;
Structure prediction by ZEFSAII (Michael W. Deem and Ramdas Pophale) SiO2 
 PCOD8003044
Probable space group: P -1
;
_chemical_formula_sum "Si O2"
_cell_formula_units_Z 12
_cell_length_a 19.796177
_cell_length_b 10.992498
_cell_length_c 10.539550
_cell_angle_alpha 153.622809
_cell_angle_beta 33.495388
_cell_angle_gamma 149.809881
_cell_volume 493.860166
_symmetry_space_group_name_H-M "P -1"
_symmetry_group_IT_number 2
_symmetry_cell_setting 'triclinic'
loop_
_space_group_symop_operation_xyz
x,y,z
-x,-y,-z
loop_
_atom_site_type_symbol
_atom_site_label
_atom_site_fract_x
_atom_site_fract_y
_atom_site_fract_z
Si Si1 0.851048 0.693534 0.457573
Si Si2 0.716621 0.134849 0.776571
Si Si3 0.177623 0.920268 0.942702
Si Si4 0.125294 0.228917 0.784723
Si Si5 0.493566 0.023425 0.824441
Si Si6 0.448762 0.356438 0.809323
O O1 0.861114 0.416375 0.255555
O O2 0.801244 0.603501 0.307393
O O3 0.000000 0.000000 0.500000
O O4 0.760159 0.812853 0.793565
O O5 0.604707 0.976507 0.692426
O O6 0.838105 0.041428 0.492311
O O7 0.799997 0.507728 0.979698
O O8 0.641300 0.042447 0.944799
O O9 0.298286 0.042644 0.762538
O O10 0.040822 0.909433 0.084606
O O11 0.455279 0.775781 0.534636
O O12 0.563474 0.381529 0.007530
O O13 0.500000 0.500000 0.000000
#
# Coordination Sequence:
#
# PCOD8003044 Si02
#       6
#     2   2   2   2   2   2
#     4  10  20  36  61  96 138 170 210 274 330 387
#     4  11  24  43  73  94 130 175 229 287 322 382
#     4  11  23  40  62 101 140 171 219 273 333 407
#     4  11  21  38  67 100 127 171 224 276 342 379
#     4  11  26  48  65  98 132 177 236 274 321 398
#     4  12  27  45  70  95 139 185 219 265 342 411
#
# _framework density 24.298376999999999
#
# number of rings (size 3 to 8) (size 9 to 14) (size 15 to 20)
#    0.000    1.000    0.000    8.500    7.000    2.667 
#    0.000    5.000    0.000    0.000    0.000    0.000 
#    0.000    0.000    0.000    0.000    0.000    0.000 
#
# Total GULP energy -148777.899521 kJ/mol
# GULP energy per Si atom -12398.158293 kJ/mol
# Density = 2.424307 g / cm^3
# Si number density = 24.298377 Si / 1000 Ang^3
#
#
#
# Elastic Constant Matrix: (Units=GPa)
#
#
# Indices 1 2 3 4 5 6 
#
# 1 43.1419 3.6735 14.0122 11.5661 0.9537 -2.2493
# 2 3.6735 83.8785 32.1248 8.0726 -9.2780 -11.6061
# 3 14.0122 32.1248 144.3829 23.4217 -5.2998 -9.5541
# 4 11.5661 8.0726 23.4217 38.6339 1.2818 -1.4128
# 5 0.9537 -9.2780 -5.2998 1.2818 44.1927 5.6922
# 6 -2.2493 -11.6061 -9.5541 -1.4128 5.6922 20.3179
#
#
#
# Elastic Compliance Matrix: (Units=1/GPa)
#
#
# Indices 1 2 3 4 5 6 
#
# 1 0.025533 0.000249 -0.001320 -0.006795 -0.000728 0.002079
# 2 0.000249 0.014057 -0.002446 -0.001361 0.001882 0.006285
# 3 -0.001320 -0.002446 0.008417 -0.004135 0.000384 0.002019
# 4 -0.006795 -0.001361 -0.004135 0.030722 -0.001404 -0.000945
# 5 -0.000728 0.001882 0.000384 -0.001404 0.023848 -0.005603
# 6 0.002079 0.006285 0.002019 -0.000945 -0.005603 0.055492
#
#
# Mechanical properties :
#
#
# Convention : Reuss Voigt Hill
#
# Bulk Modulus (GPa) = 24.40684 41.22492 32.81588
# Shear Modulus (GPa) = 27.97043 35.40176 31.68610
#
# Velocity S-wave (km/s) = 3.39650 3.82116 3.61507
# Velocity P-wave (km/s) = 5.04461 6.03914 5.56414
#
# Compressibility (1/GPa) = 0.04097213
#
# Stress axis : x y z
#
# Youngs Moduli (GPa) = 39.16468 71.14018 118.80848
#
# Poissons Ratio (x) = -0.01768 0.15683
# Poissons Ratio (y) = -0.00973 0.29059
# Poissons Ratio (z) = 0.05170 0.17400
#
# Static dielectric constant tensor:
#      x y z
#    x 4.254770 -0.134990 0.352430 
#    y -0.134990 4.588010 -0.229250 
#    z 0.352430 -0.229250 4.703650 
# 
# 
# High freq. dielectric constant tensor:
#      x y z
#    x 1.950680 0.012940 0.003600 
#    y 0.012940 1.967560 0.006130 
#    z 0.003600 0.006130 1.981150 
# 
# From -- ./inp_files/474802.got.cif
#   From: 2010.06.25/outbox.cif.g09.slc.cpg/sg2_238_cif.got.tgz:474802.got - 2010.06.27 13:26:56.
