data_PCOD8003892
_publ_section_title
;
Structure prediction by ZEFSAII (Michael W. Deem and Ramdas Pophale) SiO2 
 PCOD8003892
Probable space group: P -1
;
_chemical_formula_sum "Si O2"
_cell_formula_units_Z 16
_cell_length_a 20.521809
_cell_length_b 8.182122
_cell_length_c 8.664642
_cell_angle_alpha 66.663644
_cell_angle_beta 49.374638
_cell_angle_gamma 102.059233
_cell_volume 752.783827
_symmetry_space_group_name_H-M "P -1"
_symmetry_group_IT_number 2
_symmetry_cell_setting 'triclinic'
loop_
_space_group_symop_operation_xyz
x,y,z
-x,-y,-z
loop_
_atom_site_type_symbol
_atom_site_label
_atom_site_fract_x
_atom_site_fract_y
_atom_site_fract_z
Si Si1 0.629623 0.617250 0.267033
Si Si2 0.252713 0.655400 0.095034
Si Si3 0.789717 0.174613 0.325530
Si Si4 0.378679 0.811554 0.550023
Si Si5 0.575431 0.336134 0.015405
Si Si6 0.377375 0.309148 0.417099
Si Si7 0.808982 0.108796 0.670238
Si Si8 0.956537 0.556606 0.684271
O O1 0.500000 0.500000 0.500000
O O2 0.631771 0.410262 0.323514
O O3 0.680165 0.747479 0.306287
O O4 0.710058 0.821225 0.938503
O O5 0.226845 0.768785 0.219874
O O6 0.139011 0.444759 0.245609
O O7 0.345880 0.859391 0.748609
O O8 0.302316 0.544013 0.138453
O O9 0.712821 0.248324 0.414607
O O10 0.827708 0.190322 0.434577
O O11 0.711053 0.904787 0.484045
O O12 0.901535 0.354766 0.977638
O O13 0.506209 0.052502 0.212090
O O14 0.498602 0.368362 0.222073
O O15 0.596271 0.454393 0.772971
O O16 0.930546 0.191953 0.510613
O O17 0.000000 0.500000 0.500000
#
# Coordination Sequence:
#
# PCOD8003892 Si02
#       8
#     2   2   2   2   2   2   2   2
#     4  12  25  38  61  94 128 165 205 253 310 368
#     4  10  20  38  62  89 119 161 205 254 307 360
#     4  10  22  41  64  93 122 163 204 255 305 368
#     4  10  22  37  60  88 128 159 207 252 309 365
#     4  10  20  37  62  86 124 167 204 252 307 362
#     4  10  23  38  60  88 129 161 206 253 311 364
#     4  11  23  39  66  90 123 164 211 250 307 367
#     4   9  19  40  68  89 117 161 208 255 305 366
#
# _framework density 21.254441
#
# number of rings (size 3 to 8) (size 9 to 14) (size 15 to 20)
#    0.000    1.750    0.000    5.250    8.750    0.500 
#    0.000    2.500    2.750    2.250    0.000    0.000 
#    0.000    0.000    0.000    0.000    0.000    0.000 
#
# Total GULP energy -198307.168395 kJ/mol
# GULP energy per Si atom -12394.198025 kJ/mol
# Density = 2.120606 g / cm^3
# Si number density = 21.254441 Si / 1000 Ang^3
#
#
#
# Elastic Constant Matrix: (Units=GPa)
#
#
# Indices 1 2 3 4 5 6 
#
# 1 152.3426 42.0570 59.7990 -7.0362 -6.2025 -1.9337
# 2 42.0570 74.3801 33.3907 -4.0812 2.4165 2.7746
# 3 59.7990 33.3907 126.0566 -7.1363 -0.7843 1.6995
# 4 -7.0362 -4.0812 -7.1363 26.9529 5.3988 9.4698
# 5 -6.2025 2.4165 -0.7843 5.3988 33.7961 0.0609
# 6 -1.9337 2.7746 1.6995 9.4698 0.0609 28.1105
#
#
#
# Elastic Compliance Matrix: (Units=1/GPa)
#
#
# Indices 1 2 3 4 5 6 
#
# 1 0.008961 -0.003692 -0.003268 0.000160 0.001805 0.001121
# 2 -0.003692 0.016994 -0.002602 0.002274 -0.002312 -0.002535
# 3 -0.003268 -0.002602 0.010301 0.002027 -0.000496 -0.001272
# 4 0.000160 0.002274 0.002027 0.044900 -0.007231 -0.015446
# 5 0.001805 -0.002312 -0.000496 -0.007231 0.031224 0.002751
# 6 0.001121 -0.002535 -0.001272 -0.015446 0.002751 0.041176
#
#
# Mechanical properties :
#
#
# Convention : Reuss Voigt Hill
#
# Bulk Modulus (GPa) = 58.36366 69.25253 63.80809
# Shear Modulus (GPa) = 28.02838 32.27406 30.15122
#
# Velocity S-wave (km/s) = 3.63534 3.90097 3.77050
# Velocity P-wave (km/s) = 6.71863 7.27623 7.00298
#
# Compressibility (1/GPa) = 0.01713395
#
# Stress axis : x y z
#
# Youngs Moduli (GPa) = 111.59264 58.84343 97.07585
#
# Poissons Ratio (x) = 0.21722 0.31724
# Poissons Ratio (y) = 0.41195 0.25257
# Poissons Ratio (z) = 0.36469 0.15310
#
# Static dielectric constant tensor:
#      x y z
#    x 4.337800 0.044390 -0.201900 
#    y 0.044390 3.542960 0.111940 
#    z -0.201900 0.111940 4.115240 
# 
# 
# High freq. dielectric constant tensor:
#      x y z
#    x 1.845260 0.007690 0.005690 
#    y 0.007690 1.805360 0.007570 
#    z 0.005690 0.007570 1.835190 
# 
# From -- ./inp_files/202181.got.cif
#   From: 2010.06.25/outbox.cif.g09.slc.cpg/sg2_102_cif.got.tgz:202181.got - 2010.06.27 13:26:56.
