data_PCOD8003881
_publ_section_title
;
Structure prediction by ZEFSAII (Michael W. Deem and Ramdas Pophale) SiO2 
 PCOD8003881
Probable space group: P -1
;
_chemical_formula_sum "Si O2"
_cell_formula_units_Z 14
_cell_length_a 11.301301
_cell_length_b 13.868761
_cell_length_c 12.684505
_cell_angle_alpha 45.301685
_cell_angle_beta 124.544472
_cell_angle_gamma 149.021238
_cell_volume 723.866385
_symmetry_space_group_name_H-M "P -1"
_symmetry_group_IT_number 2
_symmetry_cell_setting 'triclinic'
loop_
_space_group_symop_operation_xyz
x,y,z
-x,-y,-z
loop_
_atom_site_type_symbol
_atom_site_label
_atom_site_fract_x
_atom_site_fract_y
_atom_site_fract_z
Si Si1 0.009385 0.217385 0.692788
Si Si2 0.851397 0.294666 0.157636
Si Si3 0.807817 0.940198 0.092568
Si Si4 0.098230 0.483680 0.345491
Si Si5 0.432124 0.083292 0.837097
Si Si6 0.461239 0.189639 0.140782
Si Si7 0.851009 0.581626 0.175210
O O1 0.051565 0.090917 0.787096
O O2 0.071985 0.347739 0.521917
O O3 0.174838 0.386887 0.742116
O O4 0.738562 0.038734 0.720879
O O5 0.622193 0.201055 0.154205
O O6 0.004609 0.358336 0.283522
O O7 0.781514 0.110474 0.198013
O O8 0.000000 0.500000 0.000000
O O9 0.634134 0.843825 0.174294
O O10 0.666613 0.813785 0.009663
O O11 0.983250 0.196092 0.977018
O O12 0.364980 0.717217 0.289393
O O13 0.956785 0.510352 0.288242
O O14 0.500000 0.000000 0.000000
O O15 0.604157 0.391930 0.136989
#
# Coordination Sequence:
#
# PCOD8003881 Si02
#       7
#     2   2   2   2   2   2   2
#     4  11  25  38  53  88 129 151 183 237 300 348
#     4  11  20  36  63  92 108 144 206 247 275 331
#     4  11  22  38  59  88 116 152 196 238 284 347
#     4  11  23  38  60  89 116 149 195 243 287 342
#     4  12  19  38  64  83 111 149 197 243 285 332
#     4  10  20  37  62  85 116 154 195 240 281 337
#     4  10  20  38  64  83 110 157 200 230 279 346
#
# _framework density 19.340585999999998
#
# number of rings (size 3 to 8) (size 9 to 14) (size 15 to 20)
#    0.000    1.143    4.286    3.857    0.000    6.286 
#    0.000    0.714    0.000    0.000    0.000    0.000 
#    0.000    0.000    0.000    0.000    0.000    0.000 
#
# Total GULP energy -173640.741087 kJ/mol
# GULP energy per Si atom -12402.910078 kJ/mol
# Density = 1.929657 g / cm^3
# Si number density = 19.340586 Si / 1000 Ang^3
#
#
#
# Elastic Constant Matrix: (Units=GPa)
#
#
# Indices 1 2 3 4 5 6 
#
# 1 71.6024 27.3595 36.0218 4.0933 -10.7572 -0.9245
# 2 27.3595 139.6636 41.9611 3.2160 -11.7121 -9.6734
# 3 36.0218 41.9611 114.0306 -2.6230 -8.3680 6.0846
# 4 4.0933 3.2160 -2.6230 14.4028 2.1079 -11.8590
# 5 -10.7572 -11.7121 -8.3680 2.1079 29.0617 -3.7490
# 6 -0.9245 -9.6734 6.0846 -11.8590 -3.7490 30.8347
#
#
#
# Elastic Compliance Matrix: (Units=1/GPa)
#
#
# Indices 1 2 3 4 5 6 
#
# 1 0.018212 -0.001583 -0.004904 -0.007482 0.005073 -0.001243
# 2 -0.001583 0.008753 -0.002718 0.000796 0.002599 0.003857
# 3 -0.004904 -0.002718 0.011494 0.002058 -0.000071 -0.002485
# 4 -0.007482 0.000796 0.002058 0.104844 -0.004377 0.039410
# 5 0.005073 0.002599 -0.000071 -0.004377 0.038140 0.003935
# 6 -0.001243 0.003857 -0.002485 0.039410 0.003935 0.049729
#
#
# Mechanical properties :
#
#
# Convention : Reuss Voigt Hill
#
# Bulk Modulus (GPa) = 49.87627 59.55347 54.71487
# Shear Modulus (GPa) = 19.51112 29.52348 24.51730
#
# Velocity S-wave (km/s) = 3.17963 3.91129 3.56428
# Velocity P-wave (km/s) = 6.27092 7.15936 6.72982
#
# Compressibility (1/GPa) = 0.02004962
#
# Stress axis : x y z
#
# Youngs Moduli (GPa) = 54.90953 114.24054 87.00467
#
# Poissons Ratio (x) = 0.18079 0.42668
# Poissons Ratio (y) = 0.08690 0.23647
# Poissons Ratio (z) = 0.26928 0.31050
#
# Static dielectric constant tensor:
#      x y z
#    x 3.537050 -0.109930 -0.218280 
#    y -0.109930 3.999970 0.096340 
#    z -0.218280 0.096340 3.316010 
# 
# 
# High freq. dielectric constant tensor:
#      x y z
#    x 1.751090 -0.005620 -0.018810 
#    y -0.005620 1.766120 0.000830 
#    z -0.018810 0.000830 1.731690 
# 
# From -- ./inp_files/188818.got.cif
#   From: 2010.06.25/outbox.cif.g09.slc.cpg/sg2_95_cif.got.tgz:188818.got - 2010.06.27 13:26:56.
