data_PCOD8003562
_publ_section_title
;
Structure prediction by ZEFSAII (Michael W. Deem and Ramdas Pophale) SiO2 
 PCOD8003562
Probable space group: P -1
;
_chemical_formula_sum "Si O2"
_cell_formula_units_Z 16
_cell_length_a 18.322680
_cell_length_b 21.836010
_cell_length_c 12.021611
_cell_angle_alpha 31.884577
_cell_angle_beta 29.240012
_cell_angle_gamma 19.541205
_cell_volume 775.209742
_symmetry_space_group_name_H-M "P -1"
_symmetry_group_IT_number 2
_symmetry_cell_setting 'triclinic'
loop_
_space_group_symop_operation_xyz
x,y,z
-x,-y,-z
loop_
_atom_site_type_symbol
_atom_site_label
_atom_site_fract_x
_atom_site_fract_y
_atom_site_fract_z
Si Si1 0.193711 0.974421 0.917988
Si Si2 0.940252 0.430245 0.037601
Si Si3 0.383776 0.455286 0.272950
Si Si4 0.723416 0.608031 0.816093
Si Si5 0.789592 0.039383 0.335186
Si Si6 0.661305 0.631344 0.315540
Si Si7 0.039319 0.303435 0.691065
Si Si8 0.292215 0.034950 0.226923
O O1 0.441379 0.757893 0.945678
O O2 0.157062 0.037605 0.741066
O O3 0.176223 0.097216 0.832522
O O4 0.983685 0.012163 0.166431
O O5 0.797779 0.554545 0.927143
O O6 0.143340 0.400601 0.841841
O O7 0.743522 0.538536 0.229468
O O8 0.063754 0.228435 0.168349
O O9 0.530507 0.256039 0.341777
O O10 0.371344 0.459301 0.418227
O O11 0.116559 0.602506 0.358132
O O12 0.500000 0.500000 0.000000
O O13 0.771791 0.706636 0.549882
O O14 0.869029 0.421999 0.841846
O O15 0.782990 0.936145 0.588219
O O16 0.398921 0.852154 0.313525
O O17 0.500000 0.000000 0.000000
#
# Coordination Sequence:
#
# PCOD8003562 Si02
#       8
#     2   2   2   2   2   2   2   2
#     4  11  23  39  61  93 122 161 194 254 311 357
#     4  10  20  37  59  85 117 155 198 246 290 357
#     4  11  19  37  64  91 121 153 198 258 306 349
#     4  11  24  40  59  89 130 161 201 243 305 372
#     4  10  22  38  62  93 125 147 209 257 296 362
#     4   9  20  35  59  90 113 148 203 249 294 344
#     4  11  23  38  60  91 123 162 199 247 309 362
#     4   9  20  35  57  86 114 151 193 247 295 338
#
# _framework density 20.639576000000002
#
# number of rings (size 3 to 8) (size 9 to 14) (size 15 to 20)
#    0.000    1.750    3.750    0.375    1.750    2.000 
#    0.000    0.625    0.000    2.250    0.000    0.000 
#    0.000    0.000    0.000    0.000    0.000    0.000 
#
# Total GULP energy -198369.077732 kJ/mol
# GULP energy per Si atom -12398.067358 kJ/mol
# Density = 2.059260 g / cm^3
# Si number density = 20.639576 Si / 1000 Ang^3
#
#
#
# Elastic Constant Matrix: (Units=GPa)
#
#
# Indices 1 2 3 4 5 6 
#
# 1 68.2624 35.0579 23.5382 -0.8775 13.4071 12.2097
# 2 35.0579 96.9860 26.9082 4.6770 12.7460 7.4488
# 3 23.5382 26.9082 101.1017 3.1903 21.5367 10.5962
# 4 -0.8775 4.6770 3.1903 24.1583 2.8244 3.5582
# 5 13.4071 12.7460 21.5367 2.8244 25.4087 2.3262
# 6 12.2097 7.4488 10.5962 3.5582 2.3262 33.8848
#
#
#
# Elastic Compliance Matrix: (Units=1/GPa)
#
#
# Indices 1 2 3 4 5 6 
#
# 1 0.020492 -0.005919 -0.001313 0.003663 -0.006625 -0.005602
# 2 -0.005919 0.013268 -0.001699 -0.002362 -0.001841 0.000122
# 3 -0.001313 -0.001699 0.012859 0.000026 -0.009124 -0.002551
# 4 0.003663 -0.002362 0.000026 0.043317 -0.005127 -0.005005
# 5 -0.006625 -0.001841 -0.009124 -0.005127 0.051839 0.002625
# 6 -0.005602 0.000122 -0.002551 -0.005005 0.002625 0.032647
#
#
# Mechanical properties :
#
#
# Convention : Reuss Voigt Hill
#
# Bulk Modulus (GPa) = 34.77367 48.59541 41.68454
# Shear Modulus (GPa) = 24.76841 28.74675 26.75758
#
# Velocity S-wave (km/s) = 3.46792 3.73607 3.60449
# Velocity P-wave (km/s) = 5.73759 6.49668 6.12890
#
# Compressibility (1/GPa) = 0.02875739
#
# Stress axis : x y z
#
# Youngs Moduli (GPa) = 48.79910 75.36785 77.76649
#
# Poissons Ratio (x) = 0.44609 0.10209
# Poissons Ratio (y) = 0.28884 0.13216
# Poissons Ratio (z) = 0.06406 0.12808
#
# Static dielectric constant tensor:
#      x y z
#    x 3.520240 0.092060 0.129850 
#    y 0.092060 4.105720 -0.005590 
#    z 0.129850 -0.005590 3.775670 
# 
# 
# High freq. dielectric constant tensor:
#      x y z
#    x 1.769740 0.006000 0.014900 
#    y 0.006000 1.825470 0.005280 
#    z 0.014900 0.005280 1.802360 
# 
# From -- ./inp_files/426453.got.cif
#   From: 2010.06.25/outbox.cif.g09.slc.cpg/sg2_214_cif.got.tgz:426453.got - 2010.06.27 13:26:56.
