data_PCOD8003928
_publ_section_title
;
Structure prediction by ZEFSAII (Michael W. Deem and Ramdas Pophale) SiO2 
 PCOD8003928
Probable space group: P -1
;
_chemical_formula_sum "Si O2"
_cell_formula_units_Z 16
_cell_length_a 9.714871
_cell_length_b 11.498581
_cell_length_c 10.162740
_cell_angle_alpha 80.885206
_cell_angle_beta 137.403862
_cell_angle_gamma 95.961938
_cell_volume 758.527907
_symmetry_space_group_name_H-M "P -1"
_symmetry_group_IT_number 2
_symmetry_cell_setting 'triclinic'
loop_
_space_group_symop_operation_xyz
x,y,z
-x,-y,-z
loop_
_atom_site_type_symbol
_atom_site_label
_atom_site_fract_x
_atom_site_fract_y
_atom_site_fract_z
Si Si1 0.606611 0.242461 0.863470
Si Si2 0.343003 0.259413 0.924459
Si Si3 0.967230 0.431018 0.622002
Si Si4 0.502938 0.372254 0.269150
Si Si5 0.861565 0.453753 0.027067
Si Si6 0.509704 0.802783 0.489636
Si Si7 0.767640 0.984265 0.002452
Si Si8 0.215286 0.997356 0.293143
O O1 0.442522 0.282968 0.849130
O O2 0.817982 0.313891 0.013381
O O3 0.515058 0.269483 0.649742
O O4 0.646868 0.103481 0.930444
O O5 0.333915 0.120828 0.971029
O O6 0.117014 0.317095 0.758522
O O7 0.492538 0.316202 0.126950
O O8 0.733341 0.394287 0.471566
O O9 0.000000 0.500000 0.500000
O O10 0.019832 0.519372 0.760755
O O11 0.365358 0.489878 0.150779
O O12 0.405002 0.285077 0.323238
O O13 0.000000 0.500000 0.000000
O O14 0.655121 0.913011 0.544695
O O15 0.296861 0.862169 0.378974
O O16 0.776946 0.954640 0.859503
O O17 0.997944 0.999145 0.208790
#
# Coordination Sequence:
#
# PCOD8003928 Si02
#       8
#     2   2   2   2   2   2   2   2
#     4  11  24  40  60  92 134 162 203 263 316 367
#     4  11  23  43  64  94 128 167 211 253 312 379
#     4  11  24  43  68  90 123 171 211 257 312 370
#     4  11  23  42  69  89 122 167 214 255 311 370
#     4  11  26  43  65  96 127 162 211 263 315 368
#     4  10  20  37  62  90 121 160 207 263 303 365
#     4  10  20  38  64  88 127 166 203 256 316 368
#     4   9  19  36  61  91 120 161 213 250 305 373
#
# _framework density 21.093488000000001
#
# number of rings (size 3 to 8) (size 9 to 14) (size 15 to 20)
#    0.000    1.500    1.250    3.375    1.750    7.000 
#    2.250    0.625    0.000    0.000    0.000    0.000 
#    0.000    0.000    0.000    0.000    0.000    0.000 
#
# Total GULP energy -198426.647908 kJ/mol
# GULP energy per Si atom -12401.665494 kJ/mol
# Density = 2.104548 g / cm^3
# Si number density = 21.093488 Si / 1000 Ang^3
#
#
#
# Elastic Constant Matrix: (Units=GPa)
#
#
# Indices 1 2 3 4 5 6 
#
# 1 80.1876 23.8692 34.7128 23.2472 -2.8028 3.2343
# 2 23.8692 95.8976 39.4704 14.6530 -7.5087 10.0404
# 3 34.7128 39.4704 120.2182 18.5342 1.3288 -7.8711
# 4 23.2472 14.6530 18.5342 36.2178 1.3153 -4.9508
# 5 -2.8028 -7.5087 1.3288 1.3153 40.5363 0.5261
# 6 3.2343 10.0404 -7.8711 -4.9508 0.5261 26.4905
#
#
#
# Elastic Compliance Matrix: (Units=1/GPa)
#
#
# Indices 1 2 3 4 5 6 
#
# 1 0.017291 -0.000731 -0.003589 -0.009670 0.001553 -0.004739
# 2 -0.000731 0.013982 -0.004255 -0.004113 0.002907 -0.007301
# 3 -0.003589 -0.004255 0.011260 -0.000968 -0.001442 0.005245
# 4 -0.009670 -0.004113 -0.000968 0.037374 -0.002735 0.009491
# 5 0.001553 0.002907 -0.001442 -0.002735 0.025487 -0.002737
# 6 -0.004739 -0.007301 0.005245 0.009491 -0.002737 0.044482
#
#
# Mechanical properties :
#
#
# Convention : Reuss Voigt Hill
#
# Bulk Modulus (GPa) = 39.39891 54.71204 47.05548
# Shear Modulus (GPa) = 28.49207 33.86564 31.17886
#
# Velocity S-wave (km/s) = 3.67924 4.01122 3.84881
# Velocity P-wave (km/s) = 6.06365 6.88820 6.48904
#
# Compressibility (1/GPa) = 0.02538141
#
# Stress axis : x y z
#
# Youngs Moduli (GPa) = 57.83329 71.52152 88.80799
#
# Poissons Ratio (x) = 0.05230 0.31875
# Poissons Ratio (y) = 0.04229 0.37791
# Poissons Ratio (z) = 0.20758 0.30435
#
# Static dielectric constant tensor:
#      x y z
#    x 3.632280 0.013500 0.067970 
#    y 0.013500 3.782850 0.007720 
#    z 0.067970 0.007720 3.920950 
# 
# 
# High freq. dielectric constant tensor:
#      x y z
#    x 1.815210 0.005140 0.002590 
#    y 0.005140 1.834720 0.003880 
#    z 0.002590 0.003880 1.832250 
# 
# From -- ./inp_files/188037.got.cif
#   From: 2010.06.25/outbox.cif.g09.slc.cpg/sg2_95_cif.got.tgz:188037.got - 2010.06.27 13:26:56.
