data_PCOD8003452
_publ_section_title
;
Structure prediction by ZEFSAII (Michael W. Deem and Ramdas Pophale) SiO2 
 PCOD8003452
Probable space group: P -1
;
_chemical_formula_sum "Si O2"
_cell_formula_units_Z 16
_cell_length_a 23.009113
_cell_length_b 19.278396
_cell_length_c 9.733795
_cell_angle_alpha 40.976769
_cell_angle_beta 138.898154
_cell_angle_gamma 164.049534
_cell_volume 768.869519
_symmetry_space_group_name_H-M "P -1"
_symmetry_group_IT_number 2
_symmetry_cell_setting 'triclinic'
loop_
_space_group_symop_operation_xyz
x,y,z
-x,-y,-z
loop_
_atom_site_type_symbol
_atom_site_label
_atom_site_fract_x
_atom_site_fract_y
_atom_site_fract_z
Si Si1 0.527809 0.086136 0.774111
Si Si2 0.249680 0.937913 0.003711
Si Si3 0.952857 0.178093 0.933227
Si Si4 0.663012 0.256215 0.291761
Si Si5 0.171873 0.215005 0.369507
Si Si6 0.643150 0.783892 0.444849
Si Si7 0.732921 0.001077 0.541604
Si Si8 0.124099 0.578280 0.306085
O O1 0.771769 0.341000 0.775146
O O2 0.374764 0.867697 0.713078
O O3 0.479273 0.158310 0.588599
O O4 0.500000 0.000000 0.000000
O O5 0.173868 0.942232 0.971207
O O6 0.078666 0.655275 0.105430
O O7 0.481134 0.146146 0.147137
O O8 0.276107 0.024894 0.776716
O O9 0.782580 0.995177 0.780101
O O10 0.114273 0.448865 0.792679
O O11 0.074903 0.199691 0.121892
O O12 0.696077 0.238118 0.527175
O O13 0.389661 0.491508 0.414896
O O14 0.221453 0.170067 0.427910
O O15 0.000000 0.000000 0.500000
O O16 0.695467 0.864195 0.575755
O O17 0.916256 0.283045 0.400532
#
# Coordination Sequence:
#
# PCOD8003452 Si02
#       8
#     2   2   2   2   2   2   2   2
#     4  11  22  35  57  89 134 169 204 244 294 355
#     4  11  19  36  64  92 121 170 205 242 295 374
#     4  11  22  38  69  89 122 163 212 253 310 365
#     4  10  20  37  57  90 128 169 206 241 293 367
#     4  11  24  47  68  90 112 163 213 263 316 375
#     4  11  25  42  66  90 124 153 211 262 313 366
#     4  11  24  41  59 100 129 161 202 256 305 366
#     4  10  22  37  59  89 134 169 200 238 297 369
#
# _framework density 20.809771999999999
#
# number of rings (size 3 to 8) (size 9 to 14) (size 15 to 20)
#    0.000    1.250    2.500    5.250    0.000    6.500 
#    0.000    0.625    0.000    0.000    0.000    0.000 
#    0.000    0.000    0.000    0.000    0.000    0.000 
#
# Total GULP energy -198428.011425 kJ/mol
# GULP energy per Si atom -12401.750714 kJ/mol
# Density = 2.076241 g / cm^3
# Si number density = 20.809772 Si / 1000 Ang^3
#
#
#
# Elastic Constant Matrix: (Units=GPa)
#
#
# Indices 1 2 3 4 5 6 
#
# 1 134.5310 35.8690 49.7668 7.9441 7.2644 -0.8908
# 2 35.8690 42.8868 15.3945 0.4308 3.4341 -5.7331
# 3 49.7668 15.3945 86.3323 5.4576 2.8771 -0.1345
# 4 7.9441 0.4308 5.4576 24.4459 5.4533 -0.0622
# 5 7.2644 3.4341 2.8771 5.4533 37.9883 -2.4286
# 6 -0.8908 -5.7331 -0.1345 -0.0622 -2.4286 30.9118
#
#
#
# Elastic Compliance Matrix: (Units=1/GPa)
#
#
# Indices 1 2 3 4 5 6 
#
# 1 0.011618 -0.007957 -0.005106 -0.002306 -0.000864 -0.001236
# 2 -0.007957 0.031163 -0.001083 0.002567 -0.001233 0.005454
# 3 -0.005106 -0.001083 0.014819 -0.001670 0.000174 -0.000273
# 4 -0.002306 0.002567 -0.001670 0.043295 -0.005878 0.000028
# 5 -0.000864 -0.001233 0.000174 -0.005878 0.027553 0.001900
# 6 -0.001236 0.005454 -0.000273 0.000028 0.001900 0.033474
#
#
# Mechanical properties :
#
#
# Convention : Reuss Voigt Hill
#
# Bulk Modulus (GPa) = 34.11960 51.75676 42.93818
# Shear Modulus (GPa) = 25.00221 29.51719 27.25970
#
# Velocity S-wave (km/s) = 3.46998 3.77029 3.62325
# Velocity P-wave (km/s) = 5.69964 6.62411 6.17919
#
# Compressibility (1/GPa) = 0.02930867
#
# Stress axis : x y z
#
# Youngs Moduli (GPa) = 86.07181 32.08945 67.48173
#
# Poissons Ratio (x) = 0.25534 0.34455
# Poissons Ratio (y) = 0.68488 0.07306
# Poissons Ratio (z) = 0.43947 0.03474
#
# Static dielectric constant tensor:
#      x y z
#    x 3.842900 0.155690 -0.056930 
#    y 0.155690 3.708540 0.008140 
#    z -0.056930 0.008140 3.901770 
# 
# 
# High freq. dielectric constant tensor:
#      x y z
#    x 1.821060 0.013810 -0.003840 
#    y 0.013810 1.808740 0.002180 
#    z -0.003840 0.002180 1.819280 
# 
# From -- ./inp_files/214231.got.cif
#   From: 2010.06.25/outbox.cif.g09.slc.cpg/sg2_108_cif.got.tgz:214231.got - 2010.06.27 13:26:56.
