data_PCOD8003857
_publ_section_title
;
Structure prediction by ZEFSAII (Michael W. Deem and Ramdas Pophale) SiO2 
 PCOD8003857
Probable space group: P -1
;
_chemical_formula_sum "Si O2"
_cell_formula_units_Z 16
_cell_length_a 11.855259
_cell_length_b 8.129644
_cell_length_c 18.736020
_cell_angle_alpha 77.311627
_cell_angle_beta 45.570815
_cell_angle_gamma 113.942104
_cell_volume 749.415543
_symmetry_space_group_name_H-M "P -1"
_symmetry_group_IT_number 2
_symmetry_cell_setting 'triclinic'
loop_
_space_group_symop_operation_xyz
x,y,z
-x,-y,-z
loop_
_atom_site_type_symbol
_atom_site_label
_atom_site_fract_x
_atom_site_fract_y
_atom_site_fract_z
Si Si1 0.618202 0.578386 0.516587
Si Si2 0.266264 0.137873 0.947175
Si Si3 0.286693 0.427881 0.795666
Si Si4 0.130739 0.205949 0.253413
Si Si5 0.690557 0.533511 0.996941
Si Si6 0.839745 0.528578 0.659398
Si Si7 0.299866 0.722443 0.866636
Si Si8 0.267794 0.634057 0.428768
O O1 0.500000 0.500000 0.500000
O O2 0.460899 0.576250 0.634152
O O3 0.591231 0.362199 0.575560
O O4 0.922970 0.887369 0.353754
O O5 0.327826 0.285956 0.831625
O O6 0.179160 0.203164 0.038620
O O7 0.523056 0.246519 0.847016
O O8 0.019546 0.803225 0.071254
O O9 0.405390 0.676383 0.767956
O O10 0.385275 0.314058 0.145637
O O11 0.042118 0.230503 0.361902
O O12 0.171691 0.363662 0.151581
O O13 0.707224 0.365345 0.042967
O O14 0.855043 0.582486 0.562073
O O15 0.023234 0.519749 0.587582
O O16 0.503574 0.052706 0.738566
O O17 0.000000 0.500000 0.000000
#
# Coordination Sequence:
#
# PCOD8003857 Si02
#       8
#     2   2   2   2   2   2   2   2
#     4  12  26  42  67  90 131 168 208 264 311 385
#     4   9  17  35  67  90 125 160 211 258 299 369
#     4  10  20  37  61  94 120 171 211 243 311 377
#     4  10  22  42  66  94 123 172 211 252 317 370
#     4   9  21  39  66  94 125 163 217 258 304 381
#     4  10  21  41  67  91 131 161 205 272 305 376
#     4  11  24  39  65  94 131 167 205 266 314 369
#     4  11  25  41  62  99 125 165 213 258 322 366
#
# _framework density 21.349972999999999
#
# number of rings (size 3 to 8) (size 9 to 14) (size 15 to 20)
#    0.000    1.750    1.250    2.250    8.750    0.500 
#    2.250    1.875    0.000    0.000    0.000    0.000 
#    0.000    0.000    0.000    0.000    0.000    0.000 
#
# Total GULP energy -198283.467518 kJ/mol
# GULP energy per Si atom -12392.716720 kJ/mol
# Density = 2.130138 g / cm^3
# Si number density = 21.349973 Si / 1000 Ang^3
#
#
#
# Elastic Constant Matrix: (Units=GPa)
#
#
# Indices 1 2 3 4 5 6 
#
# 1 130.0326 36.0204 39.9279 -3.5577 15.1861 4.5815
# 2 36.0204 91.4818 25.9205 -4.0540 14.7631 12.8717
# 3 39.9279 25.9205 70.1205 5.5102 2.7470 -1.9686
# 4 -3.5577 -4.0540 5.5102 32.4320 1.5259 -1.9578
# 5 15.1861 14.7631 2.7470 1.5259 27.5144 0.4268
# 6 4.5815 12.8717 -1.9686 -1.9578 0.4268 29.1055
#
#
#
# Elastic Compliance Matrix: (Units=1/GPa)
#
#
# Indices 1 2 3 4 5 6 
#
# 1 0.010385 -0.001628 -0.005324 0.001983 -0.004420 -0.001077
# 2 -0.001628 0.015010 -0.004730 0.002429 -0.006718 -0.006440
# 3 -0.005324 -0.004730 0.019351 -0.004404 0.003729 0.003888
# 4 0.001983 0.002429 -0.004404 0.032313 -0.003759 0.000545
# 5 -0.004420 -0.006718 0.003729 -0.003759 0.042178 0.003048
# 6 -0.001077 -0.006440 0.003888 0.000545 0.003048 0.037630
#
#
# Mechanical properties :
#
#
# Convention : Reuss Voigt Hill
#
# Bulk Modulus (GPa) = 46.77087 55.04137 50.90612
# Shear Modulus (GPa) = 26.68691 30.46144 28.57418
#
# Velocity S-wave (km/s) = 3.53933 3.78136 3.66234
# Velocity P-wave (km/s) = 6.21746 6.70085 6.46367
#
# Compressibility (1/GPa) = 0.02138083
#
# Stress axis : x y z
#
# Youngs Moduli (GPa) = 96.29693 66.62150 51.67764
#
# Poissons Ratio (x) = 0.10843 0.27515
# Poissons Ratio (y) = 0.15673 0.24445
# Poissons Ratio (z) = 0.51273 0.31514
#
# Static dielectric constant tensor:
#      x y z
#    x 3.811890 0.265030 -0.122300 
#    y 0.265030 4.079120 0.156900 
#    z -0.122300 0.156900 3.835710 
# 
# 
# High freq. dielectric constant tensor:
#      x y z
#    x 1.823840 0.020180 -0.021770 
#    y 0.020180 1.836910 0.009750 
#    z -0.021770 0.009750 1.835190 
# 
# From -- ./inp_files/565917.got.cif
#   From: 2010.06.25/outbox.cif.g09.slc.cpg/sg2_283_cif.got.tgz:565917.got - 2010.06.27 13:26:56.
