data_PCOD8003209
_publ_section_title
;
Structure prediction by ZEFSAII (Michael W. Deem and Ramdas Pophale) SiO2 
 PCOD8003209
Probable space group: P -1
;
_chemical_formula_sum "Si O2"
_cell_formula_units_Z 16
_cell_length_a 5.901850
_cell_length_b 8.647782
_cell_length_c 20.574890
_cell_angle_alpha 59.949616
_cell_angle_beta 59.915659
_cell_angle_gamma 71.189080
_cell_volume 782.919891
_symmetry_space_group_name_H-M "P -1"
_symmetry_group_IT_number 2
_symmetry_cell_setting 'triclinic'
loop_
_space_group_symop_operation_xyz
x,y,z
-x,-y,-z
loop_
_atom_site_type_symbol
_atom_site_label
_atom_site_fract_x
_atom_site_fract_y
_atom_site_fract_z
Si Si1 0.957533 0.130346 0.721015
Si Si2 0.711432 0.093723 0.997033
Si Si3 0.454531 0.956029 0.833190
Si Si4 0.419819 0.852730 0.722654
Si Si5 0.981705 0.729092 0.181113
Si Si6 0.708013 0.389173 0.318485
Si Si7 0.037949 0.164163 0.412824
Si Si8 0.857591 0.497141 0.588917
O O1 0.894337 0.184286 0.792743
O O2 0.744665 0.995370 0.761882
O O3 0.959053 0.305823 0.641692
O O4 0.240714 0.027899 0.688358
O O5 0.556065 0.149565 0.074394
O O6 0.796946 0.265098 0.908419
O O7 0.500000 0.000000 0.000000
O O8 0.000000 0.000000 0.000000
O O9 0.286168 0.149321 0.824101
O O10 0.368378 0.831242 0.812382
O O11 0.359433 0.673101 0.731362
O O12 0.711961 0.894895 0.654720
O O13 0.929747 0.525432 0.247656
O O14 0.802432 0.214450 0.385045
O O15 0.459416 0.488777 0.371238
O O16 0.058667 0.341976 0.413726
O O17 0.000000 0.000000 0.500000
O O18 0.000000 0.500000 0.500000
#
# Coordination Sequence:
#
# PCOD8003209 Si02
#       8
#     2   2   2   2   2   2   2   2
#     4  11  20  39  64  91 124 162 215 265 319 385
#     4  10  20  36  64 104 137 168 217 283 335 397
#     4  10  20  38  63  96 127 164 216 262 329 386
#     4  10  25  39  63  87 127 173 214 258 328 395
#     4  10  20  37  64  95 124 170 211 269 324 392
#     4  11  23  44  61  89 130 173 210 262 334 394
#     4  11  26  43  60  87 125 171 213 262 328 394
#     4  11  26  38  64  96 122 160 216 276 323 383
#
# _framework density 20.436315
#
# number of rings (size 3 to 8) (size 9 to 14) (size 15 to 20)
#    0.000    1.500    3.750    0.750    5.250    1.500 
#    0.000    0.625    0.000    3.000    0.000    0.000 
#    0.000    0.000    0.000    0.000    0.000    0.000 
#
# Total GULP energy -198217.123003 kJ/mol
# GULP energy per Si atom -12388.570188 kJ/mol
# Density = 2.038980 g / cm^3
# Si number density = 20.436315 Si / 1000 Ang^3
#
#
#
# Elastic Constant Matrix: (Units=GPa)
#
#
# Indices 1 2 3 4 5 6 
#
# 1 94.5141 30.6173 38.8992 6.5453 3.4488 -1.5690
# 2 30.6173 74.9252 57.7645 15.0393 2.0486 -1.4332
# 3 38.8992 57.7645 152.6613 8.7812 10.4266 1.6439
# 4 6.5453 15.0393 8.7812 29.0838 4.5487 -0.1222
# 5 3.4488 2.0486 10.4266 4.5487 26.1983 -2.6587
# 6 -1.5690 -1.4332 1.6439 -0.1222 -2.6587 27.8616
#
#
#
# Elastic Compliance Matrix: (Units=1/GPa)
#
#
# Indices 1 2 3 4 5 6 
#
# 1 0.012547 -0.003692 -0.001751 -0.000297 -0.000557 0.000566
# 2 -0.003692 0.022109 -0.007154 -0.008955 0.003325 0.001629
# 3 -0.001751 -0.007154 0.009866 0.001667 -0.003566 -0.001382
# 4 -0.000297 -0.008955 0.001667 0.039655 -0.006917 -0.001062
# 5 -0.000557 0.003325 -0.003566 -0.006917 0.041034 0.004235
# 6 0.000566 0.001629 -0.001382 -0.001062 0.004235 0.036488
#
#
# Mechanical properties :
#
#
# Convention : Reuss Voigt Hill
#
# Bulk Modulus (GPa) = 51.73899 64.07362 57.90631
# Shear Modulus (GPa) = 25.86164 29.61672 27.73918
#
# Velocity S-wave (km/s) = 3.56121 3.81099 3.68822
# Velocity P-wave (km/s) = 6.50244 7.12641 6.82157
#
# Compressibility (1/GPa) = 0.01932778
#
# Stress axis : x y z
#
# Youngs Moduli (GPa) = 79.69822 45.23119 101.35409
#
# Poissons Ratio (x) = 0.16697 0.17750
# Poissons Ratio (y) = 0.29421 0.72513
# Poissons Ratio (z) = 0.13958 0.32360
#
# Static dielectric constant tensor:
#      x y z
#    x 4.129570 -0.035500 0.141630 
#    y -0.035500 3.515750 0.140450 
#    z 0.141630 0.140450 3.940700 
# 
# 
# High freq. dielectric constant tensor:
#      x y z
#    x 1.813610 0.002170 0.005200 
#    y 0.002170 1.774150 0.014640 
#    z 0.005200 0.014640 1.805350 
# 
# From -- ./inp_files/37537.got.cif
#   From: 2010.06.25/outbox.cif.g09.slc.cpg/sg2_19_cif.got.tgz:37537.got - 2010.06.27 13:26:56.
