data_PCOD8003167
_publ_section_title
;
Structure prediction by ZEFSAII (Michael W. Deem and Ramdas Pophale) SiO2 
 PCOD8003167
Probable space group: P -1
;
_chemical_formula_sum "Si O2"
_cell_formula_units_Z 16
_cell_length_a 11.331822
_cell_length_b 10.008882
_cell_length_c 9.659449
_cell_angle_alpha 76.425565
_cell_angle_beta 61.931997
_cell_angle_gamma 56.165883
_cell_volume 802.448128
_symmetry_space_group_name_H-M "P -1"
_symmetry_group_IT_number 2
_symmetry_cell_setting 'triclinic'
loop_
_space_group_symop_operation_xyz
x,y,z
-x,-y,-z
loop_
_atom_site_type_symbol
_atom_site_label
_atom_site_fract_x
_atom_site_fract_y
_atom_site_fract_z
Si Si1 0.574707 0.837453 0.083455
Si Si2 0.118236 0.850069 0.809183
Si Si3 0.893005 0.204750 0.849739
Si Si4 0.564810 0.381564 0.865390
Si Si5 0.939240 0.688216 0.890114
Si Si6 0.471198 0.617082 0.608776
Si Si7 0.052083 0.375429 0.788481
Si Si8 0.412058 0.159212 0.603448
O O1 0.525364 0.713331 0.087106
O O2 0.528127 0.876397 0.261796
O O3 0.755904 0.761191 0.972181
O O4 0.500000 0.000000 0.000000
O O5 0.288186 0.747842 0.675583
O O6 0.995116 0.814534 0.809071
O O7 0.144116 0.813740 0.966901
O O8 0.047942 0.036339 0.765407
O O9 0.746937 0.247221 0.821884
O O10 0.934707 0.343796 0.771324
O O11 0.540641 0.503222 0.729035
O O12 0.500000 0.500000 0.000000
O O13 0.020257 0.556394 0.751545
O O14 0.002086 0.619522 0.024591
O O15 0.500000 0.500000 0.500000
O O16 0.563732 0.708007 0.513793
O O17 0.226273 0.233543 0.690604
O O18 0.500000 0.000000 0.500000
#
# Coordination Sequence:
#
# PCOD8003167 Si02
#       8
#     2   2   2   2   2   2   2   2
#     4  11  24  41  65  97 125 161 213 267 313 366
#     4  10  20  36  63  90 120 165 208 254 317 369
#     4  10  20  37  61  93 120 156 214 266 302 365
#     4  12  24  40  66  99 129 162 216 269 313 365
#     4   9  18  33  61  88 115 150 209 263 296 352
#     4  12  24  42  64  94 132 170 209 255 320 390
#     4   9  18  35  60  85 115 157 208 251 301 362
#     4  11  24  42  65  91 128 173 206 250 320 391
#
# _framework density 19.938984000000001
#
# number of rings (size 3 to 8) (size 9 to 14) (size 15 to 20)
#    0.000    1.500    2.500    3.000    5.250    2.000 
#    0.000    1.250    5.500    0.000    0.000    0.000 
#    0.000    0.000    0.000    0.000    0.000    0.000 
#
# Total GULP energy -198268.704523 kJ/mol
# GULP energy per Si atom -12391.794033 kJ/mol
# Density = 1.989360 g / cm^3
# Si number density = 19.938984 Si / 1000 Ang^3
#
#
#
# Elastic Constant Matrix: (Units=GPa)
#
#
# Indices 1 2 3 4 5 6 
#
# 1 112.4543 29.4279 22.0435 -1.8441 1.8036 0.3259
# 2 29.4279 105.0771 40.0046 6.0572 11.1548 2.1926
# 3 22.0435 40.0046 75.9728 6.9988 9.7443 -4.1228
# 4 -1.8441 6.0572 6.9988 46.1171 -1.1825 -4.9154
# 5 1.8036 11.1548 9.7443 -1.1825 25.5582 1.8056
# 6 0.3259 2.1926 -4.1228 -4.9154 1.8056 41.4407
#
#
#
# Elastic Compliance Matrix: (Units=1/GPa)
#
#
# Indices 1 2 3 4 5 6 
#
# 1 0.009844 -0.002187 -0.001935 0.000993 0.001049 -0.000082
# 2 -0.002187 0.012692 -0.005598 -0.001116 -0.003217 -0.001203
# 3 -0.001935 -0.005598 0.017511 -0.001895 -0.004327 0.002017
# 4 0.000993 -0.001116 -0.001895 0.022469 0.002007 0.002440
# 5 0.001049 -0.003217 -0.004327 0.002007 0.042331 -0.001875
# 6 -0.000082 -0.001203 0.002017 0.002440 -0.001875 0.024767
#
#
# Mechanical properties :
#
#
# Convention : Reuss Voigt Hill
#
# Bulk Modulus (GPa) = 48.53063 52.93959 50.73511
# Shear Modulus (GPa) = 32.06703 36.09175 34.07939
#
# Velocity S-wave (km/s) = 4.01466 4.25915 4.13871
# Velocity P-wave (km/s) = 6.77365 7.12710 6.95263
#
# Compressibility (1/GPa) = 0.02060554
#
# Stress axis : x y z
#
# Youngs Moduli (GPa) = 101.58645 78.79211 57.10721
#
# Poissons Ratio (x) = 0.17232 0.11051
# Poissons Ratio (y) = 0.22218 0.31970
# Poissons Ratio (z) = 0.19658 0.44110
#
# Static dielectric constant tensor:
#      x y z
#    x 3.732960 0.144610 -0.059180 
#    y 0.144610 3.996580 0.155640 
#    z -0.059180 0.155640 3.479100 
# 
# 
# High freq. dielectric constant tensor:
#      x y z
#    x 1.787230 0.012500 -0.012480 
#    y 0.012500 1.795700 0.015830 
#    z -0.012480 0.015830 1.752260 
# 
# From -- ./inp_files/243404.got.cif
#   From: 2010.06.25/outbox.cif.g09.slc.cpg/sg2_122_cif.got.tgz:243404.got - 2010.06.27 13:26:56.
