data_PCOD8003855
_publ_section_title
;
Structure prediction by ZEFSAII (Michael W. Deem and Ramdas Pophale) SiO2 
 PCOD8003855
Probable space group: P -1
;
_chemical_formula_sum "Si O2"
_cell_formula_units_Z 14
_cell_length_a 9.146198
_cell_length_b 14.324615
_cell_length_c 14.384422
_cell_angle_alpha 148.762844
_cell_angle_beta 54.030771
_cell_angle_gamma 104.403909
_cell_volume 630.471338
_symmetry_space_group_name_H-M "P -1"
_symmetry_group_IT_number 2
_symmetry_cell_setting 'triclinic'
loop_
_space_group_symop_operation_xyz
x,y,z
-x,-y,-z
loop_
_atom_site_type_symbol
_atom_site_label
_atom_site_fract_x
_atom_site_fract_y
_atom_site_fract_z
Si Si1 0.704829 0.132027 0.598419
Si Si2 0.724803 0.439574 0.321289
Si Si3 0.546721 0.618585 0.341336
Si Si4 0.754652 0.843598 0.498606
Si Si5 0.063024 0.943540 0.735459
Si Si6 0.254421 0.515335 0.037347
Si Si7 0.717158 0.852009 0.726735
O O1 0.856502 0.997310 0.337034
O O2 0.741235 0.323109 0.755508
O O3 0.786985 0.990278 0.541603
O O4 0.436569 0.255441 0.783045
O O5 0.500000 0.500000 0.500000
O O6 0.671782 0.467420 0.255446
O O7 0.787378 0.599065 0.474406
O O8 0.924352 0.176968 0.044151
O O9 0.576238 0.817159 0.496168
O O10 0.276976 0.745341 0.547346
O O11 0.670316 0.458152 0.069604
O O12 0.667312 0.956809 0.729918
O O13 0.998559 0.592907 0.200621
O O14 0.916951 0.851041 0.694332
O O15 0.500000 0.000000 0.000000
#
# Coordination Sequence:
#
# PCOD8003855 Si02
#       7
#     2   2   2   2   2   2   2
#     4  10  22  37  64  99 126 170 209 262 326 382
#     4  11  24  44  69  91 128 174 217 266 326 373
#     4  10  25  40  62 102 127 168 216 268 318 393
#     4  11  22  39  65  93 130 169 212 262 325 382
#     4  11  23  46  66  94 138 165 214 274 318 383
#     4  10  20  37  61  93 131 163 209 260 316 389
#     4  11  24  44  68  96 127 172 223 267 316 390
#
# _framework density 22.205608999999999
#
# number of rings (size 3 to 8) (size 9 to 14) (size 15 to 20)
#    0.000    1.429    2.857    1.714    2.000    6.286 
#    0.000    0.714    0.000    0.000    0.000    0.000 
#    0.000    0.000    0.000    0.000    0.000    0.000 
#
# Total GULP energy -173523.349803 kJ/mol
# GULP energy per Si atom -12394.524986 kJ/mol
# Density = 2.215507 g / cm^3
# Si number density = 22.205609 Si / 1000 Ang^3
#
#
#
# Elastic Constant Matrix: (Units=GPa)
#
#
# Indices 1 2 3 4 5 6 
#
# 1 109.7034 14.9275 39.1641 -1.5094 -15.7330 17.8838
# 2 14.9275 56.3833 22.0772 -7.7450 -11.6774 11.0292
# 3 39.1641 22.0772 119.3620 -21.2350 -8.2812 2.7934
# 4 -1.5094 -7.7450 -21.2350 30.0306 7.3404 2.9026
# 5 -15.7330 -11.6774 -8.2812 7.3404 32.2764 -1.7997
# 6 17.8838 11.0292 2.7934 2.9026 -1.7997 27.5550
#
#
#
# Elastic Compliance Matrix: (Units=1/GPa)
#
#
# Indices 1 2 3 4 5 6 
#
# 1 0.012431 0.000463 -0.004118 -0.002794 0.005405 -0.007189
# 2 0.000463 0.022256 -0.003114 0.002860 0.006339 -0.008780
# 3 -0.004118 -0.003114 0.011443 0.007331 -0.001761 0.001872
# 4 -0.002794 0.002860 0.007331 0.041561 -0.008176 -0.004986
# 5 0.005405 0.006339 -0.001761 -0.008176 0.037174 -0.002577
# 6 -0.007189 -0.008780 0.001872 -0.004986 -0.002577 0.044638
#
#
# Mechanical properties :
#
#
# Convention : Reuss Voigt Hill
#
# Bulk Modulus (GPa) = 30.68285 48.64293 39.66289
# Shear Modulus (GPa) = 25.78555 31.92439 28.85497
#
# Velocity S-wave (km/s) = 3.41136 3.79578 3.60869
# Velocity P-wave (km/s) = 5.41887 6.41590 5.93835
#
# Compressibility (1/GPa) = 0.03259150
#
# Stress axis : x y z
#
# Youngs Moduli (GPa) = 80.44160 44.93221 87.38623
#
# Poissons Ratio (x) = -0.02081 0.35989
# Poissons Ratio (y) = -0.03726 0.27215
# Poissons Ratio (z) = 0.33129 0.13993
#
# Static dielectric constant tensor:
#      x y z
#    x 4.169070 0.099600 -0.056090 
#    y 0.099600 3.483400 -0.321480 
#    z -0.056090 -0.321480 4.094000 
# 
# 
# High freq. dielectric constant tensor:
#      x y z
#    x 1.883030 0.004640 0.000800 
#    y 0.004640 1.854130 -0.019340 
#    z 0.000800 -0.019340 1.877540 
# 
# From -- ./inp_files/207505.got.cif
#   From: 2010.06.25/outbox.cif.g09.slc.cpg/sg2_104_cif.got.tgz:207505.got - 2010.06.27 13:26:56.
