data_PCOD8003276
_publ_section_title
;
Structure prediction by ZEFSAII (Michael W. Deem and Ramdas Pophale) SiO2 
 PCOD8003276
Probable space group: P -1
;
_chemical_formula_sum "Si O2"
_cell_formula_units_Z 16
_cell_length_a 11.155433
_cell_length_b 8.875915
_cell_length_c 15.893856
_cell_angle_alpha 37.828585
_cell_angle_beta 100.870148
_cell_angle_gamma 119.390760
_cell_volume 780.426396
_symmetry_space_group_name_H-M "P -1"
_symmetry_group_IT_number 2
_symmetry_cell_setting 'triclinic'
loop_
_space_group_symop_operation_xyz
x,y,z
-x,-y,-z
loop_
_atom_site_type_symbol
_atom_site_label
_atom_site_fract_x
_atom_site_fract_y
_atom_site_fract_z
Si Si1 0.778242 0.107901 0.119237
Si Si2 0.965697 0.759765 0.797447
Si Si3 0.550549 0.695110 0.138328
Si Si4 0.453845 0.054287 0.381142
Si Si5 0.346964 0.757046 0.197019
Si Si6 0.991626 0.706039 0.644975
Si Si7 0.522839 0.808660 0.347203
Si Si8 0.111936 0.769356 0.457737
O O1 0.918018 0.105811 0.169539
O O2 0.695877 0.863982 0.142538
O O3 0.670975 0.030084 0.217503
O O4 0.827017 0.428962 0.949066
O O5 0.050002 0.742280 0.733075
O O6 0.901943 0.957368 0.684666
O O7 0.526613 0.402610 0.225127
O O8 0.405866 0.600218 0.216095
O O9 0.570341 0.901546 0.971947
O O10 0.500000 0.000000 0.500000
O O11 0.532570 0.965394 0.365563
O O12 0.277995 0.863133 0.424804
O O13 0.173198 0.587163 0.243030
O O14 0.382487 0.745523 0.303827
O O15 0.077129 0.669620 0.596051
O O16 0.000000 0.000000 0.500000
O O17 0.500000 0.500000 0.500000
O O18 0.000000 0.500000 0.500000
#
# Coordination Sequence:
#
# PCOD8003276 Si02
#       8
#     2   2   2   2   2   2   2   2
#     4  10  22  42  66  98 127 177 217 276 318 402
#     4  10  22  41  69  93 132 173 228 259 332 396
#     4  10  21  39  68  93 137 166 219 271 334 392
#     4  12  27  44  66  99 135 175 221 280 336 387
#     4  10  20  39  65  96 126 175 214 267 329 396
#     4  10  20  36  65  91 125 167 220 258 315 396
#     4  11  26  41  68  92 130 171 225 271 337 397
#     4  11  26  42  67  97 136 175 216 280 330 389
#
# _framework density 20.501612000000002
#
# number of rings (size 3 to 8) (size 9 to 14) (size 15 to 20)
#    0.000    1.500    1.250    3.750   12.250    0.500 
#    2.250    0.000    0.000    3.750    0.000    0.000 
#    0.000    0.000    0.000    0.000    0.000    0.000 
#
# Total GULP energy -198366.593185 kJ/mol
# GULP energy per Si atom -12397.912074 kJ/mol
# Density = 2.045495 g / cm^3
# Si number density = 20.501612 Si / 1000 Ang^3
#
#
#
# Elastic Constant Matrix: (Units=GPa)
#
#
# Indices 1 2 3 4 5 6 
#
# 1 64.1640 37.3600 35.1184 -5.6716 0.1388 -2.8196
# 2 37.3600 123.3908 54.1001 -1.0147 3.0700 -10.3907
# 3 35.1184 54.1001 119.7006 5.5130 0.2097 -15.6114
# 4 -5.6716 -1.0147 5.5130 36.7663 3.0485 0.0628
# 5 0.1388 3.0700 0.2097 3.0485 32.3064 1.8606
# 6 -2.8196 -10.3907 -15.6114 0.0628 1.8606 41.8917
#
#
#
# Elastic Compliance Matrix: (Units=1/GPa)
#
#
# Indices 1 2 3 4 5 6 
#
# 1 0.020898 -0.004454 -0.004471 0.003766 0.000086 -0.001374
# 2 -0.004454 0.011156 -0.003591 0.000249 -0.001109 0.001178
# 3 -0.004471 -0.003591 0.011826 -0.002596 0.000344 0.003204
# 4 0.003766 0.000249 -0.002596 0.028398 -0.002670 -0.000576
# 5 0.000086 -0.001109 0.000344 -0.002670 0.031397 -0.001531
# 6 -0.001374 0.001178 0.003204 -0.000576 -0.001531 0.025334
#
#
# Mechanical properties :
#
#
# Convention : Reuss Voigt Hill
#
# Bulk Modulus (GPa) = 53.05754 62.26802 57.66278
# Shear Modulus (GPa) = 31.18690 34.23799 32.71244
#
# Velocity S-wave (km/s) = 3.90448 4.09101 3.99883
# Velocity P-wave (km/s) = 6.80165 7.26315 7.03619
#
# Compressibility (1/GPa) = 0.01884746
#
# Stress axis : x y z
#
# Youngs Moduli (GPa) = 47.85189 89.63469 84.56036
#
# Poissons Ratio (x) = 0.39924 0.37806
# Poissons Ratio (y) = 0.21313 0.30369
# Poissons Ratio (z) = 0.21394 0.32192
#
# Static dielectric constant tensor:
#      x y z
#    x 3.664310 0.022110 -0.115420 
#    y 0.022110 4.098860 0.322400 
#    z -0.115420 0.322400 4.032240 
# 
# 
# High freq. dielectric constant tensor:
#      x y z
#    x 1.779480 0.015700 -0.007180 
#    y 0.015700 1.811600 0.007610 
#    z -0.007180 0.007610 1.818660 
# 
# From -- ./inp_files/514920.got.cif
#   From: 2010.06.25/outbox.cif.g09.slc.cpg/sg2_258_cif.got.tgz:514920.got - 2010.06.27 13:26:56.
