data_PCOD8003603
_publ_section_title
;
Structure prediction by ZEFSAII (Michael W. Deem and Ramdas Pophale) SiO2 
 PCOD8003603
Probable space group: P -1
;
_chemical_formula_sum "Si O2"
_cell_formula_units_Z 16
_cell_length_a 13.954450
_cell_length_b 17.064005
_cell_length_c 22.124483
_cell_angle_alpha 156.400946
_cell_angle_beta 156.532660
_cell_angle_gamma 36.729248
_cell_volume 814.227005
_symmetry_space_group_name_H-M "P -1"
_symmetry_group_IT_number 2
_symmetry_cell_setting 'triclinic'
loop_
_space_group_symop_operation_xyz
x,y,z
-x,-y,-z
loop_
_atom_site_type_symbol
_atom_site_label
_atom_site_fract_x
_atom_site_fract_y
_atom_site_fract_z
Si Si1 0.010900 0.708103 0.323855
Si Si2 0.556838 0.786701 0.898055
Si Si3 0.138370 0.815980 0.823299
Si Si4 0.454106 0.535767 0.429286
Si Si5 0.030138 0.573871 0.476845
Si Si6 0.041776 0.154640 0.079263
Si Si7 0.284510 0.136321 0.830137
Si Si8 0.221155 0.515420 0.851330
O O1 0.793012 0.700503 0.143277
O O2 0.906856 0.555184 0.209172
O O3 0.236044 0.650154 0.377806
O O4 0.099729 0.924115 0.558760
O O5 0.638238 0.681615 0.811491
O O6 0.323022 0.624195 0.674241
O O7 0.757010 0.818025 0.090694
O O8 0.500000 0.000000 0.000000
O O9 0.070679 0.661908 0.731610
O O10 0.976987 0.716021 0.601052
O O11 0.432472 0.868725 0.020407
O O12 0.064336 0.025541 0.941156
O O13 0.500000 0.500000 0.500000
O O14 0.707974 0.668463 0.640657
O O15 0.908683 0.619884 0.376177
O O16 0.808002 0.255343 0.010264
O O17 0.000000 0.000000 0.000000
O O18 0.500000 0.500000 0.000000
#
# Coordination Sequence:
#
# PCOD8003603 Si02
#       8
#     2   2   2   2   2   2   2   2
#     4  11  23  39  61  90 129 164 209 258 319 375
#     4  11  22  37  62  90 122 159 210 259 309 370
#     4  10  20  37  63  88 121 160 211 254 305 373
#     4  12  22  39  63  93 125 162 212 263 307 376
#     4  10  20  37  59  90 120 161 207 254 306 374
#     4  12  23  39  64  96 122 165 213 256 311 372
#     4  10  22  38  61  91 124 167 203 256 318 376
#     4  12  24  40  61  91 129 165 206 262 320 375
#
# _framework density 19.650538000000001
#
# number of rings (size 3 to 8) (size 9 to 14) (size 15 to 20)
#    0.000    1.000    5.000    2.250    1.750    0.500 
#    0.000    0.625    0.000    6.000    0.000    0.000 
#    0.000    0.000    0.000    0.000    0.000    0.000 
#
# Total GULP energy -198359.368691 kJ/mol
# GULP energy per Si atom -12397.460543 kJ/mol
# Density = 1.960581 g / cm^3
# Si number density = 19.650538 Si / 1000 Ang^3
#
#
#
# Elastic Constant Matrix: (Units=GPa)
#
#
# Indices 1 2 3 4 5 6 
#
# 1 101.6522 56.2551 37.6572 2.5921 -24.2036 12.7941
# 2 56.2551 129.5791 42.7658 -3.0940 -22.4600 -2.9343
# 3 37.6572 42.7658 76.3451 3.7903 -21.1722 0.9098
# 4 2.5921 -3.0940 3.7903 32.6050 -0.8543 -2.0186
# 5 -24.2036 -22.4600 -21.1722 -0.8543 50.0837 0.5070
# 6 12.7941 -2.9343 0.9098 -2.0186 0.5070 40.8401
#
#
#
# Elastic Compliance Matrix: (Units=1/GPa)
#
#
# Indices 1 2 3 4 5 6 
#
# 1 0.015599 -0.005065 -0.003682 -0.001522 0.003738 -0.005290
# 2 -0.005065 0.011454 -0.003744 0.002114 0.001116 0.002584
# 3 -0.003682 -0.003744 0.018284 -0.002057 0.004233 0.000323
# 4 -0.001522 0.002114 -0.002057 0.031365 -0.000145 0.002227
# 5 0.003738 0.001116 0.004233 -0.000145 0.024076 -0.001491
# 6 -0.005290 0.002584 0.000323 0.002227 -0.001491 0.026450
#
#
# Mechanical properties :
#
#
# Convention : Reuss Voigt Hill
#
# Bulk Modulus (GPa) = 49.12716 64.54806 56.83761
# Shear Modulus (GPa) = 31.44742 36.09898 33.77320
#
# Velocity S-wave (km/s) = 4.00476 4.29073 4.15021
# Velocity P-wave (km/s) = 6.81460 7.58066 7.20782
#
# Compressibility (1/GPa) = 0.02035534
#
# Stress axis : x y z
#
# Youngs Moduli (GPa) = 64.10553 87.30196 54.69322
#
# Poissons Ratio (x) = 0.44222 0.20136
# Poissons Ratio (y) = 0.32472 0.20478
# Poissons Ratio (z) = 0.23601 0.32687
#
# Static dielectric constant tensor:
#      x y z
#    x 4.058540 -0.029570 -0.265670 
#    y -0.029570 3.607520 0.091780 
#    z -0.265670 0.091780 3.859880 
# 
# 
# High freq. dielectric constant tensor:
#      x y z
#    x 1.785580 0.005820 -0.008450 
#    y 0.005820 1.748030 0.013240 
#    z -0.008450 0.013240 1.762150 
# 
# From -- ./inp_files/333620.got.cif
#   From: 2010.06.25/outbox.cif.g09.slc.cpg/sg2_167_cif.got.tgz:333620.got - 2010.06.27 13:26:56.
