data_PCOD8003626
_publ_section_title
;
Structure prediction by ZEFSAII (Michael W. Deem and Ramdas Pophale) SiO2 
 PCOD8003626
Probable space group: P -1
;
_chemical_formula_sum "Si O2"
_cell_formula_units_Z 14
_cell_length_a 8.964673
_cell_length_b 15.355085
_cell_length_c 11.774592
_cell_angle_alpha 152.917490
_cell_angle_beta 118.826643
_cell_angle_gamma 63.545837
_cell_volume 645.939135
_symmetry_space_group_name_H-M "P -1"
_symmetry_group_IT_number 2
_symmetry_cell_setting 'triclinic'
loop_
_space_group_symop_operation_xyz
x,y,z
-x,-y,-z
loop_
_atom_site_type_symbol
_atom_site_label
_atom_site_fract_x
_atom_site_fract_y
_atom_site_fract_z
Si Si1 0.465683 0.092662 0.922021
Si Si2 0.371558 0.470902 0.021550
Si Si3 0.942478 0.330833 0.203392
Si Si4 0.594813 0.451624 0.294053
Si Si5 0.071398 0.730983 0.126370
Si Si6 0.766384 0.883890 0.337921
Si Si7 0.275771 0.146729 0.135520
O O1 0.382501 0.031077 0.701298
O O2 0.641889 0.968567 0.862055
O O3 0.501587 0.319232 0.196754
O O4 0.336890 0.048334 0.925934
O O5 0.314588 0.249982 0.751073
O O6 0.500000 0.500000 0.000000
O O7 0.463805 0.526048 0.235798
O O8 0.205045 0.607808 0.107153
O O9 0.742571 0.308189 0.126891
O O10 0.000000 0.500000 0.500000
O O11 0.068881 0.146906 0.066794
O O12 0.965615 0.375249 0.129146
O O13 0.668688 0.634116 0.593274
O O14 0.898231 0.753399 0.159998
O O15 0.143531 0.939707 0.365537
#
# Coordination Sequence:
#
# PCOD8003626 Si02
#       7
#     2   2   2   2   2   2   2
#     4  10  20  37  60  86 114 150 197 242 295 347
#     4  11  22  39  62  90 120 158 201 246 304 353
#     4  10  21  39  61  84 119 159 191 243 294 353
#     4  10  21  38  56  86 115 152 197 241 294 347
#     4  11  21  42  61  88 124 154 203 246 297 357
#     4  10  23  39  64  90 118 160 198 251 298 350
#     4  10  20  37  60  82 115 154 194 240 293 348
#
# _framework density 21.673869
#
# number of rings (size 3 to 8) (size 9 to 14) (size 15 to 20)
#    0.000    1.714    2.857    1.714    0.000    1.143 
#    2.571    2.857    0.000    0.000    0.000    0.000 
#    0.000    0.000    0.000    0.000    0.000    0.000 
#
# Total GULP energy -173560.327479 kJ/mol
# GULP energy per Si atom -12397.166249 kJ/mol
# Density = 2.162454 g / cm^3
# Si number density = 21.673869 Si / 1000 Ang^3
#
#
#
# Elastic Constant Matrix: (Units=GPa)
#
#
# Indices 1 2 3 4 5 6 
#
# 1 69.5690 66.4869 9.2747 -2.3147 -2.3631 -2.7630
# 2 66.4869 144.7291 22.5990 3.7061 -7.1888 -24.7699
# 3 9.2747 22.5990 61.5358 -7.5782 3.6140 9.4693
# 4 -2.3147 3.7061 -7.5782 22.6386 1.1026 3.5523
# 5 -2.3631 -7.1888 3.6140 1.1026 29.0332 7.2013
# 6 -2.7630 -24.7699 9.4693 3.5523 7.2013 45.4227
#
#
#
# Elastic Compliance Matrix: (Units=1/GPa)
#
#
# Indices 1 2 3 4 5 6 
#
# 1 0.028238 -0.015047 0.003431 0.007729 -0.000220 -0.007773
# 2 -0.015047 0.016849 -0.006559 -0.008143 0.001586 0.010025
# 3 0.003431 -0.006559 0.020721 0.009741 -0.002288 -0.008087
# 4 0.007729 -0.008143 0.009741 0.051177 -0.002146 -0.009663
# 5 -0.000220 0.001586 -0.002288 -0.002146 0.036238 -0.004249
# 6 -0.007773 0.010025 -0.008087 -0.009663 -0.004249 0.030125
#
#
# Mechanical properties :
#
#
# Convention : Reuss Voigt Hill
#
# Bulk Modulus (GPa) = 33.94635 52.50612 43.22623
# Shear Modulus (GPa) = 21.78478 31.25046 26.51762
#
# Velocity S-wave (km/s) = 3.17380 3.80129 3.50163
# Velocity P-wave (km/s) = 5.39694 6.59883 6.02792
#
# Compressibility (1/GPa) = 0.02945825
#
# Stress axis : x y z
#
# Youngs Moduli (GPa) = 35.41278 59.34995 48.26105
#
# Poissons Ratio (x) = 0.89305 -0.16558
# Poissons Ratio (y) = 0.53286 0.31653
# Poissons Ratio (z) = -0.12150 0.38925
#
# Static dielectric constant tensor:
#      x y z
#    x 4.162330 -0.411360 -0.001060 
#    y -0.411360 4.135420 -0.008760 
#    z -0.001060 -0.008760 3.573580 
# 
# 
# High freq. dielectric constant tensor:
#      x y z
#    x 1.852110 -0.021390 -0.002420 
#    y -0.021390 1.862200 -0.006920 
#    z -0.002420 -0.006920 1.825760 
# 
# From -- ./inp_files/71152.got.cif
#   From: 2010.06.25/outbox.cif.g09.slc.cpg/sg2_36_cif.got.tgz:71152.got - 2010.06.27 13:26:56.
