data_PCOD8003796
_publ_section_title
;
Structure prediction by ZEFSAII (Michael W. Deem and Ramdas Pophale) SiO2 
 PCOD8003796
Probable space group: P -1
;
_chemical_formula_sum "Si O2"
_cell_formula_units_Z 16
_cell_length_a 20.394314
_cell_length_b 9.505910
_cell_length_c 8.886344
_cell_angle_alpha 148.579063
_cell_angle_beta 60.363515
_cell_angle_gamma 117.634645
_cell_volume 777.286676
_symmetry_space_group_name_H-M "P -1"
_symmetry_group_IT_number 2
_symmetry_cell_setting 'triclinic'
loop_
_space_group_symop_operation_xyz
x,y,z
-x,-y,-z
loop_
_atom_site_type_symbol
_atom_site_label
_atom_site_fract_x
_atom_site_fract_y
_atom_site_fract_z
Si Si1 0.169817 0.042658 0.459186
Si Si2 0.210268 0.242871 0.930693
Si Si3 0.575443 0.441061 0.445313
Si Si4 0.926082 0.515926 0.002208
Si Si5 0.045468 0.278888 0.169702
Si Si6 0.693452 0.196721 0.611046
Si Si7 0.546957 0.281373 0.673390
Si Si8 0.664853 0.994674 0.783366
O O1 0.191068 0.122841 0.678446
O O2 0.111617 0.777819 0.268755
O O3 0.247971 0.978365 0.231996
O O4 0.131056 0.303299 0.675336
O O5 0.259115 0.009185 0.730477
O O6 0.131095 0.274840 0.135917
O O7 0.255993 0.538303 0.143583
O O8 0.500000 0.500000 0.500000
O O9 0.555472 0.343362 0.545539
O O10 0.632979 0.704893 0.614987
O O11 0.615688 0.209795 0.107516
O O12 0.951391 0.678582 0.972654
O O13 0.000000 0.500000 0.000000
O O14 0.000000 0.500000 0.500000
O O15 0.000000 0.000000 0.000000
O O16 0.629346 0.293321 0.665068
O O17 0.658319 0.027776 0.640284
O O18 0.500000 0.000000 0.500000
O O19 0.500000 0.500000 0.000000
#
# Coordination Sequence:
#
# PCOD8003796 Si02
#       8
#     2   2   2   2   2   2   2   2
#     4  10  20  38  62  87 117 157 198 241 294 358
#     4  10  20  37  61  88 116 156 201 242 291 358
#     4  12  24  40  61  90 121 154 194 242 290 347
#     4  11  22  39  60  88 120 158 200 243 293 354
#     4  11  21  37  58  85 117 156 199 246 292 346
#     4  11  21  39  64  88 114 155 201 244 293 353
#     4  12  25  43  62  88 123 160 194 239 294 353
#     4  11  21  39  63  88 113 152 199 245 290 345
#
# _framework density 20.584425
#
# number of rings (size 3 to 8) (size 9 to 14) (size 15 to 20)
#    0.000    1.000    0.000   11.250    0.000    0.000 
#    0.000    7.500    0.000    0.000    0.000    0.000 
#    0.000    0.000    0.000    0.000    0.000    0.000 
#
# Total GULP energy -198341.420644 kJ/mol
# GULP energy per Si atom -12396.338790 kJ/mol
# Density = 2.053757 g / cm^3
# Si number density = 20.584425 Si / 1000 Ang^3
#
#
#
# Elastic Constant Matrix: (Units=GPa)
#
#
# Indices 1 2 3 4 5 6 
#
# 1 151.4129 59.2887 61.3226 -2.7418 -28.4420 8.7232
# 2 59.2887 117.4592 54.1118 12.7690 4.0095 9.5229
# 3 61.3226 54.1118 164.8314 13.7818 -36.7171 16.1202
# 4 -2.7418 12.7690 13.7818 43.7358 14.7946 3.6074
# 5 -28.4420 4.0095 -36.7171 14.7946 51.9752 2.4154
# 6 8.7232 9.5229 16.1202 3.6074 2.4154 34.4283
#
#
#
# Elastic Compliance Matrix: (Units=1/GPa)
#
#
# Indices 1 2 3 4 5 6 
#
# 1 0.009825 -0.004657 -0.000986 0.000729 0.004886 -0.001159
# 2 -0.004657 0.012892 -0.003736 -0.000862 -0.005931 -0.000130
# 3 -0.000986 -0.003736 0.010337 -0.004835 0.008597 -0.003653
# 4 0.000729 -0.000862 -0.004835 0.028411 -0.011043 0.000115
# 5 0.004886 -0.005931 0.008597 -0.011043 0.031806 -0.004697
# 6 -0.001159 -0.000130 -0.003653 0.000115 -0.004697 0.031404
#
#
# Mechanical properties :
#
#
# Convention : Reuss Voigt Hill
#
# Bulk Modulus (GPa) = 69.95016 87.01663 78.48339
# Shear Modulus (GPa) = 33.73865 43.29321 38.51593
#
# Velocity S-wave (km/s) = 4.05290 4.59104 4.33034
# Velocity P-wave (km/s) = 7.48045 8.39455 7.95065
#
# Compressibility (1/GPa) = 0.01429589
#
# Stress axis : x y z
#
# Youngs Moduli (GPa) = 101.78093 77.56592 96.74413
#
# Poissons Ratio (x) = 0.36125 0.09535
# Poissons Ratio (y) = 0.47403 0.36144
# Poissons Ratio (z) = 0.10031 0.28979
#
# Static dielectric constant tensor:
#      x y z
#    x 4.257640 0.288680 -0.657740 
#    y 0.288680 3.664760 0.049660 
#    z -0.657740 0.049660 4.285700 
# 
# 
# High freq. dielectric constant tensor:
#      x y z
#    x 1.817590 0.021430 -0.024330 
#    y 0.021430 1.789840 0.016990 
#    z -0.024330 0.016990 1.829680 
# 
# From -- ./inp_files/343970.got.cif
#   From: 2010.06.25/outbox.cif.g09.slc.cpg/sg2_172_cif.got.tgz:343970.got - 2010.06.27 13:26:56.
