data_PCOD8003053
_publ_section_title
;
Structure prediction by ZEFSAII (Michael W. Deem and Ramdas Pophale) SiO2 
 PCOD8003053
Probable space group: P -1
;
_chemical_formula_sum "Si O2"
_cell_formula_units_Z 14
_cell_length_a 8.104960
_cell_length_b 6.973306
_cell_length_c 14.924784
_cell_angle_alpha 57.499626
_cell_angle_beta 94.949320
_cell_angle_gamma 94.455976
_cell_volume 708.272614
_symmetry_space_group_name_H-M "P -1"
_symmetry_group_IT_number 2
_symmetry_cell_setting 'triclinic'
loop_
_space_group_symop_operation_xyz
x,y,z
-x,-y,-z
loop_
_atom_site_type_symbol
_atom_site_label
_atom_site_fract_x
_atom_site_fract_y
_atom_site_fract_z
Si Si1 0.122668 0.786619 0.877273
Si Si2 0.816632 0.471299 0.888359
Si Si3 0.083946 0.791698 0.212756
Si Si4 0.878165 0.522221 0.405248
Si Si5 0.695604 0.049855 0.500297
Si Si6 0.321490 0.078196 0.279335
Si Si7 0.302526 0.042385 0.669982
O O1 0.990231 0.602885 0.879483
O O2 0.232985 0.844356 0.781448
O O3 0.232268 0.674140 0.988606
O O4 0.043073 0.008281 0.862535
O O5 0.830517 0.295556 0.851193
O O6 0.678143 0.659221 0.818776
O O7 0.992844 0.574661 0.310725
O O8 0.223767 0.902515 0.255402
O O9 0.750667 0.312204 0.441642
O O10 0.747999 0.718937 0.355304
O O11 0.000000 0.500000 0.500000
O O12 0.500000 0.000000 0.500000
O O13 0.762842 0.927309 0.623639
O O14 0.774721 0.965449 0.432314
O O15 0.502316 0.982392 0.318095
#
# Coordination Sequence:
#
# PCOD8003053 Si02
#       7
#     2   2   2   2   2   2   2
#     4   9  20  39  57  86 108 148 196 237 282 340
#     4  10  20  36  62  80 113 149 190 238 290 334
#     4  10  20  37  58  85 115 145 194 237 283 338
#     4  11  22  37  59  86 112 155 193 233 285 338
#     4  10  22  38  57  86 118 154 187 230 291 342
#     4  10  22  36  54  88 114 151 189 233 287 348
#     4  10  23  39  58  81 122 148 192 241 283 340
#
# _framework density 19.766397999999999
#
# number of rings (size 3 to 8) (size 9 to 14) (size 15 to 20)
#    0.000    2.000    1.429    1.286    2.000    5.714 
#    0.000    0.714    0.000    0.000    0.000    0.000 
#    0.000    0.000    0.000    0.000    0.000    0.000 
#
# Total GULP energy -173500.756517 kJ/mol
# GULP energy per Si atom -12392.911180 kJ/mol
# Density = 1.972141 g / cm^3
# Si number density = 19.766398 Si / 1000 Ang^3
#
#
#
# Elastic Constant Matrix: (Units=GPa)
#
#
# Indices 1 2 3 4 5 6 
#
# 1 54.0248 21.7902 23.2719 -1.8586 1.2157 -0.7709
# 2 21.7902 72.0449 20.0427 8.8664 -0.8030 11.5282
# 3 23.2719 20.0427 106.8645 7.0809 2.3630 1.8992
# 4 -1.8586 8.8664 7.0809 32.7525 -2.5696 -4.5831
# 5 1.2157 -0.8030 2.3630 -2.5696 28.8184 -5.4056
# 6 -0.7709 11.5282 1.8992 -4.5831 -5.4056 27.8175
#
#
#
# Elastic Compliance Matrix: (Units=1/GPa)
#
#
# Indices 1 2 3 4 5 6 
#
# 1 0.023489 -0.007329 -0.004166 0.004941 0.000503 0.004885
# 2 -0.007329 0.018730 -0.001284 -0.006610 -0.001385 -0.009236
# 3 -0.004166 -0.001284 0.010708 -0.002423 -0.001129 -0.000933
# 4 0.004941 -0.006610 -0.002423 0.034855 0.004734 0.009704
# 5 0.000503 -0.001385 -0.001129 0.004734 0.036766 0.008590
# 6 0.004885 -0.009236 -0.000933 0.009704 0.008590 0.043243
#
#
# Mechanical properties :
#
#
# Convention : Reuss Voigt Hill
#
# Bulk Modulus (GPa) = 36.53862 40.34933 38.44398
# Shear Modulus (GPa) = 24.69471 29.06632 26.88052
#
# Velocity S-wave (km/s) = 3.53842 3.83886 3.69170
# Velocity P-wave (km/s) = 5.93458 6.33297 6.13701
#
# Compressibility (1/GPa) = 0.02736830
#
# Stress axis : x y z
#
# Youngs Moduli (GPa) = 42.57290 53.38992 93.39025
#
# Poissons Ratio (x) = 0.39132 0.38905
# Poissons Ratio (y) = 0.31204 0.11991
# Poissons Ratio (z) = 0.17735 0.06855
#
# Static dielectric constant tensor:
#      x y z
#    x 3.304610 0.031470 -0.019240 
#    y 0.031470 3.616150 0.104760 
#    z -0.019240 0.104760 4.228330 
# 
# 
# High freq. dielectric constant tensor:
#      x y z
#    x 1.747860 0.003170 -0.000470 
#    y 0.003170 1.772460 0.001960 
#    z -0.000470 0.001960 1.792970 
# 
# From -- ./inp_files/21974.got.cif
#   From: 2010.06.25/outbox.cif.g09.slc.cpg/sg2_11_cif.got.tgz:21974.got - 2010.06.27 13:26:56.
