data_PCOD8003718
_publ_section_title
;
Structure prediction by ZEFSAII (Michael W. Deem and Ramdas Pophale) SiO2 
 PCOD8003718
Probable space group: P -1
;
_chemical_formula_sum "Si O2"
_cell_formula_units_Z 14
_cell_length_a 15.065107
_cell_length_b 9.438090
_cell_length_c 11.182902
_cell_angle_alpha 50.059385
_cell_angle_beta 60.389429
_cell_angle_gamma 100.590155
_cell_volume 699.145259
_symmetry_space_group_name_H-M "P -1"
_symmetry_group_IT_number 2
_symmetry_cell_setting 'triclinic'
loop_
_space_group_symop_operation_xyz
x,y,z
-x,-y,-z
loop_
_atom_site_type_symbol
_atom_site_label
_atom_site_fract_x
_atom_site_fract_y
_atom_site_fract_z
Si Si1 0.335284 0.363395 0.206817
Si Si2 0.977304 0.699012 0.418102
Si Si3 0.192666 0.238197 0.615913
Si Si4 0.115049 0.756870 0.053429
Si Si5 0.618802 0.181946 0.717506
Si Si6 0.846195 0.160390 0.542179
Si Si7 0.669684 0.231040 0.010950
O O1 0.311544 0.336784 0.380312
O O2 0.328258 0.559565 0.048442
O O3 0.200974 0.060857 0.399632
O O4 0.500000 0.500000 0.000000
O O5 0.046115 0.658414 0.290646
O O6 0.088477 0.854061 0.375000
O O7 0.964163 0.888652 0.268632
O O8 0.794195 0.402028 0.725177
O O9 0.267971 0.490027 0.519918
O O10 0.143722 0.999132 0.857907
O O11 0.271369 0.847006 0.894230
O O12 0.982973 0.469247 0.222655
O O13 0.704202 0.102467 0.693985
O O14 0.500000 0.000000 0.000000
O O15 0.506819 0.062861 0.742727
#
# Coordination Sequence:
#
# PCOD8003718 Si02
#       7
#     2   2   2   2   2   2   2
#     4  11  22  41  61  89 116 157 206 244 286 359
#     4  10  20  37  60  91 116 153 200 244 285 351
#     4  11  24  36  64  89 123 153 199 244 301 349
#     4  11  22  39  58  93 125 152 192 253 297 349
#     4  12  18  36  62  89 110 158 199 247 290 340
#     4  11  22  36  66  84 120 159 199 241 298 344
#     4  10  21  36  63  86 120 156 203 241 290 350
#
# _framework density 20.024452
#
# number of rings (size 3 to 8) (size 9 to 14) (size 15 to 20)
#    0.000    1.143    5.714    3.000    0.000    6.286 
#    0.000    0.714    0.000    0.000    0.000    0.000 
#    0.000    0.000    0.000    0.000    0.000    0.000 
#
# Total GULP energy -173498.979749 kJ/mol
# GULP energy per Si atom -12392.784268 kJ/mol
# Density = 1.997888 g / cm^3
# Si number density = 20.024452 Si / 1000 Ang^3
#
#
#
# Elastic Constant Matrix: (Units=GPa)
#
#
# Indices 1 2 3 4 5 6 
#
# 1 142.0555 39.1261 50.0241 -18.2484 -15.3593 -24.8634
# 2 39.1261 106.5439 34.1341 -24.8029 -3.7265 -13.5922
# 3 50.0241 34.1341 60.4795 -21.5696 -3.5905 -2.8233
# 4 -18.2484 -24.8029 -21.5696 35.8074 -9.7005 -3.0857
# 5 -15.3593 -3.7265 -3.5905 -9.7005 36.1864 -3.1619
# 6 -24.8634 -13.5922 -2.8233 -3.0857 -3.1619 31.3017
#
#
#
# Elastic Compliance Matrix: (Units=1/GPa)
#
#
# Indices 1 2 3 4 5 6 
#
# 1 0.013287 0.000759 -0.008685 0.004986 0.007181 0.011317
# 2 0.000759 0.013780 -0.004589 0.008992 0.004351 0.007498
# 3 -0.008685 -0.004589 0.029764 0.010177 0.001077 -0.005095
# 4 0.004986 0.008992 0.010177 0.049201 0.018597 0.015511
# 5 0.007181 0.004351 0.001077 0.018597 0.037385 0.013300
# 6 0.011317 0.007498 -0.005095 0.015511 0.013300 0.046605
#
#
# Mechanical properties :
#
#
# Convention : Reuss Voigt Hill
#
# Bulk Modulus (GPa) = 31.44802 61.73861 46.59332
# Shear Modulus (GPa) = 22.15790 33.04541 27.60166
#
# Velocity S-wave (km/s) = 3.33008 4.06674 3.71671
# Velocity P-wave (km/s) = 5.52493 7.27665 6.46044
#
# Compressibility (1/GPa) = 0.03179850
#
# Stress axis : x y z
#
# Youngs Moduli (GPa) = 75.26388 72.57141 33.59753
#
# Poissons Ratio (x) = -0.05507 0.29180
# Poissons Ratio (y) = -0.05711 0.15420
# Poissons Ratio (z) = 0.65368 0.33306
#
# Static dielectric constant tensor:
#      x y z
#    x 4.472490 0.075600 -0.623270 
#    y 0.075600 3.849430 -0.429610 
#    z -0.623270 -0.429610 3.811490 
# 
# 
# High freq. dielectric constant tensor:
#      x y z
#    x 1.800540 -0.026030 -0.018750 
#    y -0.026030 1.770250 -0.016230 
#    z -0.018750 -0.016230 1.757890 
# 
# From -- ./inp_files/154006.got.cif
#   From: 2010.06.25/outbox.cif.g09.slc.cpg/sg2_78_cif.got.tgz:154006.got - 2010.06.27 13:26:56.
