data_PCOD8003046
_publ_section_title
;
Structure prediction by ZEFSAII (Michael W. Deem and Ramdas Pophale) SiO2 
 PCOD8003046
Probable space group: P -1
;
_chemical_formula_sum "Si O2"
_cell_formula_units_Z 16
_cell_length_a 11.319545
_cell_length_b 17.087743
_cell_length_c 19.950770
_cell_angle_alpha 20.370923
_cell_angle_beta 31.833439
_cell_angle_gamma 38.164072
_cell_volume 707.429964
_symmetry_space_group_name_H-M "P -1"
_symmetry_group_IT_number 2
_symmetry_cell_setting 'triclinic'
loop_
_space_group_symop_operation_xyz
x,y,z
-x,-y,-z
loop_
_atom_site_type_symbol
_atom_site_label
_atom_site_fract_x
_atom_site_fract_y
_atom_site_fract_z
Si Si1 0.278370 0.419138 0.881347
Si Si2 0.932510 0.744007 0.253624
Si Si3 0.532931 0.265471 0.272630
Si Si4 0.936220 0.141738 0.353454
Si Si5 0.982106 0.802061 0.934625
Si Si6 0.248442 0.432302 0.652584
Si Si7 0.313109 0.459214 0.345866
Si Si8 0.900156 0.795657 0.531393
O O1 0.256713 0.690178 0.670106
O O2 0.540655 0.382272 0.799668
O O3 0.204653 0.306718 0.937835
O O4 0.146678 0.302412 0.100553
O O5 0.764612 0.635725 0.364606
O O6 0.824100 0.727881 0.392889
O O7 0.153817 0.601647 0.261945
O O8 0.000000 0.000000 0.000000
O O9 0.495479 0.349225 0.298837
O O10 0.334483 0.351484 0.250698
O O11 0.787575 0.335869 0.069927
O O12 0.500000 0.000000 0.500000
O O13 0.855951 0.972923 0.468734
O O14 0.000000 0.000000 0.500000
O O15 0.866050 0.780095 0.080834
O O16 0.033763 0.064178 0.681297
O O17 0.500000 0.500000 0.500000
O O18 0.102713 0.642415 0.573788
#
# Coordination Sequence:
#
# PCOD8003046 Si02
#       8
#     2   2   2   2   2   2   2   2
#     4  10  20  38  61  98 131 174 216 263 345 399
#     4  11  28  45  67  97 130 185 238 278 337 399
#     4  10  20  39  68  98 131 171 210 271 344 396
#     4  10  20  36  61  97 137 167 216 269 333 414
#     4  10  23  40  68 100 135 169 216 277 339 407
#     4  12  26  46  67  96 133 177 235 279 328 402
#     4  11  23  45  68  91 139 174 223 286 329 412
#     4  10  22  40  62  96 130 174 217 269 345 391
#
# _framework density 22.617080000000001
#
# number of rings (size 3 to 8) (size 9 to 14) (size 15 to 20)
#    0.000    1.500    1.250    4.500    3.500    4.000 
#    2.250    0.000    0.000    0.000    0.000    0.000 
#    0.000    0.000    0.000    0.000    0.000    0.000 
#
# Total GULP energy -198347.923349 kJ/mol
# GULP energy per Si atom -12396.745209 kJ/mol
# Density = 2.256560 g / cm^3
# Si number density = 22.617080 Si / 1000 Ang^3
#
#
#
# Elastic Constant Matrix: (Units=GPa)
#
#
# Indices 1 2 3 4 5 6 
#
# 1 133.3022 24.1924 46.6457 7.0110 -11.6090 -19.3749
# 2 24.1924 50.5392 16.8399 8.9712 -3.8449 -3.9715
# 3 46.6457 16.8399 82.5961 5.9779 3.6551 -7.6843
# 4 7.0110 8.9712 5.9779 34.0921 -2.6584 -3.8854
# 5 -11.6090 -3.8449 3.6551 -2.6584 49.2576 7.7274
# 6 -19.3749 -3.9715 -7.6843 -3.8854 7.7274 35.9484
#
#
#
# Elastic Compliance Matrix: (Units=1/GPa)
#
#
# Indices 1 2 3 4 5 6 
#
# 1 0.010546 -0.002907 -0.005102 0.000088 0.002039 0.003843
# 2 -0.002907 0.023035 -0.002783 -0.004933 0.001114 -0.000389
# 3 -0.005102 -0.002783 0.015835 -0.001120 -0.002781 0.000804
# 4 0.000088 -0.004933 -0.001120 0.031163 0.001022 0.002411
# 5 0.002039 0.001114 -0.002781 0.001022 0.021748 -0.003937
# 6 0.003843 -0.000389 0.000804 0.002411 -0.003937 0.031125
#
#
# Mechanical properties :
#
#
# Convention : Reuss Voigt Hill
#
# Bulk Modulus (GPa) = 35.93014 49.08817 42.50915
# Shear Modulus (GPa) = 30.42926 35.77692 33.10309
#
# Velocity S-wave (km/s) = 3.67196 3.98157 3.82990
# Velocity P-wave (km/s) = 5.82224 6.54892 6.19624
#
# Compressibility (1/GPa) = 0.02783179
#
# Stress axis : x y z
#
# Youngs Moduli (GPa) = 94.81993 43.41149 63.15070
#
# Poissons Ratio (x) = 0.12618 0.32222
# Poissons Ratio (y) = 0.27561 0.17578
# Poissons Ratio (z) = 0.48381 0.12083
#
# Static dielectric constant tensor:
#      x y z
#    x 4.594230 -0.219150 -0.200400 
#    y -0.219150 3.999030 0.187880 
#    z -0.200400 0.187880 4.115080 
# 
# 
# High freq. dielectric constant tensor:
#      x y z
#    x 1.914170 -0.004640 -0.007710 
#    y -0.004640 1.873860 0.006190 
#    z -0.007710 0.006190 1.882370 
# 
# From -- ./inp_files/595920.got.cif
#   From: 2010.06.25/outbox.cif.g09.slc.cpg/sg2_298_cif.got.tgz:595920.got - 2010.06.27 13:26:56.
