data_PCOD8003216
_publ_section_title
;
Structure prediction by ZEFSAII (Michael W. Deem and Ramdas Pophale) SiO2 
 PCOD8003216
Probable space group: P -1
;
_chemical_formula_sum "Si O2"
_cell_formula_units_Z 14
_cell_length_a 10.479280
_cell_length_b 11.176161
_cell_length_c 9.097747
_cell_angle_alpha 77.529284
_cell_angle_beta 129.985129
_cell_angle_gamma 130.911412
_cell_volume 577.063913
_symmetry_space_group_name_H-M "P -1"
_symmetry_group_IT_number 2
_symmetry_cell_setting 'triclinic'
loop_
_space_group_symop_operation_xyz
x,y,z
-x,-y,-z
loop_
_atom_site_type_symbol
_atom_site_label
_atom_site_fract_x
_atom_site_fract_y
_atom_site_fract_z
Si Si1 0.746523 0.906957 0.086617
Si Si2 0.240879 0.339756 0.683893
Si Si3 0.007637 0.255029 0.239224
Si Si4 0.082443 0.462120 0.745172
Si Si5 0.468507 0.870540 0.160059
Si Si6 0.662756 0.454739 0.803807
Si Si7 0.335372 0.783679 0.677219
O O1 0.808731 0.805185 0.215561
O O2 0.598398 0.915244 0.090176
O O3 0.978960 0.104026 0.184547
O O4 0.573838 0.824340 0.839586
O O5 0.240089 0.452568 0.764739
O O6 0.483420 0.454291 0.750400
O O7 0.037319 0.252571 0.437520
O O8 0.239649 0.433536 0.299855
O O9 0.792199 0.226946 0.042292
O O10 0.162920 0.640772 0.714250
O O11 0.808528 0.304045 0.557906
O O12 0.127000 0.461994 0.949329
O O13 0.462692 0.737581 0.278255
O O14 0.607219 0.043107 0.308397
#
# Coordination Sequence:
#
# PCOD8003216 Si02
#       7
#     2   2   2   2   2   2   2
#     4  10  20  37  64  89 117 155 211 240 287 358
#     4  11  22  38  62  87 121 164 201 237 294 363
#     4  11  22  38  63  93 120 157 197 253 300 345
#     4  11  22  38  63  91 119 158 202 246 295 356
#     4  10  20  40  62  88 117 158 202 246 288 361
#     4  11  24  39  61  92 126 151 199 251 304 347
#     4  10  20  36  64  86 117 151 210 242 288 345
#
# _framework density 24.260746000000001
#
# number of rings (size 3 to 8) (size 9 to 14) (size 15 to 20)
#    0.000    1.429    2.857    5.143    2.000    1.143 
#    0.000    3.571    0.000    0.000    0.000    0.000 
#    0.000    0.000    0.000    0.000    0.000    0.000 
#
# Total GULP energy -173513.708238 kJ/mol
# GULP energy per Si atom -12393.836303 kJ/mol
# Density = 2.420553 g / cm^3
# Si number density = 24.260746 Si / 1000 Ang^3
#
#
#
# Elastic Constant Matrix: (Units=GPa)
#
#
# Indices 1 2 3 4 5 6 
#
# 1 43.1573 42.5573 10.6482 -5.0839 10.2271 -15.1005
# 2 42.5573 153.8362 39.3263 13.4775 3.8684 -5.3428
# 3 10.6482 39.3263 99.3110 10.9216 4.2604 -12.3782
# 4 -5.0839 13.4775 10.9216 34.1294 -4.3692 -0.9302
# 5 10.2271 3.8684 4.2604 -4.3692 21.2820 0.8502
# 6 -15.1005 -5.3428 -12.3782 -0.9302 0.8502 25.0551
#
#
#
# Elastic Compliance Matrix: (Units=1/GPa)
#
#
# Indices 1 2 3 4 5 6 
#
# 1 0.057125 -0.016092 0.004342 0.011281 -0.024454 0.034391
# 2 -0.016092 0.011936 -0.003819 -0.005430 0.005590 -0.009432
# 3 0.004342 -0.003819 0.012573 -0.002249 -0.004694 0.008090
# 4 0.011281 -0.005430 -0.002249 0.034364 0.002843 0.005710
# 5 -0.024454 0.005590 -0.004694 0.002843 0.059957 -0.017794
# 6 0.034391 -0.009432 0.008090 0.005710 -0.017794 0.063440
#
#
# Mechanical properties :
#
#
# Convention : Reuss Voigt Hill
#
# Bulk Modulus (GPa) = 19.80359 53.48532 36.64446
# Shear Modulus (GPa) = 17.39934 29.67815 23.53874
#
# Velocity S-wave (km/s) = 2.68093 3.50136 3.11825
# Velocity P-wave (km/s) = 4.21470 6.20000 5.30112
#
# Compressibility (1/GPa) = 0.05049589
#
# Stress axis : x y z
#
# Youngs Moduli (GPa) = 17.50542 83.77928 79.53360
#
# Poissons Ratio (x) = 1.34819 -0.34535
# Poissons Ratio (y) = 0.28170 0.30377
# Poissons Ratio (z) = -0.07601 0.31999
#
# Static dielectric constant tensor:
#      x y z
#    x 3.826830 -0.269240 0.261290 
#    y -0.269240 4.712230 0.225580 
#    z 0.261290 0.225580 4.594990 
# 
# 
# High freq. dielectric constant tensor:
#      x y z
#    x 1.915670 -0.027030 0.028440 
#    y -0.027030 1.977250 0.012390 
#    z 0.028440 0.012390 1.967070 
# 
# From -- ./inp_files/176461.got.cif
#   From: 2010.06.25/outbox.cif.g09.slc.cpg/sg2_89_cif.got.tgz:176461.got - 2010.06.27 13:26:56.
