data_PCOD8003573
_publ_section_title
;
Structure prediction by ZEFSAII (Michael W. Deem and Ramdas Pophale) SiO2 
 PCOD8003573
Probable space group: P -1
;
_chemical_formula_sum "Si O2"
_cell_formula_units_Z 16
_cell_length_a 26.925627
_cell_length_b 7.733282
_cell_length_c 7.416433
_cell_angle_alpha 118.891306
_cell_angle_beta 140.815528
_cell_angle_gamma 44.002603
_cell_volume 668.004065
_symmetry_space_group_name_H-M "P -1"
_symmetry_group_IT_number 2
_symmetry_cell_setting 'triclinic'
loop_
_space_group_symop_operation_xyz
x,y,z
-x,-y,-z
loop_
_atom_site_type_symbol
_atom_site_label
_atom_site_fract_x
_atom_site_fract_y
_atom_site_fract_z
Si Si1 0.863542 0.171273 0.026602
Si Si2 0.919774 0.758311 0.697013
Si Si3 0.338647 0.316434 0.192486
Si Si4 0.465128 0.772719 0.358270
Si Si5 0.929353 0.972705 0.484907
Si Si6 0.658413 0.790390 0.254330
Si Si7 0.516368 0.686809 0.878533
Si Si8 0.126592 0.498980 0.306809
O O1 0.877429 0.014053 0.166367
O O2 0.755629 0.444627 0.848134
O O3 0.949454 0.206124 0.283366
O O4 0.872848 0.012418 0.804206
O O5 0.870793 0.627861 0.558930
O O6 0.900298 0.840179 0.473082
O O7 0.039908 0.549071 0.959884
O O8 0.438907 0.284997 0.503899
O O9 0.362114 0.055957 0.187863
O O10 0.314541 0.353281 0.931617
O O11 0.486400 0.734445 0.609487
O O12 0.447225 0.590768 0.117578
O O13 0.891780 0.242497 0.584242
O O14 0.765473 0.693336 0.587153
O O15 0.582357 0.095480 0.174765
O O16 0.604695 0.705880 0.182673
#
# Coordination Sequence:
#
# PCOD8003573 Si02
#       8
#     2   2   2   2   2   2   2   2
#     4  10  20  38  65  91 125 168 205 260 314 372
#     4  10  23  40  64  92 128 170 209 258 319 375
#     4  10  20  37  59  86 121 159 198 252 318 366
#     4   9  20  38  59  85 122 153 200 261 302 376
#     4  10  21  42  64  89 132 164 207 265 311 376
#     4  10  20  37  61  82 121 160 197 261 308 364
#     4   9  20  38  59  88 115 158 209 252 312 373
#     4  10  20  40  60  90 127 163 209 266 306 379
#
# _framework density 23.951948999999999
#
# number of rings (size 3 to 8) (size 9 to 14) (size 15 to 20)
#    0.000    2.250    1.250    1.500    1.750    2.500 
#    2.250   11.250    2.750    0.000    0.000    0.000 
#    0.000    0.000    0.000    0.000    0.000    0.000 
#
# Total GULP energy -198346.656482 kJ/mol
# GULP energy per Si atom -12396.666030 kJ/mol
# Density = 2.389743 g / cm^3
# Si number density = 23.951949 Si / 1000 Ang^3
#
#
#
# Elastic Constant Matrix: (Units=GPa)
#
#
# Indices 1 2 3 4 5 6 
#
# 1 101.9854 46.0696 24.0280 -20.1960 6.3371 9.7065
# 2 46.0696 144.5283 39.4491 -31.1687 28.7406 -0.2057
# 3 24.0280 39.4491 51.9293 -23.7070 22.6584 -8.8419
# 4 -20.1960 -31.1687 -23.7070 35.3710 -9.4420 8.9675
# 5 6.3371 28.7406 22.6584 -9.4420 34.5529 -8.7653
# 6 9.7065 -0.2057 -8.8419 8.9675 -8.7653 41.9927
#
#
#
# Elastic Compliance Matrix: (Units=1/GPa)
#
#
# Indices 1 2 3 4 5 6 
#
# 1 0.013005 -0.002681 -0.003845 0.004208 0.002447 -0.004217
# 2 -0.002681 0.010743 -0.002157 0.005421 -0.006111 -0.002215
# 3 -0.003845 -0.002157 0.038078 0.016290 -0.017576 0.001749
# 4 0.004208 0.005421 0.016290 0.047163 -0.005280 -0.008690
# 5 0.002447 -0.006111 -0.017576 -0.005280 0.045250 0.006277
# 6 -0.004217 -0.002215 0.001749 -0.008690 0.006277 0.028312
#
#
# Mechanical properties :
#
#
# Convention : Reuss Voigt Hill
#
# Bulk Modulus (GPa) = 22.49214 57.50403 39.99809
# Shear Modulus (GPa) = 23.28418 34.97639 29.13028
#
# Velocity S-wave (km/s) = 3.12127 3.82550 3.49118
# Velocity P-wave (km/s) = 4.73293 6.60097 5.74341
#
# Compressibility (1/GPa) = 0.04445997
#
# Stress axis : x y z
#
# Youngs Moduli (GPa) = 76.89384 93.07994 26.26174
#
# Poissons Ratio (x) = 0.24954 0.10098
# Poissons Ratio (y) = 0.20614 0.05665
# Poissons Ratio (z) = 0.29568 0.20079
#
# Static dielectric constant tensor:
#      x y z
#    x 4.353100 0.027290 0.173040 
#    y 0.027290 4.366960 -0.083350 
#    z 0.173040 -0.083350 4.129160 
# 
# 
# High freq. dielectric constant tensor:
#      x y z
#    x 1.940420 -0.004300 0.003070 
#    y -0.004300 1.956170 -0.009560 
#    z 0.003070 -0.009560 1.921420 
# 
# From -- ./inp_files/358435.got.cif
#   From: 2010.06.25/outbox.cif.g09.slc.cpg/sg2_180_cif.got.tgz:358435.got - 2010.06.27 13:26:56.
