data_PCOD8003687
_publ_section_title
;
Structure prediction by ZEFSAII (Michael W. Deem and Ramdas Pophale) SiO2 
 PCOD8003687
Probable space group: P -1
;
_chemical_formula_sum "Si O2"
_cell_formula_units_Z 14
_cell_length_a 21.601750
_cell_length_b 8.623539
_cell_length_c 9.687581
_cell_angle_alpha 100.093840
_cell_angle_beta 143.049088
_cell_angle_gamma 52.553310
_cell_volume 653.838802
_symmetry_space_group_name_H-M "P -1"
_symmetry_group_IT_number 2
_symmetry_cell_setting 'triclinic'
loop_
_space_group_symop_operation_xyz
x,y,z
-x,-y,-z
loop_
_atom_site_type_symbol
_atom_site_label
_atom_site_fract_x
_atom_site_fract_y
_atom_site_fract_z
Si Si1 0.408683 0.525581 0.634358
Si Si2 0.658645 0.919280 0.299155
Si Si3 0.063341 0.646219 0.715440
Si Si4 0.722509 0.165649 0.297631
Si Si5 0.309928 0.932913 0.348465
Si Si6 0.577637 0.733382 0.598641
Si Si7 0.008220 0.598176 0.315211
O O1 0.301860 0.665149 0.607929
O O2 0.323311 0.744727 0.407368
O O3 0.402994 0.355169 0.537201
O O4 0.602273 0.343467 0.979913
O O5 0.823807 0.621292 0.508805
O O6 0.655988 0.079978 0.227151
O O7 0.664312 0.959688 0.476458
O O8 0.500000 0.000000 0.000000
O O9 0.060061 0.481606 0.756918
O O10 0.041212 0.671354 0.515422
O O11 0.244753 0.497786 0.045457
O O12 0.916204 0.931773 0.561899
O O13 0.450077 0.774208 0.456207
O O14 0.127126 0.164727 0.991362
O O15 0.500000 0.000000 0.500000
#
# Coordination Sequence:
#
# PCOD8003687 Si02
#       7
#     2   2   2   2   2   2   2
#     4  10  23  42  62  87 126 166 202 247 313 369
#     4  10  21  35  62  94 123 157 211 258 297 357
#     4  10  21  37  62  92 117 162 207 252 304 357
#     4   9  21  42  64  86 125 171 198 245 314 368
#     4  11  22  40  59  90 126 166 202 248 314 360
#     4  12  24  38  64  95 121 156 210 260 299 361
#     4  10  20  37  60  88 126 159 202 254 305 365
#
# _framework density 21.412006000000002
#
# number of rings (size 3 to 8) (size 9 to 14) (size 15 to 20)
#    0.000    1.714    1.429    2.571    6.000    0.571 
#    0.000    7.143    0.000    0.000    0.000    0.000 
#    0.000    0.000    0.000    0.000    0.000    0.000 
#
# Total GULP energy -173621.534986 kJ/mol
# GULP energy per Si atom -12401.538213 kJ/mol
# Density = 2.136327 g / cm^3
# Si number density = 21.412006 Si / 1000 Ang^3
#
#
#
# Elastic Constant Matrix: (Units=GPa)
#
#
# Indices 1 2 3 4 5 6 
#
# 1 35.0444 27.8725 35.1152 -2.8990 -2.4652 -9.1857
# 2 27.8725 159.3703 72.6424 5.4266 -4.1377 -30.7925
# 3 35.1152 72.6424 167.8676 -14.3756 -8.1546 -15.4947
# 4 -2.8990 5.4266 -14.3756 42.1093 -6.0239 -2.0474
# 5 -2.4652 -4.1377 -8.1546 -6.0239 39.9250 -4.4498
# 6 -9.1857 -30.7925 -15.4947 -2.0474 -4.4498 26.4903
#
#
#
# Elastic Compliance Matrix: (Units=1/GPa)
#
#
# Indices 1 2 3 4 5 6 
#
# 1 0.038918 -0.002608 -0.006107 0.001565 0.001939 0.007338
# 2 -0.002608 0.009922 -0.003051 -0.001935 0.000939 0.008853
# 3 -0.006107 -0.003051 0.008920 0.003255 0.001628 0.000078
# 4 0.001565 -0.001935 0.003255 0.026054 0.004829 0.003022
# 5 0.001939 0.000939 0.001628 0.004829 0.027178 0.007655
# 6 0.007338 0.008853 0.000078 0.003022 0.007655 0.052150
#
#
# Mechanical properties :
#
#
# Convention : Reuss Voigt Hill
#
# Bulk Modulus (GPa) = 29.21562 70.39361 49.80461
# Shear Modulus (GPa) = 25.24188 36.81508 31.02848
#
# Velocity S-wave (km/s) = 3.43719 4.15102 3.81086
# Velocity P-wave (km/s) = 5.42462 7.47809 6.53254
#
# Compressibility (1/GPa) = 0.03422827
#
# Stress axis : x y z
#
# Youngs Moduli (GPa) = 25.69506 100.78305 112.10841
#
# Poissons Ratio (x) = 0.26283 0.68464
# Poissons Ratio (y) = 0.06701 0.34206
# Poissons Ratio (z) = 0.15692 0.30751
#
# Static dielectric constant tensor:
#      x y z
#    x 3.734010 -0.334800 -0.159580 
#    y -0.334800 4.070370 -0.088270 
#    z -0.159580 -0.088270 3.890920 
# 
# 
# High freq. dielectric constant tensor:
#      x y z
#    x 1.818470 -0.023450 -0.011370 
#    y -0.023450 1.849830 -0.010060 
#    z -0.011370 -0.010060 1.852140 
# 
# From -- ./inp_files/160106.got.cif
#   From: 2010.06.25/outbox.cif.g09.slc.cpg/sg2_81_cif.got.tgz:160106.got - 2010.06.27 13:26:56.
