data_PCOD8003527
_publ_section_title
;
Structure prediction by ZEFSAII (Michael W. Deem and Ramdas Pophale) SiO2 
 PCOD8003527
Probable space group: P -1
;
_chemical_formula_sum "Si O2"
_cell_formula_units_Z 12
_cell_length_a 7.731996
_cell_length_b 11.685562
_cell_length_c 7.440107
_cell_angle_alpha 64.521511
_cell_angle_beta 121.975539
_cell_angle_gamma 97.554049
_cell_volume 510.691185
_symmetry_space_group_name_H-M "P -1"
_symmetry_group_IT_number 2
_symmetry_cell_setting 'triclinic'
loop_
_space_group_symop_operation_xyz
x,y,z
-x,-y,-z
loop_
_atom_site_type_symbol
_atom_site_label
_atom_site_fract_x
_atom_site_fract_y
_atom_site_fract_z
Si Si1 0.632331 0.917429 0.884512
Si Si2 0.444056 0.311668 0.585144
Si Si3 0.183950 0.172531 0.302234
Si Si4 0.737941 0.117029 0.079756
Si Si5 0.158562 0.347363 0.860796
Si Si6 0.721542 0.456157 0.432010
O O1 0.681239 0.927671 0.690621
O O2 0.387674 0.935585 0.786052
O O3 0.721610 0.774689 0.097947
O O4 0.748330 0.020161 0.983228
O O5 0.316615 0.195713 0.535901
O O6 0.542302 0.367047 0.419903
O O7 0.297886 0.428280 0.512238
O O8 0.627745 0.254329 0.857878
O O9 0.968047 0.126049 0.269154
O O10 0.141252 0.311422 0.085218
O O11 0.276502 0.473191 0.809800
O O12 0.935201 0.368663 0.635587
#
# Coordination Sequence:
#
# PCOD8003527 Si02
#       6
#     2   2   2   2   2   2
#     4   9  21  40  61  82 118 155 186 238 292 336
#     4  11  21  37  60  88 112 152 196 234 286 339
#     4  10  22  38  58  93 111 150 196 234 286 340
#     4  11  20  42  62  82 119 152 189 239 288 341
#     4   9  19  39  56  85 114 155 192 226 295 335
#     4  10  20  37  59  81 121 155 185 239 284 343
#
# _framework density 23.497568000000001
#
# number of rings (size 3 to 8) (size 9 to 14) (size 15 to 20)
#    1.000    1.000    3.333    0.500    0.000    2.000 
#    6.000    3.333    0.000    0.000    0.000    0.000 
#    0.000    0.000    0.000    0.000    0.000    0.000 
#
# Total GULP energy -148696.427413 kJ/mol
# GULP energy per Si atom -12391.368951 kJ/mol
# Density = 2.344409 g / cm^3
# Si number density = 23.497568 Si / 1000 Ang^3
#
#
#
# Elastic Constant Matrix: (Units=GPa)
#
#
# Indices 1 2 3 4 5 6 
#
# 1 124.5045 33.2915 8.8576 13.8065 21.3909 13.9356
# 2 33.2915 77.7893 0.5101 13.2255 22.8269 4.7784
# 3 8.8576 0.5101 13.7055 -1.8475 11.4518 3.5608
# 4 13.8065 13.2255 -1.8475 33.2159 4.9204 5.8400
# 5 21.3909 22.8269 11.4518 4.9204 35.2338 -1.1225
# 6 13.9356 4.7784 3.5608 5.8400 -1.1225 41.0655
#
#
#
# Elastic Compliance Matrix: (Units=1/GPa)
#
#
# Indices 1 2 3 4 5 6 
#
# 1 0.010103 -0.002934 -0.003807 -0.002399 -0.002740 -0.002491
# 2 -0.002934 0.018949 0.013565 -0.003000 -0.014561 -0.002357
# 3 -0.003807 0.013565 0.119938 0.012322 -0.047618 -0.013740
# 4 -0.002399 -0.003000 0.012322 0.034692 -0.005609 -0.004992
# 5 -0.002740 -0.014561 -0.047618 -0.005609 0.056028 0.009082
# 6 -0.002491 -0.002357 -0.013740 -0.004992 0.009082 0.027620
#
#
# Mechanical properties :
#
#
# Convention : Reuss Voigt Hill
#
# Bulk Modulus (GPa) = 6.14859 33.47974 19.81417
# Shear Modulus (GPa) = 16.23931 33.45905 24.84918
#
# Velocity S-wave (km/s) = 2.63174 3.77760 3.25548
# Velocity P-wave (km/s) = 3.44342 5.77115 4.75201
#
# Compressibility (1/GPa) = 0.16263890
#
# Stress axis : x y z
#
# Youngs Moduli (GPa) = 98.98363 52.77187 8.33763
#
# Poissons Ratio (x) = 0.15483 0.03174
# Poissons Ratio (y) = 0.29041 -0.11310
# Poissons Ratio (z) = 0.37685 -0.71587
#
# Static dielectric constant tensor:
#      x y z
#    x 4.391750 0.132530 -0.088210 
#    y 0.132530 3.865770 -0.414290 
#    z -0.088210 -0.414290 3.864310 
# 
# 
# High freq. dielectric constant tensor:
#      x y z
#    x 1.946230 0.007830 -0.000280 
#    y 0.007830 1.903660 -0.035510 
#    z -0.000280 -0.035510 1.914070 
# 
# From -- ./inp_files/70957.got.cif
#   From: 2010.06.25/outbox.cif.g09.slc.cpg/sg2_36_cif.got.tgz:70957.got - 2010.06.27 13:26:56.
