data_PCOD8003010
_publ_section_title
;
Structure prediction by ZEFSAII (Michael W. Deem and Ramdas Pophale) SiO2 
 PCOD8003010
Probable space group: P -1
;
_chemical_formula_sum "Si O2"
_cell_formula_units_Z 14
_cell_length_a 22.524994
_cell_length_b 12.106997
_cell_length_c 10.281836
_cell_angle_alpha 57.417300
_cell_angle_beta 137.038681
_cell_angle_gamma 156.367614
_cell_volume 670.785557
_symmetry_space_group_name_H-M "P -1"
_symmetry_group_IT_number 2
_symmetry_cell_setting 'triclinic'
loop_
_space_group_symop_operation_xyz
x,y,z
-x,-y,-z
loop_
_atom_site_type_symbol
_atom_site_label
_atom_site_fract_x
_atom_site_fract_y
_atom_site_fract_z
Si Si1 0.837900 0.161231 0.464627
Si Si2 0.677169 0.817053 0.665747
Si Si3 0.970248 0.882755 0.891711
Si Si4 0.968324 0.805602 0.379718
Si Si5 0.467652 0.816683 0.003586
Si Si6 0.464512 0.774703 0.470724
Si Si7 0.360086 0.709559 0.626807
O O1 0.000000 0.500000 0.500000
O O2 0.878922 0.107383 0.456147
O O3 0.847281 0.112200 0.653400
O O4 0.602688 0.890645 0.242219
O O5 0.500000 0.500000 0.500000
O O6 0.572465 0.783838 0.608158
O O7 0.821728 0.920938 0.921573
O O8 0.751410 0.501847 0.782284
O O9 0.927103 0.914225 0.672551
O O10 0.000000 0.000000 0.000000
O O11 0.875082 0.658189 0.470036
O O12 0.776385 0.544578 0.133632
O O13 0.518398 0.887230 0.885058
O O14 0.500000 0.000000 0.000000
O O15 0.420920 0.715613 0.592156
O O16 0.624549 0.111735 0.479738
#
# Coordination Sequence:
#
# PCOD8003010 Si02
#       7
#     2   2   2   2   2   2   2
#     4  12  21  33  63  93 116 156 206 263 304 357
#     4  12  24  39  64  95 127 161 208 258 312 369
#     4  12  24  39  66  92 127 165 208 260 310 366
#     4  10  22  40  58  92 121 159 210 249 314 356
#     4  10  20  36  61  89 123 156 199 262 304 360
#     4  11  23  46  61  93 129 165 208 257 312 375
#     4   9  24  44  66  86 132 168 200 262 317 361
#
# _framework density 20.871054000000001
#
# number of rings (size 3 to 8) (size 9 to 14) (size 15 to 20)
#    0.857    0.286    4.286    2.571    4.000    0.571 
#    2.571    2.143    0.000    0.000    0.000    0.000 
#    0.000    0.000    0.000    0.000    0.000    0.000 
#
# Total GULP energy -173456.490587 kJ/mol
# GULP energy per Si atom -12389.749328 kJ/mol
# Density = 2.082355 g / cm^3
# Si number density = 20.871054 Si / 1000 Ang^3
#
#
#
# Elastic Constant Matrix: (Units=GPa)
#
#
# Indices 1 2 3 4 5 6 
#
# 1 130.4489 32.1144 28.9051 -11.8643 12.1987 5.4771
# 2 32.1144 89.5112 7.0605 -13.4932 5.0400 8.1569
# 3 28.9051 7.0605 85.4943 -1.0305 27.2326 -6.5609
# 4 -11.8643 -13.4932 -1.0305 32.8294 -0.2837 -2.2820
# 5 12.1987 5.0400 27.2326 -0.2837 42.1058 -3.3279
# 6 5.4771 8.1569 -6.5609 -2.2820 -3.3279 29.0352
#
#
#
# Elastic Compliance Matrix: (Units=1/GPa)
#
#
# Indices 1 2 3 4 5 6 
#
# 1 0.009241 -0.002604 -0.002791 0.002068 -0.000670 -0.001556
# 2 -0.002604 0.013073 -0.000066 0.004215 -0.000974 -0.002977
# 3 -0.002791 -0.000066 0.015791 -0.000409 -0.009160 0.003031
# 4 0.002068 0.004215 -0.000409 0.032982 -0.000549 0.000863
# 5 -0.000670 -0.000974 -0.009160 -0.000549 0.030118 0.001739
# 6 -0.001556 -0.002977 0.003031 0.000863 0.001739 0.036523
#
#
# Mechanical properties :
#
#
# Convention : Reuss Voigt Hill
#
# Bulk Modulus (GPa) = 36.78795 49.06827 42.92811
# Shear Modulus (GPa) = 31.70333 36.61906 34.16119
#
# Velocity S-wave (km/s) = 3.90168 4.19326 4.05009
# Velocity P-wave (km/s) = 6.16133 6.85608 6.51797
#
# Compressibility (1/GPa) = 0.02718281
#
# Stress axis : x y z
#
# Youngs Moduli (GPa) = 108.20952 76.49488 63.32708
#
# Poissons Ratio (x) = 0.19921 0.17671
# Poissons Ratio (y) = 0.28180 0.00421
# Poissons Ratio (z) = 0.30196 0.00508
#
# Static dielectric constant tensor:
#      x y z
#    x 3.624320 0.201990 0.066550 
#    y 0.201990 4.349780 -0.164740 
#    z 0.066550 -0.164740 3.759680 
# 
# 
# High freq. dielectric constant tensor:
#      x y z
#    x 1.803690 0.005270 0.012460 
#    y 0.005270 1.835770 -0.006000 
#    z 0.012460 -0.006000 1.798990 
# 
# From -- ./inp_files/470710.got.cif
#   From: 2010.06.25/outbox.cif.g09.slc.cpg/sg2_236_cif.got.tgz:470710.got - 2010.06.27 13:26:56.
