data_PCOD8003434
_publ_section_title
;
Structure prediction by ZEFSAII (Michael W. Deem and Ramdas Pophale) SiO2 
 PCOD8003434
Probable space group: P -1
;
_chemical_formula_sum "Si O2"
_cell_formula_units_Z 16
_cell_length_a 8.316775
_cell_length_b 20.361190
_cell_length_c 17.418992
_cell_angle_alpha 19.479157
_cell_angle_beta 85.625592
_cell_angle_gamma 74.528541
_cell_volume 794.700395
_symmetry_space_group_name_H-M "P -1"
_symmetry_group_IT_number 2
_symmetry_cell_setting 'triclinic'
loop_
_space_group_symop_operation_xyz
x,y,z
-x,-y,-z
loop_
_atom_site_type_symbol
_atom_site_label
_atom_site_fract_x
_atom_site_fract_y
_atom_site_fract_z
Si Si1 0.918156 0.312647 0.587374
Si Si2 0.706709 0.140812 0.208550
Si Si3 0.274770 0.436404 0.189358
Si Si4 0.206433 0.136725 0.631110
Si Si5 0.058342 0.180358 0.310812
Si Si6 0.575855 0.959176 0.627833
Si Si7 0.437990 0.157794 0.945288
Si Si8 0.277886 0.946865 0.077075
O O1 0.766818 0.600055 0.285897
O O2 0.789754 0.207722 0.713346
O O3 0.020950 0.248400 0.571554
O O4 0.087584 0.200550 0.770345
O O5 0.793067 0.055565 0.213326
O O6 0.835685 0.892143 0.530089
O O7 0.482945 0.205872 0.146611
O O8 0.704192 0.365546 0.989193
O O9 0.178814 0.357676 0.341301
O O10 0.486775 0.207418 0.405241
O O11 0.140935 0.546890 0.993960
O O12 0.419911 0.992741 0.823184
O O13 0.191020 0.162263 0.253775
O O14 0.000000 0.000000 0.500000
O O15 0.500000 0.000000 0.500000
O O16 0.559311 0.208346 0.824927
O O17 0.382053 0.992545 0.090194
#
# Coordination Sequence:
#
# PCOD8003434 Si02
#       8
#     2   2   2   2   2   2   2   2
#     4  10  20  37  60  84 113 145 180 226 271 318
#     4   9  20  38  55  77 110 146 186 231 276 327
#     4  10  21  39  56  76 113 149 181 234 280 320
#     4  10  23  36  51  83 116 145 184 221 273 339
#     4   9  19  36  59  80 101 140 191 232 273 322
#     4   9  19  34  55  82 103 131 182 230 276 330
#     4  10  20  37  57  83 115 145 180 225 273 322
#     4   9  20  37  61  87 107 141 190 223 262 328
#
# _framework density 20.133375999999998
#
# number of rings (size 3 to 8) (size 9 to 14) (size 15 to 20)
#    0.000    2.500    0.000    0.750    0.000   13.000 
#    0.000   11.250    0.000    0.000    0.000    0.000 
#    0.000    0.000    0.000    0.000    0.000    0.000 
#
# Total GULP energy -198265.878176 kJ/mol
# GULP energy per Si atom -12391.617386 kJ/mol
# Density = 2.008755 g / cm^3
# Si number density = 20.133376 Si / 1000 Ang^3
#
#
#
# Elastic Constant Matrix: (Units=GPa)
#
#
# Indices 1 2 3 4 5 6 
#
# 1 76.0886 27.7710 6.9565 -1.1106 -5.6815 -2.5022
# 2 27.7710 105.7216 20.1355 -5.2104 -4.2412 2.2665
# 3 6.9565 20.1355 50.4965 -4.5907 -8.4517 9.9998
# 4 -1.1106 -5.2104 -4.5907 29.0424 -1.5530 2.4331
# 5 -5.6815 -4.2412 -8.4517 -1.5530 29.3044 1.2094
# 6 -2.5022 2.2665 9.9998 2.4331 1.2094 29.7251
#
#
#
# Elastic Compliance Matrix: (Units=1/GPa)
#
#
# Indices 1 2 3 4 5 6 
#
# 1 0.014763 -0.003737 -0.000539 -0.000217 0.002086 0.001642
# 2 -0.003737 0.011235 -0.003886 0.001247 -0.000155 0.000040
# 3 -0.000539 -0.003886 0.024721 0.004296 0.007050 -0.008704
# 4 -0.000217 0.001247 0.004296 0.035901 0.003471 -0.004638
# 5 0.002086 -0.000155 0.007050 0.003471 0.036888 -0.003969
# 6 0.001642 0.000040 -0.008704 -0.004638 -0.003969 0.037246
#
#
# Mechanical properties :
#
#
# Convention : Reuss Voigt Hill
#
# Bulk Modulus (GPa) = 29.07436 38.00363 33.53899
# Shear Modulus (GPa) = 26.51923 29.44397 27.98160
#
# Velocity S-wave (km/s) = 3.63323 3.82834 3.73206
# Velocity P-wave (km/s) = 5.66328 6.20149 5.93849
#
# Compressibility (1/GPa) = 0.03439457
#
# Stress axis : x y z
#
# Youngs Moduli (GPa) = 67.73902 89.00798 40.45114
#
# Poissons Ratio (x) = 0.33265 0.02181
# Poissons Ratio (y) = 0.25316 0.15718
# Poissons Ratio (z) = 0.03652 0.34585
#
# Static dielectric constant tensor:
#      x y z
#    x 4.120820 -0.149510 0.215370 
#    y -0.149510 3.776140 0.088030 
#    z 0.215370 0.088030 3.589820 
# 
# 
# High freq. dielectric constant tensor:
#      x y z
#    x 1.795120 -0.004110 -0.002600 
#    y -0.004110 1.786490 -0.002870 
#    z -0.002600 -0.002870 1.771150 
# 
# From -- ./inp_files/562324.got.cif
#   From: 2010.06.25/outbox.cif.g09.slc.cpg/sg2_282_cif.got.tgz:562324.got - 2010.06.27 13:26:56.
