data_PCOD8003654
_publ_section_title
;
Structure prediction by ZEFSAII (Michael W. Deem and Ramdas Pophale) SiO2 
 PCOD8003654
Probable space group: P -1
;
_chemical_formula_sum "Si O2"
_cell_formula_units_Z 16
_cell_length_a 13.736508
_cell_length_b 18.438154
_cell_length_c 11.703229
_cell_angle_alpha 54.467030
_cell_angle_beta 158.570244
_cell_angle_gamma 121.892722
_cell_volume 880.509963
_symmetry_space_group_name_H-M "P -1"
_symmetry_group_IT_number 2
_symmetry_cell_setting 'triclinic'
loop_
_space_group_symop_operation_xyz
x,y,z
-x,-y,-z
loop_
_atom_site_type_symbol
_atom_site_label
_atom_site_fract_x
_atom_site_fract_y
_atom_site_fract_z
Si Si1 0.476436 0.927771 0.442471
Si Si2 0.958726 0.278191 0.521738
Si Si3 0.899274 0.957294 0.689224
Si Si4 0.112190 0.861236 0.615023
Si Si5 0.642466 0.902904 0.241760
Si Si6 0.586080 0.440291 0.257823
Si Si7 0.086848 0.517376 0.709161
Si Si8 0.545638 0.253228 0.281585
O O1 0.742748 0.935077 0.652920
O O2 0.467786 0.830224 0.574441
O O3 0.500000 0.000000 0.500000
O O4 0.215399 0.944669 0.064557
O O5 0.860257 0.380120 0.301540
O O6 0.762490 0.232194 0.438815
O O7 0.954851 0.227884 0.443244
O O8 0.258527 0.276352 0.894737
O O9 0.800663 0.888956 0.546589
O O10 0.838507 0.059749 0.493359
O O11 0.862855 0.891113 0.394410
O O12 0.391839 0.839143 0.009035
O O13 0.500000 0.000000 0.000000
O O14 0.636066 0.336987 0.377078
O O15 0.855755 0.478355 0.571169
O O16 0.500000 0.500000 0.000000
O O17 0.355359 0.457607 0.084026
O O18 0.000000 0.500000 0.500000
#
# Coordination Sequence:
#
# PCOD8003654 Si02
#       8
#     2   2   2   2   2   2   2   2
#     4  12  24  36  49  75 107 144 183 199 238 305
#     4  12  20  31  50  76 112 138 162 213 266 305
#     4  11  21  39  54  68 104 141 173 217 255 291
#     4  11  21  34  55  83  99 129 179 219 274 312
#     4  10  20  37  58  76  95 130 178 228 269 311
#     4  10  16  30  46  68  95 138 172 205 247 298
#     4  10  16  29  46  69  99 142 159 196 260 314
#     4  12  21  32  49  71 108 150 174 203 242 306
#
# _framework density 18.171288000000001
#
# number of rings (size 3 to 8) (size 9 to 14) (size 15 to 20)
#    0.000    1.000    5.000    7.125    0.000    0.000 
#    0.000    0.000    0.000    0.000    0.000    0.000 
#    0.000   20.000    0.000    0.000    0.000    0.000 
#
# Total GULP energy -198329.034851 kJ/mol
# GULP energy per Si atom -12395.564678 kJ/mol
# Density = 1.812993 g / cm^3
# Si number density = 18.171288 Si / 1000 Ang^3
#
#
#
# Elastic Constant Matrix: (Units=GPa)
#
#
# Indices 1 2 3 4 5 6 
#
# 1 97.8975 42.6580 24.5321 10.6228 21.4392 -7.1948
# 2 42.6580 96.5344 17.7528 -8.9008 2.2409 -10.6832
# 3 24.5321 17.7528 77.9522 19.9634 17.3376 -2.1480
# 4 10.6228 -8.9008 19.9634 7.9351 11.6444 6.2904
# 5 21.4392 2.2409 17.3376 11.6444 32.9304 7.2353
# 6 -7.1948 -10.6832 -2.1480 6.2904 7.2353 22.8960
#
#
#
# Elastic Compliance Matrix: (Units=1/GPa)
#
#
# Indices 1 2 3 4 5 6 
#
# 1 0.010304 0.002208 -0.012995 0.049803 -0.016432 -0.005441
# 2 0.002208 0.001512 0.015794 -0.074141 0.012092 0.019429
# 3 -0.012995 0.015794 -0.010313 0.108165 -0.020861 -0.020806
# 4 0.049803 -0.074141 0.108165 -0.454482 0.054676 0.098789
# 5 -0.016432 0.012092 -0.020861 0.054676 0.038166 -0.028561
# 6 -0.005441 0.019429 -0.020806 0.098789 -0.028561 0.030964
#
#
# Mechanical properties :
#
#
# Convention : Reuss Voigt Hill
#
# Bulk Modulus (GPa) = 86.83525 49.14111 67.98818
# Shear Modulus (GPa) = -12.81974 25.24837 6.21431
#
# Velocity S-wave (km/s) = -2.65900 3.73160 1.85129
# Velocity P-wave (km/s) = 6.20192 6.75784 6.48584
#
# Compressibility (1/GPa) = 0.01151606
#
# Stress axis : x y z
#
# Youngs Moduli (GPa) = 97.05341 661.26583 -96.96392
#
# Poissons Ratio (x) = -1.46008 -1.26007
# Poissons Ratio (y) = -0.21429 1.53144
# Poissons Ratio (z) = 1.26123 -10.44397
#
# Static dielectric constant tensor:
#      x y z
#    x 3.776080 0.184590 1.186910 
#    y 0.184590 3.573980 0.914040 
#    z 1.186910 0.914040 5.645530 
# 
# 
# High freq. dielectric constant tensor:
#      x y z
#    x 1.687270 -0.009630 0.045250 
#    y -0.009630 1.698140 0.024980 
#    z 0.045250 0.024980 1.702510 
# 
# From -- ./inp_files/369388.got.cif
#   From: 2010.06.25/outbox.cif.g09.slc.cpg/sg2_185_cif.got.tgz:369388.got - 2010.06.27 13:26:56.
