data_PCOD8003468
_publ_section_title
;
Structure prediction by ZEFSAII (Michael W. Deem and Ramdas Pophale) SiO2 
 PCOD8003468
Probable space group: P -1
;
_chemical_formula_sum "Si O2"
_cell_formula_units_Z 16
_cell_length_a 12.567042
_cell_length_b 26.927113
_cell_length_c 26.695566
_cell_angle_alpha 10.667354
_cell_angle_beta 150.437083
_cell_angle_gamma 150.385365
_cell_volume 814.430531
_symmetry_space_group_name_H-M "P -1"
_symmetry_group_IT_number 2
_symmetry_cell_setting 'triclinic'
loop_
_space_group_symop_operation_xyz
x,y,z
-x,-y,-z
loop_
_atom_site_type_symbol
_atom_site_label
_atom_site_fract_x
_atom_site_fract_y
_atom_site_fract_z
Si Si1 0.289049 0.828991 0.787961
Si Si2 0.947526 0.434642 0.888841
Si Si3 0.611405 0.000394 0.663433
Si Si4 0.372080 0.556206 0.441446
Si Si5 0.824874 0.680498 0.694816
Si Si6 0.888700 0.982412 0.146484
Si Si7 0.446392 0.458693 0.077009
Si Si8 0.202965 0.128301 0.665384
O O1 0.074214 0.758145 0.736765
O O2 0.483186 0.975300 0.688019
O O3 0.270058 0.037927 0.618959
O O4 0.323552 0.542080 0.110204
O O5 0.817255 0.556493 0.759261
O O6 0.962485 0.666247 0.622421
O O7 0.187210 0.387452 0.050284
O O8 0.819062 0.144833 0.105734
O O9 0.561764 0.237777 0.371413
O O10 0.862732 0.030485 0.751875
O O11 0.545789 0.735847 0.867209
O O12 0.500000 0.500000 0.500000
O O13 0.255232 0.258209 0.706401
O O14 0.549343 0.709319 0.401233
O O15 0.180395 0.732880 0.178956
O O16 0.849756 0.949034 0.222667
O O17 0.500000 0.500000 0.000000
#
# Coordination Sequence:
#
# PCOD8003468 Si02
#       8
#     2   2   2   2   2   2   2   2
#     4  10  21  37  57  78 107 146 193 242 277 315
#     4  12  22  35  55  83 113 153 185 224 282 338
#     4  12  23  38  57  83 112 156 191 226 277 334
#     4  10  20  37  58  82 111 146 188 240 280 315
#     4  10  21  36  56  79 108 145 190 243 279 317
#     4  11  21  37  58  84 114 148 188 232 276 333
#     4  12  24  37  51  80 124 159 184 214 266 343
#     4  11  21  35  56  83 114 146 185 229 279 340
#
# _framework density 19.645627999999999
#
# number of rings (size 3 to 8) (size 9 to 14) (size 15 to 20)
#    0.000    1.000    1.250    8.625    3.500    0.000 
#    0.000    0.000    0.000    0.000    0.000   17.500 
#    0.000    0.000    0.000    0.000    0.000    0.000 
#
# Total GULP energy -198336.121012 kJ/mol
# GULP energy per Si atom -12396.007563 kJ/mol
# Density = 1.960091 g / cm^3
# Si number density = 19.645628 Si / 1000 Ang^3
#
#
#
# Elastic Constant Matrix: (Units=GPa)
#
#
# Indices 1 2 3 4 5 6 
#
# 1 60.0933 4.6694 9.0573 -13.9027 -0.7542 25.8785
# 2 4.6694 10.4776 21.2300 -29.5797 -16.9085 48.5747
# 3 9.0573 21.2300 120.8087 -12.8712 10.3187 6.4930
# 4 -13.9027 -29.5797 -12.8712 44.1094 -9.4221 11.6632
# 5 -0.7542 -16.9085 10.3187 -9.4221 13.6675 10.7716
# 6 25.8785 48.5747 6.4930 11.6632 10.7716 -1.0611
#
#
#
# Elastic Compliance Matrix: (Units=1/GPa)
#
#
# Indices 1 2 3 4 5 6 
#
# 1 0.018348 -0.008228 0.000853 -0.000262 -0.007518 -0.003138
# 2 -0.008228 0.007124 -0.001399 -0.003743 -0.005875 0.016128
# 3 0.000853 -0.001399 0.009251 0.002193 -0.004077 -0.003908
# 4 -0.000262 -0.003743 0.002193 0.017668 -0.001963 0.009950
# 5 -0.007518 -0.005875 -0.004077 -0.001963 0.051146 0.020380
# 6 -0.003138 0.016128 -0.003908 0.009950 0.020380 0.011684
#
#
# Mechanical properties :
#
#
# Convention : Reuss Voigt Hill
#
# Bulk Modulus (GPa) = 58.21845 29.03256 43.62551
# Shear Modulus (GPa) = 36.10265 21.77135 28.93700
#
# Velocity S-wave (km/s) = 4.29148 3.33258 3.84206
# Velocity P-wave (km/s) = 7.36576 5.44227 6.47583
#
# Compressibility (1/GPa) = 0.01717669
#
# Stress axis : x y z
#
# Youngs Moduli (GPa) = 54.50180 140.36369 108.09328
#
# Poissons Ratio (x) = 1.15488 -0.09222
# Poissons Ratio (y) = 0.44843 0.15122
# Poissons Ratio (z) = -0.04650 0.19636
#
# Static dielectric constant tensor:
#      x y z
#    x 3.322490 -0.019870 0.062280 
#    y -0.019870 3.871710 -0.256270 
#    z 0.062280 -0.256270 3.940470 
# 
# 
# High freq. dielectric constant tensor:
#      x y z
#    x 1.737120 0.000430 0.007490 
#    y 0.000430 1.755890 -0.018370 
#    z 0.007490 -0.018370 1.791620 
# 
# From -- ./inp_files/477206.got.cif
#   From: 2010.06.25/outbox.cif.g09.slc.cpg/sg2_239_cif.got.tgz:477206.got - 2010.06.27 13:26:56.
