data_PCOD8003788
_publ_section_title
;
Structure prediction by ZEFSAII (Michael W. Deem and Ramdas Pophale) SiO2 
 PCOD8003788
Probable space group: P -1
;
_chemical_formula_sum "Si O2"
_cell_formula_units_Z 12
_cell_length_a 8.582410
_cell_length_b 7.888122
_cell_length_c 13.946019
_cell_angle_alpha 27.460022
_cell_angle_beta 91.091099
_cell_angle_gamma 87.236887
_cell_volume 430.927055
_symmetry_space_group_name_H-M "P -1"
_symmetry_group_IT_number 2
_symmetry_cell_setting 'triclinic'
loop_
_space_group_symop_operation_xyz
x,y,z
-x,-y,-z
loop_
_atom_site_type_symbol
_atom_site_label
_atom_site_fract_x
_atom_site_fract_y
_atom_site_fract_z
Si Si1 0.134100 0.132547 0.799836
Si Si2 0.488295 0.891478 0.922851
Si Si3 0.034281 0.102418 0.251346
Si Si4 0.930375 0.571083 0.722908
Si Si5 0.588648 0.555061 0.693452
Si Si6 0.398962 0.851419 0.376962
O O1 0.318862 0.156867 0.787070
O O2 0.047377 0.494733 0.672332
O O3 0.077337 0.143670 0.682695
O O4 0.089902 0.782029 0.033413
O O5 0.604899 0.137447 0.856902
O O6 0.555633 0.804460 0.859571
O O7 0.471541 0.500898 0.169907
O O8 0.997642 0.146065 0.344302
O O9 0.211446 0.885189 0.353059
O O10 0.000000 0.500000 0.000000
O O11 0.754534 0.711429 0.612915
O O12 0.460476 0.852752 0.487230
O O13 0.500000 0.500000 0.500000
#
# Coordination Sequence:
#
# PCOD8003788 Si02
#       6
#     2   2   2   2   2   2
#     4   9  17  34  58  84 117 159 199 240 299 360
#     4   9  18  34  61  88 115 156 200 247 298 354
#     4  10  21  37  60  88 120 161 201 242 302 363
#     4   9  18  34  58  84 118 160 197 243 299 357
#     4   9  18  34  55  85 115 150 200 242 291 353
#     4  10  20  37  61  87 118 158 200 246 299 356
#
# _framework density 27.846938999999999
#
# number of rings (size 3 to 8) (size 9 to 14) (size 15 to 20)
#    0.000    2.667    0.000    2.000    0.000    6.000 
#    0.000   16.667    0.000   10.000    0.000    0.000 
#    0.000    0.000    0.000    0.000    0.000    0.000 
#
# Total GULP energy -148724.438146 kJ/mol
# GULP energy per Si atom -12393.703179 kJ/mol
# Density = 2.778356 g / cm^3
# Si number density = 27.846939 Si / 1000 Ang^3
#
#
#
# Elastic Constant Matrix: (Units=GPa)
#
#
# Indices 1 2 3 4 5 6 
#
# 1 132.0361 69.7583 12.1174 23.5209 21.5090 13.2221
# 2 69.7583 159.3390 34.5587 45.4228 14.9535 0.3770
# 3 12.1174 34.5587 76.1116 13.7121 28.5114 6.8214
# 4 23.5209 45.4228 13.7121 62.7116 0.8430 -1.9958
# 5 21.5090 14.9535 28.5114 0.8430 42.0990 9.5613
# 6 13.2221 0.3770 6.8214 -1.9958 9.5613 42.4120
#
#
#
# Elastic Compliance Matrix: (Units=1/GPa)
#
#
# Indices 1 2 3 4 5 6 
#
# 1 0.011127 -0.004543 0.002800 -0.001511 -0.005312 -0.002752
# 2 -0.004543 0.010377 -0.003510 -0.005009 0.000777 0.001478
# 3 0.002800 -0.003510 0.019869 -0.002711 -0.013322 -0.001162
# 4 -0.001511 -0.005009 -0.002711 0.020718 0.003725 0.001087
# 5 -0.005312 0.000777 -0.013322 0.003725 0.036086 -0.004168
# 6 -0.002752 0.001478 -0.001162 0.001087 -0.004168 0.025601
#
#
# Mechanical properties :
#
#
# Convention : Reuss Voigt Hill
#
# Bulk Modulus (GPa) = 32.39460 66.70615 49.55037
# Shear Modulus (GPa) = 34.58456 46.18133 40.38295
#
# Velocity S-wave (km/s) = 3.52796 4.07676 3.81225
# Velocity P-wave (km/s) = 5.31542 6.79460 6.10001
#
# Compressibility (1/GPa) = 0.03086934
#
# Stress axis : x y z
#
# Youngs Moduli (GPa) = 89.87090 96.36318 50.32877
#
# Poissons Ratio (x) = 0.43776 -0.14093
# Poissons Ratio (y) = 0.40827 0.17664
# Poissons Ratio (z) = -0.25166 0.33820
#
# Static dielectric constant tensor:
#      x y z
#    x 4.801420 0.036930 -0.075030 
#    y 0.036930 5.801380 0.788290 
#    z -0.075030 0.788290 5.708570 
# 
# 
# High freq. dielectric constant tensor:
#      x y z
#    x 2.106720 0.009940 -0.009080 
#    y 0.009940 2.135890 0.015200 
#    z -0.009080 0.015200 2.161950 
# 
# From -- ./inp_files/152243.got.cif
#   From: 2010.06.25/outbox.cif.g09.slc.cpg/sg2_77_cif.got.tgz:152243.got - 2010.06.27 13:26:56.
