data_PCOD8003283
_publ_section_title
;
Structure prediction by ZEFSAII (Michael W. Deem and Ramdas Pophale) SiO2 
 PCOD8003283
Probable space group: P -1
;
_chemical_formula_sum "Si O2"
_cell_formula_units_Z 16
_cell_length_a 9.183801
_cell_length_b 14.517292
_cell_length_c 9.544762
_cell_angle_alpha 82.495707
_cell_angle_beta 102.606383
_cell_angle_gamma 140.770884
_cell_volume 783.858757
_symmetry_space_group_name_H-M "P -1"
_symmetry_group_IT_number 2
_symmetry_cell_setting 'triclinic'
loop_
_space_group_symop_operation_xyz
x,y,z
-x,-y,-z
loop_
_atom_site_type_symbol
_atom_site_label
_atom_site_fract_x
_atom_site_fract_y
_atom_site_fract_z
Si Si1 0.292289 0.453463 0.763651
Si Si2 0.136017 0.222243 0.573081
Si Si3 0.512752 0.267447 0.235344
Si Si4 0.065361 0.163205 0.248933
Si Si5 0.725244 0.381703 0.957480
Si Si6 0.607873 0.841289 0.289769
Si Si7 0.228683 0.389696 0.059571
Si Si8 0.594781 0.941423 0.545803
O O1 0.232597 0.363486 0.634422
O O2 0.297765 0.565155 0.697238
O O3 0.545069 0.565298 0.870695
O O4 0.131173 0.350957 0.885602
O O5 0.146364 0.235563 0.405530
O O6 0.304528 0.220499 0.652860
O O7 0.873885 0.076599 0.600190
O O8 0.247409 0.176148 0.220744
O O9 0.532987 0.176378 0.332448
O O10 0.579457 0.284251 0.084284
O O11 0.029328 0.239772 0.134486
O O12 0.813530 0.995914 0.227774
O O13 0.619736 0.268849 0.834033
O O14 0.695682 0.474773 0.891655
O O15 0.000000 0.500000 0.000000
O O16 0.527357 0.852376 0.411367
O O17 0.500000 0.000000 0.500000
#
# Coordination Sequence:
#
# PCOD8003283 Si02
#       8
#     2   2   2   2   2   2   2   2
#     4   9  19  34  60  88 122 156 202 259 299 352
#     4  11  20  38  64  97 123 161 209 257 305 364
#     4  10  21  41  62  92 125 159 210 253 308 372
#     4  10  20  36  65  93 121 154 211 259 301 359
#     4  11  25  41  61  87 130 166 203 255 314 370
#     4  11  22  42  64  92 125 164 210 258 304 362
#     4   9  19  36  55  89 123 156 203 250 305 357
#     4  11  24  42  63  93 130 164 201 256 317 374
#
# _framework density 20.411840000000002
#
# number of rings (size 3 to 8) (size 9 to 14) (size 15 to 20)
#    0.000    1.750    3.750    1.500    0.000    8.500 
#    0.000    2.500    0.000    0.000    0.000    0.000 
#    0.000    0.000    0.000    0.000    0.000    0.000 
#
# Total GULP energy -198266.285697 kJ/mol
# GULP energy per Si atom -12391.642856 kJ/mol
# Density = 2.036538 g / cm^3
# Si number density = 20.411840 Si / 1000 Ang^3
#
#
#
# Elastic Constant Matrix: (Units=GPa)
#
#
# Indices 1 2 3 4 5 6 
#
# 1 55.3967 29.0226 42.3438 2.3064 1.8912 -12.4905
# 2 29.0226 88.8646 56.0357 -11.7722 11.1187 -13.4617
# 3 42.3438 56.0357 78.4059 -0.8915 6.2921 -2.6455
# 4 2.3064 -11.7722 -0.8915 52.6844 -11.5816 3.5064
# 5 1.8912 11.1187 6.2921 -11.5816 19.6777 -5.1831
# 6 -12.4905 -13.4617 -2.6455 3.5064 -5.1831 36.4588
#
#
#
# Elastic Compliance Matrix: (Units=1/GPa)
#
#
# Indices 1 2 3 4 5 6 
#
# 1 0.035370 0.003002 -0.021186 -0.001119 0.004288 0.012406
# 2 0.003002 0.023683 -0.017940 0.003500 -0.003876 0.007583
# 3 -0.021186 -0.017940 0.036936 -0.002615 -0.004219 -0.011550
# 4 -0.001119 0.003500 -0.002615 0.022441 0.012254 0.000303
# 5 0.004288 -0.003876 -0.004219 0.012254 0.063142 0.007530
# 6 0.012406 0.007583 -0.011550 0.000303 0.007530 0.034682
#
#
# Mechanical properties :
#
#
# Convention : Reuss Voigt Hill
#
# Bulk Modulus (GPa) = 42.12047 53.05239 47.58643
# Shear Modulus (GPa) = 16.86823 28.11520 22.49171
#
# Velocity S-wave (km/s) = 2.87783 3.71536 3.32308
# Velocity P-wave (km/s) = 5.63228 6.66728 6.17151
#
# Compressibility (1/GPa) = 0.02374143
#
# Stress axis : x y z
#
# Youngs Moduli (GPa) = 28.27267 42.22487 27.07356
#
# Poissons Ratio (x) = -0.12676 0.57357
# Poissons Ratio (y) = -0.08488 0.48571
# Poissons Ratio (z) = 0.59897 0.75753
#
# Static dielectric constant tensor:
#      x y z
#    x 3.125040 0.205120 -0.292820 
#    y 0.205120 3.653890 -0.244240 
#    z -0.292820 -0.244240 3.685970 
# 
# 
# High freq. dielectric constant tensor:
#      x y z
#    x 1.781450 -0.014890 -0.012630 
#    y -0.014890 1.807050 -0.017950 
#    z -0.012630 -0.017950 1.789220 
# 
# From -- ./inp_files/207085.got.cif
#   From: 2010.06.25/outbox.cif.g09.slc.cpg/sg2_104_cif.got.tgz:207085.got - 2010.06.27 13:26:56.
