data_PCOD8003737
_publ_section_title
;
Structure prediction by ZEFSAII (Michael W. Deem and Ramdas Pophale) SiO2 
 PCOD8003737
Probable space group: P -1
;
_chemical_formula_sum "Si O2"
_cell_formula_units_Z 16
_cell_length_a 11.495854
_cell_length_b 10.825063
_cell_length_c 11.681223
_cell_angle_alpha 50.306448
_cell_angle_beta 122.237156
_cell_angle_gamma 134.198658
_cell_volume 791.604674
_symmetry_space_group_name_H-M "P -1"
_symmetry_group_IT_number 2
_symmetry_cell_setting 'triclinic'
loop_
_space_group_symop_operation_xyz
x,y,z
-x,-y,-z
loop_
_atom_site_type_symbol
_atom_site_label
_atom_site_fract_x
_atom_site_fract_y
_atom_site_fract_z
Si Si1 0.071690 0.842550 0.062992
Si Si2 0.466415 0.548188 0.793494
Si Si3 0.893231 0.259588 0.500585
Si Si4 0.642625 0.169476 0.833012
Si Si5 0.226634 0.557924 0.825741
Si Si6 0.818927 0.918545 0.798710
Si Si7 0.564893 0.265024 0.969768
Si Si8 0.242829 0.592196 0.475734
O O1 0.186324 0.810106 0.059742
O O2 0.941254 0.640830 0.174531
O O3 0.184776 0.992635 0.133238
O O4 0.980118 0.909949 0.893942
O O5 0.373818 0.540708 0.864887
O O6 0.656874 0.712070 0.814246
O O7 0.448213 0.346408 0.877269
O O8 0.383604 0.592732 0.620244
O O9 0.784341 0.272210 0.336469
O O10 0.846622 0.319906 0.557856
O O11 0.086607 0.376299 0.497673
O O12 0.837755 0.042354 0.623677
O O13 0.597219 0.264740 0.852509
O O14 0.663167 0.283005 0.660324
O O15 0.508528 0.942307 0.888121
O O16 0.261397 0.597599 0.955357
#
# Coordination Sequence:
#
# PCOD8003737 Si02
#       8
#     2   2   2   2   2   2   2   2
#     4  11  22  38  64  90 121 160 203 251 305 359
#     4  11  24  38  62  95 128 152 200 262 305 354
#     4  10  20  37  60  97 119 155 201 249 316 355
#     4  11  24  44  64  84 124 169 207 242 299 372
#     4  11  22  39  65  92 124 156 204 260 301 355
#     4  11  22  35  61  98 122 154 196 253 313 355
#     4  11  26  42  61  91 123 165 207 245 302 365
#     4  10  21  39  63  88 125 160 198 255 302 359
#
# _framework density 20.212108000000001
#
# number of rings (size 3 to 8) (size 9 to 14) (size 15 to 20)
#    0.000    1.250    3.750    2.625    7.000    2.000 
#    0.000    0.000    0.000    1.500    0.000    0.000 
#    0.000    0.000    0.000    0.000    0.000    0.000 
#
# Total GULP energy -198323.662877 kJ/mol
# GULP energy per Si atom -12395.228930 kJ/mol
# Density = 2.016610 g / cm^3
# Si number density = 20.212108 Si / 1000 Ang^3
#
#
#
# Elastic Constant Matrix: (Units=GPa)
#
#
# Indices 1 2 3 4 5 6 
#
# 1 71.8874 38.0838 40.8465 3.5897 6.7152 -0.9654
# 2 38.0838 83.5889 33.1420 1.7355 -3.2199 -5.1537
# 3 40.8465 33.1420 105.3157 -4.4167 -2.0408 -16.9902
# 4 3.5897 1.7355 -4.4167 30.6487 6.1898 4.0803
# 5 6.7152 -3.2199 -2.0408 6.1898 31.8167 -4.6107
# 6 -0.9654 -5.1537 -16.9902 4.0803 -4.6107 18.2812
#
#
#
# Elastic Compliance Matrix: (Units=1/GPa)
#
#
# Indices 1 2 3 4 5 6 
#
# 1 0.023856 -0.008457 -0.008531 -0.000486 -0.007929 -0.010944
# 2 -0.008457 0.016798 -0.001247 -0.001640 0.004391 0.004603
# 3 -0.008531 -0.001247 0.015711 0.000385 0.004769 0.014917
# 4 -0.000486 -0.001640 0.000385 0.035925 -0.008520 -0.010297
# 5 -0.007929 0.004391 0.004769 -0.008520 0.037934 0.016720
# 6 -0.010944 0.004603 0.014917 -0.010297 0.016720 0.075799
#
#
# Mechanical properties :
#
#
# Convention : Reuss Voigt Hill
#
# Bulk Modulus (GPa) = 50.26250 53.88184 52.07217
# Shear Modulus (GPa) = 20.07024 26.06398 23.06711
#
# Velocity S-wave (km/s) = 3.15458 3.59489 3.38191
# Velocity P-wave (km/s) = 6.17981 6.62926 6.40847
#
# Compressibility (1/GPa) = 0.01989555
#
# Stress axis : x y z
#
# Youngs Moduli (GPa) = 41.91813 59.53156 63.64801
#
# Poissons Ratio (x) = 0.50344 0.54297
# Poissons Ratio (y) = 0.35449 0.07939
# Poissons Ratio (z) = 0.35760 0.07425
#
# Static dielectric constant tensor:
#      x y z
#    x 3.538720 0.119150 0.186170 
#    y 0.119150 3.599720 -0.141990 
#    z 0.186170 -0.141990 3.733230 
# 
# 
# High freq. dielectric constant tensor:
#      x y z
#    x 1.763870 0.018150 0.019760 
#    y 0.018150 1.782690 -0.008700 
#    z 0.019760 -0.008700 1.803660 
# 
# From -- ./inp_files/425322.got.cif
#   From: 2010.06.25/outbox.cif.g09.slc.cpg/sg2_213_cif.got.tgz:425322.got - 2010.06.27 13:26:56.
