data_PCOD8003472
_publ_section_title
;
Structure prediction by ZEFSAII (Michael W. Deem and Ramdas Pophale) SiO2 
 PCOD8003472
Probable space group: P -1
;
_chemical_formula_sum "Si O2"
_cell_formula_units_Z 16
_cell_length_a 8.351519
_cell_length_b 6.762857
_cell_length_c 20.369053
_cell_angle_alpha 60.867630
_cell_angle_beta 115.027594
_cell_angle_gamma 84.696848
_cell_volume 843.371516
_symmetry_space_group_name_H-M "P -1"
_symmetry_group_IT_number 2
_symmetry_cell_setting 'triclinic'
loop_
_space_group_symop_operation_xyz
x,y,z
-x,-y,-z
loop_
_atom_site_type_symbol
_atom_site_label
_atom_site_fract_x
_atom_site_fract_y
_atom_site_fract_z
Si Si1 0.530243 0.336729 0.469507
Si Si2 0.520932 0.663396 0.297566
Si Si3 0.221120 0.214209 0.902504
Si Si4 0.513322 0.226669 0.054155
Si Si5 0.786781 0.799325 0.624593
Si Si6 0.502511 0.817400 0.787481
Si Si7 0.787484 0.481610 0.795342
Si Si8 0.776771 0.417583 0.265300
O O1 0.500000 0.500000 0.500000
O O2 0.593469 0.458281 0.399351
O O3 0.330724 0.306450 0.426997
O O4 0.701793 0.088857 0.557722
O O5 0.319733 0.676153 0.231677
O O6 0.677216 0.595528 0.278666
O O7 0.497270 0.925917 0.280602
O O8 0.250527 0.425223 0.830804
O O9 0.002253 0.291455 0.873680
O O10 0.289300 0.962091 0.913030
O O11 0.341193 0.181037 0.995246
O O12 0.497841 0.172870 0.136009
O O13 0.500000 0.500000 0.000000
O O14 0.775471 0.710930 0.710978
O O15 0.004917 0.710946 0.654445
O O16 0.690061 0.594844 0.829461
O O17 0.315252 0.783874 0.731485
#
# Coordination Sequence:
#
# PCOD8003472 Si02
#       8
#     2   2   2   2   2   2   2   2
#     4  10  20  37  58  82 115 149 188 234 281 333
#     4  10  21  37  57  84 116 150 185 238 285 331
#     4  10  21  39  59  83 116 149 190 235 287 332
#     4  11  22  37  60  86 113 151 188 237 285 337
#     4   9  20  38  58  83 113 151 190 231 279 334
#     4  11  21  37  59  85 116 148 196 232 280 338
#     4   9  21  38  59  84 114 153 189 233 282 334
#     4  10  20  38  59  82 114 151 189 234 283 332
#
# _framework density 18.971475000000002
#
# number of rings (size 3 to 8) (size 9 to 14) (size 15 to 20)
#    0.000    2.000    2.500    0.750    0.000    4.000 
#    2.250    2.500    0.000    0.000    0.000    0.000 
#    0.000    0.000    0.000    0.000    0.000    0.000 
#
# Total GULP energy -198425.406736 kJ/mol
# GULP energy per Si atom -12401.587921 kJ/mol
# Density = 1.892830 g / cm^3
# Si number density = 18.971475 Si / 1000 Ang^3
#
#
#
# Elastic Constant Matrix: (Units=GPa)
#
#
# Indices 1 2 3 4 5 6 
#
# 1 100.8938 36.3239 28.5237 -9.3472 23.0564 -10.1465
# 2 36.3239 113.6258 28.4992 -12.9123 7.7157 -2.0966
# 3 28.5237 28.4992 70.5126 -10.2562 18.5868 -8.5803
# 4 -9.3472 -12.9123 -10.2562 30.3714 -3.4297 -10.1051
# 5 23.0564 7.7157 18.5868 -3.4297 28.1827 -6.8602
# 6 -10.1465 -2.0966 -8.5803 -10.1051 -6.8602 28.7899
#
#
#
# Elastic Compliance Matrix: (Units=1/GPa)
#
#
# Indices 1 2 3 4 5 6 
#
# 1 0.013954 -0.003194 -0.001337 0.002561 -0.008584 0.003140
# 2 -0.003194 0.010806 -0.003206 0.002848 0.002170 0.000222
# 3 -0.001337 -0.003206 0.019865 0.005538 -0.009250 0.004956
# 4 0.002561 0.002848 0.005538 0.043425 0.003333 0.018796
# 5 -0.008584 0.002170 -0.009250 0.003333 0.050248 0.007519
# 6 0.003140 0.000222 0.004956 0.018796 0.007519 0.045723
#
#
# Mechanical properties :
#
#
# Convention : Reuss Voigt Hill
#
# Bulk Modulus (GPa) = 34.30281 52.41399 43.35840
# Shear Modulus (GPa) = 23.89926 30.24781 27.07354
#
# Velocity S-wave (km/s) = 3.55314 3.99731 3.78175
# Velocity P-wave (km/s) = 5.91216 6.99945 6.47866
#
# Compressibility (1/GPa) = 0.02915213
#
# Stress axis : x y z
#
# Youngs Moduli (GPa) = 71.66578 92.53816 50.33928
#
# Poissons Ratio (x) = 0.29554 0.06728
# Poissons Ratio (y) = 0.22888 0.16141
# Poissons Ratio (z) = 0.09578 0.29671
#
# Static dielectric constant tensor:
#      x y z
#    x 3.512980 -0.026750 0.027060 
#    y -0.026750 3.553370 -0.038210 
#    z 0.027060 -0.038210 3.340380 
# 
# 
# High freq. dielectric constant tensor:
#      x y z
#    x 1.735670 -0.000440 -0.003220 
#    y -0.000440 1.745260 -0.001330 
#    z -0.003220 -0.001330 1.735380 
# 
# From -- ./inp_files/43317.got.cif
#   From: 2010.06.25/outbox.cif.g09.slc.cpg/sg2_22_cif.got.tgz:43317.got - 2010.06.27 13:26:56.
