data_PCOD8003380
_publ_section_title
;
Structure prediction by ZEFSAII (Michael W. Deem and Ramdas Pophale) SiO2 
 PCOD8003380
Probable space group: P -1
;
_chemical_formula_sum "Si O2"
_cell_formula_units_Z 16
_cell_length_a 9.163322
_cell_length_b 15.331505
_cell_length_c 13.638233
_cell_angle_alpha 47.833496
_cell_angle_beta 119.987113
_cell_angle_gamma 142.107896
_cell_volume 870.323170
_symmetry_space_group_name_H-M "P -1"
_symmetry_group_IT_number 2
_symmetry_cell_setting 'triclinic'
loop_
_space_group_symop_operation_xyz
x,y,z
-x,-y,-z
loop_
_atom_site_type_symbol
_atom_site_label
_atom_site_fract_x
_atom_site_fract_y
_atom_site_fract_z
Si Si1 0.810375 0.598447 0.588915
Si Si2 0.922761 0.901988 0.447337
Si Si3 0.061042 0.962017 0.951017
Si Si4 0.290410 0.091825 0.261618
Si Si5 0.152683 0.776141 0.404053
Si Si6 0.887304 0.279885 0.791220
Si Si7 0.551372 0.777657 0.262287
Si Si8 0.218645 0.638032 0.691982
O O1 0.808779 0.715422 0.566529
O O2 0.554713 0.407858 0.638678
O O3 0.897820 0.673425 0.450287
O O4 0.003171 0.603649 0.697918
O O5 0.724661 0.878545 0.338613
O O6 0.000000 0.000000 0.500000
O O7 0.165047 0.010385 0.385380
O O8 0.840729 0.871793 0.871511
O O9 0.301998 0.132540 0.856272
O O10 0.099996 0.845065 0.071843
O O11 0.000000 0.000000 0.000000
O O12 0.560225 0.266913 0.233256
O O13 0.295044 0.969273 0.298948
O O14 0.113783 0.707941 0.334852
O O15 0.296550 0.748525 0.536036
O O16 0.652565 0.225355 0.796858
O O17 0.126392 0.462674 0.768249
#
# Coordination Sequence:
#
# PCOD8003380 Si02
#       8
#     2   2   2   2   2   2   2   2
#     4   8  19  35  56  85 119 146 186 235 288 345
#     4  10  21  32  53  87 122 149 181 232 297 348
#     4  11  23  42  59  80 113 159 207 229 281 340
#     4  10  20  37  55  85 116 156 185 234 286 343
#     4   9  18  33  60  88 113 146 184 232 289 346
#     4  11  21  37  62  87 113 153 199 238 275 343
#     4  10  22  38  59  83 115 152 195 239 281 334
#     4   9  20  33  59  87 117 139 187 241 291 335
#
# _framework density 18.383977000000002
#
# number of rings (size 3 to 8) (size 9 to 14) (size 15 to 20)
#    0.750    1.500    1.250    1.500    1.750    0.500 
#    2.250    0.000    0.000    1.500    0.000    0.000 
#    0.000    0.000    0.000    0.000    0.000    0.000 
#
# Total GULP energy -198316.808556 kJ/mol
# GULP energy per Si atom -12394.800535 kJ/mol
# Density = 1.834213 g / cm^3
# Si number density = 18.383977 Si / 1000 Ang^3
#
#
#
# Elastic Constant Matrix: (Units=GPa)
#
#
# Indices 1 2 3 4 5 6 
#
# 1 81.9355 57.5681 39.1854 -4.4343 -1.0114 -10.7196
# 2 57.5681 131.7177 46.1004 -4.4540 2.2487 -0.4520
# 3 39.1854 46.1004 88.8314 -5.2180 6.1778 -8.1799
# 4 -4.4343 -4.4540 -5.2180 19.0296 -2.0972 6.4170
# 5 -1.0114 2.2487 6.1778 -2.0972 24.0552 -2.0791
# 6 -10.7196 -0.4520 -8.1799 6.4170 -2.0791 30.1605
#
#
#
# Elastic Compliance Matrix: (Units=1/GPa)
#
#
# Indices 1 2 3 4 5 6 
#
# 1 0.020515 -0.007269 -0.004949 0.000047 0.003341 0.006061
# 2 -0.007269 0.011930 -0.003182 0.001356 -0.000798 -0.003611
# 3 -0.004949 -0.003182 0.015597 0.001342 -0.003636 0.001887
# 4 0.000047 0.001356 0.001342 0.057548 0.003545 -0.011599
# 5 0.003341 -0.000798 -0.003636 0.003545 0.043238 0.002415
# 6 0.006061 -0.003611 0.001887 -0.011599 0.002415 0.038402
#
#
# Mechanical properties :
#
#
# Convention : Reuss Voigt Hill
#
# Bulk Modulus (GPa) = 57.99644 65.35471 61.67557
# Shear Modulus (GPa) = 22.34361 25.29110 23.81735
#
# Velocity S-wave (km/s) = 3.49002 3.71309 3.60328
# Velocity P-wave (km/s) = 6.91781 7.34913 7.13673
#
# Compressibility (1/GPa) = 0.01724244
#
# Stress axis : x y z
#
# Youngs Moduli (GPa) = 48.74373 83.82431 64.11390
#
# Poissons Ratio (x) = 0.60932 0.31730
# Poissons Ratio (y) = 0.35432 0.20401
# Poissons Ratio (z) = 0.24123 0.26673
#
# Static dielectric constant tensor:
#      x y z
#    x 3.308280 0.004010 0.114470 
#    y 0.004010 3.332110 -0.090190 
#    z 0.114470 -0.090190 3.263720 
# 
# 
# High freq. dielectric constant tensor:
#      x y z
#    x 1.706410 0.002540 0.016230 
#    y 0.002540 1.711550 -0.007410 
#    z 0.016230 -0.007410 1.696360 
# 
# From -- ./inp_files/502837.got.cif
#   From: 2010.06.25/outbox.cif.g09.slc.cpg/sg2_252_cif.got.tgz:502837.got - 2010.06.27 13:26:56.
