data_PCOD8003717
_publ_section_title
;
Structure prediction by ZEFSAII (Michael W. Deem and Ramdas Pophale) SiO2 
 PCOD8003717
Probable space group: P -1
;
_chemical_formula_sum "Si O2"
_cell_formula_units_Z 14
_cell_length_a 7.827947
_cell_length_b 8.888878
_cell_length_c 14.177782
_cell_angle_alpha 78.654410
_cell_angle_beta 47.131855
_cell_angle_gamma 109.934822
_cell_volume 532.134299
_symmetry_space_group_name_H-M "P -1"
_symmetry_group_IT_number 2
_symmetry_cell_setting 'triclinic'
loop_
_space_group_symop_operation_xyz
x,y,z
-x,-y,-z
loop_
_atom_site_type_symbol
_atom_site_label
_atom_site_fract_x
_atom_site_fract_y
_atom_site_fract_z
Si Si1 0.994624 0.730084 0.440171
Si Si2 0.136126 0.283984 0.221754
Si Si3 0.179538 0.883296 0.820209
Si Si4 0.310540 0.686519 0.484179
Si Si5 0.553695 0.280989 0.963355
Si Si6 0.410344 0.148841 0.444395
Si Si7 0.661181 0.035003 0.053096
O O1 0.772618 0.520672 0.490253
O O2 0.801922 0.802899 0.514761
O O3 0.060775 0.694716 0.525752
O O4 0.311793 0.893910 0.243978
O O5 0.221716 0.493736 0.198275
O O6 0.120769 0.277253 0.111590
O O7 0.416871 0.283194 0.116122
O O8 0.809497 0.087604 0.408863
O O9 0.416217 0.844153 0.712319
O O10 0.345881 0.119005 0.705410
O O11 0.094486 0.846449 0.967477
O O12 0.333223 0.702970 0.588896
O O13 0.305320 0.112281 0.997855
O O14 0.740389 0.207993 0.930086
#
# Coordination Sequence:
#
# PCOD8003717 Si02
#       7
#     2   2   2   2   2   2   2
#     4  10  20  37  60  90 130 161 202 248 307 379
#     4  10  21  41  63  89 119 162 205 255 308 363
#     4  10  23  39  60  93 124 156 200 256 316 365
#     4   9  20  36  57  90 126 163 197 246 312 373
#     4  10  22  41  64  84 118 167 210 252 300 361
#     4  11  21  39  62  95 128 160 196 262 315 374
#     4  10  22  40  59  90 118 165 209 250 303 369
#
# _framework density 26.309145000000001
#
# number of rings (size 3 to 8) (size 9 to 14) (size 15 to 20)
#    0.000    2.000    1.429    2.143    4.000    3.429 
#    2.571    2.857    0.000    0.000    0.000    0.000 
#    0.000    0.000    0.000    0.000    0.000    0.000 
#
# Total GULP energy -173450.539314 kJ/mol
# GULP energy per Si atom -12389.324237 kJ/mol
# Density = 2.624926 g / cm^3
# Si number density = 26.309145 Si / 1000 Ang^3
#
#
#
# Elastic Constant Matrix: (Units=GPa)
#
#
# Indices 1 2 3 4 5 6 
#
# 1 56.5839 21.6970 -10.2367 -11.3293 19.8099 9.4529
# 2 21.6970 158.9578 5.6428 -10.8188 17.1054 3.6040
# 3 -10.2367 5.6428 35.1822 -1.3823 7.2970 -2.7915
# 4 -11.3293 -10.8188 -1.3823 33.4703 8.3902 2.2338
# 5 19.8099 17.1054 7.2970 8.3902 33.9429 10.8479
# 6 9.4529 3.6040 -2.7915 2.2338 10.8479 46.8486
#
#
#
# Elastic Compliance Matrix: (Units=1/GPa)
#
#
# Indices 1 2 3 4 5 6 
#
# 1 0.034862 -0.001016 0.016861 0.019236 -0.028098 -0.000362
# 2 -0.001016 0.007021 -0.000532 0.002791 -0.003630 0.000341
# 3 0.016861 -0.000532 0.038761 0.012442 -0.022089 0.003470
# 4 0.019236 0.002791 0.012442 0.044402 -0.026495 0.000663
# 5 -0.028098 -0.003630 -0.022089 -0.026495 0.061666 -0.008383
# 6 -0.000362 0.000341 0.003470 0.000663 -0.008383 0.023509
#
#
# Mechanical properties :
#
#
# Convention : Reuss Voigt Hill
#
# Bulk Modulus (GPa) = 8.98716 31.65889 20.32302
# Shear Modulus (GPa) = 23.07504 38.42708 30.75106
#
# Velocity S-wave (km/s) = 2.96475 3.82592 3.42253
# Velocity P-wave (km/s) = 3.89141 5.61929 4.83319
#
# Compressibility (1/GPa) = 0.11126990
#
# Stress axis : x y z
#
# Youngs Moduli (GPa) = 28.68455 142.42245 25.79945
#
# Poissons Ratio (x) = 0.14470 -0.43501
# Poissons Ratio (y) = 0.02914 0.01373
# Poissons Ratio (z) = -0.48366 0.07580
#
# Static dielectric constant tensor:
#      x y z
#    x 4.814880 0.336390 0.145550 
#    y 0.336390 5.127700 0.108210 
#    z 0.145550 0.108210 4.283680 
# 
# 
# High freq. dielectric constant tensor:
#      x y z
#    x 2.045190 0.007590 -0.004760 
#    y 0.007590 2.084200 0.012720 
#    z -0.004760 0.012720 2.029340 
# 
# From -- ./inp_files/294890.got.cif
#   From: 2010.06.25/outbox.cif.g09.slc.cpg/sg2_148_cif.got.tgz:294890.got - 2010.06.27 13:26:56.
