data_PCOD8003587
_publ_section_title
;
Structure prediction by ZEFSAII (Michael W. Deem and Ramdas Pophale) SiO2 
 PCOD8003587
Probable space group: P -1
;
_chemical_formula_sum "Si O2"
_cell_formula_units_Z 14
_cell_length_a 9.778306
_cell_length_b 8.624889
_cell_length_c 12.086259
_cell_angle_alpha 125.480044
_cell_angle_beta 79.285569
_cell_angle_gamma 124.000540
_cell_volume 673.465466
_symmetry_space_group_name_H-M "P -1"
_symmetry_group_IT_number 2
_symmetry_cell_setting 'triclinic'
loop_
_space_group_symop_operation_xyz
x,y,z
-x,-y,-z
loop_
_atom_site_type_symbol
_atom_site_label
_atom_site_fract_x
_atom_site_fract_y
_atom_site_fract_z
Si Si1 0.704662 0.496118 0.167605
Si Si2 0.763731 0.486059 0.906971
Si Si3 0.678301 0.760369 0.886522
Si Si4 0.096247 0.324801 0.322566
Si Si5 0.900373 0.008866 0.419054
Si Si6 0.315507 0.816537 0.412836
Si Si7 0.876087 0.268276 0.132187
O O1 0.513217 0.384717 0.189397
O O2 0.803230 0.772113 0.266220
O O3 0.798711 0.421117 0.204023
O O4 0.702080 0.404451 0.006821
O O5 0.696987 0.640515 0.941605
O O6 0.687005 0.266001 0.746237
O O7 0.966748 0.631231 0.933819
O O8 0.805489 0.783782 0.783028
O O9 0.727737 0.011988 0.014421
O O10 0.227982 0.600918 0.421526
O O11 0.940228 0.267809 0.245048
O O12 0.026791 0.223816 0.411230
O O13 0.773439 0.050717 0.515804
O O14 0.000000 0.000000 0.500000
O O15 0.500000 0.000000 0.500000
#
# Coordination Sequence:
#
# PCOD8003587 Si02
#       7
#     2   2   2   2   2   2   2
#     4  12  23  37  61  96 125 155 206 261 306 360
#     4  10  21  39  62  89 122 164 202 246 305 372
#     4  10  20  37  60  91 123 157 200 256 310 358
#     4  10  22  42  63  85 121 169 208 248 306 375
#     4  12  24  42  64  90 122 165 209 255 308 371
#     4  10  22  42  64  93 127 163 205 251 308 368
#     4  10  20  37  59  88 122 161 202 251 308 368
#
# _framework density 20.788
#
# number of rings (size 3 to 8) (size 9 to 14) (size 15 to 20)
#    0.000    1.714    0.000    8.571    0.000    2.286 
#    0.000    5.714    0.000    0.000    0.000    0.000 
#    0.000    0.000    0.000    0.000    0.000    0.000 
#
# Total GULP energy -173627.591563 kJ/mol
# GULP energy per Si atom -12401.970826 kJ/mol
# Density = 2.074069 g / cm^3
# Si number density = 20.788000 Si / 1000 Ang^3
#
#
#
# Elastic Constant Matrix: (Units=GPa)
#
#
# Indices 1 2 3 4 5 6 
#
# 1 104.6340 39.7151 36.8859 14.6298 8.9766 -1.0139
# 2 39.7151 69.2451 58.1560 15.5663 12.0665 -1.1828
# 3 36.8859 58.1560 117.2777 11.0945 1.4744 1.4771
# 4 14.6298 15.5663 11.0945 44.0970 -2.9844 4.1447
# 5 8.9766 12.0665 1.4744 -2.9844 28.8120 13.1202
# 6 -1.0139 -1.1828 1.4771 4.1447 13.1202 28.3296
#
#
#
# Elastic Compliance Matrix: (Units=1/GPa)
#
#
# Indices 1 2 3 4 5 6 
#
# 1 0.012514 -0.005146 -0.001144 -0.002423 -0.002827 0.001956
# 2 -0.005146 0.035882 -0.015179 -0.009619 -0.019317 0.012459
# 3 -0.001144 -0.015179 0.016107 0.002863 0.008955 -0.006081
# 4 -0.002423 -0.009619 0.002863 0.027966 0.012276 -0.010414
# 5 -0.002827 -0.019317 0.008955 0.012276 0.058212 -0.030130
# 6 0.001956 0.012459 -0.006081 -0.010414 -0.030130 0.051684
#
#
# Mechanical properties :
#
#
# Convention : Reuss Voigt Hill
#
# Bulk Modulus (GPa) = 46.37118 62.29677 54.33397
# Shear Modulus (GPa) = 19.80266 30.67436 25.23851
#
# Velocity S-wave (km/s) = 3.08977 3.84550 3.48816
# Velocity P-wave (km/s) = 5.92318 7.05336 6.51283
#
# Compressibility (1/GPa) = 0.02156512
#
# Stress axis : x y z
#
# Youngs Moduli (GPa) = 79.91216 27.86882 62.08535
#
# Poissons Ratio (x) = 0.14340 0.07103
# Poissons Ratio (y) = 0.41120 0.94240
# Poissons Ratio (z) = 0.09142 0.42303
#
# Static dielectric constant tensor:
#      x y z
#    x 3.827790 -0.018240 -0.086210 
#    y -0.018240 3.670800 0.224900 
#    z -0.086210 0.224900 3.679730 
# 
# 
# High freq. dielectric constant tensor:
#      x y z
#    x 1.826270 0.000790 -0.006950 
#    y 0.000790 1.803770 0.016620 
#    z -0.006950 0.016620 1.809420 
# 
# From -- ./inp_files/188766.got.cif
#   From: 2010.06.25/outbox.cif.g09.slc.cpg/sg2_95_cif.got.tgz:188766.got - 2010.06.27 13:26:56.
