data_PCOD8003938
_publ_section_title
;
Structure prediction by ZEFSAII (Michael W. Deem and Ramdas Pophale) SiO2 
 PCOD8003938
Probable space group: P -1
;
_chemical_formula_sum "Si O2"
_cell_formula_units_Z 16
_cell_length_a 11.448598
_cell_length_b 14.245090
_cell_length_c 11.764401
_cell_angle_alpha 150.762278
_cell_angle_beta 127.996894
_cell_angle_gamma 61.346707
_cell_volume 730.149680
_symmetry_space_group_name_H-M "P -1"
_symmetry_group_IT_number 2
_symmetry_cell_setting 'triclinic'
loop_
_space_group_symop_operation_xyz
x,y,z
-x,-y,-z
loop_
_atom_site_type_symbol
_atom_site_label
_atom_site_fract_x
_atom_site_fract_y
_atom_site_fract_z
Si Si1 0.158616 0.854358 0.988759
Si Si2 0.579429 0.800492 0.437721
Si Si3 0.354887 0.085316 0.963177
Si Si4 0.312139 0.783025 0.425578
Si Si5 0.089212 0.014849 0.888969
Si Si6 0.601433 0.376253 0.054124
Si Si7 0.350263 0.365887 0.067845
Si Si8 0.893389 0.970111 0.511939
O O1 0.270517 0.045510 0.301880
O O2 0.126383 0.858907 0.839325
O O3 0.233927 0.665847 0.859572
O O4 0.999880 0.833403 0.937726
O O5 0.476031 0.827990 0.514189
O O6 0.627500 0.585981 0.232755
O O7 0.481181 0.800286 0.262542
O O8 0.283143 0.932613 0.665149
O O9 0.247316 0.112735 0.033837
O O10 0.380717 0.297660 0.142769
O O11 0.500000 0.000000 0.000000
O O12 0.285674 0.569795 0.239572
O O13 0.185152 0.831612 0.310423
O O14 0.984558 0.922477 0.626864
O O15 0.509631 0.383548 0.121839
O O16 0.231926 0.216190 0.771115
O O17 0.000000 0.000000 0.500000
#
# Coordination Sequence:
#
# PCOD8003938 Si02
#       8
#     2   2   2   2   2   2   2   2
#     4  11  22  39  62  82 124 156 193 241 297 349
#     4  10  20  37  62  91 117 151 200 242 287 349
#     4  11  22  41  60  83 122 152 193 247 293 350
#     4  10  21  37  61  89 115 153 198 242 294 348
#     4  11  23  40  58  89 115 160 200 236 298 358
#     4  10  20  37  62  91 117 151 200 242 287 349
#     4  10  21  37  61  89 115 153 198 242 294 348
#     4  11  20  39  58  83 127 149 198 245 289 347
#
# _framework density 21.913314
#
# number of rings (size 3 to 8) (size 9 to 14) (size 15 to 20)
#    0.000    1.500    2.500    4.875    0.000    1.000 
#    0.000    6.250    0.000    0.000    0.000    0.000 
#    0.000    0.000    0.000    0.000    0.000    0.000 
#
# Total GULP energy -198282.330509 kJ/mol
# GULP energy per Si atom -12392.645657 kJ/mol
# Density = 2.186344 g / cm^3
# Si number density = 21.913314 Si / 1000 Ang^3
#
#
#
# Elastic Constant Matrix: (Units=GPa)
#
#
# Indices 1 2 3 4 5 6 
#
# 1 131.4313 49.7554 9.1886 2.2569 -3.4973 -3.2421
# 2 49.7554 126.5684 31.7945 -11.2716 -1.0095 -16.0950
# 3 9.1886 31.7945 37.8354 3.1845 -4.0982 -4.2645
# 4 2.2569 -11.2716 3.1845 38.5119 -0.0478 -4.3020
# 5 -3.4973 -1.0095 -4.0982 -0.0478 23.4606 -6.6773
# 6 -3.2421 -16.0950 -4.2645 -4.3020 -6.6773 38.2502
#
#
#
# Elastic Compliance Matrix: (Units=1/GPa)
#
#
# Indices 1 2 3 4 5 6 
#
# 1 0.009163 -0.004276 0.001571 -0.002013 0.001206 -0.000863
# 2 -0.004276 0.013162 -0.010018 0.005442 -0.000506 0.004583
# 3 0.001571 -0.010018 0.035661 -0.005933 0.006103 0.000292
# 4 -0.002013 0.005442 -0.005933 0.028697 0.000305 0.004739
# 5 0.001206 -0.000506 0.006103 0.000305 0.046323 0.008691
# 6 -0.000863 0.004583 0.000292 0.004739 0.008691 0.030081
#
#
# Mechanical properties :
#
#
# Convention : Reuss Voigt Hill
#
# Bulk Modulus (GPa) = 30.73265 53.03469 41.88367
# Shear Modulus (GPa) = 25.07767 33.71763 29.39765
#
# Velocity S-wave (km/s) = 3.38657 3.92686 3.66668
# Velocity P-wave (km/s) = 5.41728 6.69439 6.08941
#
# Compressibility (1/GPa) = 0.03253869
#
# Stress axis : x y z
#
# Youngs Moduli (GPa) = 109.13594 75.97678 28.04200
#
# Poissons Ratio (x) = 0.32489 -0.04405
# Poissons Ratio (y) = 0.46668 0.28093
# Poissons Ratio (z) = -0.17145 0.76116
#
# Static dielectric constant tensor:
#      x y z
#    x 4.101610 -0.019190 -0.109060 
#    y -0.019190 4.666080 -0.127750 
#    z -0.109060 -0.127750 3.460520 
# 
# 
# High freq. dielectric constant tensor:
#      x y z
#    x 1.871650 -0.006160 -0.005960 
#    y -0.006160 1.888350 -0.010860 
#    z -0.005960 -0.010860 1.817790 
# 
# From -- ./inp_files/433572.got.cif
#   From: 2010.06.25/outbox.cif.g09.slc.cpg/sg2_217_cif.got.tgz:433572.got - 2010.06.27 13:26:56.
