data_PCOD8003961
_publ_section_title
;
Structure prediction by ZEFSAII (Michael W. Deem and Ramdas Pophale) SiO2 
 PCOD8003961
Probable space group: P -1
;
_chemical_formula_sum "Si O2"
_cell_formula_units_Z 16
_cell_length_a 18.355504
_cell_length_b 11.697533
_cell_length_c 6.225947
_cell_angle_alpha 121.456006
_cell_angle_beta 59.932058
_cell_angle_gamma 134.009331
_cell_volume 799.006630
_symmetry_space_group_name_H-M "P -1"
_symmetry_group_IT_number 2
_symmetry_cell_setting 'triclinic'
loop_
_space_group_symop_operation_xyz
x,y,z
-x,-y,-z
loop_
_atom_site_type_symbol
_atom_site_label
_atom_site_fract_x
_atom_site_fract_y
_atom_site_fract_z
Si Si1 0.940330 0.370795 0.149294
Si Si2 0.660573 0.920330 0.470395
Si Si3 0.316996 0.548242 0.183679
Si Si4 0.864664 0.476251 0.749318
Si Si5 0.620176 0.657239 0.949568
Si Si6 0.378024 0.883819 0.596511
Si Si7 0.484520 0.339281 0.271000
Si Si8 0.770625 0.163915 0.888197
O O1 0.883236 0.422196 0.440256
O O2 0.024907 0.367023 0.162698
O O3 0.851744 0.198014 0.992482
O O4 0.000000 0.500000 0.000000
O O5 0.548325 0.797844 0.632894
O O6 0.667289 0.062460 0.467073
O O7 0.751236 0.020743 0.615252
O O8 0.673198 0.798781 0.191779
O O9 0.210246 0.466618 0.127410
O O10 0.310733 0.413820 0.220917
O O11 0.335340 0.695196 0.444425
O O12 0.410939 0.616861 0.945956
O O13 0.812998 0.329350 0.854024
O O14 0.615586 0.740613 0.821162
O O15 0.500000 0.500000 0.000000
O O16 0.500000 0.000000 0.500000
O O17 0.339924 0.898457 0.900492
O O18 0.500000 0.500000 0.500000
#
# Coordination Sequence:
#
# PCOD8003961 Si02
#       8
#     2   2   2   2   2   2   2   2
#     4   9  19  38  60  89 127 155 195 253 322 373
#     4  12  22  39  58  82 123 169 205 240 306 360
#     4  11  21  38  59  89 122 154 210 257 294 360
#     4  10  20  37  62  93 121 158 201 258 312 364
#     4  10  21  40  54  78 117 164 209 246 287 362
#     4  12  25  36  55  92 131 157 202 262 304 351
#     4  11  23  39  59  81 119 175 211 244 296 360
#     4  11  21  37  59  89 126 163 199 244 318 369
#
# _framework density 20.024863
#
# number of rings (size 3 to 8) (size 9 to 14) (size 15 to 20)
#    0.000    1.250    5.000    3.000    1.750    1.000 
#    0.000    0.000    0.000    0.750    0.000   13.125 
#    0.000    0.000    0.000    0.000    0.000    0.000 
#
# Total GULP energy -198216.265057 kJ/mol
# GULP energy per Si atom -12388.516566 kJ/mol
# Density = 1.997929 g / cm^3
# Si number density = 20.024863 Si / 1000 Ang^3
#
#
#
# Elastic Constant Matrix: (Units=GPa)
#
#
# Indices 1 2 3 4 5 6 
#
# 1 141.9160 34.3295 48.4635 17.4256 -0.1967 11.8293
# 2 34.3295 54.5835 43.6861 8.7447 -0.2565 5.7125
# 3 48.4635 43.6861 106.7590 12.6536 16.6772 2.6022
# 4 17.4256 8.7447 12.6536 49.2780 6.9893 8.1502
# 5 -0.1967 -0.2565 16.6772 6.9893 27.4895 8.9638
# 6 11.8293 5.7125 2.6022 8.1502 8.9638 33.4396
#
#
#
# Elastic Compliance Matrix: (Units=1/GPa)
#
#
# Indices 1 2 3 4 5 6 
#
# 1 0.009339 -0.002383 -0.003533 -0.001981 0.003714 -0.003135
# 2 -0.002383 0.031129 -0.012931 -0.001887 0.010496 -0.005822
# 3 -0.003533 -0.012931 0.018171 -0.000208 -0.012931 0.005562
# 4 -0.001981 -0.001887 -0.000208 0.022567 -0.004590 -0.003231
# 5 0.003714 0.010496 -0.012931 -0.004590 0.050224 -0.014445
# 6 -0.003135 -0.005822 0.005562 -0.003231 -0.014445 0.036235
#
#
# Mechanical properties :
#
#
# Convention : Reuss Voigt Hill
#
# Bulk Modulus (GPa) = 47.74249 61.80186 54.77217
# Shear Modulus (GPa) = 23.54702 33.82672 28.68687
#
# Velocity S-wave (km/s) = 3.43284 4.11449 3.78903
# Velocity P-wave (km/s) = 6.29332 7.31448 6.82303
#
# Compressibility (1/GPa) = 0.02094570
#
# Stress axis : x y z
#
# Youngs Moduli (GPa) = 107.07656 32.12409 55.03224
#
# Poissons Ratio (x) = 0.07655 0.19445
# Poissons Ratio (y) = 0.25515 0.71160
# Poissons Ratio (z) = 0.37835 0.41538
#
# Static dielectric constant tensor:
#      x y z
#    x 7.739710 0.997010 -2.933540 
#    y 0.997010 4.032170 -1.027010 
#    z -2.933540 -1.027010 7.094790 
# 
# 
# High freq. dielectric constant tensor:
#      x y z
#    x 1.770110 0.006370 0.029820 
#    y 0.006370 1.767040 -0.006330 
#    z 0.029820 -0.006330 1.784370 
# 
# From -- ./inp_files/109330.got.cif
#   From: 2010.06.25/outbox.cif.g09.slc.cpg/sg2_55_cif.got.tgz:109330.got - 2010.06.27 13:26:56.
