data_PCOD8003336
_publ_section_title
;
Structure prediction by ZEFSAII (Michael W. Deem and Ramdas Pophale) SiO2 
 PCOD8003336
Probable space group: P -1
;
_chemical_formula_sum "Si O2"
_cell_formula_units_Z 16
_cell_length_a 19.974006
_cell_length_b 11.379122
_cell_length_c 9.002365
_cell_angle_alpha 152.329870
_cell_angle_beta 44.824927
_cell_angle_gamma 140.732630
_cell_volume 599.462560
_symmetry_space_group_name_H-M "P -1"
_symmetry_group_IT_number 2
_symmetry_cell_setting 'triclinic'
loop_
_space_group_symop_operation_xyz
x,y,z
-x,-y,-z
loop_
_atom_site_type_symbol
_atom_site_label
_atom_site_fract_x
_atom_site_fract_y
_atom_site_fract_z
Si Si1 0.428188 0.616881 0.325025
Si Si2 0.930242 0.014173 0.779051
Si Si3 0.730788 0.827013 0.725202
Si Si4 0.010383 0.391761 0.640480
Si Si5 0.691899 0.721863 0.332997
Si Si6 0.249027 0.693583 0.550126
Si Si7 0.617074 0.092126 0.688898
Si Si8 0.106914 0.968062 0.816029
O O1 0.376514 0.441757 0.359557
O O2 0.335928 0.576561 0.308750
O O3 0.503326 0.942424 0.616767
O O4 0.500000 0.500000 0.000000
O O5 0.834442 0.795432 0.584248
O O6 0.014232 0.882549 0.520114
O O7 0.987218 0.331910 0.972115
O O8 0.882900 0.092012 0.092526
O O9 0.736569 0.858260 0.574761
O O10 0.739587 0.110092 0.106241
O O11 0.129190 0.437765 0.447257
O O12 0.921894 0.307405 0.554202
O O13 0.620770 0.874526 0.562533
O O14 0.787647 0.774479 0.126293
O O15 0.624859 0.382239 0.071214
O O16 0.283765 0.855722 0.518871
O O17 0.000000 0.000000 0.000000
#
# Coordination Sequence:
#
# PCOD8003336 Si02
#       8
#     2   2   2   2   2   2   2   2
#     4  12  25  44  77 107 133 187 250 292 347 423
#     4  10  20  39  65  96 131 182 227 281 336 408
#     4  11  26  45  70 100 151 188 227 298 364 411
#     4  10  20  36  68  98 130 172 227 288 337 395
#     4  12  29  47  68 107 152 185 231 297 361 417
#     4  11  23  45  73 104 141 182 245 297 346 420
#     4  12  27  46  73 104 142 190 242 288 353 427
#     4  10  22  43  71 103 137 187 238 285 343 424
#
# _framework density 26.690573000000001
#
# number of rings (size 3 to 8) (size 9 to 14) (size 15 to 20)
#    0.000    1.000    2.500    4.500    3.500    3.000 
#    0.000    5.000    0.000    0.000    0.000    0.000 
#    0.000    0.000    0.000    0.000    0.000    0.000 
#
# Total GULP energy -198357.311131 kJ/mol
# GULP energy per Si atom -12397.331946 kJ/mol
# Density = 2.662982 g / cm^3
# Si number density = 26.690573 Si / 1000 Ang^3
#
#
#
# Elastic Constant Matrix: (Units=GPa)
#
#
# Indices 1 2 3 4 5 6 
#
# 1 118.7260 27.3035 47.7535 13.7236 17.4337 -12.5746
# 2 27.3035 46.7189 33.8526 16.3658 -17.3512 17.3427
# 3 47.7535 33.8526 113.9161 23.3271 6.7409 -16.3438
# 4 13.7236 16.3658 23.3271 51.4041 -6.6368 9.9333
# 5 17.4337 -17.3512 6.7409 -6.6368 27.8635 28.4663
# 6 -12.5746 17.3427 -16.3438 9.9333 28.4663 22.5814
#
#
#
# Elastic Compliance Matrix: (Units=1/GPa)
#
#
# Indices 1 2 3 4 5 6 
#
# 1 0.008882 0.002202 -0.005722 0.001191 0.003741 -0.006127
# 2 0.002202 0.010647 0.001290 -0.009835 -0.015022 0.017247
# 3 -0.005722 0.001290 0.009900 -0.001427 0.007103 -0.005339
# 4 0.001191 -0.009835 -0.001427 0.021868 -0.004071 0.002696
# 5 0.003741 -0.015022 0.007103 -0.004071 -0.001770 0.022783
# 6 -0.006127 0.017247 -0.005339 0.002696 0.022783 -0.006143
#
#
# Mechanical properties :
#
#
# Convention : Reuss Voigt Hill
#
# Bulk Modulus (GPa) = 40.04994 55.24226 47.64610
# Shear Modulus (GPa) = 89.02294 31.73321 60.37808
#
# Velocity S-wave (km/s) = 5.78153 3.45183 4.76137
# Velocity P-wave (km/s) = 7.72049 6.05219 6.93668
#
# Compressibility (1/GPa) = 0.02496883
#
# Stress axis : x y z
#
# Youngs Moduli (GPa) = 112.58856 93.92423 101.01486
#
# Poissons Ratio (x) = -0.20681 0.57800
# Poissons Ratio (y) = -0.24790 -0.13035
# Poissons Ratio (z) = 0.64423 -0.12120
#
# Static dielectric constant tensor:
#      x y z
#    x 5.209010 0.075800 0.413460 
#    y 0.075800 4.855680 0.284440 
#    z 0.413460 0.284440 4.847570 
# 
# 
# High freq. dielectric constant tensor:
#      x y z
#    x 2.078460 -0.000190 0.006840 
#    y -0.000190 2.065600 0.016020 
#    z 0.006840 0.016020 2.075200 
# 
# From -- ./inp_files/346524.got.cif
#   From: 2010.06.25/outbox.cif.g09.slc.cpg/sg2_174_cif.got.tgz:346524.got - 2010.06.27 13:26:56.
