data_PCOD8003114
_publ_section_title
;
Structure prediction by ZEFSAII (Michael W. Deem and Ramdas Pophale) SiO2 
 PCOD8003114
Probable space group: P -1
;
_chemical_formula_sum "Si O2"
_cell_formula_units_Z 14
_cell_length_a 22.165484
_cell_length_b 6.539790
_cell_length_c 14.187837
_cell_angle_alpha 95.483797
_cell_angle_beta 19.593631
_cell_angle_gamma 85.316703
_cell_volume 588.776064
_symmetry_space_group_name_H-M "P -1"
_symmetry_group_IT_number 2
_symmetry_cell_setting 'triclinic'
loop_
_space_group_symop_operation_xyz
x,y,z
-x,-y,-z
loop_
_atom_site_type_symbol
_atom_site_label
_atom_site_fract_x
_atom_site_fract_y
_atom_site_fract_z
Si Si1 0.872292 0.314230 0.332478
Si Si2 0.897762 0.107726 0.799033
Si Si3 0.299250 0.872945 0.281381
Si Si4 0.139661 0.615810 0.316074
Si Si5 0.375038 0.170858 0.326023
Si Si6 0.664734 0.062620 0.302237
Si Si7 0.413388 0.792426 0.374515
O O1 0.742929 0.327113 0.618572
O O2 0.834772 0.572251 0.367314
O O3 0.791061 0.209777 0.363662
O O4 0.118724 0.157355 0.984251
O O5 0.817898 0.282541 0.837071
O O6 0.081244 0.116284 0.586551
O O7 0.016119 0.825328 0.582835
O O8 0.708279 0.182948 0.153798
O O9 0.404214 0.954538 0.208118
O O10 0.437649 0.780447 0.977053
O O11 0.000000 0.500000 0.500000
O O12 0.371796 0.413942 0.999362
O O13 0.390861 0.055355 0.400382
O O14 0.500000 0.000000 0.500000
O O15 0.566239 0.243803 0.543598
#
# Coordination Sequence:
#
# PCOD8003114 Si02
#       7
#     2   2   2   2   2   2   2
#     4  10  22  41  64  87 125 170 211 262 316 374
#     4  10  23  42  64  92 128 167 212 261 318 375
#     4   9  19  35  60  94 124 156 209 266 314 373
#     4  11  23  41  67  96 128 167 211 263 319 379
#     4  10  20  36  62  94 125 162 208 258 318 377
#     4  11  25  44  64  93 130 170 216 262 316 381
#     4  11  24  41  64  95 130 167 211 259 313 379
#
# _framework density 23.778141000000002
#
# number of rings (size 3 to 8) (size 9 to 14) (size 15 to 20)
#    0.000    1.714    0.000    3.429    0.000   13.714 
#    0.000    4.286    0.000    0.000    0.000    0.000 
#    0.000    0.000    0.000    0.000    0.000    0.000 
#
# Total GULP energy -173445.169669 kJ/mol
# GULP energy per Si atom -12388.940691 kJ/mol
# Density = 2.372402 g / cm^3
# Si number density = 23.778141 Si / 1000 Ang^3
#
#
#
# Elastic Constant Matrix: (Units=GPa)
#
#
# Indices 1 2 3 4 5 6 
#
# 1 115.7693 31.5730 35.4710 -17.9180 -2.3767 -4.4995
# 2 31.5730 107.3756 30.7431 7.9747 1.4926 -9.6837
# 3 35.4710 30.7431 98.0562 -10.4035 -10.7744 8.5795
# 4 -17.9180 7.9747 -10.4035 30.8985 -4.2027 -4.9578
# 5 -2.3767 1.4926 -10.7744 -4.2027 46.7629 -6.3102
# 6 -4.4995 -9.6837 8.5795 -4.9578 -6.3102 23.6743
#
#
#
# Elastic Compliance Matrix: (Units=1/GPa)
#
#
# Indices 1 2 3 4 5 6 
#
# 1 0.011548 -0.002826 -0.002722 0.007300 0.001230 0.003882
# 2 -0.002826 0.012070 -0.003874 -0.005554 -0.001343 0.004283
# 3 -0.002722 -0.003874 0.013544 0.003449 0.002663 -0.005578
# 4 0.007300 -0.005554 0.003449 0.041340 0.006160 0.008165
# 5 0.001230 -0.001343 0.002663 0.006160 0.023504 0.006274
# 6 0.003882 0.004283 -0.005578 0.008165 0.006274 0.050133
#
#
# Mechanical properties :
#
#
# Convention : Reuss Voigt Hill
#
# Bulk Modulus (GPa) = 54.58305 57.41946 56.00125
# Shear Modulus (GPa) = 28.23445 35.16141 31.69793
#
# Velocity S-wave (km/s) = 3.44962 3.84960 3.65508
# Velocity P-wave (km/s) = 6.23470 6.63020 6.43549
#
# Compressibility (1/GPa) = 0.01832071
#
# Stress axis : x y z
#
# Youngs Moduli (GPa) = 86.59253 82.84678 73.83417
#
# Poissons Ratio (x) = 0.23410 0.20095
# Poissons Ratio (y) = 0.24468 0.28601
# Poissons Ratio (z) = 0.23567 0.32093
#
# Static dielectric constant tensor:
#      x y z
#    x 4.601550 -0.265910 0.022360 
#    y -0.265910 4.265490 -0.323520 
#    z 0.022360 -0.323520 4.287380 
# 
# 
# High freq. dielectric constant tensor:
#      x y z
#    x 1.948610 -0.015670 -0.009280 
#    y -0.015670 1.930240 -0.011660 
#    z -0.009280 -0.011660 1.938020 
# 
# From -- ./inp_files/118141.got.cif
#   From: 2010.06.25/outbox.cif.g09.slc.cpg/sg2_60_cif.got.tgz:118141.got - 2010.06.27 13:26:56.
