data_PCOD8003808
_publ_section_title
;
Structure prediction by ZEFSAII (Michael W. Deem and Ramdas Pophale) SiO2 
 PCOD8003808
Probable space group: P -1
;
_chemical_formula_sum "Si O2"
_cell_formula_units_Z 16
_cell_length_a 13.463583
_cell_length_b 9.247923
_cell_length_c 11.423811
_cell_angle_alpha 143.531574
_cell_angle_beta 112.379669
_cell_angle_gamma 82.170841
_cell_volume 743.436105
_symmetry_space_group_name_H-M "P -1"
_symmetry_group_IT_number 2
_symmetry_cell_setting 'triclinic'
loop_
_space_group_symop_operation_xyz
x,y,z
-x,-y,-z
loop_
_atom_site_type_symbol
_atom_site_label
_atom_site_fract_x
_atom_site_fract_y
_atom_site_fract_z
Si Si1 0.447155 0.673060 0.511080
Si Si2 0.890388 0.020655 0.025287
Si Si3 0.400602 0.862259 0.023415
Si Si4 0.185750 0.557132 0.835849
Si Si5 0.180341 0.342541 0.946095
Si Si6 0.381109 0.211926 0.035303
Si Si7 0.201872 0.553396 0.340035
Si Si8 0.044921 0.811861 0.580343
O O1 0.500000 0.500000 0.500000
O O2 0.407079 0.514778 0.273028
O O3 0.331247 0.718165 0.541590
O O4 0.545013 0.944102 0.718395
O O5 0.834767 0.169463 0.007137
O O6 0.919637 0.182005 0.263999
O O7 0.805609 0.737830 0.821007
O O8 0.000000 0.000000 0.000000
O O9 0.350424 0.010402 0.998426
O O10 0.306919 0.604112 0.856584
O O11 0.505770 0.789338 0.975537
O O12 0.197085 0.506267 0.943597
O O13 0.088825 0.330376 0.583386
O O14 0.064211 0.103340 0.734365
O O15 0.269699 0.176283 0.884157
O O16 0.179541 0.537917 0.179232
O O17 0.110877 0.654634 0.431159
#
# Coordination Sequence:
#
# PCOD8003808 Si02
#       8
#     2   2   2   2   2   2   2   2
#     4   9  17  33  58  87 110 151 203 246 297 353
#     4  11  23  42  62  93 121 154 206 269 301 353
#     4  10  20  37  61  89 118 158 211 258 294 355
#     4  12  24  40  60  95 129 161 205 258 311 364
#     4  10  23  42  61  89 130 166 203 250 310 378
#     4   9  19  39  61  85 119 163 205 249 306 361
#     4  10  21  41  67  86 122 168 206 253 308 365
#     4  11  23  43  64  88 122 168 210 247 310 373
#
# _framework density 21.521685999999999
#
# number of rings (size 3 to 8) (size 9 to 14) (size 15 to 20)
#    0.000    1.750    1.250    4.500    0.000    3.000 
#    4.500    2.500    0.000    0.000    0.000    0.000 
#    0.000    0.000    0.000    0.000    0.000    0.000 
#
# Total GULP energy -198243.411523 kJ/mol
# GULP energy per Si atom -12390.213220 kJ/mol
# Density = 2.147270 g / cm^3
# Si number density = 21.521686 Si / 1000 Ang^3
#
#
#
# Elastic Constant Matrix: (Units=GPa)
#
#
# Indices 1 2 3 4 5 6 
#
# 1 87.4602 38.8701 56.4137 -2.4286 10.4315 19.8821
# 2 38.8701 123.1964 37.1968 -4.5465 1.2969 23.4712
# 3 56.4137 37.1968 91.4685 0.4326 24.7967 13.0934
# 4 -2.4286 -4.5465 0.4326 16.6952 4.9621 3.6386
# 5 10.4315 1.2969 24.7967 4.9621 43.3469 4.7308
# 6 19.8821 23.4712 13.0934 3.6386 4.7308 21.3589
#
#
#
# Elastic Compliance Matrix: (Units=1/GPa)
#
#
# Indices 1 2 3 4 5 6 
#
# 1 0.022981 -0.000429 -0.012625 0.005994 0.002632 -0.014786
# 2 -0.000429 0.011704 -0.003510 0.005037 0.002463 -0.011714
# 3 -0.012625 -0.003510 0.022197 -0.001396 -0.009878 0.004427
# 4 0.005994 0.005037 -0.001396 0.068552 -0.006402 -0.020518
# 5 0.002632 0.002463 -0.009878 -0.006402 0.029236 -0.004486
# 6 -0.014786 -0.011714 0.004427 -0.020518 -0.004486 0.075230
#
#
# Mechanical properties :
#
#
# Convention : Reuss Voigt Hill
#
# Bulk Modulus (GPa) = 42.09457 63.00959 52.55208
# Shear Modulus (GPa) = 18.45390 27.58983 23.02186
#
# Velocity S-wave (km/s) = 2.93141 3.58432 3.27418
# Velocity P-wave (km/s) = 5.57308 6.81694 6.22615
#
# Compressibility (1/GPa) = 0.02375603
#
# Stress axis : x y z
#
# Youngs Moduli (GPa) = 43.51364 85.44235 45.05073
#
# Poissons Ratio (x) = 0.03662 0.56876
# Poissons Ratio (y) = 0.01865 0.15812
# Poissons Ratio (z) = 0.54935 0.29988
#
# Static dielectric constant tensor:
#      x y z
#    x 6.043730 0.052290 1.242000 
#    y 0.052290 3.647870 0.067090 
#    z 1.242000 0.067090 5.333670 
# 
# 
# High freq. dielectric constant tensor:
#      x y z
#    x 1.855960 -0.008290 0.013180 
#    y -0.008290 1.808970 0.002460 
#    z 0.013180 0.002460 1.857620 
# 
# From -- ./inp_files/448385.got.cif
#   From: 2010.06.25/outbox.cif.g09.slc.cpg/sg2_225_cif.got.tgz:448385.got - 2010.06.27 13:26:56.
