data_PCOD8003635
_publ_section_title
;
Structure prediction by ZEFSAII (Michael W. Deem and Ramdas Pophale) SiO2 
 PCOD8003635
Probable space group: P -1
;
_chemical_formula_sum "Si O2"
_cell_formula_units_Z 14
_cell_length_a 9.559825
_cell_length_b 6.650665
_cell_length_c 16.464329
_cell_angle_alpha 70.148399
_cell_angle_beta 72.248075
_cell_angle_gamma 42.883441
_cell_volume 667.442568
_symmetry_space_group_name_H-M "P -1"
_symmetry_group_IT_number 2
_symmetry_cell_setting 'triclinic'
loop_
_space_group_symop_operation_xyz
x,y,z
-x,-y,-z
loop_
_atom_site_type_symbol
_atom_site_label
_atom_site_fract_x
_atom_site_fract_y
_atom_site_fract_z
Si Si1 0.670615 0.605233 0.673739
Si Si2 0.365408 0.642867 0.628392
Si Si3 0.283721 0.973694 0.437635
Si Si4 0.061240 0.066430 0.317068
Si Si5 0.698647 0.787965 0.815995
Si Si6 0.957019 0.286823 0.976789
Si Si7 0.667311 0.799726 0.066965
O O1 0.460573 0.699538 0.672391
O O2 0.667257 0.672874 0.758920
O O3 0.699837 0.787320 0.588715
O O4 0.857465 0.254258 0.671192
O O5 0.273214 0.885063 0.540279
O O6 0.526542 0.308177 0.611038
O O7 0.181338 0.693105 0.693446
O O8 0.083098 0.110475 0.402262
O O9 0.171701 0.129793 0.233181
O O10 0.822147 0.521742 0.895614
O O11 0.468195 0.097875 0.841898
O O12 0.187415 0.143212 0.959032
O O13 0.827222 0.447881 0.061793
O O14 0.000000 0.000000 0.000000
O O15 0.500000 0.000000 0.000000
#
# Coordination Sequence:
#
# PCOD8003635 Si02
#       7
#     2   2   2   2   2   2   2
#     4  10  22  36  55  86 116 152 196 234 286 340
#     4  10  20  37  60  83 115 154 196 241 284 335
#     4   9  20  38  57  82 115 153 197 244 285 331
#     4  10  22  37  55  84 117 154 193 235 290 338
#     4  10  23  40  56  83 124 152 181 236 290 341
#     4  10  22  40  65  90 109 147 195 231 281 344
#     4   9  21  41  61  84 115 146 183 233 283 340
#
# _framework density 20.975587000000001
#
# number of rings (size 3 to 8) (size 9 to 14) (size 15 to 20)
#    0.000    2.286    0.000    0.857    0.000   14.286 
#    0.000    0.000    0.000    0.000    0.000    0.000 
#    0.000    0.000    0.000    0.000    0.000    0.000 
#
# Total GULP energy -173531.906642 kJ/mol
# GULP energy per Si atom -12395.136189 kJ/mol
# Density = 2.092785 g / cm^3
# Si number density = 20.975587 Si / 1000 Ang^3
#
#
#
# Elastic Constant Matrix: (Units=GPa)
#
#
# Indices 1 2 3 4 5 6 
#
# 1 155.3039 66.9986 38.7415 14.8227 -13.6102 -0.3390
# 2 66.9986 92.3667 34.6814 -6.2792 -20.4499 23.2155
# 3 38.7415 34.6814 62.2555 4.5120 -5.2580 4.3878
# 4 14.8227 -6.2792 4.5120 32.8821 -3.1503 -5.8811
# 5 -13.6102 -20.4499 -5.2580 -3.1503 31.3440 1.1583
# 6 -0.3390 23.2155 4.3878 -5.8811 1.1583 39.2035
#
#
#
# Elastic Compliance Matrix: (Units=1/GPa)
#
#
# Indices 1 2 3 4 5 6 
#
# 1 0.011636 -0.010194 -0.001726 -0.006236 -0.002717 0.005475
# 2 -0.010194 0.029135 -0.008280 0.009963 0.014762 -0.015356
# 3 -0.001726 -0.008280 0.021625 -0.003697 -0.002969 0.002001
# 4 -0.006236 0.009963 -0.003697 0.036232 0.006825 -0.000306
# 5 -0.002717 0.014762 -0.002969 0.006825 0.040862 -0.008616
# 6 0.005475 -0.015356 0.002001 -0.000306 -0.008616 0.034634
#
#
# Mechanical properties :
#
#
# Convention : Reuss Voigt Hill
#
# Bulk Modulus (GPa) = 45.45969 65.64101 55.55035
# Shear Modulus (GPa) = 22.53723 31.98623 27.26173
#
# Velocity S-wave (km/s) = 3.28144 3.90927 3.60903
# Velocity P-wave (km/s) = 6.00640 7.19294 6.62628
#
# Compressibility (1/GPa) = 0.02199751
#
# Stress axis : x y z
#
# Youngs Moduli (GPa) = 85.93759 34.32320 46.24209
#
# Poissons Ratio (x) = 0.34990 0.07980
# Poissons Ratio (y) = 0.87606 0.38287
# Poissons Ratio (z) = 0.14830 0.28418
#
# Static dielectric constant tensor:
#      x y z
#    x 3.830210 0.011740 -0.140350 
#    y 0.011740 3.810490 0.299100 
#    z -0.140350 0.299100 3.561470 
# 
# 
# High freq. dielectric constant tensor:
#      x y z
#    x 1.838110 -0.001510 0.005830 
#    y -0.001510 1.823650 0.001330 
#    z 0.005830 0.001330 1.811820 
# 
# From -- ./inp_files/7558.got.cif
#   From: 2010.06.25/outbox.cif.g09.slc.cpg/sg2_4_cif.got.tgz:7558.got - 2010.06.27 13:26:56.
