data_PCOD8003780
_publ_section_title
;
Structure prediction by ZEFSAII (Michael W. Deem and Ramdas Pophale) SiO2 
 PCOD8003780
Probable space group: P -1
;
_chemical_formula_sum "Si O2"
_cell_formula_units_Z 14
_cell_length_a 14.470551
_cell_length_b 29.133270
_cell_length_c 13.892448
_cell_angle_alpha 156.975915
_cell_angle_beta 20.419539
_cell_angle_gamma 158.007636
_cell_volume 703.571463
_symmetry_space_group_name_H-M "P -1"
_symmetry_group_IT_number 2
_symmetry_cell_setting 'triclinic'
loop_
_space_group_symop_operation_xyz
x,y,z
-x,-y,-z
loop_
_atom_site_type_symbol
_atom_site_label
_atom_site_fract_x
_atom_site_fract_y
_atom_site_fract_z
Si Si1 0.745364 0.721050 0.160367
Si Si2 0.040001 0.100928 0.071085
Si Si3 0.583037 0.110679 0.211905
Si Si4 0.168664 0.477827 0.201263
Si Si5 0.859346 0.421647 0.769629
Si Si6 0.634772 0.589292 0.633466
Si Si7 0.467803 0.886068 0.520736
O O1 0.576375 0.806100 0.512816
O O2 0.515835 0.593981 0.076527
O O3 0.826273 0.662825 0.065171
O O4 0.057078 0.804875 0.961507
O O5 0.220421 0.077214 0.763636
O O6 0.212432 0.252693 0.235374
O O7 0.715323 0.064683 0.274400
O O8 0.000000 0.000000 0.000000
O O9 0.457931 0.046750 0.315922
O O10 0.500000 0.000000 0.000000
O O11 0.011266 0.480394 0.259854
O O12 0.000000 0.500000 0.500000
O O13 0.719913 0.270801 0.577322
O O14 0.126514 0.453480 0.643455
O O15 0.617364 0.449232 0.114144
O O16 0.500000 0.500000 0.500000
#
# Coordination Sequence:
#
# PCOD8003780 Si02
#       7
#     2   2   2   2   2   2   2
#     4  11  23  37  60  88 126 159 206 248 304 344
#     4  10  21  38  63  85 111 151 197 252 299 355
#     4  12  24  41  60  87 129 168 206 250 298 363
#     4  11  22  37  65  93 126 152 206 262 293 360
#     4  10  21  35  64  85 115 157 196 241 296 359
#     4  10  22  39  59  88 117 151 196 249 306 362
#     4  10  20  37  61  87 110 151 209 236 286 364
#
# _framework density 19.898475999999999
#
# number of rings (size 3 to 8) (size 9 to 14) (size 15 to 20)
#    0.000    1.429    2.857    2.143    8.000    0.000 
#    0.000    4.286    0.000    0.000    0.000    0.000 
#    0.000    0.000    0.000    0.000    0.000    0.000 
#
# Total GULP energy -173574.233147 kJ/mol
# GULP energy per Si atom -12398.159510 kJ/mol
# Density = 1.985319 g / cm^3
# Si number density = 19.898476 Si / 1000 Ang^3
#
#
#
# Elastic Constant Matrix: (Units=GPa)
#
#
# Indices 1 2 3 4 5 6 
#
# 1 107.0549 31.8374 18.3731 22.5609 4.4440 -13.7542
# 2 31.8374 58.2299 25.7931 -4.9647 2.4463 -6.3089
# 3 18.3731 25.7931 85.3313 4.8825 -7.2336 -0.8222
# 4 22.5609 -4.9647 4.8825 29.1355 0.5901 -8.3896
# 5 4.4440 2.4463 -7.2336 0.5901 37.4319 6.8369
# 6 -13.7542 -6.3089 -0.8222 -8.3896 6.8369 20.7742
#
#
#
# Elastic Compliance Matrix: (Units=1/GPa)
#
#
# Indices 1 2 3 4 5 6 
#
# 1 0.014992 -0.008922 0.000074 -0.012325 -0.001487 0.002731
# 2 -0.008922 0.028171 -0.007789 0.016064 -0.004418 0.010281
# 3 0.000074 -0.007789 0.014694 -0.005493 0.004414 -0.005405
# 4 -0.012325 0.016064 -0.005493 0.053300 -0.005087 0.019700
# 5 -0.001487 -0.004418 0.004414 -0.005087 0.030729 -0.014319
# 6 0.002731 0.010281 -0.005405 0.019700 -0.014319 0.065521
#
#
# Mechanical properties :
#
#
# Convention : Reuss Voigt Hill
#
# Bulk Modulus (GPa) = 40.67829 44.73594 42.70712
# Shear Modulus (GPa) = 20.09057 29.10917 24.59987
#
# Velocity S-wave (km/s) = 3.18095 3.82892 3.51988
# Velocity P-wave (km/s) = 5.82911 6.48678 6.16672
#
# Compressibility (1/GPa) = 0.02458314
#
# Stress axis : x y z
#
# Youngs Moduli (GPa) = 66.70409 35.49777 68.05646
#
# Poissons Ratio (x) = 0.31672 -0.00507
# Poissons Ratio (y) = 0.59515 0.53008
# Poissons Ratio (z) = -0.00497 0.27648
#
# Static dielectric constant tensor:
#      x y z
#    x 3.658150 -0.169150 -0.253680 
#    y -0.169150 3.679110 -0.163910 
#    z -0.253680 -0.163910 4.086730 
# 
# 
# High freq. dielectric constant tensor:
#      x y z
#    x 1.773680 -0.011120 -0.019730 
#    y -0.011120 1.752090 -0.020170 
#    z -0.019730 -0.020170 1.791650 
# 
# From -- ./inp_files/73339.got.cif
#   From: 2010.06.25/outbox.cif.g09.slc.cpg/sg2_37_cif.got.tgz:73339.got - 2010.06.27 13:26:56.
