data_PCOD8003969
_publ_section_title
;
Structure prediction by ZEFSAII (Michael W. Deem and Ramdas Pophale) SiO2 
 PCOD8003969
Probable space group: P -1
;
_chemical_formula_sum "Si O2"
_cell_formula_units_Z 14
_cell_length_a 9.216864
_cell_length_b 7.682766
_cell_length_c 17.954601
_cell_angle_alpha 83.973365
_cell_angle_beta 125.310929
_cell_angle_gamma 52.651336
_cell_volume 587.049525
_symmetry_space_group_name_H-M "P -1"
_symmetry_group_IT_number 2
_symmetry_cell_setting 'triclinic'
loop_
_space_group_symop_operation_xyz
x,y,z
-x,-y,-z
loop_
_atom_site_type_symbol
_atom_site_label
_atom_site_fract_x
_atom_site_fract_y
_atom_site_fract_z
Si Si1 0.259511 0.908466 0.118371
Si Si2 0.425389 0.878465 0.399444
Si Si3 0.274358 0.223287 0.203414
Si Si4 0.947494 0.799186 0.418552
Si Si5 0.738073 0.302773 0.736747
Si Si6 0.261324 0.074491 0.968765
Si Si7 0.219029 0.947680 0.490043
O O1 0.135396 0.172974 0.118107
O O2 0.431072 0.644484 0.241314
O O3 0.443947 0.838091 0.104282
O O4 0.000000 0.000000 0.000000
O O5 0.258996 0.837012 0.322923
O O6 0.308951 0.998677 0.444659
O O7 0.799625 0.546180 0.519952
O O8 0.322964 0.128782 0.309040
O O9 0.030018 0.576084 0.104033
O O10 0.609234 0.013058 0.278812
O O11 0.032551 0.925533 0.408734
O O12 0.969657 0.786864 0.516591
O O13 0.539639 0.633518 0.641823
O O14 0.102616 0.055951 0.869918
O O15 0.500000 0.000000 0.000000
#
# Coordination Sequence:
#
# PCOD8003969 Si02
#       7
#     2   2   2   2   2   2   2
#     4   9  21  41  65  80 114 165 208 254 307 360
#     4  10  22  39  63  95 130 163 200 247 308 383
#     4  11  22  42  61  92 125 160 207 255 312 367
#     4  10  20  37  62  93 129 163 201 247 305 377
#     4   9  18  40  61  83 124 162 202 249 305 371
#     4  11  23  41  60  91 119 157 212 270 302 351
#     4  10  20  38  62  95 131 162 203 242 306 385
#
# _framework density 23.848072999999999
#
# number of rings (size 3 to 8) (size 9 to 14) (size 15 to 20)
#    0.000    2.000    1.429    2.571    0.000    2.857 
#   10.286    6.429    0.000    0.000    0.000    0.000 
#    0.000    0.000    0.000    0.000    0.000    0.000 
#
# Total GULP energy -173462.590302 kJ/mol
# GULP energy per Si atom -12390.185022 kJ/mol
# Density = 2.379379 g / cm^3
# Si number density = 23.848073 Si / 1000 Ang^3
#
#
#
# Elastic Constant Matrix: (Units=GPa)
#
#
# Indices 1 2 3 4 5 6 
#
# 1 150.3946 11.8815 38.1018 4.4179 -6.9558 -24.4722
# 2 11.8815 40.0299 7.8893 -3.4107 5.2180 -8.6368
# 3 38.1018 7.8893 78.7292 7.3568 8.3265 -9.1259
# 4 4.4179 -3.4107 7.3568 16.8889 -4.6982 -3.4583
# 5 -6.9558 5.2180 8.3265 -4.6982 38.8531 8.3646
# 6 -24.4722 -8.6368 -9.1259 -3.4583 8.3646 39.9417
#
#
#
# Elastic Compliance Matrix: (Units=1/GPa)
#
#
# Indices 1 2 3 4 5 6 
#
# 1 0.008349 -0.001130 -0.003719 0.000439 0.001699 0.003703
# 2 -0.001130 0.028189 -0.001730 0.006907 -0.004177 0.006480
# 3 -0.003719 -0.001730 0.016082 -0.007505 -0.005097 0.001440
# 4 0.000439 0.006907 -0.007505 0.066823 0.007942 0.004170
# 5 0.001699 -0.004177 -0.005097 0.007942 0.030085 -0.006640
# 6 0.003703 0.006480 0.001440 0.004170 -0.006640 0.030787
#
#
# Mechanical properties :
#
#
# Convention : Reuss Voigt Hill
#
# Bulk Modulus (GPa) = 25.34096 42.76652 34.05374
# Shear Modulus (GPa) = 24.19806 33.22216 28.71011
#
# Velocity S-wave (km/s) = 3.18885 3.73644 3.47345
# Velocity P-wave (km/s) = 4.92011 6.04868 5.51334
#
# Compressibility (1/GPa) = 0.03946180
#
# Stress axis : x y z
#
# Youngs Moduli (GPa) = 119.77615 35.47477 62.18075
#
# Poissons Ratio (x) = 0.04010 0.23123
# Poissons Ratio (y) = 0.13538 0.10759
# Poissons Ratio (z) = 0.44541 0.06138
#
# Static dielectric constant tensor:
#      x y z
#    x 4.688080 0.154580 -0.182360 
#    y 0.154580 4.112670 0.358960 
#    z -0.182360 0.358960 4.538750 
# 
# 
# High freq. dielectric constant tensor:
#      x y z
#    x 1.961870 0.020930 -0.001010 
#    y 0.020930 1.921850 0.029330 
#    z -0.001010 0.029330 1.931890 
# 
# From -- ./inp_files/177188.got.cif
#   From: 2010.06.25/outbox.cif.g09.slc.cpg/sg2_89_cif.got.tgz:177188.got - 2010.06.27 13:26:56.
