data_PCOD8003233
_publ_section_title
;
Structure prediction by ZEFSAII (Michael W. Deem and Ramdas Pophale) SiO2 
 PCOD8003233
Probable space group: P -1
;
_chemical_formula_sum "Si O2"
_cell_formula_units_Z 16
_cell_length_a 12.294302
_cell_length_b 16.038844
_cell_length_c 8.683876
_cell_angle_alpha 64.036953
_cell_angle_beta 46.836796
_cell_angle_gamma 37.841155
_cell_volume 745.880295
_symmetry_space_group_name_H-M "P -1"
_symmetry_group_IT_number 2
_symmetry_cell_setting 'triclinic'
loop_
_space_group_symop_operation_xyz
x,y,z
-x,-y,-z
loop_
_atom_site_type_symbol
_atom_site_label
_atom_site_fract_x
_atom_site_fract_y
_atom_site_fract_z
Si Si1 0.265983 0.103974 0.922991
Si Si2 0.578913 0.440380 0.301606
Si Si3 0.938080 0.561850 0.841238
Si Si4 0.115544 0.858058 0.691113
Si Si5 0.430980 0.142636 0.993597
Si Si6 0.900613 0.935046 0.526392
Si Si7 0.121592 0.651538 0.424985
Si Si8 0.974697 0.357772 0.819021
O O1 0.243586 0.172720 0.051010
O O2 0.218879 0.197410 0.753113
O O3 0.092709 0.100770 0.069953
O O4 0.512270 0.940747 0.834164
O O5 0.500000 0.500000 0.500000
O O6 0.655597 0.296238 0.343853
O O7 0.383498 0.552003 0.277912
O O8 0.792521 0.403828 0.079556
O O9 0.992370 0.459545 0.744227
O O10 0.063547 0.598011 0.645333
O O11 0.670971 0.710387 0.981641
O O12 0.000000 0.500000 0.000000
O O13 0.099273 0.856867 0.521912
O O14 0.105569 0.971537 0.655648
O O15 0.657592 0.045665 0.753625
O O16 0.961808 0.815335 0.466815
O O17 0.092325 0.629917 0.298811
#
# Coordination Sequence:
#
# PCOD8003233 Si02
#       8
#     2   2   2   2   2   2   2   2
#     4   9  18  38  59  88 123 158 202 261 306 372
#     4  11  22  39  68  94 123 169 220 260 306 376
#     4  12  24  41  68  95 120 169 223 268 305 376
#     4   9  19  35  59  93 116 154 219 258 300 356
#     4  10  20  36  64  92 120 154 224 266 300 356
#     4  10  21  37  60  91 125 160 203 270 307 369
#     4  12  25  43  60  93 139 168 204 262 334 380
#     4  11  25  42  62  96 134 170 200 264 334 378
#
# _framework density 21.451163000000001
#
# number of rings (size 3 to 8) (size 9 to 14) (size 15 to 20)
#    0.000    1.500    2.500    3.750    3.500    1.000 
#    0.000    6.250    0.000    0.000    0.000    0.000 
#    0.000    0.000    0.000    0.000    0.000    0.000 
#
# Total GULP energy -198210.947589 kJ/mol
# GULP energy per Si atom -12388.184224 kJ/mol
# Density = 2.140234 g / cm^3
# Si number density = 21.451163 Si / 1000 Ang^3
#
#
#
# Elastic Constant Matrix: (Units=GPa)
#
#
# Indices 1 2 3 4 5 6 
#
# 1 86.4094 48.2989 14.9563 1.1546 8.5446 -2.2220
# 2 48.2989 177.4036 23.5699 -3.3658 -1.8450 4.1644
# 3 14.9563 23.5699 48.6355 -3.5677 -2.4556 4.1565
# 4 1.1546 -3.3658 -3.5677 25.4245 0.4006 -7.1279
# 5 8.5446 -1.8450 -2.4556 0.4006 30.2736 -5.2823
# 6 -2.2220 4.1644 4.1565 -7.1279 -5.2823 46.2305
#
#
#
# Elastic Compliance Matrix: (Units=1/GPa)
#
#
# Indices 1 2 3 4 5 6 
#
# 1 0.014630 -0.003657 -0.003103 -0.001347 -0.004483 0.000592
# 2 -0.003657 0.006945 -0.002099 0.000668 0.001212 -0.000371
# 3 -0.003103 -0.002099 0.022962 0.002671 0.002340 -0.001345
# 4 -0.001347 0.000668 0.002671 0.041570 0.001165 0.006177
# 5 -0.004483 0.001212 0.002340 0.001165 0.035185 0.003665
# 6 0.000592 -0.000371 -0.001345 0.006177 0.003665 0.023185
#
#
# Mechanical properties :
#
#
# Convention : Reuss Voigt Hill
#
# Bulk Modulus (GPa) = 37.28632 54.01096 45.64864
# Shear Modulus (GPa) = 29.21661 35.42728 32.32194
#
# Velocity S-wave (km/s) = 3.69454 4.06831 3.88592
# Velocity P-wave (km/s) = 5.96818 6.87761 6.43897
#
# Compressibility (1/GPa) = 0.02681948
#
# Stress axis : x y z
#
# Youngs Moduli (GPa) = 68.35052 143.97946 43.55080
#
# Poissons Ratio (x) = 0.52654 0.13512
# Poissons Ratio (y) = 0.24996 0.09143
# Poissons Ratio (z) = 0.21206 0.30227
#
# Static dielectric constant tensor:
#      x y z
#    x 3.780570 -0.107480 -0.264450 
#    y -0.107480 4.702300 -0.081910 
#    z -0.264450 -0.081910 3.519660 
# 
# 
# High freq. dielectric constant tensor:
#      x y z
#    x 1.822340 -0.005270 -0.019920 
#    y -0.005270 1.875300 -0.008660 
#    z -0.019920 -0.008660 1.800970 
# 
# From -- ./inp_files/272370.got.cif
#   From: 2010.06.25/outbox.cif.g09.slc.cpg/sg2_137_cif.got.tgz:272370.got - 2010.06.27 13:26:56.
