data_PCOD8003613
_publ_section_title
;
Structure prediction by ZEFSAII (Michael W. Deem and Ramdas Pophale) SiO2 
 PCOD8003613
Probable space group: P -1
;
_chemical_formula_sum "Si O2"
_cell_formula_units_Z 16
_cell_length_a 5.304777
_cell_length_b 20.809795
_cell_length_c 8.027348
_cell_angle_alpha 108.378859
_cell_angle_beta 120.445652
_cell_angle_gamma 63.148557
_cell_volume 677.272801
_symmetry_space_group_name_H-M "P -1"
_symmetry_group_IT_number 2
_symmetry_cell_setting 'triclinic'
loop_
_space_group_symop_operation_xyz
x,y,z
-x,-y,-z
loop_
_atom_site_type_symbol
_atom_site_label
_atom_site_fract_x
_atom_site_fract_y
_atom_site_fract_z
Si Si1 0.090462 0.149228 0.288231
Si Si2 0.150773 0.558250 0.567075
Si Si3 0.848649 0.689212 0.055123
Si Si4 0.290944 0.923719 0.723275
Si Si5 0.848619 0.301905 0.171107
Si Si6 0.187229 0.542044 0.189810
Si Si7 0.010276 0.089178 0.739636
Si Si8 0.381104 0.161876 0.739320
O O1 0.330149 0.104612 0.187454
O O2 0.272625 0.136702 0.512575
O O3 0.807417 0.119254 0.195177
O O4 0.956986 0.233744 0.273152
O O5 0.016367 0.636817 0.670552
O O6 0.095529 0.574180 0.367978
O O7 0.481481 0.519998 0.732381
O O8 0.000000 0.500000 0.500000
O O9 0.775843 0.751539 0.221261
O O10 0.143233 0.615482 0.133031
O O11 0.531493 0.669764 0.924044
O O12 0.972699 0.720499 0.962571
O O13 0.160622 0.908389 0.491209
O O14 0.160527 0.008182 0.793548
O O15 0.000000 0.500000 0.000000
O O16 0.285310 0.121282 0.828470
O O17 0.760502 0.137646 0.833913
#
# Coordination Sequence:
#
# PCOD8003613 Si02
#       8
#     2   2   2   2   2   2   2   2
#     4  10  20  37  60  91 127 163 222 274 335 401
#     4  11  26  45  74 105 137 183 229 286 338 414
#     4  12  26  43  68  93 136 182 222 278 339 405
#     4   9  17  32  59  92 122 166 209 281 338 393
#     4  12  26  44  66  95 136 179 226 275 338 408
#     4  11  24  47  72 104 141 178 231 280 345 407
#     4   9  17  32  59  91 126 158 219 275 336 403
#     4  10  20  37  59  93 124 167 218 278 334 399
#
# _framework density 23.624158000000001
#
# number of rings (size 3 to 8) (size 9 to 14) (size 15 to 20)
#    0.000    1.500    1.250    3.750    3.500    4.000 
#    6.750    0.000    0.000   15.000    0.000    0.000 
#    0.000    0.000    0.000    0.000    0.000    0.000 
#
# Total GULP energy -198258.181068 kJ/mol
# GULP energy per Si atom -12391.136317 kJ/mol
# Density = 2.357039 g / cm^3
# Si number density = 23.624158 Si / 1000 Ang^3
#
#
#
# Elastic Constant Matrix: (Units=GPa)
#
#
# Indices 1 2 3 4 5 6 
#
# 1 176.7357 70.4025 36.5716 -9.2802 0.4344 8.2644
# 2 70.4025 186.9937 12.2363 3.9586 0.1673 5.7890
# 3 36.5716 12.2363 43.6344 4.8556 0.2262 -0.7280
# 4 -9.2802 3.9586 4.8556 23.8913 -4.0145 -0.4167
# 5 0.4344 0.1673 0.2262 -4.0145 38.8337 -1.7819
# 6 8.2644 5.7890 -0.7280 -0.4167 -1.7819 47.3196
#
#
#
# Elastic Compliance Matrix: (Units=1/GPa)
#
#
# Indices 1 2 3 4 5 6 
#
# 1 0.008570 -0.002844 -0.006995 0.005276 0.000448 -0.001193
# 2 -0.002844 0.006424 0.000845 -0.002390 -0.000262 -0.000307
# 3 -0.006995 0.000845 0.029575 -0.009004 -0.000962 0.001458
# 4 0.005276 -0.002390 -0.009004 0.046943 0.004849 -0.000172
# 5 0.000448 -0.000262 -0.000962 0.004849 0.026298 0.000972
# 6 -0.001193 -0.000307 0.001458 -0.000172 0.000972 0.021436
#
#
# Mechanical properties :
#
#
# Convention : Reuss Voigt Hill
#
# Bulk Modulus (GPa) = 37.62244 71.75384 54.68814
# Shear Modulus (GPa) = 30.10315 41.21916 35.66116
#
# Velocity S-wave (km/s) = 3.57354 4.18160 3.88947
# Velocity P-wave (km/s) = 5.74342 7.33167 6.58560
#
# Compressibility (1/GPa) = 0.02657988
#
# Stress axis : x y z
#
# Youngs Moduli (GPa) = 116.68194 155.67482 33.81264
#
# Poissons Ratio (x) = 0.44276 0.23652
# Poissons Ratio (y) = 0.33186 -0.02856
# Poissons Ratio (z) = 0.81618 -0.13148
#
# Static dielectric constant tensor:
#      x y z
#    x 4.469560 0.034160 -0.034740 
#    y 0.034160 4.170680 -0.005060 
#    z -0.034740 -0.005060 4.112910 
# 
# 
# High freq. dielectric constant tensor:
#      x y z
#    x 1.939880 0.004600 -0.003400 
#    y 0.004600 1.948400 0.003480 
#    z -0.003400 0.003480 1.937620 
# 
# From -- ./inp_files/141459.got.cif
#   From: 2010.06.25/outbox.cif.g09.slc.cpg/sg2_71_cif.got.tgz:141459.got - 2010.06.27 13:26:56.
