data_PCOD8003329
_publ_section_title
;
Structure prediction by ZEFSAII (Michael W. Deem and Ramdas Pophale) SiO2 
 PCOD8003329
Probable space group: P -1
;
_chemical_formula_sum "Si O2"
_cell_formula_units_Z 16
_cell_length_a 11.058311
_cell_length_b 5.423311
_cell_length_c 12.472375
_cell_angle_alpha 69.248268
_cell_angle_beta 113.949655
_cell_angle_gamma 116.568748
_cell_volume 597.599462
_symmetry_space_group_name_H-M "P -1"
_symmetry_group_IT_number 2
_symmetry_cell_setting 'triclinic'
loop_
_space_group_symop_operation_xyz
x,y,z
-x,-y,-z
loop_
_atom_site_type_symbol
_atom_site_label
_atom_site_fract_x
_atom_site_fract_y
_atom_site_fract_z
Si Si1 0.067740 0.258297 0.897928
Si Si2 0.683279 0.584671 0.686680
Si Si3 0.152429 0.050502 0.493853
Si Si4 0.076064 0.571665 0.382731
Si Si5 0.640929 0.511438 0.106666
Si Si6 0.390739 0.932159 0.375166
Si Si7 0.745443 0.994075 0.229623
Si Si8 0.984459 0.706115 0.866680
O O1 0.231594 0.299000 0.953133
O O2 0.032726 0.438861 0.954902
O O3 0.029899 0.392402 0.752594
O O4 0.972181 0.925608 0.920118
O O5 0.716819 0.789605 0.562907
O O6 0.573511 0.261090 0.676288
O O7 0.832538 0.571115 0.779523
O O8 0.618098 0.766244 0.715227
O O9 0.045960 0.231727 0.437883
O O10 0.227742 0.035422 0.632801
O O11 0.063845 0.735408 0.462237
O O12 0.238708 0.705872 0.386359
O O13 0.654100 0.682464 0.197470
O O14 0.654967 0.203266 0.163761
O O15 0.500000 0.500000 0.000000
O O16 0.500000 0.000000 0.500000
O O17 0.893232 0.104773 0.199269
#
# Coordination Sequence:
#
# PCOD8003329 Si02
#       8
#     2   2   2   2   2   2   2   2
#     4  10  16  30  44  60  81 118 149 169 225 252
#     4  10  17  29  40  58  91 117 142 173 220 234
#     4  10  18  29  43  64  91 117 142 189 200 257
#     4  10  17  30  43  62  94 118 143 174 225 243
#     4  10  21  35  46  60  84 115 154 194 219 249
#     4  10  18  27  42  59  83 122 155 170 199 258
#     4  10  21  31  47  67  83 116 160 174 219 257
#     4  10  16  29  40  61  84 114 146 176 207 251
#
# _framework density 26.773783999999999
#
# number of rings (size 3 to 8) (size 9 to 14) (size 15 to 20)
#    0.000    2.000    5.000    1.500    0.000    0.500 
#    0.000    2.500    0.000    0.000    0.000    0.000 
#    0.000    0.000    0.000   27.000    0.000    0.000 
#
# Total GULP energy -198236.364724 kJ/mol
# GULP energy per Si atom -12389.772795 kJ/mol
# Density = 2.671285 g / cm^3
# Si number density = 26.773784 Si / 1000 Ang^3
#
#
#
# Elastic Constant Matrix: (Units=GPa)
#
#
# Indices 1 2 3 4 5 6 
#
# 1 44.4601 50.1911 50.7041 9.7826 5.7460 -26.2061
# 2 50.1911 244.3041 55.0202 -0.2123 6.4604 -59.8151
# 3 50.7041 55.0202 135.2695 10.1015 11.3647 -2.9472
# 4 9.7826 -0.2123 10.1015 59.7417 -3.6702 4.5173
# 5 5.7460 6.4604 11.3647 -3.6702 48.1113 4.9196
# 6 -26.2061 -59.8151 -2.9472 4.5173 4.9196 49.1110
#
#
#
# Elastic Compliance Matrix: (Units=1/GPa)
#
#
# Indices 1 2 3 4 5 6 
#
# 1 0.091980 0.000904 -0.031866 -0.014096 -0.009824 0.050551
# 2 0.000904 0.006657 -0.002724 -0.000391 -0.001267 0.008590
# 3 -0.031866 -0.002724 0.019604 0.003491 0.001816 -0.019648
# 4 -0.014096 -0.000391 0.003491 0.019414 0.003406 -0.009916
# 5 -0.009824 -0.001267 0.001816 0.003406 0.022909 -0.009284
# 6 0.050551 0.008590 -0.019648 -0.009916 -0.009284 0.058462
#
#
# Mechanical properties :
#
#
# Convention : Reuss Voigt Hill
#
# Bulk Modulus (GPa) = 19.65811 81.76271 50.71041
# Shear Modulus (GPa) = 16.48239 49.26735 32.87487
#
# Velocity S-wave (km/s) = 2.48385 4.29433 3.50791
# Velocity P-wave (km/s) = 3.94769 7.42920 5.94884
#
# Compressibility (1/GPa) = 0.05086960
#
# Stress axis : x y z
#
# Youngs Moduli (GPa) = 10.87194 150.20970 51.01061
#
# Poissons Ratio (x) = -0.13581 1.62550
# Poissons Ratio (y) = -0.00983 0.13895
# Poissons Ratio (z) = 0.34644 0.40916
#
# Static dielectric constant tensor:
#      x y z
#    x 5.202720 -1.036420 -0.041960 
#    y -1.036420 6.512960 -0.078790 
#    z -0.041960 -0.078790 4.589220 
# 
# 
# High freq. dielectric constant tensor:
#      x y z
#    x 2.081030 -0.041520 -0.004030 
#    y -0.041520 2.129280 -0.003570 
#    z -0.004030 -0.003570 2.070980 
# 
# From -- ./inp_files/74528.got.cif
#   From: 2010.06.25/outbox.cif.g09.slc.cpg/sg2_38_cif.got.tgz:74528.got - 2010.06.27 13:26:56.
