data_PCOD8003171
_publ_section_title
;
Structure prediction by ZEFSAII (Michael W. Deem and Ramdas Pophale) SiO2 
 PCOD8003171
Probable space group: P -1
;
_chemical_formula_sum "Si O2"
_cell_formula_units_Z 16
_cell_length_a 13.661646
_cell_length_b 15.224289
_cell_length_c 11.537567
_cell_angle_alpha 113.175216
_cell_angle_beta 36.505941
_cell_angle_gamma 140.444119
_cell_volume 729.326799
_symmetry_space_group_name_H-M "P -1"
_symmetry_group_IT_number 2
_symmetry_cell_setting 'triclinic'
loop_
_space_group_symop_operation_xyz
x,y,z
-x,-y,-z
loop_
_atom_site_type_symbol
_atom_site_label
_atom_site_fract_x
_atom_site_fract_y
_atom_site_fract_z
Si Si1 0.129313 0.101426 0.246243
Si Si2 0.768846 0.407379 0.430657
Si Si3 0.158153 0.326851 0.093972
Si Si4 0.231988 0.508616 0.922986
Si Si5 0.187775 0.024237 0.748855
Si Si6 0.241941 0.433349 0.645803
Si Si7 0.090134 0.173766 0.551658
Si Si8 0.340755 0.558459 0.215539
O O1 0.036542 0.139082 0.446403
O O2 0.457540 0.279787 0.977404
O O3 0.886128 0.982928 0.315704
O O4 0.133093 0.001322 0.255249
O O5 0.532907 0.207488 0.540679
O O6 0.645721 0.439729 0.494448
O O7 0.828702 0.459032 0.536591
O O8 0.075984 0.521012 0.142554
O O9 0.210666 0.399764 0.958055
O O10 0.108023 0.385279 0.269892
O O11 0.450557 0.410208 0.892369
O O12 0.880430 0.120960 0.242785
O O13 0.080417 0.415529 0.892815
O O14 0.574748 0.701032 0.678401
O O15 0.000000 0.000000 0.000000
O O16 0.500000 0.500000 0.500000
O O17 0.030935 0.253871 0.690714
#
# Coordination Sequence:
#
# PCOD8003171 Si02
#       8
#     2   2   2   2   2   2   2   2
#     4  10  20  36  63  91 118 148 212 258 288 341
#     4  12  24  39  62  93 126 163 191 251 320 356
#     4  10  21  37  62  88 122 159 204 249 292 358
#     4  11  23  39  61  89 130 155 198 250 311 371
#     4  11  22  35  61  92 123 155 202 256 292 356
#     4  10  22  37  64  86 116 159 211 245 286 357
#     4  10  21  38  64  91 112 164 207 253 289 356
#     4  10  20  38  65  90 120 154 210 250 292 361
#
# _framework density 21.938040000000001
#
# number of rings (size 3 to 8) (size 9 to 14) (size 15 to 20)
#    0.000    1.500    3.750    3.375    5.250    1.000 
#    0.000    0.000    2.750    3.750    0.000    0.000 
#    0.000    0.000    0.000    0.000    0.000    0.000 
#
# Total GULP energy -198367.411908 kJ/mol
# GULP energy per Si atom -12397.963244 kJ/mol
# Density = 2.188811 g / cm^3
# Si number density = 21.938040 Si / 1000 Ang^3
#
#
#
# Elastic Constant Matrix: (Units=GPa)
#
#
# Indices 1 2 3 4 5 6 
#
# 1 64.9876 37.0295 25.2643 -1.8154 39.6288 0.6312
# 2 37.0295 161.8444 47.1380 10.5723 28.4858 10.3040
# 3 25.2643 47.1380 92.6161 19.2575 27.6857 2.5030
# 4 -1.8154 10.5723 19.2575 31.5999 8.0262 16.0500
# 5 39.6288 28.4858 27.6857 8.0262 40.2407 5.0953
# 6 0.6312 10.3040 2.5030 16.0500 5.0953 40.7320
#
#
#
# Elastic Compliance Matrix: (Units=1/GPa)
#
#
# Indices 1 2 3 4 5 6 
#
# 1 0.045426 -0.003314 -0.000449 0.015641 -0.045156 -0.000352
# 2 -0.003314 0.007950 -0.003072 -0.000095 -0.000012 -0.001732
# 3 -0.000449 -0.003072 0.016553 -0.009437 -0.007448 0.004417
# 4 0.015641 -0.000095 -0.009437 0.051709 -0.016890 -0.017901
# 5 -0.045156 -0.000012 -0.007448 -0.016890 0.078069 -0.001950
# 6 -0.000352 -0.001732 0.004417 -0.017901 -0.001950 0.032021
#
#
# Mechanical properties :
#
#
# Convention : Reuss Voigt Hill
#
# Bulk Modulus (GPa) = 17.77492 59.81241 38.79367
# Shear Modulus (GPa) = 18.92848 36.51559 27.72203
#
# Velocity S-wave (km/s) = 2.94056 4.08424 3.55864
# Velocity P-wave (km/s) = 4.43273 7.04023 5.88277
#
# Compressibility (1/GPa) = 0.05625904
#
# Stress axis : x y z
#
# Youngs Moduli (GPa) = 22.01361 125.77861 60.41264
#
# Poissons Ratio (x) = 0.41685 0.02713
# Poissons Ratio (y) = 0.07296 0.18560
# Poissons Ratio (z) = 0.00989 0.38641
#
# Static dielectric constant tensor:
#      x y z
#    x 3.943500 0.193210 0.488480 
#    y 0.193210 4.646490 0.335730 
#    z 0.488480 0.335730 3.804840 
# 
# 
# High freq. dielectric constant tensor:
#      x y z
#    x 1.858190 0.004250 0.043000 
#    y 0.004250 1.877970 0.017370 
#    z 0.043000 0.017370 1.831970 
# 
# From -- ./inp_files/257952.got.cif
#   From: 2010.06.25/outbox.cif.g09.slc.cpg/sg2_129_cif.got.tgz:257952.got - 2010.06.27 13:26:56.
