data_PCOD8003554
_publ_section_title
;
Structure prediction by ZEFSAII (Michael W. Deem and Ramdas Pophale) SiO2 
 PCOD8003554
Probable space group: P -1
;
_chemical_formula_sum "Si O2"
_cell_formula_units_Z 14
_cell_length_a 6.545430
_cell_length_b 17.686397
_cell_length_c 11.994974
_cell_angle_alpha 129.884006
_cell_angle_beta 140.818565
_cell_angle_gamma 62.145015
_cell_volume 671.906196
_symmetry_space_group_name_H-M "P -1"
_symmetry_group_IT_number 2
_symmetry_cell_setting 'triclinic'
loop_
_space_group_symop_operation_xyz
x,y,z
-x,-y,-z
loop_
_atom_site_type_symbol
_atom_site_label
_atom_site_fract_x
_atom_site_fract_y
_atom_site_fract_z
Si Si1 0.034830 0.961453 0.852880
Si Si2 0.729300 0.698388 0.668979
Si Si3 0.693481 0.861118 0.992646
Si Si4 0.955457 0.703706 0.106221
Si Si5 0.997984 0.651717 0.316877
Si Si6 0.702647 0.767959 0.490428
Si Si7 0.152802 0.456158 0.271208
O O1 0.725189 0.887539 0.619528
O O2 0.054581 0.048770 0.852380
O O3 0.351561 0.899671 0.918331
O O4 0.000000 0.000000 0.000000
O O5 0.872508 0.730989 0.640870
O O6 0.965967 0.621206 0.753733
O O7 0.376782 0.646472 0.448617
O O8 0.672588 0.791123 0.810523
O O9 0.813217 0.804409 0.098266
O O10 0.831045 0.678885 0.155416
O O11 0.341807 0.722048 0.278766
O O12 0.822589 0.608956 0.890918
O O13 0.918847 0.735024 0.449121
O O14 0.901374 0.541542 0.222234
O O15 0.500000 0.500000 0.500000
#
# Coordination Sequence:
#
# PCOD8003554 Si02
#       7
#     2   2   2   2   2   2   2
#     4  11  22  38  65  88 114 154 202 244 292 350
#     4   9  18  37  59  86 118 152 201 241 282 347
#     4  10  21  39  61  87 115 154 200 239 291 353
#     4  10  23  39  59  89 124 153 192 242 296 351
#     4  10  20  37  59  84 125 159 189 237 301 339
#     4  11  22  37  60  90 120 155 194 250 292 340
#     4   9  19  38  63  86 117 161 198 236 287 350
#
# _framework density 20.836241999999999
#
# number of rings (size 3 to 8) (size 9 to 14) (size 15 to 20)
#    0.000    2.000    2.857    0.429    0.000    2.857 
#    0.000    1.429    0.000    0.000    0.000    0.000 
#    0.000    0.000    0.000    0.000    0.000    0.000 
#
# Total GULP energy -173478.204013 kJ/mol
# GULP energy per Si atom -12391.300287 kJ/mol
# Density = 2.078882 g / cm^3
# Si number density = 20.836242 Si / 1000 Ang^3
#
#
#
# Elastic Constant Matrix: (Units=GPa)
#
#
# Indices 1 2 3 4 5 6 
#
# 1 82.8787 40.1040 50.8291 1.3075 -27.4899 13.8278
# 2 40.1040 143.6245 53.1627 6.1178 -23.8786 25.4980
# 3 50.8291 53.1627 97.1461 17.5417 -23.5024 10.9320
# 4 1.3075 6.1178 17.5417 33.7610 3.3242 -8.6346
# 5 -27.4899 -23.8786 -23.5024 3.3242 35.5267 -4.9374
# 6 13.8278 25.4980 10.9320 -8.6346 -4.9374 25.2760
#
#
#
# Elastic Compliance Matrix: (Units=1/GPa)
#
#
# Indices 1 2 3 4 5 6 
#
# 1 0.021526 -0.000361 -0.008187 0.001075 0.010129 -0.005525
# 2 -0.000361 0.010670 -0.003085 -0.003137 0.003817 -0.009559
# 3 -0.008187 -0.003085 0.019949 -0.010970 0.005294 -0.003750
# 4 0.001075 -0.003137 -0.010970 0.041846 -0.009708 0.019720
# 5 0.010129 0.003817 0.005294 -0.009708 0.042018 -0.006790
# 6 -0.005525 -0.009559 -0.003750 0.019720 -0.006790 0.059261
#
#
# Mechanical properties :
#
#
# Convention : Reuss Voigt Hill
#
# Bulk Modulus (GPa) = 34.62653 67.98231 51.30442
# Shear Modulus (GPa) = 21.91406 30.88296 26.39851
#
# Velocity S-wave (km/s) = 3.24655 3.85408 3.56329
# Velocity P-wave (km/s) = 5.54148 7.24590 6.45023
#
# Compressibility (1/GPa) = 0.02887959
#
# Stress axis : x y z
#
# Youngs Moduli (GPa) = 46.45437 93.71667 50.12685
#
# Poissons Ratio (x) = 0.03384 0.41041
# Poissons Ratio (y) = 0.01677 0.15464
# Poissons Ratio (z) = 0.38034 0.28911
#
# Static dielectric constant tensor:
#      x y z
#    x 3.673410 0.501580 -0.147940 
#    y 0.501580 4.234150 0.162460 
#    z -0.147940 0.162460 3.749160 
# 
# 
# High freq. dielectric constant tensor:
#      x y z
#    x 1.804060 0.024190 -0.015420 
#    y 0.024190 1.825550 0.016420 
#    z -0.015420 0.016420 1.810110 
# 
# From -- ./inp_files/32601.got.cif
#   From: 2010.06.25/outbox.cif.g09.slc.cpg/sg2_17_cif.got.tgz:32601.got - 2010.06.27 13:26:56.
