data_PCOD8003073
_publ_section_title
;
Structure prediction by ZEFSAII (Michael W. Deem and Ramdas Pophale) SiO2 
 PCOD8003073
Probable space group: P -1
;
_chemical_formula_sum "Si O2"
_cell_formula_units_Z 14
_cell_length_a 8.504804
_cell_length_b 14.882993
_cell_length_c 25.455090
_cell_angle_alpha 21.066570
_cell_angle_beta 144.599915
_cell_angle_gamma 141.264213
_cell_volume 667.988729
_symmetry_space_group_name_H-M "P -1"
_symmetry_group_IT_number 2
_symmetry_cell_setting 'triclinic'
loop_
_space_group_symop_operation_xyz
x,y,z
-x,-y,-z
loop_
_atom_site_type_symbol
_atom_site_label
_atom_site_fract_x
_atom_site_fract_y
_atom_site_fract_z
Si Si1 0.701279 0.569919 0.864812
Si Si2 0.179263 0.995078 0.000756
Si Si3 0.952942 0.085799 0.633156
Si Si4 0.894004 0.747711 0.970067
Si Si5 0.318637 0.463396 0.725202
Si Si6 0.755098 0.852666 0.221143
Si Si7 0.646187 0.274027 0.107792
O O1 0.595578 0.488523 0.821903
O O2 0.520563 0.423233 0.941847
O O3 0.718405 0.873607 0.705497
O O4 0.000000 0.500000 0.000000
O O5 0.501989 0.990499 0.100816
O O6 0.083427 0.755510 0.069119
O O7 0.116433 0.247541 0.814872
O O8 0.000000 0.000000 0.000000
O O9 0.087719 0.246188 0.631651
O O10 0.816818 0.275741 0.453933
O O11 0.190064 0.960323 0.735132
O O12 0.596657 0.824823 0.865424
O O13 0.864177 0.468736 0.090851
O O14 0.030965 0.940337 0.859780
O O15 0.364682 0.369378 0.729352
#
# Coordination Sequence:
#
# PCOD8003073 Si02
#       7
#     2   2   2   2   2   2   2
#     4  10  20  36  62  88 121 165 209 245 297 363
#     4  11  23  40  65  87 120 156 214 248 306 365
#     4  11  22  38  59  91 128 161 201 249 317 357
#     4  10  20  37  62  94 113 163 213 254 287 358
#     4  11  23  38  61  93 124 160 199 261 308 359
#     4  11  23  40  64  89 122 162 208 249 303 370
#     4  10  21  37  65  87 125 159 214 246 299 362
#
# _framework density 20.958438999999998
#
# number of rings (size 3 to 8) (size 9 to 14) (size 15 to 20)
#    0.000    1.429    1.429    6.000    6.000    0.000 
#    0.000    7.857    0.000    4.286    0.000    0.000 
#    0.000    0.000    0.000    0.000    0.000    0.000 
#
# Total GULP energy -173443.804622 kJ/mol
# GULP energy per Si atom -12388.843187 kJ/mol
# Density = 2.091074 g / cm^3
# Si number density = 20.958439 Si / 1000 Ang^3
#
#
#
# Elastic Constant Matrix: (Units=GPa)
#
#
# Indices 1 2 3 4 5 6 
#
# 1 113.2580 35.5937 33.2808 5.4453 -0.4569 8.5411
# 2 35.5937 141.9719 39.8241 16.0727 -0.5137 -18.2321
# 3 33.2808 39.8241 104.6748 6.2882 8.3297 -1.0878
# 4 5.4453 16.0727 6.2882 27.0765 -4.4503 -4.7827
# 5 -0.4569 -0.5137 8.3297 -4.4503 17.8236 -0.8634
# 6 8.5411 -18.2321 -1.0878 -4.7827 -0.8634 41.9530
#
#
#
# Elastic Compliance Matrix: (Units=1/GPa)
#
#
# Indices 1 2 3 4 5 6 
#
# 1 0.010582 -0.002277 -0.002587 -0.000567 0.001115 -0.003253
# 2 -0.002277 0.009274 -0.002602 -0.003613 0.000718 0.004029
# 3 -0.002587 -0.002602 0.011966 -0.001849 -0.006226 -0.000633
# 4 -0.000567 -0.003613 -0.001849 0.042124 0.011435 0.003535
# 5 0.001115 0.000718 -0.006226 0.011435 0.062041 0.002504
# 6 -0.003253 0.004029 -0.000633 0.003535 0.002504 0.026687
#
#
# Mechanical properties :
#
#
# Convention : Reuss Voigt Hill
#
# Bulk Modulus (GPa) = 59.20932 64.14464 61.67698
# Shear Modulus (GPa) = 27.28723 34.11770 30.70246
#
# Velocity S-wave (km/s) = 3.61219 4.03907 3.83158
# Velocity P-wave (km/s) = 6.76087 7.24045 7.00477
#
# Compressibility (1/GPa) = 0.01688923
#
# Stress axis : x y z
#
# Youngs Moduli (GPa) = 94.49882 107.83384 83.57075
#
# Poissons Ratio (x) = 0.24553 0.21618
# Poissons Ratio (y) = 0.21517 0.21749
# Poissons Ratio (z) = 0.24445 0.28064
#
# Static dielectric constant tensor:
#      x y z
#    x 4.010320 -0.171250 -0.328030 
#    y -0.171250 4.297330 -0.065390 
#    z -0.328030 -0.065390 3.648560 
# 
# 
# High freq. dielectric constant tensor:
#      x y z
#    x 1.813880 -0.014450 -0.009030 
#    y -0.014450 1.852140 -0.004110 
#    z -0.009030 -0.004110 1.780160 
# 
# From -- ./inp_files/608056.got.cif
#   From: 2010.06.25/outbox.cif.g09.slc.cpg/sg2_305_cif.got.tgz:608056.got - 2010.06.27 13:26:56.
