data_PCOD8003149
_publ_section_title
;
Structure prediction by ZEFSAII (Michael W. Deem and Ramdas Pophale) SiO2 
 PCOD8003149
Probable space group: P -1
;
_chemical_formula_sum "Si O2"
_cell_formula_units_Z 14
_cell_length_a 9.004100
_cell_length_b 12.486414
_cell_length_c 18.552308
_cell_angle_alpha 26.430108
_cell_angle_beta 50.722859
_cell_angle_gamma 50.268452
_cell_volume 702.679117
_symmetry_space_group_name_H-M "P -1"
_symmetry_group_IT_number 2
_symmetry_cell_setting 'triclinic'
loop_
_space_group_symop_operation_xyz
x,y,z
-x,-y,-z
loop_
_atom_site_type_symbol
_atom_site_label
_atom_site_fract_x
_atom_site_fract_y
_atom_site_fract_z
Si Si1 0.633244 0.806787 0.454057
Si Si2 0.512881 0.642992 0.204337
Si Si3 0.775285 0.614413 0.013676
Si Si4 0.226986 0.382152 0.618616
Si Si5 0.591506 0.156245 0.735595
Si Si6 0.790158 0.488646 0.720648
Si Si7 0.506414 0.625310 0.845992
O O1 0.475750 0.629093 0.599980
O O2 0.788910 0.736067 0.383897
O O3 0.746192 0.746031 0.532741
O O4 0.520969 0.084042 0.313557
O O5 0.717186 0.631847 0.105967
O O6 0.476138 0.843109 0.159620
O O7 0.327933 0.697154 0.171910
O O8 0.662997 0.430265 0.119388
O O9 0.000000 0.500000 0.000000
O O10 0.715459 0.890213 0.834447
O O11 0.396600 0.209025 0.715985
O O12 0.267507 0.655615 0.435624
O O13 0.020870 0.382723 0.719849
O O14 0.715627 0.529143 0.801217
O O15 0.500000 0.500000 0.000000
#
# Coordination Sequence:
#
# PCOD8003149 Si02
#       7
#     2   2   2   2   2   2   2
#     4   9  19  37  63  81 114 146 196 237 271 339
#     4   8  20  37  58  81 110 151 195 230 279 332
#     4  11  24  36  56  83 118 156 186 227 287 348
#     4  10  20  36  63  87 109 149 191 242 282 328
#     4  10  21  37  55  86 122 142 185 238 288 336
#     4   9  20  36  62  85 106 149 200 229 279 332
#     4  11  23  39  56  86 119 150 188 240 285 331
#
# _framework density 19.923745
#
# number of rings (size 3 to 8) (size 9 to 14) (size 15 to 20)
#    0.857    1.429    0.000    2.143    2.000    1.143 
#    0.000    6.429    0.000    6.857    0.000    0.000 
#    0.000    0.000    0.000    0.000    0.000    0.000 
#
# Total GULP energy -173527.622829 kJ/mol
# GULP energy per Si atom -12394.830202 kJ/mol
# Density = 1.987840 g / cm^3
# Si number density = 19.923745 Si / 1000 Ang^3
#
#
#
# Elastic Constant Matrix: (Units=GPa)
#
#
# Indices 1 2 3 4 5 6 
#
# 1 59.4678 52.1197 24.7913 13.8359 2.0675 -14.5374
# 2 52.1197 141.0997 55.7863 22.6280 -1.7728 -20.4523
# 3 24.7913 55.7863 52.1340 7.8886 9.0766 -11.3239
# 4 13.8359 22.6280 7.8886 40.2551 0.7842 -1.9545
# 5 2.0675 -1.7728 9.0766 0.7842 27.7298 6.8587
# 6 -14.5374 -20.4523 -11.3239 -1.9545 6.8587 35.5376
#
#
#
# Elastic Compliance Matrix: (Units=1/GPa)
#
#
# Indices 1 2 3 4 5 6 
#
# 1 0.027000 -0.007553 -0.002158 -0.004237 -0.003254 0.006405
# 2 -0.007553 0.016250 -0.014246 -0.003855 0.006301 0.000295
# 3 -0.002158 -0.014246 0.039257 0.001668 -0.015245 0.006461
# 4 -0.004237 -0.003855 0.001668 0.028071 -0.000846 -0.001713
# 5 -0.003254 0.006301 -0.015245 -0.000846 0.044491 -0.011195
# 6 0.006405 0.000295 0.006461 -0.001713 -0.011195 0.035054
#
#
# Mechanical properties :
#
#
# Convention : Reuss Voigt Hill
#
# Bulk Modulus (GPa) = 28.90850 57.56622 43.23736
# Shear Modulus (GPa) = 20.03459 28.70479 24.36969
#
# Velocity S-wave (km/s) = 3.17450 3.79982 3.50115
# Velocity P-wave (km/s) = 5.28939 6.94316 6.17192
#
# Compressibility (1/GPa) = 0.03459190
#
# Stress axis : x y z
#
# Youngs Moduli (GPa) = 37.03700 61.53988 25.47314
#
# Poissons Ratio (x) = 0.46480 0.05498
# Poissons Ratio (y) = 0.27974 0.36289
# Poissons Ratio (z) = 0.07994 0.87670
#
# Static dielectric constant tensor:
#      x y z
#    x 3.304450 0.206710 -0.012430 
#    y 0.206710 3.660420 0.153810 
#    z -0.012430 0.153810 3.639760 
# 
# 
# High freq. dielectric constant tensor:
#      x y z
#    x 1.746070 0.013430 -0.000350 
#    y 0.013430 1.780090 0.007750 
#    z -0.000350 0.007750 1.781470 
# 
# From -- ./inp_files/354265.got.cif
#   From: 2010.06.25/outbox.cif.g09.slc.cpg/sg2_178_cif.got.tgz:354265.got - 2010.06.27 13:26:56.
