data_PCOD8003986
_publ_section_title
;
Structure prediction by ZEFSAII (Michael W. Deem and Ramdas Pophale) SiO2 
 PCOD8003986
Probable space group: P -1
;
_chemical_formula_sum "Si O2"
_cell_formula_units_Z 14
_cell_length_a 5.156589
_cell_length_b 8.973455
_cell_length_c 21.043932
_cell_angle_alpha 142.373768
_cell_angle_beta 83.341331
_cell_angle_gamma 83.489757
_cell_volume 555.632148
_symmetry_space_group_name_H-M "P -1"
_symmetry_group_IT_number 2
_symmetry_cell_setting 'triclinic'
loop_
_space_group_symop_operation_xyz
x,y,z
-x,-y,-z
loop_
_atom_site_type_symbol
_atom_site_label
_atom_site_fract_x
_atom_site_fract_y
_atom_site_fract_z
Si Si1 0.908109 0.804085 0.119625
Si Si2 0.268900 0.528977 0.292492
Si Si3 0.965278 0.845793 0.862292
Si Si4 0.468582 0.250908 0.544659
Si Si5 0.387991 0.689287 0.905027
Si Si6 0.376992 0.829567 0.208258
Si Si7 0.935995 0.922302 0.572786
O O1 0.142603 0.849485 0.171214
O O2 0.608487 0.931126 0.204755
O O3 0.883742 0.968266 0.110968
O O4 0.000000 0.500000 0.000000
O O5 0.072382 0.360832 0.259928
O O6 0.523201 0.510679 0.328069
O O7 0.345408 0.392744 0.175555
O O8 0.106424 0.833240 0.390823
O O9 0.135934 0.694840 0.867212
O O10 0.669748 0.042761 0.964774
O O11 0.183940 0.293391 0.527781
O O12 0.731311 0.205889 0.473573
O O13 0.500000 0.000000 0.500000
O O14 0.440801 0.464196 0.879224
O O15 0.227821 0.995136 0.329347
#
# Coordination Sequence:
#
# PCOD8003986 Si02
#       7
#     2   2   2   2   2   2   2
#     4  12  26  45  68  95 137 182 226 263 324 399
#     4  10  22  34  64  91 136 165 217 267 347 375
#     4  11  25  40  63  98 139 174 216 274 331 395
#     4  10  20  37  62  99 132 165 212 282 330 390
#     4  10  24  40  65  97 136 171 220 271 334 391
#     4  11  25  45  72  94 134 181 225 268 326 397
#     4  10  22  38  67  95 130 168 223 271 330 385
#
# _framework density 25.196529000000002
#
# number of rings (size 3 to 8) (size 9 to 14) (size 15 to 20)
#    0.000    1.429    1.429    3.429   14.000    0.000 
#    0.000    0.000    0.000    5.143    0.000    0.000 
#    0.000    0.000    0.000    0.000    0.000    0.000 
#
# Total GULP energy -173435.846576 kJ/mol
# GULP energy per Si atom -12388.274755 kJ/mol
# Density = 2.513918 g / cm^3
# Si number density = 25.196529 Si / 1000 Ang^3
#
#
#
# Elastic Constant Matrix: (Units=GPa)
#
#
# Indices 1 2 3 4 5 6 
#
# 1 141.2616 31.5850 21.7709 -3.0034 13.3349 12.3026
# 2 31.5850 47.1093 22.9556 -8.4383 7.5477 8.8491
# 3 21.7709 22.9556 100.4630 -2.2790 21.0076 13.1280
# 4 -3.0034 -8.4383 -2.2790 20.1401 12.5118 2.0794
# 5 13.3349 7.5477 21.0076 12.5118 42.5206 -10.0709
# 6 12.3026 8.8491 13.1280 2.0794 -10.0709 31.1458
#
#
#
# Elastic Compliance Matrix: (Units=1/GPa)
#
#
# Indices 1 2 3 4 5 6 
#
# 1 0.008708 -0.004359 0.000415 0.002194 -0.003688 -0.003715
# 2 -0.004359 0.033808 -0.001642 0.023262 -0.013795 -0.013205
# 3 0.000415 -0.001642 0.014371 0.009672 -0.012238 -0.010358
# 4 0.002194 0.023262 0.009672 0.091498 -0.044078 -0.031914
# 5 -0.003688 -0.013795 -0.012238 -0.044078 0.053423 0.030752
# 6 -0.003715 -0.013205 -0.010358 -0.031914 0.030752 0.053766
#
#
# Mechanical properties :
#
#
# Convention : Reuss Voigt Hill
#
# Bulk Modulus (GPa) = 21.87493 49.05079 35.46286
# Shear Modulus (GPa) = 17.73142 32.92946 25.33044
#
# Velocity S-wave (km/s) = 2.65566 3.61904 3.17411
# Velocity P-wave (km/s) = 4.25487 6.08052 5.24770
#
# Compressibility (1/GPa) = 0.04571443
#
# Stress axis : x y z
#
# Youngs Moduli (GPa) = 114.83631 29.57915 69.58335
#
# Poissons Ratio (x) = 0.12894 -0.02890
# Poissons Ratio (y) = 0.50059 0.11429
# Poissons Ratio (z) = -0.04770 0.04858
#
# Static dielectric constant tensor:
#      x y z
#    x 4.759190 0.203570 0.158140 
#    y 0.203570 4.260430 -0.136380 
#    z 0.158140 -0.136380 4.864700 
# 
# 
# High freq. dielectric constant tensor:
#      x y z
#    x 2.018460 0.021730 -0.003040 
#    y 0.021730 1.966050 -0.010940 
#    z -0.003040 -0.010940 2.021490 
# 
# From -- ./inp_files/582091.got.cif
#   From: 2010.06.25/outbox.cif.g09.slc.cpg/sg2_292_cif.got.tgz:582091.got - 2010.06.27 13:26:56.
