data_PCOD8003709
_publ_section_title
;
Structure prediction by ZEFSAII (Michael W. Deem and Ramdas Pophale) SiO2 
 PCOD8003709
Probable space group: P -1
;
_chemical_formula_sum "Si O2"
_cell_formula_units_Z 16
_cell_length_a 15.956422
_cell_length_b 7.925567
_cell_length_c 14.978145
_cell_angle_alpha 81.320673
_cell_angle_beta 26.402784
_cell_angle_gamma 68.306306
_cell_volume 704.310272
_symmetry_space_group_name_H-M "P -1"
_symmetry_group_IT_number 2
_symmetry_cell_setting 'triclinic'
loop_
_space_group_symop_operation_xyz
x,y,z
-x,-y,-z
loop_
_atom_site_type_symbol
_atom_site_label
_atom_site_fract_x
_atom_site_fract_y
_atom_site_fract_z
Si Si1 0.749222 0.517896 0.644559
Si Si2 0.991244 0.134967 0.719861
Si Si3 0.386259 0.835247 0.838742
Si Si4 0.775351 0.569509 0.817333
Si Si5 0.633577 0.222277 0.701248
Si Si6 0.319377 0.076683 0.563754
Si Si7 0.433525 0.498650 0.707058
Si Si8 0.629341 0.665623 0.377923
O O1 0.602687 0.703104 0.703690
O O2 0.692263 0.599761 0.792708
O O3 0.705698 0.340064 0.687429
O O4 0.005804 0.423093 0.383046
O O5 0.119023 0.146952 0.682246
O O6 0.818150 0.358341 0.830269
O O7 0.164192 0.009056 0.484611
O O8 0.841628 0.037202 0.895656
O O9 0.454829 0.956143 0.698180
O O10 0.310982 0.699067 0.867574
O O11 0.583994 0.753760 0.045254
O O12 0.577648 0.303641 0.647069
O O13 0.232836 0.254266 0.707725
O O14 0.391294 0.867012 0.560337
O O15 0.604763 0.517639 0.478954
O O16 0.272056 0.460200 0.799751
#
# Coordination Sequence:
#
# PCOD8003709 Si02
#       8
#     2   2   2   2   2   2   2   2
#     4  10  22  43  64  94 124 163 203 257 304 369
#     4  12  23  38  65  92 124 169 203 251 308 371
#     4  10  21  38  63  87 127 164 201 252 311 364
#     4  11  23  43  67  90 126 162 207 253 310 365
#     4  11  23  40  65  92 127 163 204 255 306 368
#     4  10  20  37  60  90 120 165 207 252 309 360
#     4   9  17  36  61  86 117 164 203 254 304 356
#     4   9  18  35  63  82 124 162 204 264 296 361
#
# _framework density 22.717261000000001
#
# number of rings (size 3 to 8) (size 9 to 14) (size 15 to 20)
#    0.000    1.750    5.000    0.375    0.000    1.500 
#    0.000    7.500    0.000    0.000    0.000    0.000 
#    0.000    0.000    0.000    0.000    0.000    0.000 
#
# Total GULP energy -198239.318569 kJ/mol
# GULP energy per Si atom -12389.957411 kJ/mol
# Density = 2.266556 g / cm^3
# Si number density = 22.717261 Si / 1000 Ang^3
#
#
#
# Elastic Constant Matrix: (Units=GPa)
#
#
# Indices 1 2 3 4 5 6 
#
# 1 127.3910 15.7997 45.6996 -3.0969 7.7884 3.0055
# 2 15.7997 36.5937 3.9889 -7.9437 -0.2862 -4.8669
# 3 45.6996 3.9889 107.3493 -6.3597 3.6735 1.4120
# 4 -3.0969 -7.9437 -6.3597 26.1874 5.2599 3.8216
# 5 7.7884 -0.2862 3.6735 5.2599 12.9182 -6.2641
# 6 3.0055 -4.8669 1.4120 3.8216 -6.2641 21.2935
#
#
#
# Elastic Compliance Matrix: (Units=1/GPa)
#
#
# Indices 1 2 3 4 5 6 
#
# 1 0.010442 -0.004524 -0.003856 0.001287 -0.008196 -0.004894
# 2 -0.004524 0.031844 0.000954 0.007475 0.003821 0.007636
# 3 -0.003856 0.000954 0.011239 0.003360 -0.002919 -0.001445
# 4 0.001287 0.007475 0.003360 0.049799 -0.029794 -0.016398
# 5 -0.008196 0.003821 -0.002919 -0.029794 0.115552 0.041564
# 6 -0.004894 0.007636 -0.001445 -0.016398 0.041564 0.064665
#
#
# Mechanical properties :
#
#
# Convention : Reuss Voigt Hill
#
# Bulk Modulus (GPa) = 25.85691 44.70116 35.27904
# Shear Modulus (GPa) = 16.06244 25.80286 20.93265
#
# Velocity S-wave (km/s) = 2.66194 3.37386 3.03882
# Velocity P-wave (km/s) = 4.56669 5.90738 5.27976
#
# Compressibility (1/GPa) = 0.03867437
#
# Stress axis : x y z
#
# Youngs Moduli (GPa) = 95.76608 31.40268 88.97236
#
# Poissons Ratio (x) = 0.14206 0.34309
# Poissons Ratio (y) = 0.43323 -0.08490
# Poissons Ratio (z) = 0.36929 -0.02996
#
# Static dielectric constant tensor:
#      x y z
#    x 4.451860 0.058530 0.240370 
#    y 0.058530 3.930430 -0.142310 
#    z 0.240370 -0.142310 3.901200 
# 
# 
# High freq. dielectric constant tensor:
#      x y z
#    x 1.918280 -0.001180 0.010230 
#    y -0.001180 1.879810 -0.012820 
#    z 0.010230 -0.012820 1.866620 
# 
# From -- ./inp_files/529730.got.cif
#   From: 2010.06.25/outbox.cif.g09.slc.cpg/sg2_265_cif.got.tgz:529730.got - 2010.06.27 13:26:56.
