data_PCOD8003811
_publ_section_title
;
Structure prediction by ZEFSAII (Michael W. Deem and Ramdas Pophale) SiO2 
 PCOD8003811
Probable space group: P -1
;
_chemical_formula_sum "Si O2"
_cell_formula_units_Z 10
_cell_length_a 10.874205
_cell_length_b 11.624410
_cell_length_c 8.040804
_cell_angle_alpha 66.022766
_cell_angle_beta 127.251364
_cell_angle_gamma 144.282792
_cell_volume 464.325146
_symmetry_space_group_name_H-M "P -1"
_symmetry_group_IT_number 2
_symmetry_cell_setting 'triclinic'
loop_
_space_group_symop_operation_xyz
x,y,z
-x,-y,-z
loop_
_atom_site_type_symbol
_atom_site_label
_atom_site_fract_x
_atom_site_fract_y
_atom_site_fract_z
Si Si1 0.771898 0.411293 0.209622
Si Si2 0.862558 0.954534 0.665588
Si Si3 0.771538 0.178554 0.546292
Si Si4 0.509271 0.420015 0.216940
Si Si5 0.636869 0.746479 0.266576
O O1 0.770991 0.260496 0.326905
O O2 0.681287 0.411923 0.314036
O O3 0.047588 0.640784 0.275470
O O4 0.603630 0.340181 0.957161
O O5 0.759076 0.804547 0.820882
O O6 0.669181 0.819297 0.434876
O O7 0.882014 0.112170 0.637254
O O8 0.128061 0.069040 0.764028
O O9 0.500000 0.000000 0.500000
O O10 0.610432 0.576849 0.352271
O O11 0.500000 0.500000 0.000000
#
# Coordination Sequence:
#
# PCOD8003811 Si02
#       5
#     2   2   2   2   2
#     4  10  22  39  60  89 122 156 205 248 299 358
#     4  11  22  39  65  90 124 160 199 250 306 357
#     4  11  22  39  63  87 119 163 205 248 296 362
#     4  10  20  37  61  89 121 154 202 249 294 356
#     4  10  23  40  60  94 123 157 199 254 305 359
#
# _framework density 21.536632000000001
#
# number of rings (size 3 to 8) (size 9 to 14) (size 15 to 20)
#    0.000    1.600    4.000    0.600    0.000    7.200 
#    0.000    1.000    0.000    0.000    0.000    0.000 
#    0.000    0.000    0.000    0.000    0.000    0.000 
#
# Total GULP energy -123961.905202 kJ/mol
# GULP energy per Si atom -12396.190520 kJ/mol
# Density = 2.148761 g / cm^3
# Si number density = 21.536632 Si / 1000 Ang^3
#
#
#
# Elastic Constant Matrix: (Units=GPa)
#
#
# Indices 1 2 3 4 5 6 
#
# 1 33.3834 21.1345 9.6151 -9.3559 2.0248 4.4633
# 2 21.1345 151.2536 38.0184 -5.6163 3.3816 8.0961
# 3 9.6151 38.0184 95.0985 8.7911 13.4580 0.2291
# 4 -9.3559 -5.6163 8.7911 39.7173 2.4778 7.7775
# 5 2.0248 3.3816 13.4580 2.4778 22.3110 7.2584
# 6 4.4633 8.0961 0.2291 7.7775 7.2584 37.2551
#
#
#
# Elastic Compliance Matrix: (Units=1/GPa)
#
#
# Indices 1 2 3 4 5 6 
#
# 1 0.036727 -0.003672 -0.003127 0.009936 -0.000164 -0.005625
# 2 -0.003672 0.008029 -0.003158 0.001236 0.001480 -0.001832
# 3 -0.003127 -0.003158 0.013637 -0.004375 -0.008107 0.003470
# 4 0.009936 0.001236 -0.004375 0.030156 0.000763 -0.007876
# 5 -0.000164 0.001480 -0.008107 0.000763 0.052904 -0.010719
# 6 -0.005625 -0.001832 0.003470 -0.007876 -0.010719 0.031625
#
#
# Mechanical properties :
#
#
# Convention : Reuss Voigt Hill
#
# Bulk Modulus (GPa) = 25.98791 46.36352 36.17571
# Shear Modulus (GPa) = 24.29315 33.92119 29.10717
#
# Velocity S-wave (km/s) = 3.36220 3.97299 3.68029
# Velocity P-wave (km/s) = 5.21206 6.52845 5.90704
#
# Compressibility (1/GPa) = 0.03847943
#
# Stress axis : x y z
#
# Youngs Moduli (GPa) = 27.22782 124.54693 73.32816
#
# Poissons Ratio (x) = 0.45735 0.22931
# Poissons Ratio (y) = 0.09998 0.23156
# Poissons Ratio (z) = 0.08514 0.39330
#
# Static dielectric constant tensor:
#      x y z
#    x 4.176950 -0.363160 0.071320 
#    y -0.363160 4.391070 0.140160 
#    z 0.071320 0.140160 3.621960 
# 
# 
# High freq. dielectric constant tensor:
#      x y z
#    x 1.822870 -0.003740 0.015670 
#    y -0.003740 1.873690 0.009480 
#    z 0.015670 0.009480 1.826330 
# 
# From -- ./inp_files/15559.got.cif
#   From: 2010.06.25/outbox.cif.g09.slc.cpg/sg2_8_cif.got.tgz:15559.got - 2010.06.27 13:26:56.
