data_PCOD8003998
_publ_section_title
;
Structure prediction by ZEFSAII (Michael W. Deem and Ramdas Pophale) SiO2 
 PCOD8003998
Probable space group: P -1
;
_chemical_formula_sum "Si O2"
_cell_formula_units_Z 16
_cell_length_a 26.683313
_cell_length_b 8.888597
_cell_length_c 21.609693
_cell_angle_alpha 131.640836
_cell_angle_beta 11.830937
_cell_angle_gamma 133.882725
_cell_volume 753.980953
_symmetry_space_group_name_H-M "P -1"
_symmetry_group_IT_number 2
_symmetry_cell_setting 'triclinic'
loop_
_space_group_symop_operation_xyz
x,y,z
-x,-y,-z
loop_
_atom_site_type_symbol
_atom_site_label
_atom_site_fract_x
_atom_site_fract_y
_atom_site_fract_z
Si Si1 0.039462 0.318206 0.228052
Si Si2 0.107250 0.029432 0.264210
Si Si3 0.308008 0.035823 0.891014
Si Si4 0.379409 0.252971 0.280673
Si Si5 0.327617 0.597666 0.777251
Si Si6 0.193707 0.658254 0.608262
Si Si7 0.582518 0.277229 0.164979
Si Si8 0.962071 0.398336 0.584551
O O1 0.837794 0.256679 0.399441
O O2 0.289581 0.488308 0.948576
O O3 0.924743 0.420392 0.452091
O O4 0.119732 0.111225 0.093478
O O5 0.119481 0.224323 0.348274
O O6 0.812094 0.931379 0.575708
O O7 0.217474 0.860827 0.120395
O O8 0.266553 0.105761 0.030113
O O9 0.604692 0.152676 0.548042
O O10 0.250535 0.784499 0.885307
O O11 0.306875 0.463921 0.411917
O O12 0.351459 0.191479 0.371976
O O13 0.666756 0.280768 0.920579
O O14 0.500000 0.500000 0.500000
O O15 0.492223 0.704043 0.667902
O O16 0.074510 0.415190 0.051291
O O17 0.000000 0.500000 0.500000
#
# Coordination Sequence:
#
# PCOD8003998 Si02
#       8
#     2   2   2   2   2   2   2   2
#     4  10  20  37  63  85 123 166 202 251 302 355
#     4  11  21  39  58  91 125 166 211 255 295 354
#     4  11  21  40  67  87 124 161 202 245 312 364
#     4  11  20  38  64  83 122 172 199 250 305 353
#     4  10  23  44  67  94 124 151 200 258 305 376
#     4  11  21  42  66  87 124 166 201 247 313 362
#     4   9  20  39  64  85 121 163 202 243 315 364
#     4  11  21  37  56  89 128 159 217 257 288 352
#
# _framework density 21.220694999999999
#
# number of rings (size 3 to 8) (size 9 to 14) (size 15 to 20)
#    0.000    1.500    7.500    0.375    0.000    4.500 
#    2.250    4.375    0.000    0.000    0.000    0.000 
#    0.000    0.000    0.000    0.000    0.000    0.000 
#
# Total GULP energy -198319.049068 kJ/mol
# GULP energy per Si atom -12394.940567 kJ/mol
# Density = 2.117240 g / cm^3
# Si number density = 21.220695 Si / 1000 Ang^3
#
#
#
# Elastic Constant Matrix: (Units=GPa)
#
#
# Indices 1 2 3 4 5 6 
#
# 1 96.1306 42.8603 41.8260 25.4058 -8.2880 -15.7387
# 2 42.8603 81.4763 37.4150 19.5846 3.8201 -17.0387
# 3 41.8260 37.4150 87.5592 16.4626 10.9064 -4.9356
# 4 25.4058 19.5846 16.4626 41.2143 3.0077 -4.0613
# 5 -8.2880 3.8201 10.9064 3.0077 35.5370 6.4669
# 6 -15.7387 -17.0387 -4.9356 -4.0613 6.4669 27.8231
#
#
#
# Elastic Compliance Matrix: (Units=1/GPa)
#
#
# Indices 1 2 3 4 5 6 
#
# 1 0.017976 -0.004641 -0.005943 -0.006589 0.006376 0.003828
# 2 -0.004641 0.019688 -0.004650 -0.003545 -0.003074 0.008803
# 3 -0.005943 -0.004650 0.016971 -0.000687 -0.005676 -0.001980
# 4 -0.006589 -0.003545 -0.000687 0.030453 -0.003379 -0.000790
# 5 0.006376 -0.003074 -0.005676 -0.003379 0.033355 -0.007528
# 6 0.003828 0.008803 -0.001980 -0.000790 -0.007528 0.044781
#
#
# Mechanical properties :
#
#
# Convention : Reuss Voigt Hill
#
# Bulk Modulus (GPa) = 41.38085 56.59653 48.98869
# Shear Modulus (GPa) = 24.78344 30.45254 27.61799
#
# Velocity S-wave (km/s) = 3.42115 3.79230 3.61150
# Velocity P-wave (km/s) = 5.92860 6.77523 6.36600
#
# Compressibility (1/GPa) = 0.02416577
#
# Stress axis : x y z
#
# Youngs Moduli (GPa) = 55.63107 50.79320 58.92302
#
# Poissons Ratio (x) = 0.23576 0.35018
# Poissons Ratio (y) = 0.25821 0.27399
# Poissons Ratio (z) = 0.33061 0.23619
#
# Static dielectric constant tensor:
#      x y z
#    x 4.146200 -0.158580 -0.240130 
#    y -0.158580 3.969740 -0.140430 
#    z -0.240130 -0.140430 3.861240 
# 
# 
# High freq. dielectric constant tensor:
#      x y z
#    x 1.820050 -0.023970 -0.011970 
#    y -0.023970 1.835990 -0.002630 
#    z -0.011970 -0.002630 1.812480 
# 
# From -- ./inp_files/212610.got.cif
#   From: 2010.06.25/outbox.cif.g09.slc.cpg/sg2_107_cif.got.tgz:212610.got - 2010.06.27 13:26:56.
