data_PCOD8003784
_publ_section_title
;
Structure prediction by ZEFSAII (Michael W. Deem and Ramdas Pophale) SiO2 
 PCOD8003784
Probable space group: P -1
;
_chemical_formula_sum "Si O2"
_cell_formula_units_Z 16
_cell_length_a 19.974792
_cell_length_b 9.503403
_cell_length_c 6.560737
_cell_angle_alpha 46.048401
_cell_angle_beta 116.280243
_cell_angle_gamma 121.252404
_cell_volume 759.552050
_symmetry_space_group_name_H-M "P -1"
_symmetry_group_IT_number 2
_symmetry_cell_setting 'triclinic'
loop_
_space_group_symop_operation_xyz
x,y,z
-x,-y,-z
loop_
_atom_site_type_symbol
_atom_site_label
_atom_site_fract_x
_atom_site_fract_y
_atom_site_fract_z
Si Si1 0.836279 0.654776 0.713877
Si Si2 0.117402 0.989307 0.276507
Si Si3 0.583938 0.143742 0.390727
Si Si4 0.942044 0.752861 0.378119
Si Si5 0.491812 0.591995 0.182505
Si Si6 0.383623 0.240610 0.126773
Si Si7 0.714490 0.501195 0.357275
Si Si8 0.159262 0.601148 0.645261
O O1 0.912080 0.726826 0.595845
O O2 0.756089 0.558214 0.574182
O O3 0.832668 0.848452 0.650547
O O4 0.846248 0.476783 0.051605
O O5 0.165454 0.840705 0.417748
O O6 0.035605 0.852869 0.407358
O O7 0.101365 0.106912 0.938455
O O8 0.630628 0.315587 0.449827
O O9 0.500000 0.000000 0.500000
O O10 0.635837 0.992421 0.575046
O O11 0.567212 0.267639 0.045858
O O12 0.918303 0.531709 0.453139
O O13 0.500000 0.500000 0.500000
O O14 0.454058 0.388080 0.205129
O O15 0.578814 0.731330 0.079635
O O16 0.302598 0.295998 0.959252
O O17 0.764953 0.426021 0.335721
#
# Coordination Sequence:
#
# PCOD8003784 Si02
#       8
#     2   2   2   2   2   2   2   2
#     4  10  22  37  56  85 117 150 193 236 284 341
#     4  10  20  37  61  87 115 151 194 235 282 340
#     4   9  19  37  59  82 107 145 190 231 284 340
#     4   9  20  38  59  85 118 151 188 239 287 333
#     4   9  18  34  57  85 111 135 177 237 287 336
#     4   9  19  36  56  77 110 148 183 226 281 343
#     4  10  22  38  56  81 119 153 187 239 289 337
#     4  10  22  37  56  86 118 152 194 234 282 342
#
# _framework density 21.065045999999999
#
# number of rings (size 3 to 8) (size 9 to 14) (size 15 to 20)
#    0.000    2.500    0.000    1.500    0.000    9.000 
#    0.000    2.500    0.000    1.500    0.000    0.000 
#    0.000    0.000    0.000    0.000    0.000    0.000 
#
# Total GULP energy -198284.267915 kJ/mol
# GULP energy per Si atom -12392.766745 kJ/mol
# Density = 2.101710 g / cm^3
# Si number density = 21.065046 Si / 1000 Ang^3
#
#
#
# Elastic Constant Matrix: (Units=GPa)
#
#
# Indices 1 2 3 4 5 6 
#
# 1 68.8957 31.1139 37.5386 4.0748 13.9150 -11.8261
# 2 31.1139 103.3416 53.7084 -7.9350 13.3312 -7.0875
# 3 37.5386 53.7084 121.9413 -6.1288 6.0872 -23.3032
# 4 4.0748 -7.9350 -6.1288 34.8721 -9.5293 9.1547
# 5 13.9150 13.3312 6.0872 -9.5293 33.0096 -6.2469
# 6 -11.8261 -7.0875 -23.3032 9.1547 -6.2469 34.4611
#
#
#
# Elastic Compliance Matrix: (Units=1/GPa)
#
#
# Indices 1 2 3 4 5 6 
#
# 1 0.021101 -0.003431 -0.004145 -0.007279 -0.008050 0.004207
# 2 -0.003431 0.013881 -0.005389 0.002632 -0.003014 -0.003212
# 3 -0.004145 -0.005389 0.013001 0.000609 0.002957 0.006635
# 4 -0.007279 0.002632 0.000609 0.035461 0.010412 -0.009078
# 5 -0.008050 -0.003014 0.002957 0.010412 0.037880 0.002718
# 6 0.004207 -0.003212 0.006635 -0.009078 0.002718 0.037192
#
#
# Mechanical properties :
#
#
# Convention : Reuss Voigt Hill
#
# Bulk Modulus (GPa) = 45.34228 59.87781 52.61004
# Shear Modulus (GPa) = 26.06940 31.92309 28.99625
#
# Velocity S-wave (km/s) = 3.52172 3.89711 3.71416
# Velocity P-wave (km/s) = 6.17319 6.98118 6.58958
#
# Compressibility (1/GPa) = 0.02205447
#
# Stress axis : x y z
#
# Youngs Moduli (GPa) = 47.39111 72.04211 76.91780
#
# Poissons Ratio (x) = 0.24717 0.31879
# Poissons Ratio (y) = 0.16259 0.41448
# Poissons Ratio (z) = 0.19642 0.38821
#
# Static dielectric constant tensor:
#      x y z
#    x 3.802950 -0.059140 0.100620 
#    y -0.059140 4.077990 -0.250680 
#    z 0.100620 -0.250680 3.964820 
# 
# 
# High freq. dielectric constant tensor:
#      x y z
#    x 1.810450 0.007510 0.011410 
#    y 0.007510 1.828850 -0.014240 
#    z 0.011410 -0.014240 1.822360 
# 
# From -- ./inp_files/106100.got.cif
#   From: 2010.06.25/outbox.cif.g09.slc.cpg/sg2_54_cif.got.tgz:106100.got - 2010.06.27 13:26:56.
