data_PCOD8003311
_publ_section_title
;
Structure prediction by ZEFSAII (Michael W. Deem and Ramdas Pophale) SiO2 
 PCOD8003311
Probable space group: P -1
;
_chemical_formula_sum "Si O2"
_cell_formula_units_Z 16
_cell_length_a 12.768697
_cell_length_b 9.186518
_cell_length_c 19.582405
_cell_angle_alpha 131.525938
_cell_angle_beta 27.660000
_cell_angle_gamma 128.191601
_cell_volume 795.110372
_symmetry_space_group_name_H-M "P -1"
_symmetry_group_IT_number 2
_symmetry_cell_setting 'triclinic'
loop_
_space_group_symop_operation_xyz
x,y,z
-x,-y,-z
loop_
_atom_site_type_symbol
_atom_site_label
_atom_site_fract_x
_atom_site_fract_y
_atom_site_fract_z
Si Si1 0.841902 0.061585 0.296579
Si Si2 0.839166 0.328808 0.573134
Si Si3 0.506050 0.294205 0.632952
Si Si4 0.227442 0.637341 0.900993
Si Si5 0.506937 0.616133 0.103487
Si Si6 0.856087 0.931437 0.746136
Si Si7 0.390349 0.723688 0.979471
Si Si8 0.148873 0.020649 0.988179
O O1 0.677190 0.232727 0.456451
O O2 0.969297 0.017299 0.278142
O O3 0.711144 0.859861 0.285340
O O4 0.011648 0.127125 0.158369
O O5 0.617092 0.293936 0.643383
O O6 0.748883 0.371627 0.714710
O O7 0.000000 0.500000 0.500000
O O8 0.995305 0.145198 0.426103
O O9 0.430176 0.506064 0.722595
O O10 0.208532 0.803905 0.907182
O O11 0.286910 0.744379 0.971026
O O12 0.000000 0.500000 0.000000
O O13 0.621348 0.836928 0.106306
O O14 0.500000 0.500000 0.000000
O O15 0.655410 0.491437 0.029692
O O16 0.731131 0.121596 0.854976
O O17 0.662220 0.769028 0.834224
O O18 0.000000 0.000000 0.000000
#
# Coordination Sequence:
#
# PCOD8003311 Si02
#       8
#     2   2   2   2   2   2   2   2
#     4  10  20  38  61  96 124 165 207 275 324 381
#     4  11  21  40  65  93 125 174 225 265 314 393
#     4  10  20  36  66  94 120 158 234 267 302 375
#     4  12  21  39  66  95 123 169 231 265 311 396
#     4  12  26  41  62  98 140 172 208 275 346 383
#     4  10  20  36  68  91 120 158 231 272 303 368
#     4  11  21  39  64  94 121 169 227 264 312 397
#     4  12  25  41  63  95 138 172 207 273 348 387
#
# _framework density 20.122992
#
# number of rings (size 3 to 8) (size 9 to 14) (size 15 to 20)
#    0.000    1.000    5.000    2.250    3.500    0.000 
#    0.000    2.500    0.000    0.000    0.000    0.000 
#    0.000    0.000    0.000    0.000    0.000    0.000 
#
# Total GULP energy -198343.733889 kJ/mol
# GULP energy per Si atom -12396.483368 kJ/mol
# Density = 2.007719 g / cm^3
# Si number density = 20.122992 Si / 1000 Ang^3
#
#
#
# Elastic Constant Matrix: (Units=GPa)
#
#
# Indices 1 2 3 4 5 6 
#
# 1 68.1947 29.5051 26.7755 4.8319 -2.6593 6.2431
# 2 29.5051 122.4972 53.7429 8.9924 -6.6293 -5.7904
# 3 26.7755 53.7429 164.6442 22.9971 10.8076 -7.2932
# 4 4.8319 8.9924 22.9971 39.9673 3.4210 -10.4541
# 5 -2.6593 -6.6293 10.8076 3.4210 33.4662 -0.2116
# 6 6.2431 -5.7904 -7.2932 -10.4541 -0.2116 37.9041
#
#
#
# Elastic Compliance Matrix: (Units=1/GPa)
#
#
# Indices 1 2 3 4 5 6 
#
# 1 0.017379 -0.003415 -0.001776 -0.001513 0.001406 -0.004135
# 2 -0.003415 0.010527 -0.002985 -0.000060 0.002794 0.001595
# 3 -0.001776 -0.002985 0.008021 -0.003360 -0.002976 0.000436
# 4 -0.001513 -0.000060 -0.003360 0.029328 -0.001996 0.007671
# 5 0.001406 0.002794 -0.002976 -0.001996 0.031707 -0.000751
# 6 -0.004135 0.001595 0.000436 0.007671 -0.000751 0.029503
#
#
# Mechanical properties :
#
#
# Convention : Reuss Voigt Hill
#
# Bulk Modulus (GPa) = 51.08603 63.93146 57.50874
# Shear Modulus (GPa) = 33.48042 38.62171 36.05106
#
# Velocity S-wave (km/s) = 4.08338 4.38571 4.23725
# Velocity P-wave (km/s) = 6.90464 7.58191 7.25118
#
# Compressibility (1/GPa) = 0.01957482
#
# Stress axis : x y z
#
# Youngs Moduli (GPa) = 57.53941 94.99633 124.67439
#
# Poissons Ratio (x) = 0.32444 0.22138
# Poissons Ratio (y) = 0.19651 0.37216
# Poissons Ratio (z) = 0.10217 0.28357
#
# Static dielectric constant tensor:
#      x y z
#    x 3.386830 0.196220 0.076780 
#    y 0.196220 3.665510 0.310650 
#    z 0.076780 0.310650 3.975180 
# 
# 
# High freq. dielectric constant tensor:
#      x y z
#    x 1.772580 0.025980 -0.011990 
#    y 0.025980 1.781750 0.021270 
#    z -0.011990 0.021270 1.798660 
# 
# From -- ./inp_files/566126.got.cif
#   From: 2010.06.25/outbox.cif.g09.slc.cpg/sg2_284_cif.got.tgz:566126.got - 2010.06.27 13:26:56.
