data_PCOD8003432
_publ_section_title
;
Structure prediction by ZEFSAII (Michael W. Deem and Ramdas Pophale) SiO2 
 PCOD8003432
Probable space group: P -1
;
_chemical_formula_sum "Si O2"
_cell_formula_units_Z 16
_cell_length_a 15.875072
_cell_length_b 13.151494
_cell_length_c 8.810704
_cell_angle_alpha 96.672164
_cell_angle_beta 87.424732
_cell_angle_gamma 26.873958
_cell_volume 779.348629
_symmetry_space_group_name_H-M "P -1"
_symmetry_group_IT_number 2
_symmetry_cell_setting 'triclinic'
loop_
_space_group_symop_operation_xyz
x,y,z
-x,-y,-z
loop_
_atom_site_type_symbol
_atom_site_label
_atom_site_fract_x
_atom_site_fract_y
_atom_site_fract_z
Si Si1 0.613055 0.003921 0.383908
Si Si2 0.984885 0.868828 0.128570
Si Si3 0.798118 0.169770 0.932353
Si Si4 0.528900 0.431660 0.734505
Si Si5 0.186183 0.444704 0.970123
Si Si6 0.964247 0.553432 0.794774
Si Si7 0.418784 0.020545 0.287202
Si Si8 0.408993 0.741744 0.608745
O O1 0.475390 0.077981 0.312700
O O2 0.568500 0.163155 0.341785
O O3 0.548235 0.075128 0.575478
O O4 0.845957 0.722130 0.314538
O O5 0.092682 0.855589 0.160106
O O6 0.117897 0.622033 0.090737
O O7 0.812024 0.050164 0.297230
O O8 0.927565 0.941193 0.966370
O O9 0.694397 0.227716 0.811248
O O10 0.670325 0.356509 0.114719
O O11 0.552566 0.517850 0.667913
O O12 0.540761 0.333394 0.585331
O O13 0.048222 0.569439 0.855913
O O14 0.418449 0.206722 0.877458
O O15 0.166968 0.364881 0.060611
O O16 0.808824 0.745131 0.704895
#
# Coordination Sequence:
#
# PCOD8003432 Si02
#       8
#     2   2   2   2   2   2   2   2
#     4  10  21  38  57  83 117 150 189 235 282 338
#     4  10  20  37  57  82 116 149 180 236 287 331
#     4   9  20  38  59  83 113 143 188 234 279 339
#     4   9  20  38  59  85 110 146 188 231 281 342
#     4  10  21  36  57  87 112 148 192 234 279 336
#     4  10  20  39  58  80 118 149 187 238 281 334
#     4  10  22  37  58  84 114 152 192 232 283 336
#     4  10  20  37  58  80 117 149 181 235 288 332
#
# _framework density 20.529965000000001
#
# number of rings (size 3 to 8) (size 9 to 14) (size 15 to 20)
#    0.000    2.250    1.250    0.750    1.750    2.500 
#    4.500    0.000    0.000    0.000    0.000    0.000 
#    0.000    0.000    0.000    0.000    0.000    0.000 
#
# Total GULP energy -198266.200104 kJ/mol
# GULP energy per Si atom -12391.637506 kJ/mol
# Density = 2.048324 g / cm^3
# Si number density = 20.529965 Si / 1000 Ang^3
#
#
#
# Elastic Constant Matrix: (Units=GPa)
#
#
# Indices 1 2 3 4 5 6 
#
# 1 51.7892 4.7489 -2.8955 -2.4529 -9.8143 4.3682
# 2 4.7489 54.9033 -1.3595 -0.1558 10.6128 -5.7267
# 3 -2.8955 -1.3595 69.0796 2.2226 -4.5406 -0.6291
# 4 -2.4529 -0.1558 2.2226 22.3705 -4.3658 5.7427
# 5 -9.8143 10.6128 -4.5406 -4.3658 23.5123 -0.9678
# 6 4.3682 -5.7267 -0.6291 5.7427 -0.9678 26.5801
#
#
#
# Elastic Compliance Matrix: (Units=1/GPa)
#
#
# Indices 1 2 3 4 5 6 
#
# 1 0.023153 -0.005103 0.001479 0.006416 0.013207 -0.005775
# 2 -0.005103 0.021685 -0.000418 -0.004354 -0.012561 0.005984
# 3 0.001479 -0.000418 0.014788 -0.000694 0.003545 0.000296
# 4 0.006416 -0.004354 -0.000694 0.051318 0.013520 -0.012604
# 5 0.013207 -0.012561 0.003545 0.013520 0.056676 -0.005650
# 6 -0.005775 0.005984 0.000296 -0.012604 -0.005650 0.042385
#
#
# Mechanical properties :
#
#
# Convention : Reuss Voigt Hill
#
# Bulk Modulus (GPa) = 19.40174 19.63998 19.52086
# Shear Modulus (GPa) = 21.25220 26.17780 23.71500
#
# Velocity S-wave (km/s) = 3.22091 3.57473 3.40242
# Velocity P-wave (km/s) = 4.82735 5.15999 4.99644
#
# Compressibility (1/GPa) = 0.05154177
#
# Stress axis : x y z
#
# Youngs Moduli (GPa) = 43.19004 46.11540 67.62295
#
# Poissons Ratio (x) = 0.23533 -0.10003
# Poissons Ratio (y) = 0.22041 0.02828
# Poissons Ratio (z) = -0.06388 0.01928
#
# Static dielectric constant tensor:
#      x y z
#    x 3.593380 -0.031900 -0.183460 
#    y -0.031900 3.642420 -0.015900 
#    z -0.183460 -0.015900 3.702060 
# 
# 
# High freq. dielectric constant tensor:
#      x y z
#    x 1.791110 0.000400 -0.015510 
#    y 0.000400 1.792230 0.003110 
#    z -0.015510 0.003110 1.802940 
# 
# From -- ./inp_files/221646.got.cif
#   From: 2010.06.25/outbox.cif.g09.slc.cpg/sg2_111_cif.got.tgz:221646.got - 2010.06.27 13:26:56.
