data_PCOD8003566
_publ_section_title
;
Structure prediction by ZEFSAII (Michael W. Deem and Ramdas Pophale) SiO2 
 PCOD8003566
Probable space group: P -1
;
_chemical_formula_sum "Si O2"
_cell_formula_units_Z 16
_cell_length_a 18.803918
_cell_length_b 8.156572
_cell_length_c 5.153102
_cell_angle_alpha 99.873777
_cell_angle_beta 69.539953
_cell_angle_gamma 70.007822
_cell_volume 656.774346
_symmetry_space_group_name_H-M "P -1"
_symmetry_group_IT_number 2
_symmetry_cell_setting 'triclinic'
loop_
_space_group_symop_operation_xyz
x,y,z
-x,-y,-z
loop_
_atom_site_type_symbol
_atom_site_label
_atom_site_fract_x
_atom_site_fract_y
_atom_site_fract_z
Si Si1 0.159798 0.577254 0.327302
Si Si2 0.634004 0.813838 0.306833
Si Si3 0.774877 0.214569 0.017633
Si Si4 0.494106 0.859745 0.166021
Si Si5 0.311859 0.474016 0.407243
Si Si6 0.226409 0.088750 0.741567
Si Si7 0.639230 0.254852 0.828285
Si Si8 0.904671 0.535109 0.130259
O O1 0.164292 0.770702 0.286793
O O2 0.259934 0.440227 0.220960
O O3 0.106994 0.588294 0.657875
O O4 0.118269 0.512584 0.135149
O O5 0.591770 0.735761 0.111682
O O6 0.636761 0.709982 0.545220
O O7 0.724221 0.813184 0.131647
O O8 0.566398 0.029255 0.487021
O O9 0.679110 0.262509 0.058251
O O10 0.764506 0.375874 0.278633
O O11 0.814493 0.009896 0.039012
O O12 0.453591 0.738630 0.040361
O O13 0.500000 0.000000 0.000000
O O14 0.372769 0.566884 0.276137
O O15 0.154437 0.244724 0.699723
O O16 0.292532 0.937795 0.428104
O O17 0.000000 0.500000 0.000000
#
# Coordination Sequence:
#
# PCOD8003566 Si02
#       8
#     2   2   2   2   2   2   2   2
#     4  11  22  44  66  96 132 169 210 263 322 386
#     4  10  20  37  59  85 124 165 219 264 324 378
#     4  10  20  38  67  91 128 167 221 262 317 384
#     4  10  21  35  53  86 125 166 212 274 320 375
#     4  10  20  39  64  91 119 174 214 266 315 387
#     4  10  21  39  64  94 122 169 217 263 320 388
#     4   9  21  36  59  89 127 166 218 266 321 378
#     4  12  26  44  70 101 133 166 212 268 323 386
#
# _framework density 24.361487
#
# number of rings (size 3 to 8) (size 9 to 14) (size 15 to 20)
#    0.000    1.750    2.500    1.125    1.750    4.500 
#    0.000    2.500    0.000    0.000    0.000    0.000 
#    0.000    0.000    0.000    0.000    0.000    0.000 
#
# Total GULP energy -198249.226296 kJ/mol
# GULP energy per Si atom -12390.576643 kJ/mol
# Density = 2.430604 g / cm^3
# Si number density = 24.361487 Si / 1000 Ang^3
#
#
#
# Elastic Constant Matrix: (Units=GPa)
#
#
# Indices 1 2 3 4 5 6 
#
# 1 186.8255 54.2615 43.7049 -11.1092 -6.1182 -0.5531
# 2 54.2615 101.7530 36.9178 -22.9075 -8.6234 6.0777
# 3 43.7049 36.9178 62.6541 -28.6883 -0.5388 3.2575
# 4 -11.1092 -22.9075 -28.6883 40.7165 2.6752 -2.9779
# 5 -6.1182 -8.6234 -0.5388 2.6752 45.8477 -2.4635
# 6 -0.5531 6.0777 3.2575 -2.9779 -2.4635 31.4009
#
#
#
# Elastic Compliance Matrix: (Units=1/GPa)
#
#
# Indices 1 2 3 4 5 6 
#
# 1 0.007097 -0.002732 -0.004706 -0.002889 0.000596 0.000915
# 2 -0.002732 0.014041 -0.004576 0.003673 0.001912 -0.001793
# 3 -0.004706 -0.004576 0.029873 0.017273 -0.002190 -0.000830
# 4 -0.002889 0.003673 0.017273 0.038187 -0.001670 0.000937
# 5 0.000596 0.001912 -0.002190 -0.001670 0.022401 0.001467
# 6 0.000915 -0.001793 -0.000830 0.000937 0.001467 0.032499
#
#
# Mechanical properties :
#
#
# Convention : Reuss Voigt Hill
#
# Bulk Modulus (GPa) = 37.06061 69.00013 53.03037
# Shear Modulus (GPa) = 28.22918 38.01625 33.12272
#
# Velocity S-wave (km/s) = 3.40775 3.95461 3.69132
# Velocity P-wave (km/s) = 5.54342 7.01690 6.32323
#
# Compressibility (1/GPa) = 0.02698283
#
# Stress axis : x y z
#
# Youngs Moduli (GPa) = 140.89618 71.22075 33.47470
#
# Poissons Ratio (x) = 0.19456 0.15754
# Poissons Ratio (y) = 0.38489 0.15319
# Poissons Ratio (z) = 0.66311 0.32592
#
# Static dielectric constant tensor:
#      x y z
#    x 4.754890 0.254030 0.233090 
#    y 0.254030 4.520040 -0.054940 
#    z 0.233090 -0.054940 4.372630 
# 
# 
# High freq. dielectric constant tensor:
#      x y z
#    x 1.973570 0.021540 0.019760 
#    y 0.021540 1.957910 -0.021160 
#    z 0.019760 -0.021160 1.955310 
# 
# From -- ./inp_files/44652.got.cif
#   From: 2010.06.25/outbox.cif.g09.slc.cpg/sg2_23_cif.got.tgz:44652.got - 2010.06.27 13:26:56.
