data_PCOD8003637
_publ_section_title
;
Structure prediction by ZEFSAII (Michael W. Deem and Ramdas Pophale) SiO2 
 PCOD8003637
Probable space group: P -1
;
_chemical_formula_sum "Si O2"
_cell_formula_units_Z 14
_cell_length_a 9.107011
_cell_length_b 8.663760
_cell_length_c 13.079955
_cell_angle_alpha 72.283690
_cell_angle_beta 89.836443
_cell_angle_gamma 45.102194
_cell_volume 661.138679
_symmetry_space_group_name_H-M "P -1"
_symmetry_group_IT_number 2
_symmetry_cell_setting 'triclinic'
loop_
_space_group_symop_operation_xyz
x,y,z
-x,-y,-z
loop_
_atom_site_type_symbol
_atom_site_label
_atom_site_fract_x
_atom_site_fract_y
_atom_site_fract_z
Si Si1 0.430299 0.750510 0.345622
Si Si2 0.401647 0.902765 0.806451
Si Si3 0.782609 0.075585 0.997555
Si Si4 0.539130 0.459440 0.230977
Si Si5 0.260750 0.133526 0.124526
Si Si6 0.835599 0.599612 0.390271
Si Si7 0.003829 0.748852 0.718482
O O1 0.452493 0.556181 0.329785
O O2 0.647340 0.631106 0.429686
O O3 0.437860 0.861320 0.223108
O O4 0.205376 0.961446 0.365834
O O5 0.262023 0.152663 0.699659
O O6 0.255183 0.923348 0.882970
O O7 0.483401 0.712444 0.757355
O O8 0.614977 0.795842 0.889224
O O9 0.589170 0.336937 0.896170
O O10 0.806617 0.876980 0.984992
O O11 0.000000 0.000000 0.000000
O O12 0.791466 0.303734 0.255424
O O13 0.049110 0.306836 0.165181
O O14 0.000000 0.500000 0.500000
O O15 0.969122 0.402263 0.340371
#
# Coordination Sequence:
#
# PCOD8003637 Si02
#       7
#     2   2   2   2   2   2   2
#     4   7  17  37  59  81 117 159 199 234 304 352
#     4  11  22  37  58  96 119 159 207 247 293 359
#     4  11  22  38  60  88 128 164 195 239 305 366
#     4  10  20  37  60  83 125 155 197 243 298 363
#     4   8  18  36  56  83 120 152 202 239 289 357
#     4  10  21  39  63  90 121 156 203 258 297 346
#     4   9  18  40  63  83 118 169 191 248 302 357
#
# _framework density 21.175588000000001
#
# number of rings (size 3 to 8) (size 9 to 14) (size 15 to 20)
#    0.857    1.714    0.000    2.571    0.000    1.714 
#    0.000    5.000    0.000    1.714    0.000    0.000 
#    0.000    0.000    0.000    0.000    0.000    0.000 
#
# Total GULP energy -173437.959043 kJ/mol
# GULP energy per Si atom -12388.425646 kJ/mol
# Density = 2.112739 g / cm^3
# Si number density = 21.175588 Si / 1000 Ang^3
#
#
#
# Elastic Constant Matrix: (Units=GPa)
#
#
# Indices 1 2 3 4 5 6 
#
# 1 118.7030 67.6790 26.0072 -1.4621 25.1302 13.4131
# 2 67.6790 162.2515 34.9330 6.0398 18.6334 14.2387
# 3 26.0072 34.9330 49.2382 -7.9905 22.3785 10.2335
# 4 -1.4621 6.0398 -7.9905 16.4049 0.9436 7.2892
# 5 25.1302 18.6334 22.3785 0.9436 30.9537 5.4623
# 6 13.4131 14.2387 10.2335 7.2892 5.4623 42.2794
#
#
#
# Elastic Compliance Matrix: (Units=1/GPa)
#
#
# Indices 1 2 3 4 5 6 
#
# 1 0.012967 -0.004809 0.002087 0.005714 -0.008813 -0.002846
# 2 -0.004809 0.009574 -0.007443 -0.008258 0.003586 0.001063
# 3 0.002087 -0.007443 0.044775 0.031118 -0.028653 -0.010656
# 4 0.005714 -0.008258 0.031118 0.089434 -0.021503 -0.019205
# 5 -0.008813 0.003586 -0.028653 -0.021503 0.057834 0.004759
# 6 -0.002846 0.001063 -0.010656 -0.019205 0.004759 0.029472
#
#
# Mechanical properties :
#
#
# Convention : Reuss Voigt Hill
#
# Bulk Modulus (GPa) = 21.28307 65.27012 43.27659
# Shear Modulus (GPa) = 17.85409 31.36585 24.60997
#
# Velocity S-wave (km/s) = 2.90685 3.85285 3.41278
# Velocity P-wave (km/s) = 4.61941 7.11918 6.00090
#
# Compressibility (1/GPa) = 0.04698571
#
# Stress axis : x y z
#
# Youngs Moduli (GPa) = 77.12043 104.44943 22.33386
#
# Poissons Ratio (x) = 0.50229 -0.04662
# Poissons Ratio (y) = 0.37087 0.16624
# Poissons Ratio (z) = -0.16098 0.77747
#
# Static dielectric constant tensor:
#      x y z
#    x 3.866020 0.136900 0.344530 
#    y 0.136900 3.975110 0.103560 
#    z 0.344530 0.103560 3.445870 
# 
# 
# High freq. dielectric constant tensor:
#      x y z
#    x 1.833080 0.004230 0.025660 
#    y 0.004230 1.841950 0.007220 
#    z 0.025660 0.007220 1.788890 
# 
# From -- ./inp_files/490780.got.cif
#   From: 2010.06.25/outbox.cif.g09.slc.cpg/sg2_246_cif.got.tgz:490780.got - 2010.06.27 13:26:56.
