data_PCOD8003395
_publ_section_title
;
Structure prediction by ZEFSAII (Michael W. Deem and Ramdas Pophale) SiO2 
 PCOD8003395
Probable space group: P -1
;
_chemical_formula_sum "Si O2"
_cell_formula_units_Z 16
_cell_length_a 16.347226
_cell_length_b 7.905591
_cell_length_c 6.533554
_cell_angle_alpha 61.707647
_cell_angle_beta 88.202215
_cell_angle_gamma 91.263271
_cell_volume 742.473722
_symmetry_space_group_name_H-M "P -1"
_symmetry_group_IT_number 2
_symmetry_cell_setting 'triclinic'
loop_
_space_group_symop_operation_xyz
x,y,z
-x,-y,-z
loop_
_atom_site_type_symbol
_atom_site_label
_atom_site_fract_x
_atom_site_fract_y
_atom_site_fract_z
Si Si1 0.408001 0.937873 0.284503
Si Si2 0.907393 0.945457 0.485403
Si Si3 0.223624 0.565747 0.717702
Si Si4 0.230463 0.947224 0.259772
Si Si5 0.472776 0.739198 0.017294
Si Si6 0.906636 0.534950 0.526627
Si Si7 0.834820 0.223479 0.016344
Si Si8 0.598270 0.449588 0.242104
O O1 0.320230 0.041607 0.250881
O O2 0.414875 0.856525 0.100739
O O3 0.418615 0.757959 0.535064
O O4 0.476454 0.107408 0.219555
O O5 0.895377 0.729740 0.535676
O O6 0.845131 0.954547 0.677872
O O7 0.892206 0.099523 0.223343
O O8 0.000000 0.000000 0.500000
O O9 0.237739 0.733643 0.460586
O O10 0.145084 0.447376 0.693920
O O11 0.213228 0.637932 0.909140
O O12 0.309723 0.458335 0.775765
O O13 0.219232 0.932785 0.022462
O O14 0.535173 0.611278 0.219834
O O15 0.415167 0.593356 0.973381
O O16 0.000000 0.500000 0.500000
O O17 0.882957 0.354132 0.773610
#
# Coordination Sequence:
#
# PCOD8003395 Si02
#       8
#     2   2   2   2   2   2   2   2
#     4  10  20  37  56  82 116 148 190 239 282 337
#     4  11  24  40  60  88 116 150 195 236 289 351
#     4   9  20  38  60  86 115 152 194 237 288 344
#     4   9  20  38  60  86 115 152 194 237 288 344
#     4  10  21  34  57  84 110 154 194 228 291 346
#     4  11  24  40  60  88 116 150 195 236 289 351
#     4  10  21  40  61  82 118 154 184 240 289 332
#     4  10  20  37  56  82 116 148 190 239 282 337
#
# _framework density 21.549585
#
# number of rings (size 3 to 8) (size 9 to 14) (size 15 to 20)
#    0.000    2.000    0.000    3.750    0.000    7.000 
#    0.000    6.250    0.000    0.000    0.000    0.000 
#    0.000    0.000    0.000    0.000    0.000    0.000 
#
# Total GULP energy -198216.385924 kJ/mol
# GULP energy per Si atom -12388.524120 kJ/mol
# Density = 2.150054 g / cm^3
# Si number density = 21.549585 Si / 1000 Ang^3
#
#
#
# Elastic Constant Matrix: (Units=GPa)
#
#
# Indices 1 2 3 4 5 6 
#
# 1 148.7920 33.8795 35.3431 13.0040 9.6303 -8.7131
# 2 33.8795 80.4618 16.1481 9.8412 13.1169 -7.6684
# 3 35.3431 16.1481 81.8357 10.8495 4.8155 -3.9949
# 4 13.0040 9.8412 10.8495 38.0782 0.5030 3.6790
# 5 9.6303 13.1169 4.8155 0.5030 13.5505 7.1368
# 6 -8.7131 -7.6684 -3.9949 3.6790 7.1368 25.2893
#
#
#
# Elastic Compliance Matrix: (Units=1/GPa)
#
#
# Indices 1 2 3 4 5 6 
#
# 1 0.008446 -0.001491 -0.002552 -0.002079 -0.005658 0.003954
# 2 -0.001491 0.018744 -0.000399 -0.005114 -0.023297 0.012425
# 3 -0.002552 -0.000399 0.014235 -0.003308 -0.004283 0.002938
# 4 -0.002079 -0.005114 -0.003308 0.030098 0.012054 -0.010570
# 5 -0.005658 -0.023297 -0.004283 0.012054 0.126235 -0.047068
# 6 0.003954 0.012425 0.002938 -0.010570 -0.047068 0.059957
#
#
# Mechanical properties :
#
#
# Convention : Reuss Voigt Hill
#
# Bulk Modulus (GPa) = 30.73094 53.53677 42.13386
# Shear Modulus (GPa) = 18.02159 30.43151 24.22655
#
# Velocity S-wave (km/s) = 2.89500 3.76195 3.35658
# Velocity P-wave (km/s) = 5.04640 6.61568 5.88359
#
# Compressibility (1/GPa) = 0.03254049
#
# Stress axis : x y z
#
# Youngs Moduli (GPa) = 118.40214 53.35149 70.25138
#
# Poissons Ratio (x) = 0.07952 0.17927
# Poissons Ratio (y) = 0.17649 0.02806
# Poissons Ratio (z) = 0.30214 0.02131
#
# Static dielectric constant tensor:
#      x y z
#    x 4.128630 0.024650 0.089450 
#    y 0.024650 3.986350 0.194970 
#    z 0.089450 0.194970 4.061170 
# 
# 
# High freq. dielectric constant tensor:
#      x y z
#    x 1.855980 -0.002020 0.009570 
#    y -0.002020 1.838460 0.002870 
#    z 0.009570 0.002870 1.842310 
# 
# From -- ./inp_files/89870.got.cif
#   From: 2010.06.25/outbox.cif.g09.slc.cpg/sg2_45_cif.got.tgz:89870.got - 2010.06.27 13:26:56.
