data_PCOD8003641
_publ_section_title
;
Structure prediction by ZEFSAII (Michael W. Deem and Ramdas Pophale) SiO2 
 PCOD8003641
Probable space group: P -1
;
_chemical_formula_sum "Si O2"
_cell_formula_units_Z 16
_cell_length_a 10.877801
_cell_length_b 8.351507
_cell_length_c 16.201326
_cell_angle_alpha 40.891377
_cell_angle_beta 79.122411
_cell_angle_gamma 61.987225
_cell_volume 814.624723
_symmetry_space_group_name_H-M "P -1"
_symmetry_group_IT_number 2
_symmetry_cell_setting 'triclinic'
loop_
_space_group_symop_operation_xyz
x,y,z
-x,-y,-z
loop_
_atom_site_type_symbol
_atom_site_label
_atom_site_fract_x
_atom_site_fract_y
_atom_site_fract_z
Si Si1 0.429392 0.309871 0.489926
Si Si2 0.396373 0.405921 0.636367
Si Si3 0.222496 0.759759 0.086122
Si Si4 0.353381 0.162749 0.903096
Si Si5 0.882612 0.976137 0.575782
Si Si6 0.927542 0.362427 0.167169
Si Si7 0.298150 0.259720 0.373903
Si Si8 0.033836 0.797507 0.953523
O O1 0.406525 0.242951 0.613019
O O2 0.456594 0.577440 0.379094
O O3 0.292942 0.365691 0.427906
O O4 0.570512 0.055367 0.530049
O O5 0.385802 0.227700 0.782084
O O6 0.259127 0.718005 0.520682
O O7 0.329791 0.456890 0.232006
O O8 0.178689 0.695611 0.027882
O O9 0.087683 0.898100 0.113988
O O10 0.293369 0.949849 0.987531
O O11 0.235249 0.464585 0.840979
O O12 0.500000 0.000000 0.000000
O O13 0.848537 0.744707 0.628773
O O14 0.951412 0.871056 0.697792
O O15 0.000000 0.000000 0.500000
O O16 0.926914 0.194378 0.150542
O O17 0.973918 0.587041 0.051907
#
# Coordination Sequence:
#
# PCOD8003641 Si02
#       8
#     2   2   2   2   2   2   2   2
#     4   9  21  39  61  84 111 152 193 238 272 346
#     4  10  21  40  60  86 114 150 198 232 286 336
#     4  10  20  37  60  84 116 148 186 240 280 337
#     4  11  23  39  58  84 119 152 187 237 288 341
#     4  11  21  37  62  84 119 150 186 243 283 340
#     4  10  20  39  58  86 114 150 197 230 287 336
#     4  10  20  38  60  84 114 149 194 230 288 335
#     4   9  20  36  60  85 112 148 191 237 276 339
#
# _framework density 19.640946
#
# number of rings (size 3 to 8) (size 9 to 14) (size 15 to 20)
#    0.000    2.000    2.500    0.750    1.750    1.000 
#    9.000    1.875    0.000    0.000    0.000    0.000 
#    0.000    0.000    0.000    0.000    0.000    0.000 
#
# Total GULP energy -198323.362630 kJ/mol
# GULP energy per Si atom -12395.210164 kJ/mol
# Density = 1.959624 g / cm^3
# Si number density = 19.640946 Si / 1000 Ang^3
#
#
#
# Elastic Constant Matrix: (Units=GPa)
#
#
# Indices 1 2 3 4 5 6 
#
# 1 82.8208 53.2429 40.4646 25.4029 14.8545 11.5947
# 2 53.2429 84.3674 35.5758 38.4643 6.6106 24.5402
# 3 40.4646 35.5758 107.2320 30.6769 9.7271 14.2888
# 4 25.4029 38.4643 30.6769 39.5408 2.8853 7.4948
# 5 14.8545 6.6106 9.7271 2.8853 35.3239 8.9765
# 6 11.5947 24.5402 14.2888 7.4948 8.9765 28.4954
#
#
#
# Elastic Compliance Matrix: (Units=1/GPa)
#
#
# Indices 1 2 3 4 5 6 
#
# 1 0.024600 -0.016877 -0.005106 0.003518 -0.008297 0.008774
# 2 -0.016877 0.039448 0.003305 -0.026036 0.007066 -0.024141
# 3 -0.005106 0.003305 0.013553 -0.009486 -0.000152 -0.005022
# 4 0.003518 -0.026036 -0.009486 0.053525 -0.001448 0.012126
# 5 -0.008297 0.007066 -0.000152 -0.001448 0.033924 -0.012938
# 6 0.008774 -0.024141 -0.005022 0.012126 -0.012938 0.055718
#
#
# Mechanical properties :
#
#
# Convention : Reuss Voigt Hill
#
# Bulk Modulus (GPa) = 24.84801 59.22075 42.03438
# Shear Modulus (GPa) = 18.41355 30.34782 24.38069
#
# Velocity S-wave (km/s) = 3.06520 3.93508 3.52706
# Velocity P-wave (km/s) = 5.02054 7.13187 6.16723
#
# Compressibility (1/GPa) = 0.04024468
#
# Stress axis : x y z
#
# Youngs Moduli (GPa) = 40.65079 25.34955 73.78578
#
# Poissons Ratio (x) = 0.42782 0.37679
# Poissons Ratio (y) = 0.68606 -0.24388
# Poissons Ratio (z) = 0.20758 -0.08379
#
# Static dielectric constant tensor:
#      x y z
#    x 3.788540 0.167850 0.018780 
#    y 0.167850 3.885880 0.215010 
#    z 0.018780 0.215010 3.590970 
# 
# 
# High freq. dielectric constant tensor:
#      x y z
#    x 1.759630 0.014570 0.011190 
#    y 0.014570 1.759440 0.007500 
#    z 0.011190 0.007500 1.768460 
# 
# From -- ./inp_files/274667.got.cif
#   From: 2010.06.25/outbox.cif.g09.slc.cpg/sg2_138_cif.got.tgz:274667.got - 2010.06.27 13:26:56.
