data_PCOD8003710
_publ_section_title
;
Structure prediction by ZEFSAII (Michael W. Deem and Ramdas Pophale) SiO2 
 PCOD8003710
Probable space group: P -1
;
_chemical_formula_sum "Si O2"
_cell_formula_units_Z 12
_cell_length_a 7.943587
_cell_length_b 12.019557
_cell_length_c 7.770297
_cell_angle_alpha 102.134892
_cell_angle_beta 48.208611
_cell_angle_gamma 121.899515
_cell_volume 457.642615
_symmetry_space_group_name_H-M "P -1"
_symmetry_group_IT_number 2
_symmetry_cell_setting 'triclinic'
loop_
_space_group_symop_operation_xyz
x,y,z
-x,-y,-z
loop_
_atom_site_type_symbol
_atom_site_label
_atom_site_fract_x
_atom_site_fract_y
_atom_site_fract_z
Si Si1 0.721208 0.365179 0.772729
Si Si2 0.218921 0.680599 0.649515
Si Si3 0.818774 0.902636 0.325183
Si Si4 0.127539 0.305260 0.613104
Si Si5 0.296681 0.521768 0.838000
Si Si6 0.103128 0.182952 0.109900
O O1 0.787831 0.410322 0.540134
O O2 0.865431 0.286087 0.699131
O O3 0.803915 0.487190 0.894669
O O4 0.411008 0.261060 0.978441
O O5 0.498721 0.821963 0.505245
O O6 0.189980 0.600155 0.821345
O O7 0.992080 0.713279 0.790386
O O8 0.908731 0.840471 0.395290
O O9 0.950838 0.884765 0.060212
O O10 0.938228 0.061362 0.321387
O O11 0.190554 0.374316 0.783657
O O12 0.383955 0.398314 0.348369
#
# Coordination Sequence:
#
# PCOD8003710 Si02
#       6
#     2   2   2   2   2   2
#     4  11  22  37  61  92 118 152 196 241 296 348
#     4  10  21  39  61  88 119 154 195 240 293 348
#     4   9  20  38  62  86 117 160 195 238 294 345
#     4  10  21  40  60  85 119 156 197 240 292 347
#     4  10  22  41  62  85 119 156 195 244 290 345
#     4  10  20  37  60  90 121 151 196 244 291 350
#
# _framework density 26.221333000000001
#
# number of rings (size 3 to 8) (size 9 to 14) (size 15 to 20)
#    0.000    2.000    0.000    3.000    0.000    1.333 
#    0.000   26.667    0.000    0.000    0.000    0.000 
#    0.000    0.000    0.000    0.000    0.000    0.000 
#
# Total GULP energy -148797.430048 kJ/mol
# GULP energy per Si atom -12399.785837 kJ/mol
# Density = 2.616165 g / cm^3
# Si number density = 26.221333 Si / 1000 Ang^3
#
#
#
# Elastic Constant Matrix: (Units=GPa)
#
#
# Indices 1 2 3 4 5 6 
#
# 1 149.2206 44.9332 60.4061 0.3952 -33.5043 -14.1445
# 2 44.9332 111.9441 50.8858 -13.6582 -4.7114 -30.7290
# 3 60.4061 50.8858 165.8709 -12.4270 11.0023 6.7794
# 4 0.3952 -13.6582 -12.4270 26.3000 0.4201 3.9441
# 5 -33.5043 -4.7114 11.0023 0.4201 54.7957 12.3257
# 6 -14.1445 -30.7290 6.7794 3.9441 12.3257 30.8361
#
#
#
# Elastic Compliance Matrix: (Units=1/GPa)
#
#
# Indices 1 2 3 4 5 6 
#
# 1 0.010651 -0.002308 -0.003936 -0.003501 0.006872 0.001152
# 2 -0.002308 0.017265 -0.004672 0.004164 -0.003036 0.017854
# 3 -0.003936 -0.004672 0.009672 0.003424 -0.003018 -0.007820
# 4 -0.003501 0.004164 0.003424 0.042303 -0.002176 -0.002750
# 5 0.006872 -0.003036 -0.003018 -0.002176 0.024803 -0.008846
# 6 0.001152 0.017854 -0.007820 -0.002750 -0.008846 0.056357
#
#
# Mechanical properties :
#
#
# Convention : Reuss Voigt Hill
#
# Bulk Modulus (GPa) = 63.47106 82.16508 72.81807
# Shear Modulus (GPa) = 26.57668 40.44042 33.50855
#
# Velocity S-wave (km/s) = 3.18709 3.93144 3.57867
# Velocity P-wave (km/s) = 6.14832 7.21190 6.70124
#
# Compressibility (1/GPa) = 0.01575521
#
# Stress axis : x y z
#
# Youngs Moduli (GPa) = 93.88527 57.92227 103.39189
#
# Poissons Ratio (x) = 0.13366 0.40697
# Poissons Ratio (y) = 0.21665 0.48309
# Poissons Ratio (z) = 0.36955 0.27064
#
# Static dielectric constant tensor:
#      x y z
#    x 4.704740 -0.002650 -0.091860 
#    y -0.002650 4.753680 -0.124750 
#    z -0.091860 -0.124750 5.285190 
# 
# 
# High freq. dielectric constant tensor:
#      x y z
#    x 2.060620 0.001010 -0.014500 
#    y 0.001010 2.043170 -0.014830 
#    z -0.014500 -0.014830 2.074530 
# 
# From -- ./inp_files/171985.got.cif
#   From: 2010.06.25/outbox.cif.g09.slc.cpg/sg2_86_cif.got.tgz:171985.got - 2010.06.27 13:26:56.
