data_PCOD8003507
_publ_section_title
;
Structure prediction by ZEFSAII (Michael W. Deem and Ramdas Pophale) SiO2 
 PCOD8003507
Probable space group: P -1
;
_chemical_formula_sum "Si O2"
_cell_formula_units_Z 16
_cell_length_a 15.169856
_cell_length_b 7.784248
_cell_length_c 12.892092
_cell_angle_alpha 81.394135
_cell_angle_beta 141.637852
_cell_angle_gamma 115.714432
_cell_volume 800.296357
_symmetry_space_group_name_H-M "P -1"
_symmetry_group_IT_number 2
_symmetry_cell_setting 'triclinic'
loop_
_space_group_symop_operation_xyz
x,y,z
-x,-y,-z
loop_
_atom_site_type_symbol
_atom_site_label
_atom_site_fract_x
_atom_site_fract_y
_atom_site_fract_z
Si Si1 0.344503 0.521687 0.868753
Si Si2 0.755633 0.833426 0.558234
Si Si3 0.977774 0.755607 0.293902
Si Si4 0.694158 0.232473 0.358350
Si Si5 0.518439 0.211095 0.831832
Si Si6 0.847516 0.464585 0.005309
Si Si7 0.858976 0.549357 0.780744
Si Si8 0.347492 0.889672 0.445519
O O1 0.175282 0.314558 0.761782
O O2 0.310814 0.589133 0.721083
O O3 0.500000 0.500000 0.000000
O O4 0.392745 0.681834 0.990084
O O5 0.618883 0.743810 0.347909
O O6 0.761474 0.644405 0.627233
O O7 0.711443 0.952693 0.593011
O O8 0.936803 0.002035 0.666038
O O9 0.115591 0.711922 0.471343
O O10 0.912020 0.634984 0.137317
O O11 0.619860 0.196631 0.409717
O O12 0.574207 0.025601 0.205200
O O13 0.661098 0.281301 0.870457
O O14 0.855123 0.583525 0.896470
O O15 0.955874 0.355615 0.103420
O O16 0.786559 0.309466 0.720243
O O17 0.500000 0.000000 0.500000
#
# Coordination Sequence:
#
# PCOD8003507 Si02
#       8
#     2   2   2   2   2   2   2   2
#     4  11  23  36  60  90 118 149 201 257 296 348
#     4  10  22  40  62  89 117 164 200 245 291 369
#     4   9  20  43  57  81 121 159 198 243 303 353
#     4  10  20  40  61  82 113 166 197 234 305 360
#     4   9  21  39  59  82 123 150 201 246 307 346
#     4  10  20  37  58  88 120 160 193 255 294 358
#     4  11  21  36  63  87 122 159 208 234 304 351
#     4  10  21  39  60  90 124 155 202 242 292 359
#
# _framework density 19.992594
#
# number of rings (size 3 to 8) (size 9 to 14) (size 15 to 20)
#    0.000    2.250    2.500    2.250    1.750    3.500 
#    2.250    2.500    0.000    0.000    0.000    0.000 
#    0.000    0.000    0.000    0.000    0.000    0.000 
#
# Total GULP energy -198257.084150 kJ/mol
# GULP energy per Si atom -12391.067759 kJ/mol
# Density = 1.994709 g / cm^3
# Si number density = 19.992594 Si / 1000 Ang^3
#
#
#
# Elastic Constant Matrix: (Units=GPa)
#
#
# Indices 1 2 3 4 5 6 
#
# 1 101.6835 34.1980 26.1823 -2.2825 14.5259 34.3490
# 2 34.1980 62.3199 28.0637 -7.5810 11.8213 12.8961
# 3 26.1823 28.0637 79.2016 2.6320 9.9176 15.9806
# 4 -2.2825 -7.5810 2.6320 36.2641 3.5455 4.2407
# 5 14.5259 11.8213 9.9176 3.5455 28.7580 7.8685
# 6 34.3490 12.8961 15.9806 4.2407 7.8685 29.8672
#
#
#
# Elastic Compliance Matrix: (Units=1/GPa)
#
#
# Indices 1 2 3 4 5 6 
#
# 1 0.018270 -0.005427 -0.000227 0.002388 -0.002205 -0.018305
# 2 -0.005427 0.023449 -0.006008 0.005535 -0.005507 -0.000004
# 3 -0.000227 -0.006008 0.016096 -0.001703 -0.001345 -0.005162
# 4 0.002388 0.005535 -0.001703 0.030314 -0.004632 -0.007309
# 5 -0.002205 -0.005507 -0.001345 -0.004632 0.040374 -0.004345
# 6 -0.018305 -0.000004 -0.005162 -0.007309 -0.004345 0.059480
#
#
# Mechanical properties :
#
#
# Convention : Reuss Voigt Hill
#
# Bulk Modulus (GPa) = 28.99235 46.67700 37.83467
# Shear Modulus (GPa) = 22.44127 29.29524 25.86826
#
# Velocity S-wave (km/s) = 3.35398 3.83208 3.60097
# Velocity P-wave (km/s) = 5.43433 6.55573 6.02119
#
# Compressibility (1/GPa) = 0.03449186
#
# Stress axis : x y z
#
# Youngs Moduli (GPa) = 54.73385 42.64649 62.12650
#
# Poissons Ratio (x) = 0.23144 0.01407
# Poissons Ratio (y) = 0.29704 0.37327
# Poissons Ratio (z) = 0.01240 0.25623
#
# Static dielectric constant tensor:
#      x y z
#    x 4.167970 0.275780 -0.080070 
#    y 0.275780 3.454030 0.204390 
#    z -0.080070 0.204390 3.887110 
# 
# 
# High freq. dielectric constant tensor:
#      x y z
#    x 1.776960 0.019200 -0.001740 
#    y 0.019200 1.761210 0.013710 
#    z -0.001740 0.013710 1.793440 
# 
# From -- ./inp_files/328429.got.cif
#   From: 2010.06.25/outbox.cif.g09.slc.cpg/sg2_165_cif.got.tgz:328429.got - 2010.06.27 13:26:56.
