data_PCOD8003677
_publ_section_title
;
Structure prediction by ZEFSAII (Michael W. Deem and Ramdas Pophale) SiO2 
 PCOD8003677
Probable space group: P -1
;
_chemical_formula_sum "Si O2"
_cell_formula_units_Z 16
_cell_length_a 17.552961
_cell_length_b 6.403424
_cell_length_c 12.091068
_cell_angle_alpha 49.666410
_cell_angle_beta 129.114901
_cell_angle_gamma 123.552491
_cell_volume 779.475379
_symmetry_space_group_name_H-M "P -1"
_symmetry_group_IT_number 2
_symmetry_cell_setting 'triclinic'
loop_
_space_group_symop_operation_xyz
x,y,z
-x,-y,-z
loop_
_atom_site_type_symbol
_atom_site_label
_atom_site_fract_x
_atom_site_fract_y
_atom_site_fract_z
Si Si1 0.479870 0.665445 0.584203
Si Si2 0.622737 0.857264 0.214268
Si Si3 0.370921 0.635103 0.278886
Si Si4 0.965060 0.276897 0.885981
Si Si5 0.842150 0.000507 0.293008
Si Si6 0.155525 0.701003 0.023123
Si Si7 0.485791 0.163191 0.094358
Si Si8 0.015134 0.415597 0.417692
O O1 0.430267 0.480197 0.708022
O O2 0.393896 0.552762 0.451892
O O3 0.583254 0.568674 0.688792
O O4 0.500000 0.000000 0.500000
O O5 0.742373 0.897192 0.310481
O O6 0.590554 0.062167 0.207626
O O7 0.588243 0.960510 0.031762
O O8 0.251460 0.564093 0.168594
O O9 0.426091 0.974151 0.204992
O O10 0.869376 0.217888 0.902673
O O11 0.934009 0.349766 0.707954
O O12 0.056945 0.502259 0.947301
O O13 0.000000 0.000000 0.000000
O O14 0.910089 0.783457 0.438922
O O15 0.904082 0.284747 0.311235
O O16 0.816127 0.036673 0.127029
O O17 0.500000 0.500000 0.000000
O O18 0.000000 0.500000 0.500000
#
# Coordination Sequence:
#
# PCOD8003677 Si02
#       8
#     2   2   2   2   2   2   2   2
#     4  10  22  39  58  84 124 158 199 247 298 354
#     4  10  21  37  59  87 120 153 199 247 299 354
#     4  10  21  39  59  86 118 159 198 247 297 353
#     4  10  22  40  62  90 120 156 199 245 298 361
#     4  10  21  40  61  87 122 157 195 250 302 351
#     4  10  21  40  62  85 121 158 197 249 298 355
#     4  10  20  37  60  88 117 153 197 247 297 355
#     4  10  22  40  62  89 121 155 197 247 300 360
#
# _framework density 20.526624999999999
#
# number of rings (size 3 to 8) (size 9 to 14) (size 15 to 20)
#    0.000    2.000    1.250    1.500    1.750    3.000 
#    4.500    0.000    0.000    0.000    0.000    0.000 
#    0.000    0.000    0.000    0.000    0.000    0.000 
#
# Total GULP energy -198217.980586 kJ/mol
# GULP energy per Si atom -12388.623787 kJ/mol
# Density = 2.047991 g / cm^3
# Si number density = 20.526625 Si / 1000 Ang^3
#
#
#
# Elastic Constant Matrix: (Units=GPa)
#
#
# Indices 1 2 3 4 5 6 
#
# 1 137.1823 32.7243 52.2006 1.6163 0.6284 -2.3708
# 2 32.7243 52.7811 16.6346 -24.1540 0.1157 -11.3087
# 3 52.2006 16.6346 105.1430 -0.0404 -7.6236 -4.8460
# 4 1.6163 -24.1540 -0.0404 38.5453 -0.7544 0.2571
# 5 0.6284 0.1157 -7.6236 -0.7544 40.8303 7.1094
# 6 -2.3708 -11.3087 -4.8460 0.2571 7.1094 22.0969
#
#
#
# Elastic Compliance Matrix: (Units=1/GPa)
#
#
# Indices 1 2 3 4 5 6 
#
# 1 0.011166 -0.009422 -0.004279 -0.006354 -0.000297 -0.004393
# 2 -0.009422 0.041664 -0.001186 0.026298 -0.003334 0.020819
# 3 -0.004279 -0.001186 0.012019 -0.000515 0.002150 0.000884
# 4 -0.006354 0.026298 -0.000515 0.042575 -0.001489 0.012648
# 5 -0.000297 -0.003334 0.002150 -0.001489 0.026586 -0.009803
# 6 -0.004393 0.020819 0.000884 0.012648 -0.009803 0.058639
#
#
# Mechanical properties :
#
#
# Convention : Reuss Voigt Hill
#
# Bulk Modulus (GPa) = 28.51058 55.35839 41.93448
# Shear Modulus (GPa) = 21.35682 33.19762 27.27722
#
# Velocity S-wave (km/s) = 3.22909 4.02592 3.64932
# Velocity P-wave (km/s) = 5.27470 6.97412 6.18307
#
# Compressibility (1/GPa) = 0.03507470
#
# Stress axis : x y z
#
# Youngs Moduli (GPa) = 89.55844 24.00132 83.19848
#
# Poissons Ratio (x) = 0.22615 0.35603
# Poissons Ratio (y) = 0.84386 0.09866
# Poissons Ratio (z) = 0.38325 0.02846
#
# Static dielectric constant tensor:
#      x y z
#    x 3.736490 0.050460 -0.147400 
#    y 0.050460 3.371610 -0.111130 
#    z -0.147400 -0.111130 3.961250 
# 
# 
# High freq. dielectric constant tensor:
#      x y z
#    x 1.808600 -0.002440 -0.007890 
#    y -0.002440 1.769080 -0.007640 
#    z -0.007890 -0.007640 1.825680 
# 
# From -- ./inp_files/81537.got.cif
#   From: 2010.06.25/outbox.cif.g09.slc.cpg/sg2_41_cif.got.tgz:81537.got - 2010.06.27 13:26:56.
