data_PCOD8003774
_publ_section_title
;
Structure prediction by ZEFSAII (Michael W. Deem and Ramdas Pophale) SiO2 
 PCOD8003774
Probable space group: P -1
;
_chemical_formula_sum "Si O2"
_cell_formula_units_Z 16
_cell_length_a 19.981959
_cell_length_b 9.434803
_cell_length_c 6.558159
_cell_angle_alpha 46.555041
_cell_angle_beta 65.223563
_cell_angle_gamma 58.636211
_cell_volume 762.750813
_symmetry_space_group_name_H-M "P -1"
_symmetry_group_IT_number 2
_symmetry_cell_setting 'triclinic'
loop_
_space_group_symop_operation_xyz
x,y,z
-x,-y,-z
loop_
_atom_site_type_symbol
_atom_site_label
_atom_site_fract_x
_atom_site_fract_y
_atom_site_fract_z
Si Si1 0.441630 0.251399 0.039283
Si Si2 0.662299 0.384307 0.431565
Si Si3 0.340345 0.349624 0.451482
Si Si4 0.083830 0.493766 0.476305
Si Si5 0.785654 0.381921 0.958123
Si Si6 0.615435 0.008832 0.945508
Si Si7 0.007477 0.895206 0.379574
Si Si8 0.884599 0.947767 0.174343
O O1 0.417684 0.268001 0.290859
O O2 0.402386 0.105961 0.115278
O O3 0.411500 0.480260 0.747583
O O4 0.535330 0.159904 0.000823
O O5 0.652422 0.471605 0.586366
O O6 0.666418 0.145853 0.670382
O O7 0.741618 0.398460 0.213388
O O8 0.264334 0.447131 0.310228
O O9 0.335240 0.158679 0.783701
O O10 0.131809 0.577706 0.162715
O O11 0.066991 0.650409 0.538128
O O12 0.134831 0.250381 0.693584
O O13 0.000000 0.500000 0.500000
O O14 0.804500 0.148813 0.073839
O O15 0.920678 0.911084 0.395293
O O16 0.000000 0.000000 0.500000
O O17 0.043868 0.034200 0.063702
#
# Coordination Sequence:
#
# PCOD8003774 Si02
#       8
#     2   2   2   2   2   2   2   2
#     4   9  20  38  59  87 120 152 194 245 285 335
#     4  10  22  37  57  85 117 155 196 238 291 346
#     4  10  22  37  55  86 120 152 195 241 285 346
#     4   9  19  38  61  82 108 148 192 236 289 343
#     4  10  22  38  56  82 120 152 190 244 292 346
#     4  10  20  37  61  86 116 156 197 237 288 342
#     4   9  18  34  56  85 112 135 179 237 286 342
#     4   9  19  35  55  77 108 148 184 226 285 346
#
# _framework density 20.976707000000001
#
# number of rings (size 3 to 8) (size 9 to 14) (size 15 to 20)
#    0.000    2.500    0.000    1.500    0.000    9.000 
#    0.000    2.500    0.000    0.000    0.000    0.000 
#    0.000    0.000    0.000    0.000    0.000    0.000 
#
# Total GULP energy -198277.179347 kJ/mol
# GULP energy per Si atom -12392.323709 kJ/mol
# Density = 2.092896 g / cm^3
# Si number density = 20.976707 Si / 1000 Ang^3
#
#
#
# Elastic Constant Matrix: (Units=GPa)
#
#
# Indices 1 2 3 4 5 6 
#
# 1 59.7942 37.4280 41.8071 5.8244 -10.4211 -5.0770
# 2 37.4280 143.9888 61.6001 -1.9130 -10.4830 3.2869
# 3 41.8071 61.6001 104.7693 -7.0390 -10.0790 9.4219
# 4 5.8244 -1.9130 -7.0390 43.9040 4.8180 0.0972
# 5 -10.4211 -10.4830 -10.0790 4.8180 25.0068 -2.3487
# 6 -5.0770 3.2869 9.4219 0.0972 -2.3487 32.9677
#
#
#
# Elastic Compliance Matrix: (Units=1/GPa)
#
#
# Indices 1 2 3 4 5 6 
#
# 1 0.028225 -0.002699 -0.010010 -0.006428 0.008596 0.008108
# 2 -0.002699 0.009649 -0.004492 -0.000065 0.001121 -0.000014
# 3 -0.010010 -0.004492 0.016929 0.003920 -0.000548 -0.005982
# 4 -0.006428 -0.000065 0.003920 0.024939 -0.006177 -0.002617
# 5 0.008596 0.001121 -0.000548 -0.006177 0.045445 0.004625
# 6 0.008108 -0.000014 -0.005982 -0.002617 0.004625 0.033630
#
#
# Mechanical properties :
#
#
# Convention : Reuss Voigt Hill
#
# Bulk Modulus (GPa) = 49.01560 65.58030 57.29795
# Shear Modulus (GPa) = 24.99776 31.55685 28.27730
#
# Velocity S-wave (km/s) = 3.45583 3.88284 3.67554
# Velocity P-wave (km/s) = 6.27225 7.17169 6.73700
#
# Compressibility (1/GPa) = 0.02040167
#
# Stress axis : x y z
#
# Youngs Moduli (GPa) = 35.42954 103.63589 59.07144
#
# Poissons Ratio (x) = 0.27971 0.59131
# Poissons Ratio (y) = 0.09562 0.26532
# Poissons Ratio (z) = 0.35465 0.46549
#
# Static dielectric constant tensor:
#      x y z
#    x 3.528020 -0.078690 0.038530 
#    y -0.078690 4.224510 -0.291070 
#    z 0.038530 -0.291070 3.978910 
# 
# 
# High freq. dielectric constant tensor:
#      x y z
#    x 1.789950 -0.010290 -0.008660 
#    y -0.010290 1.841590 -0.014920 
#    z -0.008660 -0.014920 1.811690 
# 
# From -- ./inp_files/116519.got.cif
#   From: 2010.06.25/outbox.cif.g09.slc.cpg/sg2_59_cif.got.tgz:116519.got - 2010.06.27 13:26:56.
