data_PCOD8003267
_publ_section_title
;
Structure prediction by ZEFSAII (Michael W. Deem and Ramdas Pophale) SiO2 
 PCOD8003267
Probable space group: P -1
;
_chemical_formula_sum "Si O2"
_cell_formula_units_Z 16
_cell_length_a 20.222464
_cell_length_b 10.050730
_cell_length_c 8.520528
_cell_angle_alpha 63.156699
_cell_angle_beta 40.310355
_cell_angle_gamma 48.260543
_cell_volume 830.315838
_symmetry_space_group_name_H-M "P -1"
_symmetry_group_IT_number 2
_symmetry_cell_setting 'triclinic'
loop_
_space_group_symop_operation_xyz
x,y,z
-x,-y,-z
loop_
_atom_site_type_symbol
_atom_site_label
_atom_site_fract_x
_atom_site_fract_y
_atom_site_fract_z
Si Si1 0.414621 0.932406 0.155252
Si Si2 0.432636 0.408324 0.112821
Si Si3 0.111962 0.564400 0.145582
Si Si4 0.760353 0.381891 0.403783
Si Si5 0.735886 0.352350 0.958508
Si Si6 0.124069 0.919837 0.411149
Si Si7 0.852522 0.792198 0.621900
Si Si8 0.610855 0.321477 0.470672
O O1 0.416890 0.827235 0.362759
O O2 0.275709 0.100122 0.294296
O O3 0.467628 0.805986 0.970248
O O4 0.500000 0.000000 0.000000
O O5 0.317253 0.460204 0.409222
O O6 0.385911 0.465336 0.984998
O O7 0.500000 0.500000 0.000000
O O8 0.167807 0.602294 0.177646
O O9 0.137769 0.368050 0.212963
O O10 0.965085 0.713549 0.335072
O O11 0.172718 0.567639 0.870753
O O12 0.865967 0.191518 0.391609
O O13 0.656985 0.360557 0.525978
O O14 0.770704 0.223493 0.816650
O O15 0.717760 0.249331 0.186301
O O16 0.141796 0.077767 0.334447
O O17 0.000000 0.000000 0.500000
O O18 0.500000 0.500000 0.500000
#
# Coordination Sequence:
#
# PCOD8003267 Si02
#       8
#     2   2   2   2   2   2   2   2
#     4  12  24  39  62  95 128 162 207 257 316 368
#     4  11  19  39  62  89 124 166 200 252 308 368
#     4  10  23  42  65  88 123 168 208 255 320 369
#     4  10  22  39  67  91 121 166 212 254 308 377
#     4  10  20  36  65  88 118 161 209 249 308 373
#     4  11  21  39  63  93 122 156 205 257 310 364
#     4  11  23  42  62  90 130 164 204 263 314 365
#     4  11  20  37  62  93 120 162 209 251 299 378
#
# _framework density 19.269777000000001
#
# number of rings (size 3 to 8) (size 9 to 14) (size 15 to 20)
#    0.000    1.250    5.000    1.500    1.750    1.500 
#    2.250    1.250    0.000    0.000    0.000    0.000 
#    0.000    0.000    0.000    0.000    0.000    0.000 
#
# Total GULP energy -198323.190790 kJ/mol
# GULP energy per Si atom -12395.199424 kJ/mol
# Density = 1.922592 g / cm^3
# Si number density = 19.269777 Si / 1000 Ang^3
#
#
#
# Elastic Constant Matrix: (Units=GPa)
#
#
# Indices 1 2 3 4 5 6 
#
# 1 113.3041 45.5320 42.9913 -4.2489 -13.1851 -15.6253
# 2 45.5320 113.8093 52.3553 -1.2751 -7.4214 -0.7412
# 3 42.9913 52.3553 114.2359 -8.9762 -0.1518 2.4317
# 4 -4.2489 -1.2751 -8.9762 29.7952 -0.3735 -5.1693
# 5 -13.1851 -7.4214 -0.1518 -0.3735 36.7233 3.7119
# 6 -15.6253 -0.7412 2.4317 -5.1693 3.7119 40.0077
#
#
#
# Elastic Compliance Matrix: (Units=1/GPa)
#
#
# Indices 1 2 3 4 5 6 
#
# 1 0.012459 -0.003260 -0.003171 0.001573 0.003323 0.004893
# 2 -0.003260 0.012207 -0.004457 -0.001457 0.001374 -0.001092
# 3 -0.003171 -0.004457 0.012237 0.002753 -0.001805 -0.001542
# 4 0.001573 -0.001457 0.002753 0.035420 0.000138 0.004984
# 5 0.003323 0.001374 -0.001805 0.000138 0.028819 -0.001223
# 6 0.004893 -0.001092 -0.001542 0.004984 -0.001223 0.027737
#
#
# Mechanical properties :
#
#
# Convention : Reuss Voigt Hill
#
# Bulk Modulus (GPa) = 66.10659 69.23407 67.67033
# Shear Modulus (GPa) = 32.11319 34.66996 33.39158
#
# Velocity S-wave (km/s) = 4.08671 4.24629 4.16726
# Velocity P-wave (km/s) = 7.52653 7.74907 7.63861
#
# Compressibility (1/GPa) = 0.01512708
#
# Stress axis : x y z
#
# Youngs Moduli (GPa) = 80.26020 81.91724 81.71973
#
# Poissons Ratio (x) = 0.26702 0.25915
# Poissons Ratio (y) = 0.26162 0.36427
# Poissons Ratio (z) = 0.25452 0.36515
#
# Static dielectric constant tensor:
#      x y z
#    x 3.315170 -0.641120 -0.212740 
#    y -0.641120 2.824590 -0.305930 
#    z -0.212740 -0.305930 3.601750 
# 
# 
# High freq. dielectric constant tensor:
#      x y z
#    x 1.751540 -0.009310 -0.006140 
#    y -0.009310 1.747450 0.012720 
#    z -0.006140 0.012720 1.755660 
# 
# From -- ./inp_files/179477.got.cif
#   From: 2010.06.25/outbox.cif.g09.slc.cpg/sg2_90_cif.got.tgz:179477.got - 2010.06.27 13:26:56.
