data_PCOD8003795
_publ_section_title
;
Structure prediction by ZEFSAII (Michael W. Deem and Ramdas Pophale) SiO2 
 PCOD8003795
Probable space group: P -1
;
_chemical_formula_sum "Si O2"
_cell_formula_units_Z 16
_cell_length_a 23.777664
_cell_length_b 20.281048
_cell_length_c 8.834970
_cell_angle_alpha 33.577840
_cell_angle_beta 149.430513
_cell_angle_gamma 157.498076
_cell_volume 813.598046
_symmetry_space_group_name_H-M "P -1"
_symmetry_group_IT_number 2
_symmetry_cell_setting 'triclinic'
loop_
_space_group_symop_operation_xyz
x,y,z
-x,-y,-z
loop_
_atom_site_type_symbol
_atom_site_label
_atom_site_fract_x
_atom_site_fract_y
_atom_site_fract_z
Si Si1 0.927831 0.412158 0.736967
Si Si2 0.617741 0.496294 0.709740
Si Si3 0.134956 0.368146 0.396879
Si Si4 0.844606 0.824204 0.395280
Si Si5 0.375312 0.131609 0.295944
Si Si6 0.229022 0.764451 0.606215
Si Si7 0.286378 0.568733 0.654818
Si Si8 0.562114 0.279804 0.743367
O O1 0.821887 0.303267 0.552316
O O2 0.817992 0.393678 0.640198
O O3 0.085516 0.616461 0.672258
O O4 0.976137 0.325112 0.092173
O O5 0.500000 0.500000 0.500000
O O6 0.759068 0.671532 0.609518
O O7 0.514929 0.323572 0.695700
O O8 0.705853 0.491893 0.052618
O O9 0.097708 0.206140 0.559327
O O10 0.193371 0.408010 0.629623
O O11 0.277225 0.536699 0.305008
O O12 0.720704 0.825542 0.048739
O O13 0.000000 0.000000 0.500000
O O14 0.537234 0.254350 0.335719
O O15 0.414801 0.163617 0.505176
O O16 0.262716 0.930472 0.383308
O O17 0.394200 0.820984 0.915154
#
# Coordination Sequence:
#
# PCOD8003795 Si02
#       8
#     2   2   2   2   2   2   2   2
#     4  10  20  38  63  86 117 156 195 234 291 344
#     4  11  22  40  62  85 118 152 195 239 293 347
#     4   9  21  38  61  86 118 155 196 233 285 352
#     4  11  24  41  61  85 117 157 196 234 289 351
#     4  11  23  37  61  89 118 150 195 244 288 339
#     4  10  20  37  61  88 116 156 196 234 287 348
#     4  11  22  38  61  91 115 152 193 245 292 335
#     4   9  20  38  60  86 115 158 194 235 287 348
#
# _framework density 19.665731000000001
#
# number of rings (size 3 to 8) (size 9 to 14) (size 15 to 20)
#    0.000    1.750    2.500    1.500    5.250    2.000 
#    0.000    1.875    0.000    0.000    0.000    0.000 
#    0.000    0.000    0.000    0.000    0.000    0.000 
#
# Total GULP energy -198438.590538 kJ/mol
# GULP energy per Si atom -12402.411909 kJ/mol
# Density = 1.962097 g / cm^3
# Si number density = 19.665731 Si / 1000 Ang^3
#
#
#
# Elastic Constant Matrix: (Units=GPa)
#
#
# Indices 1 2 3 4 5 6 
#
# 1 136.3077 50.8333 60.3810 5.5164 17.2232 -20.2558
# 2 50.8333 87.5223 41.7906 2.9708 3.9829 -18.0760
# 3 60.3810 41.7906 101.2771 5.3832 4.9657 -5.9125
# 4 5.5164 2.9708 5.3832 29.9377 -2.2242 5.7910
# 5 17.2232 3.9829 4.9657 -2.2242 41.6246 3.5729
# 6 -20.2558 -18.0760 -5.9125 5.7910 3.5729 22.6127
#
#
#
# Elastic Compliance Matrix: (Units=1/GPa)
#
#
# Indices 1 2 3 4 5 6 
#
# 1 0.013154 -0.002408 -0.005797 -0.003515 -0.005578 0.010124
# 2 -0.002408 0.017772 -0.005010 -0.002765 -0.001254 0.011647
# 3 -0.005797 -0.005010 0.014994 0.000057 0.001568 -0.005540
# 4 -0.003515 -0.002765 0.000057 0.037752 0.005087 -0.015816
# 5 -0.005578 -0.001254 0.001568 0.005087 0.027501 -0.011237
# 6 0.010124 0.011647 -0.005540 -0.015816 -0.011237 0.066979
#
#
# Mechanical properties :
#
#
# Convention : Reuss Voigt Hill
#
# Bulk Modulus (GPa) = 51.30628 70.12412 60.71520
# Shear Modulus (GPa) = 23.68784 30.30849 26.99817
#
# Velocity S-wave (km/s) = 3.47439 3.93005 3.70922
# Velocity P-wave (km/s) = 6.49931 7.50528 7.02033
#
# Compressibility (1/GPa) = 0.01949079
#
# Stress axis : x y z
#
# Youngs Moduli (GPa) = 76.02389 56.26712 66.69251
#
# Poissons Ratio (x) = 0.13547 0.38665
# Poissons Ratio (y) = 0.18303 0.33411
# Poissons Ratio (z) = 0.44074 0.28189
#
# Static dielectric constant tensor:
#      x y z
#    x 4.039760 -0.260910 -0.044250 
#    y -0.260910 3.373190 0.115200 
#    z -0.044250 0.115200 3.873550 
# 
# 
# High freq. dielectric constant tensor:
#      x y z
#    x 1.775800 -0.018620 0.005630 
#    y -0.018620 1.744490 0.012100 
#    z 0.005630 0.012100 1.779400 
# 
# From -- ./inp_files/176133.got.cif
#   From: 2010.06.25/outbox.cif.g09.slc.cpg/sg2_89_cif.got.tgz:176133.got - 2010.06.27 13:26:56.
