data_PCOD8003593
_publ_section_title
;
Structure prediction by ZEFSAII (Michael W. Deem and Ramdas Pophale) SiO2 
 PCOD8003593
Probable space group: P -1
;
_chemical_formula_sum "Si O2"
_cell_formula_units_Z 14
_cell_length_a 10.324213
_cell_length_b 14.238027
_cell_length_c 11.991031
_cell_angle_alpha 133.066277
_cell_angle_beta 80.459257
_cell_angle_gamma 136.498271
_cell_volume 669.583778
_symmetry_space_group_name_H-M "P -1"
_symmetry_group_IT_number 2
_symmetry_cell_setting 'triclinic'
loop_
_space_group_symop_operation_xyz
x,y,z
-x,-y,-z
loop_
_atom_site_type_symbol
_atom_site_label
_atom_site_fract_x
_atom_site_fract_y
_atom_site_fract_z
Si Si1 0.583502 0.345587 0.639599
Si Si2 0.277833 0.587164 0.087141
Si Si3 0.320515 0.218964 0.218870
Si Si4 0.828513 0.066339 0.360390
Si Si5 0.728581 0.728597 0.499981
Si Si6 0.018895 0.226475 0.226466
Si Si7 0.812422 0.188357 0.688411
O O1 0.722182 0.481713 0.848178
O O2 0.386721 0.300433 0.616871
O O3 0.795874 0.519260 0.654275
O O4 0.428564 0.084654 0.449306
O O5 0.232451 0.700021 0.199942
O O6 0.544985 0.785337 0.151740
O O7 0.060161 0.346662 0.846667
O O8 0.595203 0.480434 0.345219
O O9 0.324911 0.210237 0.345254
O O10 0.152168 0.201864 0.201649
O O11 0.221379 0.004483 0.004396
O O12 0.841931 0.185810 0.550597
O O13 0.980379 0.066586 0.383088
O O14 0.934379 0.210832 0.345874
#
# Coordination Sequence:
#
# PCOD8003593 Si02
#       7
#     2   2   2   2   2   2   2
#     4  10  20  37  59  89 114 150 181 235 277 343
#     4  10  23  43  59  78 105 161 195 234 286 332
#     4   8  16  32  50  82 127 159 168 212 277 362
#     4  10  20  37  59  89 114 150 181 235 277 343
#     4   9  18  31  56  90 122 146 180 218 288 336
#     4   9  18  32  59  86 114 149 190 219 282 328
#     4  10  23  43  61  73 112 154 199 234 286 330
#
# _framework density 20.908511000000001
#
# number of rings (size 3 to 8) (size 9 to 14) (size 15 to 20)
#    0.000    2.571    0.000    2.571    4.000    2.286 
#    0.000    4.286    0.000    3.429    0.000    0.000 
#    0.000    0.000    0.000    0.000    0.000    0.000 
#
# Total GULP energy -173518.868585 kJ/mol
# GULP energy per Si atom -12394.204899 kJ/mol
# Density = 2.086092 g / cm^3
# Si number density = 20.908511 Si / 1000 Ang^3
#
#
#
# Elastic Constant Matrix: (Units=GPa)
#
#
# Indices 1 2 3 4 5 6 
#
# 1 53.7560 25.4176 18.1485 -0.6363 21.4553 -0.2928
# 2 25.4176 150.9556 55.2805 -1.2108 8.1894 2.4877
# 3 18.1485 55.2805 134.1884 -0.3149 19.5488 0.8443
# 4 -0.6363 -1.2108 -0.3149 13.3795 -0.4824 1.5940
# 5 21.4553 8.1894 19.5488 -0.4824 34.7492 -0.0872
# 6 -0.2928 2.4877 0.8443 1.5940 -0.0872 9.2008
#
#
#
# Elastic Compliance Matrix: (Units=1/GPa)
#
#
# Indices 1 2 3 4 5 6 
#
# 1 0.026537 -0.003724 0.000210 0.000170 -0.015619 0.001655
# 2 -0.003724 0.008364 -0.003241 0.000844 0.002157 -0.002209
# 3 0.000210 -0.003241 0.009440 -0.000231 -0.004680 0.000012
# 4 0.000170 0.000844 -0.000231 0.076452 0.000854 -0.013438
# 5 -0.015619 0.002157 -0.004680 0.000854 0.040557 -0.000415
# 6 0.001655 -0.002209 0.000012 -0.013438 -0.000415 0.111659
#
#
# Mechanical properties :
#
#
# Convention : Reuss Voigt Hill
#
# Bulk Modulus (GPa) = 32.43221 59.62147 46.02684
# Shear Modulus (GPa) = 16.84665 27.46946 22.15806
#
# Velocity S-wave (km/s) = 2.84162 3.62856 3.25893
# Velocity P-wave (km/s) = 5.12948 6.79210 6.01848
#
# Compressibility (1/GPa) = 0.03083355
#
# Stress axis : x y z
#
# Youngs Moduli (GPa) = 37.68277 119.55545 105.93355
#
# Poissons Ratio (x) = 0.44522 -0.02229
# Poissons Ratio (y) = 0.14033 0.34328
# Poissons Ratio (z) = -0.00793 0.38742
#
# Static dielectric constant tensor:
#      x y z
#    x 3.524380 0.012860 0.598730 
#    y 0.012860 3.814820 -0.008700 
#    z 0.598730 -0.008700 4.216890 
# 
# 
# High freq. dielectric constant tensor:
#      x y z
#    x 1.781720 0.001100 0.037850 
#    y 0.001100 1.814080 -0.000790 
#    z 0.037850 -0.000790 1.824600 
# 
# From -- ./inp_files/253419.got.cif
#   From: 2010.06.25/outbox.cif.g09.slc.cpg/sg2_127_cif.got.tgz:253419.got - 2010.06.27 13:26:56.
