data_PCOD8003968
_publ_section_title
;
Structure prediction by ZEFSAII (Michael W. Deem and Ramdas Pophale) SiO2 
 PCOD8003968
Probable space group: P -1
;
_chemical_formula_sum "Si O2"
_cell_formula_units_Z 12
_cell_length_a 5.104352
_cell_length_b 11.682681
_cell_length_c 16.831527
_cell_angle_alpha 150.765497
_cell_angle_beta 108.796688
_cell_angle_gamma 81.292162
_cell_volume 445.396441
_symmetry_space_group_name_H-M "P -1"
_symmetry_group_IT_number 2
_symmetry_cell_setting 'triclinic'
loop_
_space_group_symop_operation_xyz
x,y,z
-x,-y,-z
loop_
_atom_site_type_symbol
_atom_site_label
_atom_site_fract_x
_atom_site_fract_y
_atom_site_fract_z
Si Si1 0.014041 0.850466 0.261826
Si Si2 0.933594 0.710367 0.365462
Si Si3 0.389910 0.428591 0.217801
Si Si4 0.424303 0.749911 0.727454
Si Si5 0.837053 0.816802 0.674631
Si Si6 0.408417 0.500434 0.093771
O O1 0.252764 0.712225 0.216989
O O2 0.695183 0.665390 0.095219
O O3 0.982374 0.998077 0.429177
O O4 0.129313 0.021741 0.302255
O O5 0.720341 0.596265 0.347618
O O6 0.758236 0.623250 0.210904
O O7 0.205971 0.607573 0.337618
O O8 0.388961 0.212048 0.148703
O O9 0.301945 0.328919 0.058868
O O10 0.635075 0.901273 0.770859
O O11 0.329666 0.460767 0.529137
O O12 0.145161 0.845608 0.763514
#
# Coordination Sequence:
#
# PCOD8003968 Si02
#       6
#     2   2   2   2   2   2
#     4  11  21  45  67  99 130 174 214 268 324 387
#     4  10  22  41  66  96 127 171 210 265 323 379
#     4  10  21  43  65  93 130 168 213 267 321 377
#     4  10  20  37  62  93 127 166 211 266 312 384
#     4  10  21  35  61  97 125 165 214 261 318 381
#     4   9  24  44  66  98 132 169 218 270 318 385
#
# _framework density 26.942291000000001
#
# number of rings (size 3 to 8) (size 9 to 14) (size 15 to 20)
#    1.000    1.000    1.667    1.500    4.667    0.667 
#    9.000    3.333    0.000    0.000    0.000    0.000 
#    0.000    0.000    0.000    0.000    0.000    0.000 
#
# Total GULP energy -148719.435587 kJ/mol
# GULP energy per Si atom -12393.286299 kJ/mol
# Density = 2.688097 g / cm^3
# Si number density = 26.942291 Si / 1000 Ang^3
#
#
#
# Elastic Constant Matrix: (Units=GPa)
#
#
# Indices 1 2 3 4 5 6 
#
# 1 129.8574 24.4231 25.9047 -6.8809 5.6883 3.8541
# 2 24.4231 163.1260 52.8648 -36.3015 13.0352 -1.7800
# 3 25.9047 52.8648 70.5702 -21.2236 3.7277 14.0380
# 4 -6.8809 -36.3015 -21.2236 33.5111 9.8864 2.2322
# 5 5.6883 13.0352 3.7277 9.8864 15.3594 8.9913
# 6 3.8541 -1.7800 14.0380 2.2322 8.9913 27.2512
#
#
#
# Elastic Compliance Matrix: (Units=1/GPa)
#
#
# Indices 1 2 3 4 5 6 
#
# 1 0.008480 0.000586 -0.003142 0.001790 -0.005217 0.002032
# 2 0.000586 0.016354 -0.006316 0.023513 -0.036007 0.014193
# 3 -0.003142 -0.006316 0.025402 0.008529 0.003619 -0.014946
# 4 0.001790 0.023513 0.008529 0.086197 -0.089503 0.019360
# 5 -0.005217 -0.036007 0.003619 -0.089503 0.188478 -0.058334
# 6 0.002032 0.014193 -0.014946 0.019360 -0.058334 0.062695
#
#
# Mechanical properties :
#
#
# Convention : Reuss Voigt Hill
#
# Bulk Modulus (GPa) = 30.77683 63.32651 47.05167
# Shear Modulus (GPa) = 12.01398 32.58175 22.29786
#
# Velocity S-wave (km/s) = 2.11396 3.48129 2.87995
# Velocity P-wave (km/s) = 4.17211 6.30196 5.34421
#
# Compressibility (1/GPa) = 0.03249198
#
# Stress axis : x y z
#
# Youngs Moduli (GPa) = 117.91819 61.14699 39.36677
#
# Poissons Ratio (x) = -0.03584 0.12371
# Poissons Ratio (y) = -0.06911 0.24864
# Poissons Ratio (z) = 0.37055 0.38620
#
# Static dielectric constant tensor:
#      x y z
#    x 4.749360 0.304170 0.172890 
#    y 0.304170 5.265820 -0.209050 
#    z 0.172890 -0.209050 4.627990 
# 
# 
# High freq. dielectric constant tensor:
#      x y z
#    x 2.085940 0.020680 0.011700 
#    y 0.020680 2.120100 -0.010370 
#    z 0.011700 -0.010370 2.068680 
# 
# From -- ./inp_files/549361.got.cif
#   From: 2010.06.25/outbox.cif.g09.slc.cpg/sg2_275_cif.got.tgz:549361.got - 2010.06.27 13:26:56.
