data_PCOD8003513
_publ_section_title
;
Structure prediction by ZEFSAII (Michael W. Deem and Ramdas Pophale) SiO2 
 PCOD8003513
Probable space group: P -1
;
_chemical_formula_sum "Si O2"
_cell_formula_units_Z 16
_cell_length_a 17.756448
_cell_length_b 14.811599
_cell_length_c 14.261606
_cell_angle_alpha 48.139480
_cell_angle_beta 21.880626
_cell_angle_gamma 35.303770
_cell_volume 733.926811
_symmetry_space_group_name_H-M "P -1"
_symmetry_group_IT_number 2
_symmetry_cell_setting 'triclinic'
loop_
_space_group_symop_operation_xyz
x,y,z
-x,-y,-z
loop_
_atom_site_type_symbol
_atom_site_label
_atom_site_fract_x
_atom_site_fract_y
_atom_site_fract_z
Si Si1 0.901210 0.256331 0.075126
Si Si2 0.250237 0.161348 0.572156
Si Si3 0.679331 0.168597 0.990978
Si Si4 0.222799 0.478707 0.197116
Si Si5 0.616132 0.621816 0.121285
Si Si6 0.816367 0.666756 0.031229
Si Si7 0.242665 0.939145 0.612047
Si Si8 0.985300 0.164071 0.259150
O O1 0.660100 0.459101 0.197305
O O2 0.800615 0.169893 0.207777
O O3 0.944355 0.224534 0.157590
O O4 0.201234 0.162257 0.740252
O O5 0.473343 0.175596 0.291481
O O6 0.929986 0.328962 0.783979
O O7 0.348450 0.997206 0.520775
O O8 0.513476 0.356516 0.009308
O O9 0.770122 0.043350 0.885098
O O10 0.951465 0.100200 0.782156
O O11 0.000000 0.500000 0.500000
O O12 0.303374 0.374664 0.079627
O O13 0.825487 0.609138 0.955805
O O14 0.286230 0.785063 0.414852
O O15 0.488149 0.810908 0.341803
O O16 0.934100 0.753231 0.830296
O O17 0.000000 0.500000 0.000000
#
# Coordination Sequence:
#
# PCOD8003513 Si02
#       8
#     2   2   2   2   2   2   2   2
#     4  10  20  37  58  90 126 161 194 249 299 369
#     4  10  21  40  61  88 125 161 208 246 302 357
#     4  10  21  41  61  86 122 161 205 254 298 350
#     4   9  22  44  68  86 117 166 206 254 299 353
#     4  11  21  41  62  91 124 158 203 248 307 358
#     4  12  22  37  61  91 127 161 196 244 305 370
#     4  11  22  37  59  93 124 161 199 250 305 360
#     4  11  21  36  59  90 125 159 199 249 309 359
#
# _framework density 21.800539000000001
#
# number of rings (size 3 to 8) (size 9 to 14) (size 15 to 20)
#    0.000    1.500    5.000    1.500    0.000    3.000 
#    2.250    9.375    0.000    0.000    0.000    0.000 
#    0.000    0.000    0.000    0.000    0.000    0.000 
#
# Total GULP energy -198288.139565 kJ/mol
# GULP energy per Si atom -12393.008723 kJ/mol
# Density = 2.175092 g / cm^3
# Si number density = 21.800539 Si / 1000 Ang^3
#
#
#
# Elastic Constant Matrix: (Units=GPa)
#
#
# Indices 1 2 3 4 5 6 
#
# 1 80.6479 10.8222 43.9259 -10.2927 11.0792 -4.0118
# 2 10.8222 34.3012 6.5655 5.8033 4.3486 -0.2147
# 3 43.9259 6.5655 109.2928 5.6264 17.8798 -8.5473
# 4 -10.2927 5.8033 5.6264 28.0523 -1.1551 -3.7663
# 5 11.0792 4.3486 17.8798 -1.1551 39.9991 -1.4434
# 6 -4.0118 -0.2147 -8.5473 -3.7663 -1.4434 26.9953
#
#
#
# Elastic Compliance Matrix: (Units=1/GPa)
#
#
# Indices 1 2 3 4 5 6 
#
# 1 0.018672 -0.006010 -0.007368 0.009765 -0.000881 0.001709
# 2 -0.006010 0.032774 0.001264 -0.009585 -0.002802 -0.001719
# 3 -0.007368 0.001264 0.013145 -0.005487 -0.004055 0.002095
# 4 0.009765 -0.009585 -0.005487 0.043183 0.002246 0.005782
# 5 -0.000881 -0.002802 -0.004055 0.002246 0.027439 0.000343
# 6 0.001709 -0.001719 0.002095 0.005782 0.000343 0.038772
#
#
# Mechanical properties :
#
#
# Convention : Reuss Voigt Hill
#
# Bulk Modulus (GPa) = 24.77586 38.54099 31.65843
# Shear Modulus (GPa) = 23.62194 29.87123 26.74658
#
# Velocity S-wave (km/s) = 3.29530 3.70565 3.50648
# Velocity P-wave (km/s) = 5.08607 6.00220 5.56303
#
# Compressibility (1/GPa) = 0.04036186
#
# Stress axis : x y z
#
# Youngs Moduli (GPa) = 53.55709 30.51194 76.07548
#
# Poissons Ratio (x) = 0.18339 0.56054
# Poissons Ratio (y) = 0.32190 -0.09618
# Poissons Ratio (z) = 0.39462 -0.03857
#
# Static dielectric constant tensor:
#      x y z
#    x 3.820760 -0.066490 0.120380 
#    y -0.066490 4.446230 0.323510 
#    z 0.120380 0.323510 4.034330 
# 
# 
# High freq. dielectric constant tensor:
#      x y z
#    x 1.838380 0.002720 0.011680 
#    y 0.002720 1.850010 0.021120 
#    z 0.011680 0.021120 1.865780 
# 
# From -- ./inp_files/455594.got.cif
#   From: 2010.06.25/outbox.cif.g09.slc.cpg/sg2_228_cif.got.tgz:455594.got - 2010.06.27 13:26:56.
