data_PCOD8003628
_publ_section_title
;
Structure prediction by ZEFSAII (Michael W. Deem and Ramdas Pophale) SiO2 
 PCOD8003628
Probable space group: P -1
;
_chemical_formula_sum "Si O2"
_cell_formula_units_Z 14
_cell_length_a 6.086850
_cell_length_b 15.635820
_cell_length_c 7.588058
_cell_angle_alpha 103.244061
_cell_angle_beta 57.333539
_cell_angle_gamma 84.540634
_cell_volume 570.293924
_symmetry_space_group_name_H-M "P -1"
_symmetry_group_IT_number 2
_symmetry_cell_setting 'triclinic'
loop_
_space_group_symop_operation_xyz
x,y,z
-x,-y,-z
loop_
_atom_site_type_symbol
_atom_site_label
_atom_site_fract_x
_atom_site_fract_y
_atom_site_fract_z
Si Si1 0.713068 0.613963 0.746109
Si Si2 0.463857 0.671904 0.526810
Si Si3 0.971936 0.736804 0.266276
Si Si4 0.725968 0.424429 0.717484
Si Si5 0.822102 0.932927 0.497487
Si Si6 0.742975 0.964357 0.140377
Si Si7 0.107342 0.234852 0.090546
O O1 0.500977 0.627353 0.683804
O O2 0.653875 0.532354 0.858336
O O3 0.014585 0.586157 0.526074
O O4 0.682821 0.705785 0.919188
O O5 0.673911 0.730813 0.439424
O O6 0.506761 0.595196 0.317856
O O7 0.163088 0.737951 0.661037
O O8 0.991400 0.827825 0.407439
O O9 0.000918 0.745669 0.051181
O O10 0.205088 0.647282 0.183964
O O11 0.743900 0.939550 0.331395
O O12 0.541592 0.961536 0.745781
O O13 0.000000 0.000000 0.500000
O O14 0.751255 0.871628 0.985581
O O15 0.000000 0.000000 0.000000
#
# Coordination Sequence:
#
# PCOD8003628 Si02
#       7
#     2   2   2   2   2   2   2
#     4   9  19  36  58  86 116 152 196 240 288 349
#     4  10  20  37  60  82 116 157 194 239 292 345
#     4  10  22  38  58  87 118 152 194 242 296 353
#     4   9  19  36  59  84 116 155 194 237 291 352
#     4  10  23  40  61  88 120 156 199 248 299 358
#     4  10  22  40  62  89 120 157 200 247 300 357
#     4  10  22  37  58  89 120 149 195 246 291 353
#
# _framework density 24.548745
#
# number of rings (size 3 to 8) (size 9 to 14) (size 15 to 20)
#    0.000    2.286    0.000    1.286    0.000   12.571 
#    0.000    1.429    0.000    0.000    0.000    0.000 
#    0.000    0.000    0.000    0.000    0.000    0.000 
#
# Total GULP energy -173566.366998 kJ/mol
# GULP energy per Si atom -12397.597643 kJ/mol
# Density = 2.449287 g / cm^3
# Si number density = 24.548745 Si / 1000 Ang^3
#
#
#
# Elastic Constant Matrix: (Units=GPa)
#
#
# Indices 1 2 3 4 5 6 
#
# 1 95.9909 41.4595 24.1509 26.5253 10.7166 15.0875
# 2 41.4595 159.5438 47.3969 40.4604 7.3615 20.8923
# 3 24.1509 47.3969 51.8090 29.4566 -3.1074 9.9951
# 4 26.5253 40.4604 29.4566 47.4187 9.2476 6.9874
# 5 10.7166 7.3615 -3.1074 9.2476 38.0996 7.7275
# 6 15.0875 20.8923 9.9951 6.9874 7.7275 33.3845
#
#
#
# Elastic Compliance Matrix: (Units=1/GPa)
#
#
# Indices 1 2 3 4 5 6 
#
# 1 0.013411 -0.001240 -0.002234 -0.004177 -0.002038 -0.003270
# 2 -0.001240 0.009544 -0.005723 -0.003363 -0.000565 -0.002865
# 3 -0.002234 -0.005723 0.037783 -0.018593 0.010390 -0.005235
# 4 -0.004177 -0.003363 -0.018593 0.039249 -0.009959 0.003649
# 5 -0.002038 -0.000565 0.010390 -0.009959 0.031628 -0.007073
# 6 -0.003270 -0.002865 -0.005235 0.003649 -0.007073 0.035665
#
#
# Mechanical properties :
#
#
# Convention : Reuss Voigt Hill
#
# Bulk Modulus (GPa) = 23.61522 59.26203 41.43863
# Shear Modulus (GPa) = 25.02652 36.73633 30.88142
#
# Velocity S-wave (km/s) = 3.19637 3.87261 3.55063
# Velocity P-wave (km/s) = 4.82317 6.64749 5.80741
#
# Compressibility (1/GPa) = 0.04234557
#
# Stress axis : x y z
#
# Youngs Moduli (GPa) = 74.56627 104.77637 26.46716
#
# Poissons Ratio (x) = 0.12991 0.05912
# Poissons Ratio (y) = 0.09245 0.15146
# Poissons Ratio (z) = 0.16655 0.59960
#
# Static dielectric constant tensor:
#      x y z
#    x 3.422530 0.075230 -0.088760 
#    y 0.075230 4.740270 0.342370 
#    z -0.088760 0.342370 4.569190 
# 
# 
# High freq. dielectric constant tensor:
#      x y z
#    x 1.965110 0.013060 -0.001770 
#    y 0.013060 1.980350 0.006510 
#    z -0.001770 0.006510 1.986790 
# 
# From -- ./inp_files/55766.got.cif
#   From: 2010.06.25/outbox.cif.g09.slc.cpg/sg2_28_cif.got.tgz:55766.got - 2010.06.27 13:26:56.
