data_PCOD8003583
_publ_section_title
;
Structure prediction by ZEFSAII (Michael W. Deem and Ramdas Pophale) SiO2 
 PCOD8003583
Probable space group: P -1
;
_chemical_formula_sum "Si O2"
_cell_formula_units_Z 14
_cell_length_a 10.129247
_cell_length_b 23.525091
_cell_length_c 24.740192
_cell_angle_alpha 17.533675
_cell_angle_beta 156.417974
_cell_angle_gamma 154.545844
_cell_volume 689.634567
_symmetry_space_group_name_H-M "P -1"
_symmetry_group_IT_number 2
_symmetry_cell_setting 'triclinic'
loop_
_space_group_symop_operation_xyz
x,y,z
-x,-y,-z
loop_
_atom_site_type_symbol
_atom_site_label
_atom_site_fract_x
_atom_site_fract_y
_atom_site_fract_z
Si Si1 0.821515 0.893477 0.775314
Si Si2 0.149426 0.121946 0.998071
Si Si3 0.947220 0.192694 0.455972
Si Si4 0.803360 0.947949 0.129111
Si Si5 0.675089 0.504750 0.338201
Si Si6 0.319257 0.612075 0.205709
Si Si7 0.719903 0.916807 0.426513
O O1 0.427681 0.787162 0.718578
O O2 0.944701 0.054574 0.630485
O O3 0.873287 0.002892 0.753977
O O4 0.036256 0.733613 0.994276
O O5 0.490392 0.068939 0.194411
O O6 0.222193 0.351474 0.804540
O O7 0.876377 0.075279 0.986319
O O8 0.000000 0.000000 0.000000
O O9 0.174736 0.402623 0.368458
O O10 0.111345 0.107058 0.545352
O O11 0.672999 0.720347 0.270039
O O12 0.500000 0.000000 0.000000
O O13 0.400631 0.583347 0.199439
O O14 0.509582 0.287670 0.452019
O O15 0.000000 0.500000 0.500000
O O16 0.000000 0.000000 0.500000
#
# Coordination Sequence:
#
# PCOD8003583 Si02
#       7
#     2   2   2   2   2   2   2
#     4  10  21  40  57  86 124 161 200 248 310 367
#     4  12  22  41  68  90 126 170 205 259 317 368
#     4  10  22  37  63  84 120 165 202 246 312 372
#     4  10  22  37  61  89 122 154 203 255 297 359
#     4  11  22  38  65  94 120 165 216 255 314 378
#     4  10  20  37  59  88 116 159 202 255 299 366
#     4  11  24  41  63  96 128 158 213 269 306 368
#
# _framework density 20.300605999999998
#
# number of rings (size 3 to 8) (size 9 to 14) (size 15 to 20)
#    0.000    1.429    2.857    2.143    2.000    1.143 
#    0.000   11.429    0.000    0.000    0.000    0.000 
#    0.000    0.000    0.000    0.000    0.000    0.000 
#
# Total GULP energy -173605.071620 kJ/mol
# GULP energy per Si atom -12400.362259 kJ/mol
# Density = 2.025440 g / cm^3
# Si number density = 20.300606 Si / 1000 Ang^3
#
#
#
# Elastic Constant Matrix: (Units=GPa)
#
#
# Indices 1 2 3 4 5 6 
#
# 1 103.5723 41.9824 41.2262 -5.5672 -20.0378 11.4127
# 2 41.9824 130.0923 52.9004 -20.5095 -20.8487 -5.9637
# 3 41.2262 52.9004 105.4263 -9.6335 -8.3209 2.1118
# 4 -5.5672 -20.5095 -9.6335 35.1079 7.5517 -5.3558
# 5 -20.0378 -20.8487 -8.3209 7.5517 32.9241 1.7265
# 6 11.4127 -5.9637 2.1118 -5.3558 1.7265 33.5254
#
#
#
# Elastic Compliance Matrix: (Units=1/GPa)
#
#
# Indices 1 2 3 4 5 6 
#
# 1 0.014024 -0.002575 -0.003779 -0.002675 0.006866 -0.005775
# 2 -0.002575 0.011786 -0.004242 0.005167 0.003435 0.003889
# 3 -0.003779 -0.004242 0.013024 0.000898 -0.001897 -0.000048
# 4 -0.002675 0.005167 0.000898 0.033819 -0.006279 0.007499
# 5 0.006866 0.003435 -0.001897 -0.006279 0.037926 -0.004563
# 6 -0.005775 0.003889 -0.000048 0.007499 -0.004563 0.033922
#
#
# Mechanical properties :
#
#
# Convention : Reuss Voigt Hill
#
# Bulk Modulus (GPa) = 56.67820 67.92322 62.30071
# Shear Modulus (GPa) = 29.14193 33.84362 31.49277
#
# Velocity S-wave (km/s) = 3.79294 4.08747 3.94296
# Velocity P-wave (km/s) = 6.86745 7.47047 7.17530
#
# Compressibility (1/GPa) = 0.01764347
#
# Stress axis : x y z
#
# Youngs Moduli (GPa) = 71.30702 84.84528 76.77882
#
# Poissons Ratio (x) = 0.21851 0.29011
# Poissons Ratio (y) = 0.18364 0.32566
# Poissons Ratio (z) = 0.26944 0.35988
#
# Static dielectric constant tensor:
#      x y z
#    x 3.935490 -0.002640 -0.042190 
#    y -0.002640 4.185330 -0.061950 
#    z -0.042190 -0.061950 3.703390 
# 
# 
# High freq. dielectric constant tensor:
#      x y z
#    x 1.801970 0.012230 0.004430 
#    y 0.012230 1.804310 -0.004480 
#    z 0.004430 -0.004480 1.784260 
# 
# From -- ./inp_files/398188.got.cif
#   From: 2010.06.25/outbox.cif.g09.slc.cpg/sg2_200_cif.got.tgz:398188.got - 2010.06.27 13:26:56.
