data_PCOD8003818
_publ_section_title
;
Structure prediction by ZEFSAII (Michael W. Deem and Ramdas Pophale) SiO2 
 PCOD8003818
Probable space group: P -1
;
_chemical_formula_sum "Si O2"
_cell_formula_units_Z 16
_cell_length_a 13.571463
_cell_length_b 10.573854
_cell_length_c 13.501673
_cell_angle_alpha 148.976101
_cell_angle_beta 51.071469
_cell_angle_gamma 137.200490
_cell_volume 678.478132
_symmetry_space_group_name_H-M "P -1"
_symmetry_group_IT_number 2
_symmetry_cell_setting 'triclinic'
loop_
_space_group_symop_operation_xyz
x,y,z
-x,-y,-z
loop_
_atom_site_type_symbol
_atom_site_label
_atom_site_fract_x
_atom_site_fract_y
_atom_site_fract_z
Si Si1 0.678356 0.062722 0.052431
Si Si2 0.683057 0.726832 0.650733
Si Si3 0.315833 0.726720 0.428855
Si Si4 0.476382 0.480835 0.887444
Si Si5 0.208586 0.111617 0.704094
Si Si6 0.178635 0.643294 0.652635
Si Si7 0.969115 0.788094 0.787685
Si Si8 0.358715 0.418464 0.632586
O O1 0.803005 0.189219 0.143688
O O2 0.622286 0.282891 0.214732
O O3 0.735171 0.000326 0.871139
O O4 0.549346 0.777304 0.985065
O O5 0.804043 0.629973 0.523090
O O6 0.516213 0.490341 0.627237
O O7 0.678977 0.788187 0.577420
O O8 0.470369 0.740163 0.331540
O O9 0.301698 0.826042 0.615770
O O10 0.198737 0.394677 0.259341
O O11 0.277791 0.908736 0.499448
O O12 0.307024 0.344307 0.879348
O O13 0.500000 0.500000 0.000000
O O14 0.225680 0.269473 0.694471
O O15 0.049328 0.951028 0.744796
O O16 0.028435 0.577488 0.648497
O O17 0.000000 0.000000 0.000000
#
# Coordination Sequence:
#
# PCOD8003818 Si02
#       8
#     2   2   2   2   2   2   2   2
#     4  11  21  38  62  92 139 168 208 264 327 385
#     4  10  20  37  61  89 132 171 208 260 325 385
#     4  11  22  42  64  91 132 171 206 267 335 386
#     4  12  23  36  63 103 131 164 213 271 323 380
#     4  11  22  39  62  96 133 163 218 270 314 391
#     4  10  20  37  64  90 116 169 216 253 316 388
#     4  11  24  43  66  95 127 177 214 266 337 393
#     4  10  22  38  60  96 130 178 213 258 327 383
#
# _framework density 23.582190000000001
#
# number of rings (size 3 to 8) (size 9 to 14) (size 15 to 20)
#    0.000    1.250    2.500    5.250    0.000    4.000 
#    2.250    0.000    0.000   18.750    0.000    0.000 
#    0.000    0.000    0.000    0.000    0.000    0.000 
#
# Total GULP energy -198252.175746 kJ/mol
# GULP energy per Si atom -12390.760984 kJ/mol
# Density = 2.352852 g / cm^3
# Si number density = 23.582190 Si / 1000 Ang^3
#
#
#
# Elastic Constant Matrix: (Units=GPa)
#
#
# Indices 1 2 3 4 5 6 
#
# 1 62.2861 12.9136 15.1974 -11.3190 14.1166 -13.5920
# 2 12.9136 66.4432 13.8952 -9.5438 3.2967 -19.3969
# 3 15.1974 13.8952 109.6829 -20.2762 23.7433 -20.3229
# 4 -11.3190 -9.5438 -20.2762 32.9729 -9.7304 1.6922
# 5 14.1166 3.2967 23.7433 -9.7304 44.1687 -1.9354
# 6 -13.5920 -19.3969 -20.3229 1.6922 -1.9354 36.4262
#
#
#
# Elastic Compliance Matrix: (Units=1/GPa)
#
#
# Indices 1 2 3 4 5 6 
#
# 1 0.019634 -0.001046 0.000686 0.004991 -0.005175 0.006646
# 2 -0.001046 0.018644 0.000404 0.004859 0.000214 0.009549
# 3 0.000686 0.000404 0.012538 0.006134 -0.005336 0.006898
# 4 0.004991 0.004859 0.006134 0.037891 0.003368 0.006291
# 5 -0.005175 0.000214 -0.005336 0.003368 0.027736 -0.003477
# 6 0.006646 0.009549 0.006898 0.006291 -0.003477 0.038389
#
#
# Mechanical properties :
#
#
# Convention : Reuss Voigt Hill
#
# Bulk Modulus (GPa) = 19.64409 35.82494 27.73451
# Shear Modulus (GPa) = 29.11850 35.80728 32.46289
#
# Velocity S-wave (km/s) = 3.51774 3.90090 3.71426
# Velocity P-wave (km/s) = 4.98472 5.95935 5.49369
#
# Compressibility (1/GPa) = 0.05090591
#
# Stress axis : x y z
#
# Youngs Moduli (GPa) = 50.93080 53.63613 79.75733
#
# Poissons Ratio (x) = 0.05609 -0.05474
# Poissons Ratio (y) = 0.05327 -0.03223
# Poissons Ratio (z) = -0.03496 -0.02168
#
# Static dielectric constant tensor:
#      x y z
#    x 4.489010 -0.228610 0.142800 
#    y -0.228610 4.009770 -0.186230 
#    z 0.142800 -0.186230 4.594500 
# 
# 
# High freq. dielectric constant tensor:
#      x y z
#    x 1.936030 -0.012180 0.013320 
#    y -0.012180 1.900440 -0.007530 
#    z 0.013320 -0.007530 1.944570 
# 
# From -- ./inp_files/532796.got.cif
#   From: 2010.06.25/outbox.cif.g09.slc.cpg/sg2_267_cif.got.tgz:532796.got - 2010.06.27 13:26:56.
