data_PCOD8003198
_publ_section_title
;
Structure prediction by ZEFSAII (Michael W. Deem and Ramdas Pophale) SiO2 
 PCOD8003198
Probable space group: P -1
;
_chemical_formula_sum "Si O2"
_cell_formula_units_Z 16
_cell_length_a 13.059603
_cell_length_b 23.418120
_cell_length_c 15.699639
_cell_angle_alpha 23.673377
_cell_angle_beta 145.843804
_cell_angle_gamma 158.329351
_cell_volume 702.829213
_symmetry_space_group_name_H-M "P -1"
_symmetry_group_IT_number 2
_symmetry_cell_setting 'triclinic'
loop_
_space_group_symop_operation_xyz
x,y,z
-x,-y,-z
loop_
_atom_site_type_symbol
_atom_site_label
_atom_site_fract_x
_atom_site_fract_y
_atom_site_fract_z
Si Si1 0.735902 0.562106 0.836754
Si Si2 0.363130 0.587704 0.850333
Si Si3 0.282837 0.091253 0.097514
Si Si4 0.749686 0.299786 0.994734
Si Si5 0.381466 0.595063 0.531444
Si Si6 0.156655 0.312354 0.923265
Si Si7 0.968494 0.346245 0.428190
Si Si8 0.561554 0.054005 0.871790
O O1 0.784717 0.596817 0.925586
O O2 0.460629 0.299410 0.995031
O O3 0.999574 0.638263 0.867873
O O4 0.678660 0.688201 0.587759
O O5 0.232838 0.477950 0.818618
O O6 0.298958 0.713087 0.654474
O O7 0.697681 0.749049 0.861864
O O8 0.480614 0.168884 0.046682
O O9 0.175005 0.892474 0.349193
O O10 0.000000 0.000000 0.000000
O O11 0.878258 0.519218 0.739215
O O12 0.677994 0.146805 0.079175
O O13 0.247672 0.406552 0.762721
O O14 0.200325 0.499463 0.452338
O O15 0.405098 0.757228 0.377111
O O16 0.824943 0.106445 0.966487
O O17 0.500000 0.000000 0.000000
#
# Coordination Sequence:
#
# PCOD8003198 Si02
#       8
#     2   2   2   2   2   2   2   2
#     4  10  23  47  65  97 139 172 229 292 328 397
#     4   9  20  37  63  93 134 170 216 282 330 388
#     4  12  26  45  76  98 129 182 238 281 340 399
#     4  11  26  44  69 102 140 178 225 282 341 398
#     4  11  21  39  70  97 134 177 221 276 334 406
#     4  10  20  36  63  95 131 177 222 269 330 406
#     4  11  22  45  66 102 133 175 225 282 336 401
#     4  12  22  38  64  99 138 177 215 269 344 412
#
# _framework density 22.765132999999999
#
# number of rings (size 3 to 8) (size 9 to 14) (size 15 to 20)
#    0.000    1.250    3.750    2.250    3.500    3.000 
#    2.250    0.000    0.000    0.000    0.000    0.000 
#    0.000    0.000    0.000    0.000    0.000    0.000 
#
# Total GULP energy -198214.008758 kJ/mol
# GULP energy per Si atom -12388.375547 kJ/mol
# Density = 2.271332 g / cm^3
# Si number density = 22.765133 Si / 1000 Ang^3
#
#
#
# Elastic Constant Matrix: (Units=GPa)
#
#
# Indices 1 2 3 4 5 6 
#
# 1 82.7459 21.6813 23.5995 3.8906 -3.0548 22.9909
# 2 21.6813 103.3532 43.8993 14.1714 5.4667 32.5872
# 3 23.5995 43.8993 94.5749 12.8483 10.5220 19.3555
# 4 3.8906 14.1714 12.8483 39.2861 4.8126 9.1679
# 5 -3.0548 5.4667 10.5220 4.8126 31.0357 8.7776
# 6 22.9909 32.5872 19.3555 9.1679 8.7776 43.3670
#
#
#
# Elastic Compliance Matrix: (Units=1/GPa)
#
#
# Indices 1 2 3 4 5 6 
#
# 1 0.015210 0.000218 -0.002855 0.000658 0.004593 -0.008022
# 2 0.000218 0.014738 -0.005030 -0.001843 0.001948 -0.008950
# 3 -0.002855 -0.005030 0.014320 -0.002137 -0.003963 0.000156
# 4 0.000658 -0.001843 -0.002137 0.027829 -0.002228 -0.003443
# 5 0.004593 0.001948 -0.003963 -0.002228 0.036582 -0.009064
# 6 -0.008022 -0.008950 0.000156 -0.003443 -0.009064 0.036530
#
#
# Mechanical properties :
#
#
# Convention : Reuss Voigt Hill
#
# Bulk Modulus (GPa) = 34.56204 51.00380 42.78292
# Shear Modulus (GPa) = 29.37930 35.50402 32.44166
#
# Velocity S-wave (km/s) = 3.59631 3.95343 3.77909
# Velocity P-wave (km/s) = 5.69732 6.57970 6.15435
#
# Compressibility (1/GPa) = 0.02893348
#
# Stress axis : x y z
#
# Youngs Moduli (GPa) = 65.74668 67.85264 69.83110
#
# Poissons Ratio (x) = -0.01480 0.19939
# Poissons Ratio (y) = -0.01435 0.35126
# Poissons Ratio (z) = 0.18773 0.34130
#
# Static dielectric constant tensor:
#      x y z
#    x 3.842580 0.314930 -0.291260 
#    y 0.314930 4.170130 0.635940 
#    z -0.291260 0.635940 3.470220 
# 
# 
# High freq. dielectric constant tensor:
#      x y z
#    x 1.904300 0.007560 0.012180 
#    y 0.007560 1.910080 0.029700 
#    z 0.012180 0.029700 1.876890 
# 
# From -- ./inp_files/515851.got.cif
#   From: 2010.06.25/outbox.cif.g09.slc.cpg/sg2_258_cif.got.tgz:515851.got - 2010.06.27 13:26:56.
