data_PCOD8003249
_publ_section_title
;
Structure prediction by ZEFSAII (Michael W. Deem and Ramdas Pophale) SiO2 
 PCOD8003249
Probable space group: P -1
;
_chemical_formula_sum "Si O2"
_cell_formula_units_Z 16
_cell_length_a 16.334615
_cell_length_b 12.061649
_cell_length_c 9.692261
_cell_angle_alpha 46.724927
_cell_angle_beta 136.005701
_cell_angle_gamma 142.814184
_cell_volume 772.416762
_symmetry_space_group_name_H-M "P -1"
_symmetry_group_IT_number 2
_symmetry_cell_setting 'triclinic'
loop_
_space_group_symop_operation_xyz
x,y,z
-x,-y,-z
loop_
_atom_site_type_symbol
_atom_site_label
_atom_site_fract_x
_atom_site_fract_y
_atom_site_fract_z
Si Si1 0.082435 0.265239 0.925318
Si Si2 0.669412 0.331780 0.134799
Si Si3 0.568959 0.718014 0.937322
Si Si4 0.895788 0.758721 0.711889
Si Si5 0.204099 0.032296 0.756522
Si Si6 0.656620 0.976508 0.331620
Si Si7 0.404907 0.581654 0.308597
Si Si8 0.217758 0.063886 0.221289
O O1 0.162098 0.484359 0.791654
O O2 0.102695 0.220267 0.141864
O O3 0.156009 0.182397 0.001011
O O4 0.910552 0.157994 0.776865
O O5 0.566472 0.277927 0.188425
O O6 0.669047 0.157270 0.241897
O O7 0.612076 0.402263 0.888084
O O8 0.639212 0.850572 0.773828
O O9 0.500000 0.500000 0.000000
O O10 0.693524 0.818221 0.125073
O O11 0.862758 0.888313 0.485317
O O12 0.751847 0.540758 0.695334
O O13 0.059620 0.825572 0.811362
O O14 0.294855 0.994419 0.795023
O O15 0.488614 0.789943 0.298378
O O16 0.746306 0.932173 0.577503
O O17 0.500000 0.500000 0.500000
#
# Coordination Sequence:
#
# PCOD8003249 Si02
#       8
#     2   2   2   2   2   2   2   2
#     4  10  20  41  62  95 123 167 215 256 316 375
#     4  11  24  41  65  92 130 168 210 258 326 380
#     4  12  24  40  64  96 126 164 213 266 314 371
#     4  10  20  36  64  95 122 160 213 269 297 366
#     4  11  22  39  64  97 126 157 216 263 312 369
#     4  12  24  41  65  94 131 169 206 262 326 380
#     4  11  20  39  66  95 121 162 215 261 304 368
#     4  11  23  39  66  90 129 168 210 265 312 373
#
# _framework density 20.714206000000001
#
# number of rings (size 3 to 8) (size 9 to 14) (size 15 to 20)
#    0.000    1.000    6.250    1.125    1.750    1.000 
#    0.000    3.750    0.000    0.000    0.000    0.000 
#    0.000    0.000    0.000    0.000    0.000    0.000 
#
# Total GULP energy -198214.564647 kJ/mol
# GULP energy per Si atom -12388.410290 kJ/mol
# Density = 2.066706 g / cm^3
# Si number density = 20.714206 Si / 1000 Ang^3
#
#
#
# Elastic Constant Matrix: (Units=GPa)
#
#
# Indices 1 2 3 4 5 6 
#
# 1 111.3516 83.0828 23.9709 -9.4097 -5.8739 8.5116
# 2 83.0828 208.5181 18.3774 1.5139 0.3569 28.3698
# 3 23.9709 18.3774 27.9272 4.3982 -13.2648 11.8497
# 4 -9.4097 1.5139 4.3982 27.7107 -3.0421 1.4562
# 5 -5.8739 0.3569 -13.2648 -3.0421 20.8954 -2.7196
# 6 8.5116 28.3698 11.8497 1.4562 -2.7196 36.4836
#
#
#
# Elastic Compliance Matrix: (Units=1/GPa)
#
#
# Indices 1 2 3 4 5 6 
#
# 1 0.017066 -0.006208 -0.015577 0.007982 -0.003126 0.005354
# 2 -0.006208 0.007834 0.002089 -0.002768 -0.001650 -0.005334
# 3 -0.015577 0.002089 0.077129 -0.012202 0.040227 -0.019556
# 4 0.007982 -0.002768 -0.012202 0.040837 0.000840 0.002686
# 5 -0.003126 -0.001650 0.040227 0.000840 0.071921 -0.005726
# 6 0.005354 -0.005334 -0.019556 0.002686 -0.005726 0.036126
#
#
# Mechanical properties :
#
#
# Convention : Reuss Voigt Hill
#
# Bulk Modulus (GPa) = 15.96472 66.51766 41.24119
# Shear Modulus (GPa) = 16.06767 31.84234 23.95500
#
# Velocity S-wave (km/s) = 2.78813 3.92500 3.40436
# Velocity P-wave (km/s) = 4.25309 7.26103 5.95027
#
# Compressibility (1/GPa) = 0.06263812
#
# Stress axis : x y z
#
# Youngs Moduli (GPa) = 58.59503 127.65057 12.96525
#
# Poissons Ratio (x) = 0.79247 0.20196
# Poissons Ratio (y) = 0.36376 -0.02709
# Poissons Ratio (z) = 0.91273 -0.26670
#
# Static dielectric constant tensor:
#      x y z
#    x 3.904110 0.530860 -0.275390 
#    y 0.530860 4.430350 0.201080 
#    z -0.275390 0.201080 3.520310 
# 
# 
# High freq. dielectric constant tensor:
#      x y z
#    x 1.794370 0.024440 -0.018280 
#    y 0.024440 1.834190 0.013840 
#    z -0.018280 0.013840 1.786830 
# 
# From -- ./inp_files/272233.got.cif
#   From: 2010.06.25/outbox.cif.g09.slc.cpg/sg2_137_cif.got.tgz:272233.got - 2010.06.27 13:26:56.
