data_PCOD8003561
_publ_section_title
;
Structure prediction by ZEFSAII (Michael W. Deem and Ramdas Pophale) SiO2 
 PCOD8003561
Probable space group: P -1
;
_chemical_formula_sum "Si O2"
_cell_formula_units_Z 16
_cell_length_a 7.592755
_cell_length_b 18.331286
_cell_length_c 7.784285
_cell_angle_alpha 54.855714
_cell_angle_beta 57.610817
_cell_angle_gamma 86.310187
_cell_volume 699.855264
_symmetry_space_group_name_H-M "P -1"
_symmetry_group_IT_number 2
_symmetry_cell_setting 'triclinic'
loop_
_space_group_symop_operation_xyz
x,y,z
-x,-y,-z
loop_
_atom_site_type_symbol
_atom_site_label
_atom_site_fract_x
_atom_site_fract_y
_atom_site_fract_z
Si Si1 0.352483 0.016017 0.860243
Si Si2 0.210199 0.214594 0.197468
Si Si3 0.035613 0.614260 0.535131
Si Si4 0.248048 0.413661 0.956958
Si Si5 0.258652 0.471035 0.509122
Si Si6 0.054447 0.015338 0.697545
Si Si7 0.206726 0.865935 0.678533
Si Si8 0.347365 0.819497 0.044270
O O1 0.583006 0.105166 0.600271
O O2 0.198101 0.999413 0.799040
O O3 0.211814 0.035467 0.065352
O O4 0.385135 0.914344 0.008634
O O5 0.015165 0.216375 0.162686
O O6 0.108050 0.127311 0.498954
O O7 0.280041 0.314657 0.126981
O O8 0.429814 0.204832 0.013922
O O9 0.852531 0.589471 0.516057
O O10 0.214734 0.568806 0.438591
O O11 0.147299 0.728267 0.345252
O O12 0.920295 0.568654 0.838891
O O13 0.163862 0.404618 0.815603
O O14 0.480921 0.502429 0.707374
O O15 0.130281 0.959677 0.583318
O O16 0.291164 0.836995 0.852214
#
# Coordination Sequence:
#
# PCOD8003561 Si02
#       8
#     2   2   2   2   2   2   2   2
#     4  10  20  37  60  84 119 165 207 259 306 365
#     4  12  22  38  62  87 124 164 205 259 313 366
#     4  11  22  42  68  91 124 168 201 255 328 374
#     4  11  23  42  64  96 127 157 209 263 309 381
#     4  10  23  42  68  93 123 160 206 257 319 385
#     4  10  20  37  59  85 116 164 213 251 309 370
#     4  11  22  39  58  84 125 165 206 261 306 359
#     4  11  21  40  61  86 126 162 206 259 313 366
#
# _framework density 22.86187
#
# number of rings (size 3 to 8) (size 9 to 14) (size 15 to 20)
#    0.000    1.250    3.750    3.375    0.000    0.500 
#    2.250    0.000    0.000    0.000    0.000    0.000 
#    0.000    0.000    0.000    0.000    0.000    0.000 
#
# Total GULP energy -198247.669509 kJ/mol
# GULP energy per Si atom -12390.479344 kJ/mol
# Density = 2.280983 g / cm^3
# Si number density = 22.861870 Si / 1000 Ang^3
#
#
#
# Elastic Constant Matrix: (Units=GPa)
#
#
# Indices 1 2 3 4 5 6 
#
# 1 67.8303 5.2523 33.1396 2.3581 -16.0074 0.5294
# 2 5.2523 28.0923 19.4398 1.5150 -6.6581 -5.1153
# 3 33.1396 19.4398 138.8319 14.3921 -7.1125 4.2729
# 4 2.3581 1.5150 14.3921 35.2079 -7.7692 3.2191
# 5 -16.0074 -6.6581 -7.1125 -7.7692 32.4607 1.1988
# 6 0.5294 -5.1153 4.2729 3.2191 1.1988 19.0621
#
#
#
# Elastic Compliance Matrix: (Units=1/GPa)
#
#
# Indices 1 2 3 4 5 6 
#
# 1 0.018940 0.001651 -0.004540 0.002577 0.009304 -0.000085
# 2 0.001651 0.044068 -0.006672 0.001399 0.008264 0.012519
# 3 -0.004540 -0.006672 0.009567 -0.003534 -0.002243 -0.003071
# 4 0.002577 0.001399 -0.003534 0.031957 0.008611 -0.004842
# 5 0.009304 0.008264 -0.002243 0.008611 0.038712 -0.001427
# 6 -0.000085 0.012519 -0.003071 -0.004842 -0.001427 0.057418
#
#
# Mechanical properties :
#
#
# Convention : Reuss Voigt Hill
#
# Bulk Modulus (GPa) = 18.70802 38.93532 28.82167
# Shear Modulus (GPa) = 21.04379 29.14100 25.09240
#
# Velocity S-wave (km/s) = 3.03723 3.57410 3.31655
# Velocity P-wave (km/s) = 4.52775 5.83952 5.22496
#
# Compressibility (1/GPa) = 0.05345300
#
# Stress axis : x y z
#
# Youngs Moduli (GPa) = 52.79948 22.69229 104.52826
#
# Poissons Ratio (x) = -0.03747 0.47456
# Poissons Ratio (y) = -0.08718 0.69738
# Poissons Ratio (z) = 0.23971 0.15140
#
# Static dielectric constant tensor:
#      x y z
#    x 4.283610 -0.150490 -0.080160 
#    y -0.150490 3.970350 0.107280 
#    z -0.080160 0.107280 4.139780 
# 
# 
# High freq. dielectric constant tensor:
#      x y z
#    x 1.912170 -0.007860 -0.007570 
#    y -0.007860 1.881000 0.001110 
#    z -0.007570 0.001110 1.908220 
# 
# From -- ./inp_files/214704.got.cif
#   From: 2010.06.25/outbox.cif.g09.slc.cpg/sg2_108_cif.got.tgz:214704.got - 2010.06.27 13:26:56.
