data_PCOD8003988
_publ_section_title
;
Structure prediction by ZEFSAII (Michael W. Deem and Ramdas Pophale) SiO2 
 PCOD8003988
Probable space group: P -1
;
_chemical_formula_sum "Si O2"
_cell_formula_units_Z 16
_cell_length_a 11.985177
_cell_length_b 9.126097
_cell_length_c 11.193710
_cell_angle_alpha 142.655927
_cell_angle_beta 96.016711
_cell_angle_gamma 85.393817
_cell_volume 738.586948
_symmetry_space_group_name_H-M "P -1"
_symmetry_group_IT_number 2
_symmetry_cell_setting 'triclinic'
loop_
_space_group_symop_operation_xyz
x,y,z
-x,-y,-z
loop_
_atom_site_type_symbol
_atom_site_label
_atom_site_fract_x
_atom_site_fract_y
_atom_site_fract_z
Si Si1 0.134477 0.113943 0.497427
Si Si2 0.698570 0.483312 0.296692
Si Si3 0.367071 0.017825 0.006294
Si Si4 0.626498 0.492527 0.554633
Si Si5 0.961509 0.767504 0.196382
Si Si6 0.541434 0.696950 0.227498
Si Si7 0.323546 0.741690 0.348386
Si Si8 0.711987 0.786005 0.109121
O O1 0.221431 0.921158 0.435453
O O2 0.057123 0.965958 0.296862
O O3 0.192265 0.356181 0.611388
O O4 0.050080 0.218518 0.653553
O O5 0.696177 0.201438 0.072727
O O6 0.696775 0.455802 0.420283
O O7 0.589438 0.587095 0.284793
O O8 0.330340 0.022254 0.866778
O O9 0.500000 0.000000 0.000000
O O10 0.331528 0.253245 0.224826
O O11 0.500000 0.500000 0.500000
O O12 0.652325 0.292354 0.529181
O O13 0.843416 0.834300 0.168798
O O14 0.000000 0.500000 0.000000
O O15 0.433661 0.852833 0.363007
O O16 0.642886 0.837241 0.260206
O O17 0.500000 0.500000 0.000000
O O18 0.303443 0.486394 0.115419
#
# Coordination Sequence:
#
# PCOD8003988 Si02
#       8
#     2   2   2   2   2   2   2   2
#     4  11  26  41  69 102 122 172 230 279 331 382
#     4  12  24  41  61  97 137 175 211 268 329 393
#     4  11  23  40  64  93 139 180 213 257 328 406
#     4  11  22  39  62  94 136 178 214 250 324 405
#     4  11  23  46  71  94 127 169 229 286 330 375
#     4  10  20  37  63 100 137 166 217 268 331 399
#     4  10  21  41  64 102 136 169 219 270 330 405
#     4  10  21  41  70  97 129 183 217 272 335 382
#
# _framework density 21.662987999999999
#
# number of rings (size 3 to 8) (size 9 to 14) (size 15 to 20)
#    0.000    1.250    5.000    1.500    1.750    4.500 
#    2.250    0.625    0.000    2.250    0.000    0.000 
#    0.000    0.000    0.000    0.000    0.000    0.000 
#
# Total GULP energy -198220.733985 kJ/mol
# GULP energy per Si atom -12388.795874 kJ/mol
# Density = 2.161368 g / cm^3
# Si number density = 21.662988 Si / 1000 Ang^3
#
#
#
# Elastic Constant Matrix: (Units=GPa)
#
#
# Indices 1 2 3 4 5 6 
#
# 1 136.4117 57.5592 47.5383 7.3433 22.1376 -2.8452
# 2 57.5592 115.5148 43.4743 4.0294 12.7590 0.3065
# 3 47.5383 43.4743 68.4081 -1.2467 11.2603 12.0530
# 4 7.3433 4.0294 -1.2467 41.3767 6.2366 9.6742
# 5 22.1376 12.7590 11.2603 6.2366 47.5001 2.9744
# 6 -2.8452 0.3065 12.0530 9.6742 2.9744 30.4398
#
#
#
# Elastic Compliance Matrix: (Units=1/GPa)
#
#
# Indices 1 2 3 4 5 6 
#
# 1 0.011589 -0.002859 -0.006651 -0.002667 -0.003012 0.004888
# 2 -0.002859 0.012603 -0.006437 -0.001462 -0.000502 0.002668
# 3 -0.006651 -0.006437 0.025840 0.005693 -0.001263 -0.012474
# 4 -0.002667 -0.001462 0.005693 0.027959 -0.002689 -0.011112
# 5 -0.003012 -0.000502 -0.001263 -0.002689 0.023319 -0.001200
# 6 0.004888 0.002668 -0.012474 -0.011112 -0.001200 0.041870
#
#
# Mechanical properties :
#
#
# Convention : Reuss Voigt Hill
#
# Bulk Modulus (GPa) = 55.12773 68.60867 61.86820
# Shear Modulus (GPa) = 27.60597 35.31417 31.46007
#
# Velocity S-wave (km/s) = 3.57366 4.04191 3.81497
# Velocity P-wave (km/s) = 6.52159 7.31590 6.93013
#
# Compressibility (1/GPa) = 0.01813969
#
# Stress axis : x y z
#
# Youngs Moduli (GPa) = 86.28754 79.34332 38.69934
#
# Poissons Ratio (x) = 0.22684 0.25737
# Poissons Ratio (y) = 0.24669 0.24911
# Poissons Ratio (z) = 0.57386 0.51074
#
# Static dielectric constant tensor:
#      x y z
#    x 3.973260 -0.028250 0.344020 
#    y -0.028250 3.567670 -0.070580 
#    z 0.344020 -0.070580 4.744330 
# 
# 
# High freq. dielectric constant tensor:
#      x y z
#    x 1.836100 0.001990 0.016650 
#    y 0.001990 1.834390 0.002770 
#    z 0.016650 0.002770 1.891440 
# 
# From -- ./inp_files/418646.got.cif
#   From: 2010.06.25/outbox.cif.g09.slc.cpg/sg2_210_cif.got.tgz:418646.got - 2010.06.27 13:26:56.
