data_PCOD8003479
_publ_section_title
;
Structure prediction by ZEFSAII (Michael W. Deem and Ramdas Pophale) SiO2 
 PCOD8003479
Probable space group: P -1
;
_chemical_formula_sum "Si O2"
_cell_formula_units_Z 14
_cell_length_a 10.373982
_cell_length_b 9.585810
_cell_length_c 17.572777
_cell_angle_alpha 114.605343
_cell_angle_beta 124.811578
_cell_angle_gamma 28.522634
_cell_volume 668.717320
_symmetry_space_group_name_H-M "P -1"
_symmetry_group_IT_number 2
_symmetry_cell_setting 'triclinic'
loop_
_space_group_symop_operation_xyz
x,y,z
-x,-y,-z
loop_
_atom_site_type_symbol
_atom_site_label
_atom_site_fract_x
_atom_site_fract_y
_atom_site_fract_z
Si Si1 0.720537 0.347818 0.970150
Si Si2 0.213406 0.899311 0.758100
Si Si3 0.675818 0.277533 0.772709
Si Si4 0.573062 0.818383 0.375392
Si Si5 0.321265 0.297776 0.036560
Si Si6 0.202575 0.386667 0.433181
Si Si7 0.147050 0.758238 0.437309
O O1 0.602369 0.394119 0.859549
O O2 0.757021 0.503556 0.008365
O O3 0.500000 0.500000 0.000000
O O4 0.000000 0.000000 0.000000
O O5 0.388004 0.606614 0.711520
O O6 0.473979 0.805211 0.848036
O O7 0.007109 0.043775 0.797404
O O8 0.981032 0.141172 0.668506
O O9 0.644465 0.121508 0.724631
O O10 0.587912 0.758953 0.455577
O O11 0.908335 0.530843 0.387059
O O12 0.409474 0.121344 0.381285
O O13 0.000000 0.500000 0.000000
O O14 0.500000 0.000000 0.000000
O O15 0.078861 0.646434 0.417688
O O16 0.500000 0.500000 0.500000
O O17 0.000000 0.000000 0.500000
#
# Coordination Sequence:
#
# PCOD8003479 Si02
#       7
#     2   2   2   2   2   2   2
#     4  11  23  43  67  98 130 164 226 280 329 407
#     4  11  23  41  66  95 128 169 227 259 315 416
#     4  11  22  41  67  91 124 171 215 262 329 389
#     4  10  20  37  58  83 124 162 206 249 321 367
#     4  11  23  44  69  96 132 181 214 275 350 401
#     4  10  21  36  56  87 123 161 204 261 302 378
#     4  12  24  40  63  92 131 171 217 267 320 369
#
# _framework density 20.935603
#
# number of rings (size 3 to 8) (size 9 to 14) (size 15 to 20)
#    0.000    1.143    0.000    8.571    0.000    2.286 
#    7.714    0.000    0.000    0.000    0.000    0.000 
#    0.000    0.000    0.000    0.000    0.000    0.000 
#
# Total GULP energy -173454.300627 kJ/mol
# GULP energy per Si atom -12389.592902 kJ/mol
# Density = 2.088795 g / cm^3
# Si number density = 20.935603 Si / 1000 Ang^3
#
#
#
# Elastic Constant Matrix: (Units=GPa)
#
#
# Indices 1 2 3 4 5 6 
#
# 1 123.1554 57.6998 48.9098 1.9568 10.6726 1.5094
# 2 57.6998 165.6420 36.5371 5.1176 8.7070 1.1920
# 3 48.9098 36.5371 94.0115 0.4704 14.7438 -5.6557
# 4 1.9568 5.1176 0.4704 35.9855 0.6390 2.6693
# 5 10.6726 8.7070 14.7438 0.6390 28.1924 -1.5083
# 6 1.5094 1.1920 -5.6557 2.6693 -1.5083 54.5163
#
#
#
# Elastic Compliance Matrix: (Units=1/GPa)
#
#
# Indices 1 2 3 4 5 6 
#
# 1 0.011444 -0.002884 -0.004720 -0.000076 -0.001013 -0.000768
# 2 -0.002884 0.007382 -0.001297 -0.000853 -0.000500 -0.000188
# 3 -0.004720 -0.001297 0.014522 0.000234 -0.005332 0.001507
# 4 -0.000076 -0.000853 0.000234 0.028020 -0.000537 -0.001342
# 5 -0.001013 -0.000500 -0.005332 -0.000537 0.038840 0.000587
# 6 -0.000768 -0.000188 0.001507 -0.001342 0.000587 0.018607
#
#
# Mechanical properties :
#
#
# Convention : Reuss Voigt Hill
#
# Bulk Modulus (GPa) = 64.32503 74.34470 69.33486
# Shear Modulus (GPa) = 35.26101 39.71633 37.48867
#
# Velocity S-wave (km/s) = 4.10843 4.36026 4.23622
# Velocity P-wave (km/s) = 7.30051 7.80624 7.55761
#
# Compressibility (1/GPa) = 0.01554605
#
# Stress axis : x y z
#
# Youngs Moduli (GPa) = 87.38304 135.46640 68.85981
#
# Poissons Ratio (x) = 0.39071 0.32500
# Poissons Ratio (y) = 0.25203 0.08931
# Poissons Ratio (z) = 0.41243 0.17570
#
# Static dielectric constant tensor:
#      x y z
#    x 4.053590 0.510690 -0.088470 
#    y 0.510690 4.908530 -0.282950 
#    z -0.088470 -0.282950 3.789970 
# 
# 
# High freq. dielectric constant tensor:
#      x y z
#    x 1.813810 0.001820 0.007290 
#    y 0.001820 1.855580 0.000990 
#    z 0.007290 0.000990 1.807300 
# 
# From -- ./inp_files/217396.got.cif
#   From: 2010.06.25/outbox.cif.g09.slc.cpg/sg2_109_cif.got.tgz:217396.got - 2010.06.27 13:26:56.
