data_PCOD8003257
_publ_section_title
;
Structure prediction by ZEFSAII (Michael W. Deem and Ramdas Pophale) SiO2 
 PCOD8003257
Probable space group: P -1
;
_chemical_formula_sum "Si O2"
_cell_formula_units_Z 16
_cell_length_a 8.004019
_cell_length_b 12.073716
_cell_length_c 16.808420
_cell_angle_alpha 107.887060
_cell_angle_beta 146.524917
_cell_angle_gamma 58.112735
_cell_volume 729.180716
_symmetry_space_group_name_H-M "P -1"
_symmetry_group_IT_number 2
_symmetry_cell_setting 'triclinic'
loop_
_space_group_symop_operation_xyz
x,y,z
-x,-y,-z
loop_
_atom_site_type_symbol
_atom_site_label
_atom_site_fract_x
_atom_site_fract_y
_atom_site_fract_z
Si Si1 0.803751 0.810531 0.015365
Si Si2 0.531072 0.948617 0.709588
Si Si3 0.325816 0.565201 0.528783
Si Si4 0.277566 0.906986 0.965926
Si Si5 0.260586 0.115495 0.491365
Si Si6 0.492864 0.268351 0.256456
Si Si7 0.404994 0.705486 0.354317
Si Si8 0.844376 0.799739 0.284841
O O1 0.438537 0.870976 0.933204
O O2 0.805615 0.718201 0.921391
O O3 0.146135 0.712966 0.183194
O O4 0.826531 0.938408 0.020179
O O5 0.495370 0.819731 0.682715
O O6 0.928126 0.899810 0.829918
O O7 0.264357 0.038942 0.555254
O O8 0.387488 0.041753 0.751017
O O9 0.500000 0.500000 0.500000
O O10 0.564906 0.598371 0.690172
O O11 0.292913 0.451478 0.540149
O O12 0.954535 0.701603 0.385718
O O13 0.564995 0.789769 0.113901
O O14 0.404167 0.216902 0.582062
O O15 0.845017 0.205343 0.327300
O O16 0.500000 0.000000 0.500000
O O17 0.182724 0.772912 0.361842
#
# Coordination Sequence:
#
# PCOD8003257 Si02
#       8
#     2   2   2   2   2   2   2   2
#     4  10  21  40  62  95 132 163 209 264 321 385
#     4  12  22  36  63  99 130 160 208 269 324 378
#     4  10  24  44  65  87 124 179 217 261 312 373
#     4  10  20  36  64  97 132 167 196 261 337 380
#     4  12  25  38  64 101 130 165 205 271 328 378
#     4  12  25  39  63  98 130 163 217 268 314 377
#     4  10  23  44  67  85 131 177 211 252 319 382
#     4  10  20  39  64  94 123 164 214 255 310 383
#
# _framework density 21.942435
#
# number of rings (size 3 to 8) (size 9 to 14) (size 15 to 20)
#    0.000    1.250    3.750    2.250    5.250    1.000 
#    0.000    0.000    2.750    2.250    0.000    0.000 
#    0.000    0.000    0.000    0.000    0.000    0.000 
#
# Total GULP energy -198225.563904 kJ/mol
# GULP energy per Si atom -12389.097744 kJ/mol
# Density = 2.189249 g / cm^3
# Si number density = 21.942435 Si / 1000 Ang^3
#
#
#
# Elastic Constant Matrix: (Units=GPa)
#
#
# Indices 1 2 3 4 5 6 
#
# 1 67.9296 26.3123 19.3222 7.6777 -0.7031 8.4556
# 2 26.3123 81.5529 23.1311 10.0399 -14.3850 8.4082
# 3 19.3222 23.1311 81.6544 2.7393 -11.9951 10.4507
# 4 7.6777 10.0399 2.7393 35.4199 0.2246 -9.9524
# 5 -0.7031 -14.3850 -11.9951 0.2246 41.3367 -0.4207
# 6 8.4556 8.4082 10.4507 -9.9524 -0.4207 24.4248
#
#
#
# Elastic Compliance Matrix: (Units=1/GPa)
#
#
# Indices 1 2 3 4 5 6 
#
# 1 0.018277 -0.004493 -0.002530 -0.003985 -0.002020 -0.005357
# 2 -0.004493 0.016300 -0.001997 -0.004968 0.004991 -0.005140
# 3 -0.002530 -0.001997 0.014645 -0.001519 0.003466 -0.005262
# 4 -0.003985 -0.004968 -0.001519 0.035772 -0.002246 0.018277
# 5 -0.002020 0.004991 0.003466 -0.002246 0.026882 -0.002954
# 6 -0.005357 -0.005140 -0.005262 0.018277 -0.002954 0.054214
#
#
# Mechanical properties :
#
#
# Convention : Reuss Voigt Hill
#
# Bulk Modulus (GPa) = 32.06824 40.96310 36.51567
# Shear Modulus (GPa) = 25.70406 31.06104 28.38255
#
# Velocity S-wave (km/s) = 3.42633 3.76649 3.60043
# Velocity P-wave (km/s) = 5.50449 6.13386 5.82768
#
# Compressibility (1/GPa) = 0.03118350
#
# Stress axis : x y z
#
# Youngs Moduli (GPa) = 54.71281 61.35082 68.28464
#
# Poissons Ratio (x) = 0.27564 0.17274
# Poissons Ratio (y) = 0.24581 0.13633
# Poissons Ratio (z) = 0.13840 0.12249
#
# Static dielectric constant tensor:
#      x y z
#    x 3.176160 0.445920 0.060930 
#    y 0.445920 3.824750 -0.328440 
#    z 0.060930 -0.328440 3.950160 
# 
# 
# High freq. dielectric constant tensor:
#      x y z
#    x 1.867670 0.003580 -0.016320 
#    y 0.003580 1.838440 0.000230 
#    z -0.016320 0.000230 1.862510 
# 
# From -- ./inp_files/559160.got.cif
#   From: 2010.06.25/outbox.cif.g09.slc.cpg/sg2_280_cif.got.tgz:559160.got - 2010.06.27 13:26:56.
