data_PCOD8003712
_publ_section_title
;
Structure prediction by ZEFSAII (Michael W. Deem and Ramdas Pophale) SiO2 
 PCOD8003712
Probable space group: P -1
;
_chemical_formula_sum "Si O2"
_cell_formula_units_Z 16
_cell_length_a 10.812371
_cell_length_b 16.607048
_cell_length_c 9.631786
_cell_angle_alpha 117.156080
_cell_angle_beta 108.413465
_cell_angle_gamma 29.892801
_cell_volume 754.402728
_symmetry_space_group_name_H-M "P -1"
_symmetry_group_IT_number 2
_symmetry_cell_setting 'triclinic'
loop_
_space_group_symop_operation_xyz
x,y,z
-x,-y,-z
loop_
_atom_site_type_symbol
_atom_site_label
_atom_site_fract_x
_atom_site_fract_y
_atom_site_fract_z
Si Si1 0.669972 0.712726 0.180087
Si Si2 0.775520 0.583310 0.821055
Si Si3 0.885275 0.246779 0.346971
Si Si4 0.992562 0.864549 0.290215
Si Si5 0.219199 0.917459 0.343160
Si Si6 0.514753 0.081411 0.160733
Si Si7 0.625662 0.939436 0.647428
Si Si8 0.631628 0.470762 0.692502
O O1 0.510976 0.753988 0.273385
O O2 0.928196 0.592126 0.248769
O O3 0.515580 0.889779 0.203782
O O4 0.733159 0.611187 0.993413
O O5 0.649452 0.740761 0.820076
O O6 0.661032 0.555487 0.713321
O O7 0.721254 0.348793 0.509143
O O8 0.665541 0.370497 0.248319
O O9 0.073323 0.220469 0.377275
O O10 0.048257 0.057718 0.266177
O O11 0.163460 0.845857 0.286451
O O12 0.180644 0.667119 0.223605
O O13 0.830364 0.991657 0.467053
O O14 0.802525 0.945250 0.165856
O O15 0.416842 0.119473 0.312213
O O16 0.500000 0.000000 0.000000
O O17 0.500000 0.000000 0.500000
#
# Coordination Sequence:
#
# PCOD8003712 Si02
#       8
#     2   2   2   2   2   2   2   2
#     4  10  21  39  60  88 120 164 204 250 307 368
#     4  11  23  38  59  86 127 163 202 251 308 370
#     4   9  19  36  61  89 119 154 207 252 300 363
#     4  10  21  38  65  88 124 161 205 258 313 362
#     4   9  19  40  63  91 116 158 209 258 304 366
#     4  12  24  40  59  92 124 162 207 255 305 375
#     4  11  21  41  66  90 121 164 209 253 307 364
#     4  10  20  37  60  90 123 162 198 254 312 360
#
# _framework density 21.208832999999998
#
# number of rings (size 3 to 8) (size 9 to 14) (size 15 to 20)
#    0.000    1.750    1.250    4.500    1.750    2.000 
#    2.250    6.875    0.000    0.000    0.000    0.000 
#    0.000    0.000    0.000    0.000    0.000    0.000 
#
# Total GULP energy -198329.480406 kJ/mol
# GULP energy per Si atom -12395.592525 kJ/mol
# Density = 2.116056 g / cm^3
# Si number density = 21.208833 Si / 1000 Ang^3
#
#
#
# Elastic Constant Matrix: (Units=GPa)
#
#
# Indices 1 2 3 4 5 6 
#
# 1 153.2824 71.8729 34.7771 0.7463 -1.0951 -13.2053
# 2 71.8729 131.6934 21.1809 -1.3454 7.8721 -22.3680
# 3 34.7771 21.1809 47.4359 -1.9296 0.5530 -8.5806
# 4 0.7463 -1.3454 -1.9296 24.7426 -1.5260 1.0344
# 5 -1.0951 7.8721 0.5530 -1.5260 30.0183 2.5558
# 6 -13.2053 -22.3680 -8.5806 1.0344 2.5558 51.5046
#
#
#
# Elastic Compliance Matrix: (Units=1/GPa)
#
#
# Indices 1 2 3 4 5 6 
#
# 1 0.009933 -0.004760 -0.005296 -0.000847 0.001705 -0.000470
# 2 -0.004760 0.011140 -0.000772 0.000328 -0.003375 0.003650
# 3 -0.005296 -0.000772 0.025868 0.001990 -0.000588 0.002606
# 4 -0.000847 0.000328 0.001990 0.040764 0.001975 -0.000660
# 5 0.001705 -0.003375 -0.000588 0.001975 0.034617 -0.002884
# 6 -0.000470 0.003650 0.002606 -0.000660 -0.002884 0.021471
#
#
# Mechanical properties :
#
#
# Convention : Reuss Voigt Hill
#
# Bulk Modulus (GPa) = 39.54869 65.34149 52.44509
# Shear Modulus (GPa) = 28.75583 34.89181 31.82382
#
# Velocity S-wave (km/s) = 3.68617 4.06045 3.87783
# Velocity P-wave (km/s) = 6.06670 7.27039 6.69565
#
# Compressibility (1/GPa) = 0.02528529
#
# Stress axis : x y z
#
# Youngs Moduli (GPa) = 100.67282 89.76467 38.65794
#
# Poissons Ratio (x) = 0.42725 0.20475
# Poissons Ratio (y) = 0.47917 0.02984
# Poissons Ratio (z) = 0.53321 0.06928
#
# Static dielectric constant tensor:
#      x y z
#    x 3.823740 -0.168560 0.006590 
#    y -0.168560 4.138210 0.011430 
#    z 0.006590 0.011430 3.544120 
# 
# 
# High freq. dielectric constant tensor:
#      x y z
#    x 1.838210 -0.012120 0.008100 
#    y -0.012120 1.838790 0.004590 
#    z 0.008100 0.004590 1.799610 
# 
# From -- ./inp_files/278293.got.cif
#   From: 2010.06.25/outbox.cif.g09.slc.cpg/sg2_140_cif.got.tgz:278293.got - 2010.06.27 13:26:56.
