data_PCOD8003379
_publ_section_title
;
Structure prediction by ZEFSAII (Michael W. Deem and Ramdas Pophale) SiO2 
 PCOD8003379
Probable space group: P -1
;
_chemical_formula_sum "Si O2"
_cell_formula_units_Z 16
_cell_length_a 10.836934
_cell_length_b 15.932468
_cell_length_c 6.757616
_cell_angle_alpha 79.262120
_cell_angle_beta 133.043869
_cell_angle_gamma 95.487506
_cell_volume 836.967789
_symmetry_space_group_name_H-M "P -1"
_symmetry_group_IT_number 2
_symmetry_cell_setting 'triclinic'
loop_
_space_group_symop_operation_xyz
x,y,z
-x,-y,-z
loop_
_atom_site_type_symbol
_atom_site_label
_atom_site_fract_x
_atom_site_fract_y
_atom_site_fract_z
Si Si1 0.433231 0.812963 0.634683
Si Si2 0.700802 0.431130 0.066963
Si Si3 0.126763 0.692813 0.408412
Si Si4 0.328794 0.419893 0.755672
Si Si5 0.781722 0.750861 0.157960
Si Si6 0.165947 0.547374 0.214881
Si Si7 0.363732 0.093775 0.883234
Si Si8 0.547970 0.055219 0.716104
O O1 0.279454 0.755588 0.542744
O O2 0.385295 0.859330 0.351298
O O3 0.613165 0.757912 0.830636
O O4 0.464064 0.877416 0.826011
O O5 0.850248 0.372121 0.353476
O O6 0.708082 0.529726 0.101676
O O7 0.525372 0.392100 0.959706
O O8 0.721167 0.429165 0.857127
O O9 0.117583 0.637249 0.224985
O O10 0.951164 0.747958 0.214484
O O11 0.223587 0.334746 0.677268
O O12 0.281378 0.484187 0.500147
O O13 0.784733 0.833819 0.270896
O O14 0.000000 0.500000 0.000000
O O15 0.394084 0.082588 0.686453
O O16 0.319292 0.002550 0.978165
O O17 0.500000 0.000000 0.500000
#
# Coordination Sequence:
#
# PCOD8003379 Si02
#       8
#     2   2   2   2   2   2   2   2
#     4   9  20  36  58  84 112 149 187 233 284 331
#     4  10  20  38  56  76 109 155 193 236 288 335
#     4  11  22  39  57  82 121 150 192 242 286 329
#     4  10  20  37  57  78 110 149 195 240 282 334
#     4  10  20  37  55  85 115 144 189 239 282 335
#     4  11  23  37  54  83 112 158 197 237 289 341
#     4   8  18  35  61  87 111 148 189 224 284 340
#     4   9  16  36  64  85 114 151 181 225 284 346
#
# _framework density 19.116624000000002
#
# number of rings (size 3 to 8) (size 9 to 14) (size 15 to 20)
#    0.750    1.500    1.250    1.875    0.000    4.000 
#    9.000    0.625    0.000    3.750    0.000    0.000 
#    0.000    0.000    0.000    0.000    0.000    0.000 
#
# Total GULP energy -198227.194281 kJ/mol
# GULP energy per Si atom -12389.199643 kJ/mol
# Density = 1.907311 g / cm^3
# Si number density = 19.116624 Si / 1000 Ang^3
#
#
#
# Elastic Constant Matrix: (Units=GPa)
#
#
# Indices 1 2 3 4 5 6 
#
# 1 114.3031 63.8679 52.2932 -11.4929 -6.4419 -20.9816
# 2 63.8679 84.8227 31.4392 -12.3037 -3.4005 -17.8121
# 3 52.2932 31.4392 54.2624 4.3986 -10.4634 -10.6270
# 4 -11.4929 -12.3037 4.3986 21.4210 -0.9554 -1.0435
# 5 -6.4419 -3.4005 -10.4634 -0.9554 40.0401 3.9345
# 6 -20.9816 -17.8121 -10.6270 -1.0435 3.9345 31.0609
#
#
#
# Elastic Compliance Matrix: (Units=1/GPa)
#
#
# Indices 1 2 3 4 5 6 
#
# 1 0.024112 -0.008350 -0.018633 0.012160 -0.001977 0.005783
# 2 -0.008350 0.022481 -0.004774 0.009663 -0.001048 0.006076
# 3 -0.018633 -0.004774 0.041741 -0.021117 0.007263 -0.002673
# 4 0.012160 0.009663 -0.021117 0.063435 -0.002105 0.008928
# 5 -0.001977 -0.001048 0.007263 -0.002105 0.026701 -0.002905
# 6 0.005783 0.006076 -0.002673 0.008928 -0.002905 0.039339
#
#
# Mechanical properties :
#
#
# Convention : Reuss Voigt Hill
#
# Bulk Modulus (GPa) = 40.29088 60.95429 50.62259
# Shear Modulus (GPa) = 17.26543 25.55691 21.41117
#
# Velocity S-wave (km/s) = 3.00853 3.66032 3.35031
# Velocity P-wave (km/s) = 5.76111 7.05823 6.44240
#
# Compressibility (1/GPa) = 0.02481951
#
# Stress axis : x y z
#
# Youngs Moduli (GPa) = 41.47390 44.48162 23.95719
#
# Poissons Ratio (x) = 0.37140 0.44640
# Poissons Ratio (y) = 0.34629 0.11438
# Poissons Ratio (z) = 0.77280 0.21237
#
# Static dielectric constant tensor:
#      x y z
#    x 3.364460 -0.099620 -0.150370 
#    y -0.099620 3.686850 -0.201660 
#    z -0.150370 -0.201660 4.159330 
# 
# 
# High freq. dielectric constant tensor:
#      x y z
#    x 1.731010 -0.008450 -0.015810 
#    y -0.008450 1.749590 -0.016760 
#    z -0.015810 -0.016760 1.722360 
# 
# From -- ./inp_files/44400.got.cif
#   From: 2010.06.25/outbox.cif.g09.slc.cpg/sg2_23_cif.got.tgz:44400.got - 2010.06.27 13:26:56.
