data_PCOD8003959
_publ_section_title
;
Structure prediction by ZEFSAII (Michael W. Deem and Ramdas Pophale) SiO2 
 PCOD8003959
Probable space group: P -1
;
_chemical_formula_sum "Si O2"
_cell_formula_units_Z 14
_cell_length_a 6.666345
_cell_length_b 15.936513
_cell_length_c 15.656848
_cell_angle_alpha 151.191819
_cell_angle_beta 78.719399
_cell_angle_gamma 117.164242
_cell_volume 626.840526
_symmetry_space_group_name_H-M "P -1"
_symmetry_group_IT_number 2
_symmetry_cell_setting 'triclinic'
loop_
_space_group_symop_operation_xyz
x,y,z
-x,-y,-z
loop_
_atom_site_type_symbol
_atom_site_label
_atom_site_fract_x
_atom_site_fract_y
_atom_site_fract_z
Si Si1 0.161380 0.701024 0.741210
Si Si2 0.828319 0.021174 0.255048
Si Si3 0.424802 0.953486 0.106667
Si Si4 0.149621 0.906038 0.377447
Si Si5 0.805219 0.660009 0.616363
Si Si6 0.742283 0.259133 0.617224
Si Si7 0.964455 0.744755 0.068682
O O1 0.057939 0.451180 0.522959
O O2 0.944842 0.739951 0.770179
O O3 0.407924 0.829162 0.770722
O O4 0.244289 0.757990 0.882245
O O5 0.832449 0.190520 0.468032
O O6 0.093582 0.148493 0.290229
O O7 0.601970 0.911290 0.106684
O O8 0.785397 0.821642 0.134171
O O9 0.236411 0.942543 0.181602
O O10 0.143171 0.764334 0.327454
O O11 0.003517 0.740734 0.162885
O O12 0.436238 0.108581 0.509816
O O13 0.000000 0.000000 0.500000
O O14 0.500000 0.500000 0.500000
O O15 0.846930 0.510651 0.827314
#
# Coordination Sequence:
#
# PCOD8003959 Si02
#       7
#     2   2   2   2   2   2   2
#     4   9  20  38  60  89 129 180 218 270 334 376
#     4  11  23  42  64  99 134 171 229 274 324 400
#     4  10  21  40  62  91 134 171 225 279 319 395
#     4  11  24  47  70  97 135 169 221 276 331 407
#     4  10  20  37  62  92 132 175 222 271 325 389
#     4  11  25  45  69  97 133 175 217 275 334 398
#     4  12  24  42  69 100 131 177 218 274 341 390
#
# _framework density 22.334230999999999
#
# number of rings (size 3 to 8) (size 9 to 14) (size 15 to 20)
#    0.000    1.429    2.857    2.143    0.000    2.857 
#    5.143    4.286    0.000    0.000    0.000    0.000 
#    0.000    0.000    0.000    0.000    0.000    0.000 
#
# Total GULP energy -173471.969300 kJ/mol
# GULP energy per Si atom -12390.854950 kJ/mol
# Density = 2.228340 g / cm^3
# Si number density = 22.334231 Si / 1000 Ang^3
#
#
#
# Elastic Constant Matrix: (Units=GPa)
#
#
# Indices 1 2 3 4 5 6 
#
# 1 102.7140 46.5603 44.0805 -6.9694 10.0135 -13.5229
# 2 46.5603 95.3594 34.2902 -14.3364 8.3574 -17.9856
# 3 44.0805 34.2902 106.1686 -6.9043 -0.4683 -21.0125
# 4 -6.9694 -14.3364 -6.9043 35.6717 -10.0379 2.2466
# 5 10.0135 8.3574 -0.4683 -10.0379 35.6974 -2.3817
# 6 -13.5229 -17.9856 -21.0125 2.2466 -2.3817 42.4438
#
#
#
# Elastic Compliance Matrix: (Units=1/GPa)
#
#
# Indices 1 2 3 4 5 6 
#
# 1 0.014192 -0.005273 -0.004259 -0.001045 -0.003092 0.000061
# 2 -0.005273 0.015044 -0.001681 0.004290 -0.000619 0.003601
# 3 -0.004259 -0.001681 0.012674 0.001358 0.002421 0.004269
# 4 -0.001045 0.004290 0.001358 0.032122 0.008401 0.000928
# 5 -0.003092 -0.000619 0.002421 0.008401 0.031504 0.001274
# 6 0.000061 0.003601 0.004269 0.000928 0.001274 0.027242
#
#
# Mechanical properties :
#
#
# Convention : Reuss Voigt Hill
#
# Bulk Modulus (GPa) = 51.32083 61.56710 56.44397
# Shear Modulus (GPa) = 30.92180 34.71664 32.81922
#
# Velocity S-wave (km/s) = 3.72493 3.94688 3.83751
# Velocity P-wave (km/s) = 6.44426 6.95677 6.70541
#
# Compressibility (1/GPa) = 0.01948527
#
# Stress axis : x y z
#
# Youngs Moduli (GPa) = 70.46094 66.47284 78.90073
#
# Poissons Ratio (x) = 0.35048 0.33605
# Poissons Ratio (y) = 0.37151 0.13261
# Poissons Ratio (z) = 0.30010 0.11172
#
# Static dielectric constant tensor:
#      x y z
#    x 4.114750 -0.228820 0.229760 
#    y -0.228820 4.209170 -0.200710 
#    z 0.229760 -0.200710 3.845590 
# 
# 
# High freq. dielectric constant tensor:
#      x y z
#    x 1.887670 -0.014890 0.011980 
#    y -0.014890 1.887380 -0.007960 
#    z 0.011980 -0.007960 1.868090 
# 
# From -- ./inp_files/44083.got.cif
#   From: 2010.06.25/outbox.cif.g09.slc.cpg/sg2_23_cif.got.tgz:44083.got - 2010.06.27 13:26:56.
