data_PCOD8003091
_publ_section_title
;
Structure prediction by ZEFSAII (Michael W. Deem and Ramdas Pophale) SiO2 
 PCOD8003091
Probable space group: P -1
;
_chemical_formula_sum "Si O2"
_cell_formula_units_Z 16
_cell_length_a 17.986432
_cell_length_b 14.486086
_cell_length_c 26.712968
_cell_angle_alpha 20.316929
_cell_angle_beta 159.271117
_cell_angle_gamma 149.783913
_cell_volume 850.605559
_symmetry_space_group_name_H-M "P -1"
_symmetry_group_IT_number 2
_symmetry_cell_setting 'triclinic'
loop_
_space_group_symop_operation_xyz
x,y,z
-x,-y,-z
loop_
_atom_site_type_symbol
_atom_site_label
_atom_site_fract_x
_atom_site_fract_y
_atom_site_fract_z
Si Si1 0.061857 0.123182 0.606080
Si Si2 0.902386 0.243077 0.553916
Si Si3 0.464923 0.106648 0.807000
Si Si4 0.967703 0.462731 0.139237
Si Si5 0.361174 0.278216 0.542307
Si Si6 0.386839 0.741046 0.776560
Si Si7 0.478511 0.465328 0.139253
Si Si8 0.084050 0.713669 0.983533
O O1 0.282033 0.205152 0.681566
O O2 0.017242 0.195374 0.597883
O O3 0.867706 0.258009 0.381551
O O4 0.079235 0.806179 0.779936
O O5 0.651195 0.319179 0.359356
O O6 0.000000 0.500000 0.500000
O O7 0.947162 0.994406 0.745600
O O8 0.383897 0.223933 0.643039
O O9 0.668654 0.237273 0.890307
O O10 0.501706 0.783668 0.988462
O O11 0.122470 0.392286 0.319581
O O12 0.058057 0.640787 0.062409
O O13 0.749610 0.604554 0.951370
O O14 0.500000 0.500000 0.500000
O O15 0.445247 0.016731 0.696555
O O16 0.475457 0.701906 0.797026
O O17 0.500000 0.500000 0.000000
O O18 0.000000 0.500000 0.000000
#
# Coordination Sequence:
#
# PCOD8003091 Si02
#       8
#     2   2   2   2   2   2   2   2
#     4   9  22  38  61  93 121 157 213 247 300 372
#     4  11  22  40  63  89 122 162 207 260 301 356
#     4  11  22  39  66  93 121 165 207 250 306 372
#     4  10  22  40  63  93 123 163 206 250 303 370
#     4  11  22  39  64  90 130 163 198 248 310 372
#     4  10  20  36  62  90 122 158 199 251 300 355
#     4  10  22  39  62  93 124 156 209 256 305 356
#     4  12  24  41  65  89 124 164 205 255 312 359
#
# _framework density 18.810127999999999
#
# number of rings (size 3 to 8) (size 9 to 14) (size 15 to 20)
#    0.000    1.500    5.000    0.000    1.750    3.500 
#    0.000    1.875    0.000    0.000    0.000    0.000 
#    0.000    0.000    0.000    0.000    0.000    0.000 
#
# Total GULP energy -198259.814069 kJ/mol
# GULP energy per Si atom -12391.238379 kJ/mol
# Density = 1.876731 g / cm^3
# Si number density = 18.810128 Si / 1000 Ang^3
#
#
#
# Elastic Constant Matrix: (Units=GPa)
#
#
# Indices 1 2 3 4 5 6 
#
# 1 63.6419 29.4673 47.3859 12.6846 8.9447 14.5245
# 2 29.4673 99.1102 43.8000 10.0727 9.1196 8.0045
# 3 47.3859 43.8000 149.5052 9.8083 -1.8510 13.9680
# 4 12.6846 10.0727 9.8083 23.1354 5.3203 -1.1947
# 5 8.9447 9.1196 -1.8510 5.3203 40.3910 1.8672
# 6 14.5245 8.0045 13.9680 -1.1947 1.8672 31.4881
#
#
#
# Elastic Compliance Matrix: (Units=1/GPa)
#
#
# Indices 1 2 3 4 5 6 
#
# 1 0.026064 -0.003065 -0.005927 -0.010064 -0.003620 -0.008781
# 2 -0.003065 0.012584 -0.002528 -0.002312 -0.001944 -0.000636
# 3 -0.005927 -0.002528 0.009444 -0.000254 0.002394 -0.000964
# 4 -0.010064 -0.002312 -0.000254 0.051248 -0.004360 0.007546
# 5 -0.003620 -0.001944 0.002394 -0.004360 0.026713 -0.000647
# 6 -0.008781 -0.000636 -0.000964 0.007546 -0.000647 0.036723
#
#
# Mechanical properties :
#
#
# Convention : Reuss Voigt Hill
#
# Bulk Modulus (GPa) = 39.91749 61.50707 50.71228
# Shear Modulus (GPa) = 25.75110 31.77652 28.76381
#
# Velocity S-wave (km/s) = 3.70402 4.11461 3.91470
# Velocity P-wave (km/s) = 6.28970 7.43930 6.88852
#
# Compressibility (1/GPa) = 0.02505168
#
# Stress axis : x y z
#
# Youngs Moduli (GPa) = 38.36713 79.46911 105.88219
#
# Poissons Ratio (x) = 0.24355 0.62760
# Poissons Ratio (y) = 0.11758 0.26768
# Poissons Ratio (z) = 0.22741 0.20091
#
# Static dielectric constant tensor:
#      x y z
#    x 3.582900 0.011940 0.093600 
#    y 0.011940 3.216440 0.078370 
#    z 0.093600 0.078370 3.965430 
# 
# 
# High freq. dielectric constant tensor:
#      x y z
#    x 1.727520 -0.005850 -0.003200 
#    y -0.005850 1.729230 0.007720 
#    z -0.003200 0.007720 1.749560 
# 
# From -- ./inp_files/177707.got.cif
#   From: 2010.06.25/outbox.cif.g09.slc.cpg/sg2_89_cif.got.tgz:177707.got - 2010.06.27 13:26:56.
