data_PCOD8003615
_publ_section_title
;
Structure prediction by ZEFSAII (Michael W. Deem and Ramdas Pophale) SiO2 
 PCOD8003615
Probable space group: P -1
;
_chemical_formula_sum "Si O2"
_cell_formula_units_Z 16
_cell_length_a 22.885605
_cell_length_b 14.797176
_cell_length_c 6.924395
_cell_angle_alpha 141.533112
_cell_angle_beta 131.170855
_cell_angle_gamma 32.027121
_cell_volume 773.455385
_symmetry_space_group_name_H-M "P -1"
_symmetry_group_IT_number 2
_symmetry_cell_setting 'triclinic'
loop_
_space_group_symop_operation_xyz
x,y,z
-x,-y,-z
loop_
_atom_site_type_symbol
_atom_site_label
_atom_site_fract_x
_atom_site_fract_y
_atom_site_fract_z
Si Si1 0.566992 0.482290 0.785889
Si Si2 0.531982 0.119582 0.561630
Si Si3 0.876737 0.390304 0.429100
Si Si4 0.116924 0.086934 0.352240
Si Si5 0.209665 0.731089 0.235891
Si Si6 0.334277 0.939627 0.583737
Si Si7 0.346591 0.154309 0.276379
Si Si8 0.889790 0.141844 0.373301
O O1 0.500000 0.500000 0.500000
O O2 0.663314 0.453834 0.857970
O O3 0.617078 0.287728 0.701014
O O4 0.491422 0.686713 0.091207
O O5 0.417817 0.186325 0.379173
O O6 0.606358 0.033709 0.391652
O O7 0.605932 0.925506 0.540406
O O8 0.782202 0.635626 0.648045
O O9 0.878529 0.299185 0.480560
O O10 0.994981 0.308961 0.508885
O O11 0.857838 0.312573 0.073298
O O12 0.202456 0.105413 0.532695
O O13 0.158068 0.946490 0.396954
O O14 0.115859 0.990428 0.996598
O O15 0.206831 0.735459 0.470728
O O16 0.357185 0.983884 0.913202
O O17 0.000000 0.000000 0.500000
#
# Coordination Sequence:
#
# PCOD8003615 Si02
#       8
#     2   2   2   2   2   2   2   2
#     4  11  22  40  67  95 124 161 204 272 314 354
#     4  11  24  46  65  91 125 168 215 253 308 376
#     4  11  21  39  61  92 127 166 209 249 313 372
#     4  10  22  37  60  93 127 156 205 266 304 365
#     4  10  20  37  59  93 127 158 204 258 314 362
#     4  11  25  42  65  94 126 165 208 259 318 367
#     4  11  25  44  64  89 128 173 205 256 308 379
#     4  11  19  35  64  92 123 163 207 256 305 368
#
# _framework density 20.686391
#
# number of rings (size 3 to 8) (size 9 to 14) (size 15 to 20)
#    0.000    1.250    5.000    1.500    1.750    2.500 
#    0.000    0.625    0.000    0.000    0.000    0.000 
#    0.000    0.000    0.000    0.000    0.000    0.000 
#
# Total GULP energy -198410.165888 kJ/mol
# GULP energy per Si atom -12400.635368 kJ/mol
# Density = 2.063931 g / cm^3
# Si number density = 20.686391 Si / 1000 Ang^3
#
#
#
# Elastic Constant Matrix: (Units=GPa)
#
#
# Indices 1 2 3 4 5 6 
#
# 1 112.7419 36.9624 20.7146 -3.2604 -13.5438 -13.3335
# 2 36.9624 89.9417 22.4648 1.7608 -6.0245 -15.2365
# 3 20.7146 22.4648 67.1597 -4.7454 -2.5617 3.2951
# 4 -3.2604 1.7608 -4.7454 32.9564 0.5603 0.2470
# 5 -13.5438 -6.0245 -2.5617 0.5603 33.9041 -7.7005
# 6 -13.3335 -15.2365 3.2951 0.2470 -7.7005 33.0794
#
#
#
# Elastic Compliance Matrix: (Units=1/GPa)
#
#
# Indices 1 2 3 4 5 6 
#
# 1 0.011473 -0.002987 -0.002522 0.000813 0.004901 0.004635
# 2 -0.002987 0.014782 -0.004377 -0.001811 0.002647 0.006670
# 3 -0.002522 -0.004377 0.017504 0.002572 -0.001684 -0.005188
# 4 0.000813 -0.001811 0.002572 0.030909 -0.000569 -0.001126
# 5 0.004901 0.002647 -0.001684 -0.000569 0.034388 0.011372
# 6 0.004635 0.006670 -0.005188 -0.001126 0.011372 0.038343
#
#
# Mechanical properties :
#
#
# Convention : Reuss Voigt Hill
#
# Bulk Modulus (GPa) = 41.69290 47.79187 44.74238
# Shear Modulus (GPa) = 28.54382 32.63473 30.58928
#
# Velocity S-wave (km/s) = 3.71864 3.97620 3.84958
# Velocity P-wave (km/s) = 6.21581 6.65082 6.43699
#
# Compressibility (1/GPa) = 0.02398490
#
# Stress axis : x y z
#
# Youngs Moduli (GPa) = 87.16040 67.64904 57.12928
#
# Poissons Ratio (x) = 0.20210 0.14410
# Poissons Ratio (y) = 0.26039 0.25008
# Poissons Ratio (z) = 0.21985 0.29613
#
# Static dielectric constant tensor:
#      x y z
#    x 4.054810 -0.269370 -0.054850 
#    y -0.269370 3.765380 -0.171420 
#    z -0.054850 -0.171420 3.692140 
# 
# 
# High freq. dielectric constant tensor:
#      x y z
#    x 1.813050 -0.018100 -0.005150 
#    y -0.018100 1.801880 -0.011500 
#    z -0.005150 -0.011500 1.801790 
# 
# From -- ./inp_files/118918.got.cif
#   From: 2010.06.25/outbox.cif.g09.slc.cpg/sg2_60_cif.got.tgz:118918.got - 2010.06.27 13:26:56.
