data_PCOD8003769
_publ_section_title
;
Structure prediction by ZEFSAII (Michael W. Deem and Ramdas Pophale) SiO2 
 PCOD8003769
Probable space group: P -1
;
_chemical_formula_sum "Si O2"
_cell_formula_units_Z 16
_cell_length_a 6.550271
_cell_length_b 19.294242
_cell_length_c 19.076044
_cell_angle_alpha 28.265012
_cell_angle_beta 42.304635
_cell_angle_gamma 45.430838
_cell_volume 758.770173
_symmetry_space_group_name_H-M "P -1"
_symmetry_group_IT_number 2
_symmetry_cell_setting 'triclinic'
loop_
_space_group_symop_operation_xyz
x,y,z
-x,-y,-z
loop_
_atom_site_type_symbol
_atom_site_label
_atom_site_fract_x
_atom_site_fract_y
_atom_site_fract_z
Si Si1 0.566632 0.589776 0.971126
Si Si2 0.860011 0.896219 0.300835
Si Si3 0.373580 0.736021 0.500345
Si Si4 0.765677 0.481883 0.160110
Si Si5 0.767200 0.869275 0.032285
Si Si6 0.465993 0.670692 0.375698
Si Si7 0.044238 0.234140 0.067085
Si Si8 0.813437 0.960298 0.413895
O O1 0.914180 0.625423 0.845156
O O2 0.295033 0.727884 0.916802
O O3 0.500000 0.500000 0.000000
O O4 0.551206 0.503156 0.126372
O O5 0.590400 0.852218 0.362496
O O6 0.737245 0.924468 0.385543
O O7 0.153642 0.765210 0.340717
O O8 0.928292 0.052301 0.111906
O O9 0.416104 0.595442 0.666622
O O10 0.477843 0.678589 0.448791
O O11 0.019922 0.814999 0.523310
O O12 0.842828 0.638734 0.028606
O O13 0.755929 0.737486 0.208757
O O14 0.723494 0.808101 0.019097
O O15 0.500000 0.000000 0.000000
O O16 0.500000 0.500000 0.500000
O O17 0.017720 0.093075 0.248425
O O18 0.500000 0.000000 0.500000
#
# Coordination Sequence:
#
# PCOD8003769 Si02
#       8
#     2   2   2   2   2   2   2   2
#     4   9  20  37  58  85 116 152 189 230 287 347
#     4   9  22  39  56  84 119 155 195 237 291 351
#     4  11  23  38  59  90 121 152 194 244 295 349
#     4  10  21  36  59  88 119 149 187 237 288 347
#     4   9  19  39  59  78 114 156 192 238 289 340
#     4  10  21  39  61  85 115 152 196 246 296 344
#     4  10  20  37  61  86 113 153 200 239 284 342
#     4  10  22  39  60  86 121 158 193 240 293 348
#
# _framework density 21.086753999999999
#
# number of rings (size 3 to 8) (size 9 to 14) (size 15 to 20)
#    0.000    2.250    0.000    2.250    0.000   11.500 
#    0.000    2.500    0.000    0.000    0.000    0.000 
#    0.000    0.000    0.000    0.000    0.000    0.000 
#
# Total GULP energy -198302.640371 kJ/mol
# GULP energy per Si atom -12393.915023 kJ/mol
# Density = 2.103876 g / cm^3
# Si number density = 21.086754 Si / 1000 Ang^3
#
#
#
# Elastic Constant Matrix: (Units=GPa)
#
#
# Indices 1 2 3 4 5 6 
#
# 1 98.3994 38.5004 37.7742 0.2022 1.5863 24.8074
# 2 38.5004 124.8716 48.6466 5.8375 -0.4726 23.0121
# 3 37.7742 48.6466 147.1029 7.4994 7.9995 29.7323
# 4 0.2022 5.8375 7.4994 33.6570 5.6774 1.6163
# 5 1.5863 -0.4726 7.9995 5.6774 29.9055 -0.1303
# 6 24.8074 23.0121 29.7323 1.6163 -0.1303 21.6556
#
#
#
# Elastic Compliance Matrix: (Units=1/GPa)
#
#
# Indices 1 2 3 4 5 6 
#
# 1 0.014663 -0.001789 -0.000203 0.001148 -0.001034 -0.014710
# 2 -0.001789 0.010507 -0.001630 -0.001276 0.000910 -0.006778
# 3 -0.000203 -0.001630 0.009920 -0.000941 -0.002540 -0.011600
# 4 0.001148 -0.001276 -0.000941 0.031155 -0.005748 -0.001027
# 5 -0.001034 0.000910 -0.002540 -0.005748 0.035298 0.004347
# 6 -0.014710 -0.006778 -0.011600 -0.001027 0.004347 0.086260
#
#
# Mechanical properties :
#
#
# Convention : Reuss Voigt Hill
#
# Bulk Modulus (GPa) = 35.91066 68.91291 52.41178
# Shear Modulus (GPa) = 24.47062 33.40714 28.93888
#
# Velocity S-wave (km/s) = 3.41027 3.98461 3.70857
# Velocity P-wave (km/s) = 5.70732 7.34310 6.57627
#
# Compressibility (1/GPa) = 0.02784689
#
# Stress axis : x y z
#
# Youngs Moduli (GPa) = 68.19774 95.17707 100.80887
#
# Poissons Ratio (x) = 0.17024 0.02047
# Poissons Ratio (y) = 0.12198 0.16430
# Poissons Ratio (z) = 0.01384 0.15512
#
# Static dielectric constant tensor:
#      x y z
#    x 3.641800 -0.101710 0.040480 
#    y -0.101710 4.127450 0.062960 
#    z 0.040480 0.062960 3.960610 
# 
# 
# High freq. dielectric constant tensor:
#      x y z
#    x 1.804170 0.010370 0.005730 
#    y 0.010370 1.839980 0.003760 
#    z 0.005730 0.003760 1.830020 
# 
# From -- ./inp_files/78679.got.cif
#   From: 2010.06.25/outbox.cif.g09.slc.cpg/sg2_40_cif.got.tgz:78679.got - 2010.06.27 13:26:56.
