data_PCOD8003480
_publ_section_title
;
Structure prediction by ZEFSAII (Michael W. Deem and Ramdas Pophale) SiO2 
 PCOD8003480
Probable space group: P -1
;
_chemical_formula_sum "Si O2"
_cell_formula_units_Z 16
_cell_length_a 9.620433
_cell_length_b 19.735523
_cell_length_c 9.176819
_cell_angle_alpha 139.557322
_cell_angle_beta 45.498420
_cell_angle_gamma 123.622639
_cell_volume 805.347802
_symmetry_space_group_name_H-M "P -1"
_symmetry_group_IT_number 2
_symmetry_cell_setting 'triclinic'
loop_
_space_group_symop_operation_xyz
x,y,z
-x,-y,-z
loop_
_atom_site_type_symbol
_atom_site_label
_atom_site_fract_x
_atom_site_fract_y
_atom_site_fract_z
Si Si1 0.775806 0.020119 0.964433
Si Si2 0.350415 0.061457 0.354765
Si Si3 0.756160 0.389656 0.509583
Si Si4 0.216659 0.775161 0.538746
Si Si5 0.188217 0.377418 0.084983
Si Si6 0.835405 0.817762 0.744060
Si Si7 0.617685 0.724817 0.484947
Si Si8 0.351222 0.190218 0.825407
O O1 0.544587 0.997002 0.129844
O O2 0.847282 0.134792 0.152633
O O3 0.803754 0.005156 0.743050
O O4 0.889303 0.931254 0.820397
O O5 0.422855 0.167998 0.392950
O O6 0.260612 0.096008 0.632813
O O7 0.757766 0.332232 0.570827
O O8 0.712548 0.509625 0.768272
O O9 0.588061 0.338519 0.446609
O O10 0.956052 0.379643 0.260622
O O11 0.414351 0.807176 0.360340
O O12 0.037458 0.762408 0.537337
O O13 0.242207 0.343296 0.827643
O O14 0.263705 0.299793 0.025511
O O15 0.714661 0.742519 0.599398
O O16 0.703655 0.835174 0.011156
#
# Coordination Sequence:
#
# PCOD8003480 Si02
#       8
#     2   2   2   2   2   2   2   2
#     4   9  17  34  56  81 115 149 187 230 272 328
#     4   8  16  32  57  82 108 147 192 226 268 328
#     4  11  20  37  66  85 104 148 195 231 279 333
#     4  11  21  36  59  84 116 151 187 230 281 330
#     4  10  21  37  65  85 106 143 198 233 274 340
#     4  11  23  36  57  84 123 149 181 230 286 328
#     4  10  20  38  59  85 114 148 183 237 277 329
#     4  10  20  37  58  84 115 150 183 234 280 335
#
# _framework density 19.867194000000001
#
# number of rings (size 3 to 8) (size 9 to 14) (size 15 to 20)
#    0.000    2.000    5.000    0.750    0.000    3.000 
#    0.000    1.875    2.750    0.000    0.000    0.000 
#    0.000    0.000    0.000    0.000    0.000    0.000 
#
# Total GULP energy -198385.539104 kJ/mol
# GULP energy per Si atom -12399.096194 kJ/mol
# Density = 1.982198 g / cm^3
# Si number density = 19.867194 Si / 1000 Ang^3
#
#
#
# Elastic Constant Matrix: (Units=GPa)
#
#
# Indices 1 2 3 4 5 6 
#
# 1 107.6907 16.7485 36.6753 0.5692 18.9130 -1.0099
# 2 16.7485 30.1926 11.9320 5.9875 9.4215 3.3800
# 3 36.6753 11.9320 87.9710 0.9066 10.7382 2.9338
# 4 0.5692 5.9875 0.9066 31.5776 -2.2590 -1.7781
# 5 18.9130 9.4215 10.7382 -2.2590 29.5304 3.1870
# 6 -1.0099 3.3800 2.9338 -1.7781 3.1870 23.4720
#
#
#
# Elastic Compliance Matrix: (Units=1/GPa)
#
#
# Indices 1 2 3 4 5 6 
#
# 1 0.012207 -0.003857 -0.003994 0.000374 -0.005359 0.002336
# 2 -0.003857 0.041718 -0.002565 -0.008774 -0.010022 -0.005157
# 3 -0.003994 -0.002565 0.013598 -0.000008 -0.001428 -0.001309
# 4 0.000374 -0.008774 -0.000008 0.033849 0.004808 0.003192
# 5 -0.005359 -0.010022 -0.001428 0.004808 0.041803 -0.003921
# 6 0.002336 -0.005157 -0.001309 0.003192 -0.003921 0.044385
#
#
# Mechanical properties :
#
#
# Convention : Reuss Voigt Hill
#
# Bulk Modulus (GPa) = 21.41644 39.61843 30.51744
# Shear Modulus (GPa) = 22.32597 27.61592 24.97095
#
# Velocity S-wave (km/s) = 3.35589 3.73235 3.54912
# Velocity P-wave (km/s) = 5.08126 6.20958 5.67354
#
# Compressibility (1/GPa) = 0.04669310
#
# Stress axis : x y z
#
# Youngs Moduli (GPa) = 81.92195 23.97033 73.53891
#
# Poissons Ratio (x) = 0.09244 0.29368
# Poissons Ratio (y) = 0.31594 0.18862
# Poissons Ratio (z) = 0.32716 0.06148
#
# Static dielectric constant tensor:
#      x y z
#    x 3.684020 0.077160 0.074100 
#    y 0.077160 3.370810 0.156200 
#    z 0.074100 0.156200 3.770090 
# 
# 
# High freq. dielectric constant tensor:
#      x y z
#    x 1.773460 0.007170 -0.005850 
#    y 0.007170 1.749780 0.007510 
#    z -0.005850 0.007510 1.781440 
# 
# From -- ./inp_files/200160.got.cif
#   From: 2010.06.25/outbox.cif.g09.slc.cpg/sg2_101_cif.got.tgz:200160.got - 2010.06.27 13:26:56.
