data_PCOD8003925
_publ_section_title
;
Structure prediction by ZEFSAII (Michael W. Deem and Ramdas Pophale) SiO2 
 PCOD8003925
Probable space group: P -1
;
_chemical_formula_sum "Si O2"
_cell_formula_units_Z 14
_cell_length_a 8.942244
_cell_length_b 9.387510
_cell_length_c 12.581232
_cell_angle_alpha 44.608000
_cell_angle_beta 104.353495
_cell_angle_gamma 112.116475
_cell_volume 686.773425
_symmetry_space_group_name_H-M "P -1"
_symmetry_group_IT_number 2
_symmetry_cell_setting 'triclinic'
loop_
_space_group_symop_operation_xyz
x,y,z
-x,-y,-z
loop_
_atom_site_type_symbol
_atom_site_label
_atom_site_fract_x
_atom_site_fract_y
_atom_site_fract_z
Si Si1 0.130749 0.073220 0.103614
Si Si2 0.082336 0.829025 0.642247
Si Si3 0.654924 0.288738 0.377209
Si Si4 0.938264 0.400989 0.931448
Si Si5 0.303716 0.940766 0.824745
Si Si6 0.430442 0.060208 0.287480
Si Si7 0.206835 0.216982 0.818857
O O1 0.256708 0.085940 0.214175
O O2 0.220748 0.087550 0.998032
O O3 0.984511 0.855261 0.207671
O O4 0.060043 0.272751 0.983281
O O5 0.211297 0.816931 0.583121
O O6 0.167158 0.904492 0.729512
O O7 0.949273 0.596099 0.749500
O O8 0.000000 0.000000 0.500000
O O9 0.580890 0.161826 0.538072
O O10 0.727115 0.533147 0.286872
O O11 0.520013 0.255249 0.277662
O O12 0.755793 0.247989 0.997147
O O13 0.000000 0.500000 0.000000
O O14 0.473305 0.940423 0.805051
O O15 0.313234 0.157075 0.775225
#
# Coordination Sequence:
#
# PCOD8003925 Si02
#       7
#     2   2   2   2   2   2   2
#     4  10  21  39  65  91 121 162 209 251 306 361
#     4  10  20  37  62  90 119 161 209 252 298 359
#     4  10  22  41  62  91 128 161 206 253 304 369
#     4   9  18  36  60  88 116 156 206 256 285 358
#     4   9  21  40  58  89 127 156 201 259 301 366
#     4  10  23  41  61  89 130 165 202 248 308 370
#     4  10  21  40  63  88 126 160 206 260 295 364
#
# _framework density 20.385180999999999
#
# number of rings (size 3 to 8) (size 9 to 14) (size 15 to 20)
#    0.000    2.286    1.429    0.000    6.000    2.286 
#    0.000    0.000    0.000    0.000    0.000    0.000 
#    0.000    0.000    0.000    0.000    0.000    0.000 
#
# Total GULP energy -173515.350772 kJ/mol
# GULP energy per Si atom -12393.953627 kJ/mol
# Density = 2.033878 g / cm^3
# Si number density = 20.385181 Si / 1000 Ang^3
#
#
#
# Elastic Constant Matrix: (Units=GPa)
#
#
# Indices 1 2 3 4 5 6 
#
# 1 74.7193 52.0597 51.8012 -6.8608 -8.1029 5.9427
# 2 52.0597 136.6253 47.9929 -24.4015 5.4901 -2.9740
# 3 51.8012 47.9929 90.4053 -15.7957 -0.0789 8.2410
# 4 -6.8608 -24.4015 -15.7957 31.5832 -1.1492 -5.5387
# 5 -8.1029 5.4901 -0.0789 -1.1492 30.2093 6.8694
# 6 5.9427 -2.9740 8.2410 -5.5387 6.8694 28.9493
#
#
#
# Elastic Compliance Matrix: (Units=1/GPa)
#
#
# Indices 1 2 3 4 5 6 
#
# 1 0.029391 -0.008607 -0.012931 -0.007612 0.010773 -0.007249
# 2 -0.008607 0.012823 -0.000983 0.008449 -0.005764 0.006348
# 3 -0.012931 -0.000983 0.020198 0.006194 -0.002689 -0.001373
# 4 -0.007612 0.008449 0.006194 0.041155 -0.004162 0.009529
# 5 0.010773 -0.005764 -0.002689 -0.004162 0.039658 -0.012245
# 6 -0.007249 0.006348 -0.001373 0.009529 -0.012245 0.041803
#
#
# Mechanical properties :
#
#
# Convention : Reuss Voigt Hill
#
# Bulk Modulus (GPa) = 57.57314 67.27304 62.42309
# Shear Modulus (GPa) = 21.19900 28.14144 24.67022
#
# Velocity S-wave (km/s) = 3.22828 3.71952 3.48257
# Velocity P-wave (km/s) = 6.49613 7.17768 6.84539
#
# Compressibility (1/GPa) = 0.01736921
#
# Stress axis : x y z
#
# Youngs Moduli (GPa) = 34.02394 77.98451 49.51034
#
# Poissons Ratio (x) = 0.67120 0.64024
# Poissons Ratio (y) = 0.29284 0.04867
# Poissons Ratio (z) = 0.43998 0.07666
#
# Static dielectric constant tensor:
#      x y z
#    x 3.655890 0.047860 -0.469010 
#    y 0.047860 3.957120 -0.231420 
#    z -0.469010 -0.231420 3.886970 
# 
# 
# High freq. dielectric constant tensor:
#      x y z
#    x 1.786100 -0.008020 -0.029460 
#    y -0.008020 1.802140 -0.002330 
#    z -0.029460 -0.002330 1.783330 
# 
# From -- ./inp_files/159251.got.cif
#   From: 2010.06.25/outbox.cif.g09.slc.cpg/sg2_80_cif.got.tgz:159251.got - 2010.06.27 13:26:56.
