data_PCOD8003682
_publ_section_title
;
Structure prediction by ZEFSAII (Michael W. Deem and Ramdas Pophale) SiO2 
 PCOD8003682
Probable space group: P -1
;
_chemical_formula_sum "Si O2"
_cell_formula_units_Z 16
_cell_length_a 8.977605
_cell_length_b 14.458217
_cell_length_c 9.281261
_cell_angle_alpha 104.809246
_cell_angle_beta 97.628530
_cell_angle_gamma 135.170200
_cell_volume 728.770859
_symmetry_space_group_name_H-M "P -1"
_symmetry_group_IT_number 2
_symmetry_cell_setting 'triclinic'
loop_
_space_group_symop_operation_xyz
x,y,z
-x,-y,-z
loop_
_atom_site_type_symbol
_atom_site_label
_atom_site_fract_x
_atom_site_fract_y
_atom_site_fract_z
Si Si1 0.600559 0.276692 0.166813
Si Si2 0.570255 0.354599 0.740074
Si Si3 0.819560 0.922517 0.576922
Si Si4 0.131871 0.342236 0.983872
Si Si5 0.453111 0.878487 0.618931
Si Si6 0.636997 0.115165 0.935079
Si Si7 0.043289 0.608712 0.274765
Si Si8 0.247090 0.185924 0.894089
O O1 0.564664 0.202233 0.279612
O O2 0.825807 0.458494 0.280539
O O3 0.634310 0.226694 0.008526
O O4 0.359370 0.217030 0.076703
O O5 0.388423 0.260999 0.540574
O O6 0.799008 0.400548 0.766833
O O7 0.428568 0.243708 0.815017
O O8 0.658203 0.506465 0.834183
O O9 0.670812 0.949518 0.573830
O O10 0.000000 0.000000 0.500000
O O11 0.991330 0.004838 0.772640
O O12 0.220427 0.286463 0.909692
O O13 0.907984 0.211961 0.006946
O O14 0.059709 0.379853 0.863632
O O15 0.202336 0.755722 0.455328
O O16 0.509740 0.015645 0.731009
O O17 0.500000 0.000000 0.000000
#
# Coordination Sequence:
#
# PCOD8003682 Si02
#       8
#     2   2   2   2   2   2   2   2
#     4  11  22  40  65  88 125 163 205 251 309 370
#     4  10  20  37  60  88 121 158 207 251 305 354
#     4   9  20  39  59  88 122 158 199 250 308 357
#     4  12  21  38  63  91 127 158 208 254 305 366
#     4  10  22  42  62  90 120 162 211 252 305 360
#     4  10  22  41  61  91 123 162 206 251 304 361
#     4  11  22  38  64  92 119 161 207 260 303 357
#     4  11  22  38  60  92 124 161 202 248 312 370
#
# _framework density 21.954775000000001
#
# number of rings (size 3 to 8) (size 9 to 14) (size 15 to 20)
#    0.000    1.500    3.750    1.875    0.000    1.000 
#    6.750    0.000    0.000    3.000    0.000    0.000 
#    0.000    0.000    0.000    0.000    0.000    0.000 
#
# Total GULP energy -198235.743066 kJ/mol
# GULP energy per Si atom -12389.733942 kJ/mol
# Density = 2.190480 g / cm^3
# Si number density = 21.954775 Si / 1000 Ang^3
#
#
#
# Elastic Constant Matrix: (Units=GPa)
#
#
# Indices 1 2 3 4 5 6 
#
# 1 73.7141 18.2842 35.8856 4.9853 -1.1283 6.8790
# 2 18.2842 62.3060 36.5839 16.7044 5.4955 8.4212
# 3 35.8856 36.5839 113.5510 45.5307 -0.6904 -3.5737
# 4 4.9853 16.7044 45.5307 42.3265 -0.0192 0.4264
# 5 -1.1283 5.4955 -0.6904 -0.0192 35.8798 3.7621
# 6 6.8790 8.4212 -3.5737 0.4264 3.7621 18.5130
#
#
#
# Elastic Compliance Matrix: (Units=1/GPa)
#
#
# Indices 1 2 3 4 5 6 
#
# 1 0.018488 -0.001350 -0.008862 0.007974 0.001509 -0.008457
# 2 -0.001350 0.022279 -0.006456 -0.001586 -0.002496 -0.010335
# 3 -0.008862 -0.006456 0.022223 -0.020424 -0.000026 0.010995
# 4 0.007974 -0.001586 -0.020424 0.045358 0.000902 -0.007412
# 5 0.001509 -0.002496 -0.000026 0.000902 0.028858 -0.005315
# 6 -0.008457 -0.010335 0.010995 -0.007412 -0.005315 0.065233
#
#
# Mechanical properties :
#
#
# Convention : Reuss Voigt Hill
#
# Bulk Modulus (GPa) = 33.72237 47.89758 40.80998
# Shear Modulus (GPa) = 20.35348 29.93169 25.14259
#
# Velocity S-wave (km/s) = 3.04808 3.69634 3.38775
# Velocity P-wave (km/s) = 5.27076 6.33096 5.82503
#
# Compressibility (1/GPa) = 0.02965391
#
# Stress axis : x y z
#
# Youngs Moduli (GPa) = 54.08890 44.88585 44.99924
#
# Poissons Ratio (x) = 0.06059 0.39880
# Poissons Ratio (y) = 0.07301 0.29050
# Poissons Ratio (z) = 0.47935 0.28977
#
# Static dielectric constant tensor:
#      x y z
#    x 4.171630 0.202150 -0.223400 
#    y 0.202150 3.909030 0.629930 
#    z -0.223400 0.629930 4.460020 
# 
# 
# High freq. dielectric constant tensor:
#      x y z
#    x 1.858620 0.020680 -0.012110 
#    y 0.020680 1.850410 0.037220 
#    z -0.012110 0.037220 1.867010 
# 
# From -- ./inp_files/207927.got.cif
#   From: 2010.06.25/outbox.cif.g09.slc.cpg/sg2_104_cif.got.tgz:207927.got - 2010.06.27 13:26:56.
