data_PCOD8003880
_publ_section_title
;
Structure prediction by ZEFSAII (Michael W. Deem and Ramdas Pophale) SiO2 
 PCOD8003880
Probable space group: P -1
;
_chemical_formula_sum "Si O2"
_cell_formula_units_Z 16
_cell_length_a 7.980172
_cell_length_b 13.590549
_cell_length_c 11.941756
_cell_angle_alpha 35.303694
_cell_angle_beta 76.454141
_cell_angle_gamma 68.185594
_cell_volume 689.102270
_symmetry_space_group_name_H-M "P -1"
_symmetry_group_IT_number 2
_symmetry_cell_setting 'triclinic'
loop_
_space_group_symop_operation_xyz
x,y,z
-x,-y,-z
loop_
_atom_site_type_symbol
_atom_site_label
_atom_site_fract_x
_atom_site_fract_y
_atom_site_fract_z
Si Si1 0.362759 0.578597 0.348804
Si Si2 0.734767 0.587924 0.683715
Si Si3 0.437133 0.161356 0.944628
Si Si4 0.139829 0.502190 0.626212
Si Si5 0.825501 0.275840 0.135599
Si Si6 0.823962 0.280583 0.382351
Si Si7 0.246239 0.084983 0.504749
Si Si8 0.750099 0.926656 0.736010
O O1 0.500000 0.500000 0.500000
O O2 0.398374 0.442118 0.363793
O O3 0.393316 0.762840 0.135176
O O4 0.164878 0.608998 0.409970
O O5 0.662599 0.797972 0.538878
O O6 0.929582 0.536254 0.642424
O O7 0.739868 0.449176 0.911566
O O8 0.255989 0.293272 0.790881
O O9 0.390035 0.113725 0.120266
O O10 0.500000 0.000000 0.000000
O O11 0.234633 0.559250 0.667956
O O12 0.754984 0.342428 0.210119
O O13 0.045285 0.213088 0.152665
O O14 0.749626 0.110613 0.267610
O O15 0.040389 0.208605 0.408878
O O16 0.751082 0.124388 0.581774
O O17 0.331097 0.072359 0.378230
#
# Coordination Sequence:
#
# PCOD8003880 Si02
#       8
#     2   2   2   2   2   2   2   2
#     4  10  24  43  56  80 119 159 201 245 300 354
#     4  11  20  37  65  89 119 153 198 254 295 353
#     4  11  22  37  58  82 115 162 204 239 288 362
#     4  10  20  37  62  85 112 158 205 243 291 344
#     4   9  17  32  57  99 122 146 195 245 299 345
#     4   8  16  30  59  90 123 148 187 251 290 351
#     4   8  18  31  56  94 127 150 184 251 300 345
#     4   9  16  33  56  87 126 157 194 234 295 356
#
# _framework density 23.218613000000001
#
# number of rings (size 3 to 8) (size 9 to 14) (size 15 to 20)
#    0.000    2.500    1.250    2.625    1.750    1.500 
#    4.500    1.250    0.000    1.500    0.000    0.000 
#    0.000    0.000    0.000    0.250    0.000    0.000 
#
# Total GULP energy -198295.847667 kJ/mol
# GULP energy per Si atom -12393.490479 kJ/mol
# Density = 2.316577 g / cm^3
# Si number density = 23.218613 Si / 1000 Ang^3
#
#
#
# Elastic Constant Matrix: (Units=GPa)
#
#
# Indices 1 2 3 4 5 6 
#
# 1 21.3801 22.1778 22.3237 -1.0671 -11.5218 14.2342
# 2 22.1778 158.3996 61.5151 -10.6713 -17.0604 25.2394
# 3 22.3237 61.5151 120.9646 14.1291 -36.7003 2.3303
# 4 -1.0671 -10.6713 14.1291 42.7123 -2.8721 -6.4393
# 5 -11.5218 -17.0604 -36.7003 -2.8721 28.4723 1.8446
# 6 14.2342 25.2394 2.3303 -6.4393 1.8446 41.5891
#
#
#
# Elastic Compliance Matrix: (Units=1/GPa)
#
#
# Indices 1 2 3 4 5 6 
#
# 1 0.092841 -0.002208 -0.006408 0.001206 0.030131 -0.031226
# 2 -0.002208 0.009288 -0.004956 0.003218 -0.001129 -0.004055
# 3 -0.006408 -0.004956 0.017527 -0.005707 0.016284 0.002613
# 4 0.001206 0.003218 -0.005707 0.026293 -0.002426 0.002133
# 5 0.030131 -0.001129 0.016284 -0.002426 0.068286 -0.013944
# 6 -0.031226 -0.004055 0.002613 0.002133 -0.013944 0.037996
#
#
# Mechanical properties :
#
#
# Convention : Reuss Voigt Hill
#
# Bulk Modulus (GPa) = 10.80955 56.97531 33.89243
# Shear Modulus (GPa) = 16.11793 35.53659 25.82726
#
# Velocity S-wave (km/s) = 2.63759 3.91643 3.33881
# Velocity P-wave (km/s) = 3.73383 6.71142 5.43068
#
# Compressibility (1/GPa) = 0.09251082
#
# Stress axis : x y z
#
# Youngs Moduli (GPa) = 10.77105 107.66091 57.05574
#
# Poissons Ratio (x) = 0.23772 0.36564
# Poissons Ratio (y) = 0.02378 0.28279
# Poissons Ratio (z) = 0.06903 0.53361
#
# Static dielectric constant tensor:
#      x y z
#    x 4.114470 0.106180 -0.569940 
#    y 0.106180 4.976930 0.137610 
#    z -0.569940 0.137610 4.415010 
# 
# 
# High freq. dielectric constant tensor:
#      x y z
#    x 1.903040 -0.002470 -0.027480 
#    y -0.002470 1.929960 0.006330 
#    z -0.027480 0.006330 1.911410 
# 
# From -- ./inp_files/388786.got.cif
#   From: 2010.06.25/outbox.cif.g09.slc.cpg/sg2_195_cif.got.tgz:388786.got - 2010.06.27 13:26:56.
