data_PCOD8003107
_publ_section_title
;
Structure prediction by ZEFSAII (Michael W. Deem and Ramdas Pophale) SiO2 
 PCOD8003107
Probable space group: P -1
;
_chemical_formula_sum "Si O2"
_cell_formula_units_Z 16
_cell_length_a 9.101021
_cell_length_b 18.621671
_cell_length_c 13.294522
_cell_angle_alpha 145.027037
_cell_angle_beta 48.749777
_cell_angle_gamma 106.169469
_cell_volume 771.245727
_symmetry_space_group_name_H-M "P -1"
_symmetry_group_IT_number 2
_symmetry_cell_setting 'triclinic'
loop_
_space_group_symop_operation_xyz
x,y,z
-x,-y,-z
loop_
_atom_site_type_symbol
_atom_site_label
_atom_site_fract_x
_atom_site_fract_y
_atom_site_fract_z
Si Si1 0.921711 0.195961 0.304463
Si Si2 0.355752 0.179144 0.814204
Si Si3 0.822046 0.655275 0.198459
Si Si4 0.363091 0.866084 0.778721
Si Si5 0.120016 0.657312 0.908180
Si Si6 0.504453 0.347897 0.813859
Si Si7 0.505336 0.698703 0.725807
Si Si8 0.835090 0.671235 0.723556
O O1 0.947586 0.332608 0.430321
O O2 0.796085 0.190365 0.253593
O O3 0.763715 0.216113 0.494468
O O4 0.199613 0.048818 0.035406
O O5 0.486072 0.261734 0.819715
O O6 0.500000 0.000000 0.500000
O O7 0.329765 0.190021 0.959546
O O8 0.074494 0.284662 0.026351
O O9 0.614020 0.792421 0.520691
O O10 0.719315 0.603679 0.100134
O O11 0.000000 0.500000 0.000000
O O12 0.973938 0.709453 0.140258
O O13 0.423894 0.830376 0.828616
O O14 0.256473 0.736130 0.926215
O O15 0.323824 0.468933 0.599153
O O16 0.500000 0.500000 0.000000
O O17 0.647522 0.703511 0.759468
O O18 0.000000 0.500000 0.500000
#
# Coordination Sequence:
#
# PCOD8003107 Si02
#       8
#     2   2   2   2   2   2   2   2
#     4  10  24  40  68  95 127 166 222 270 328 402
#     4  11  25  43  70  96 136 176 221 275 337 400
#     4  10  20  36  62  93 124 167 211 262 322 397
#     4  10  22  41  65  94 126 171 217 267 332 390
#     4  10  22  39  64  93 130 173 222 267 331 400
#     4  10  23  41  65  96 126 167 218 274 328 390
#     4  11  23  40  65  95 129 175 221 275 330 391
#     4  12  25  42  66  99 132 171 224 276 331 397
#
# _framework density 20.745657999999999
#
# number of rings (size 3 to 8) (size 9 to 14) (size 15 to 20)
#    0.000    1.500    2.500    1.500   12.250    1.500 
#    0.000    0.625    0.000    0.000    0.000    0.000 
#    0.000    0.000    0.000    0.000    0.000    0.000 
#
# Total GULP energy -198284.756613 kJ/mol
# GULP energy per Si atom -12392.797288 kJ/mol
# Density = 2.069844 g / cm^3
# Si number density = 20.745658 Si / 1000 Ang^3
#
#
#
# Elastic Constant Matrix: (Units=GPa)
#
#
# Indices 1 2 3 4 5 6 
#
# 1 86.9729 55.5694 29.7334 -14.8293 -7.1978 -11.7828
# 2 55.5694 124.3583 38.2272 -24.1263 -10.6620 5.3462
# 3 29.7334 38.2272 92.8042 -9.0532 -14.5252 -4.6163
# 4 -14.8293 -24.1263 -9.0532 33.8570 1.3216 1.2535
# 5 -7.1978 -10.6620 -14.5252 1.3216 31.8420 0.6900
# 6 -11.7828 5.3462 -4.6163 1.2535 0.6900 41.0030
#
#
#
# Elastic Compliance Matrix: (Units=1/GPa)
#
#
# Indices 1 2 3 4 5 6 
#
# 1 0.018017 -0.007193 -0.002267 0.001929 0.000425 0.005794
# 2 -0.007193 0.013536 -0.002673 0.005881 0.001537 -0.004338
# 3 -0.002267 -0.002673 0.013436 0.000471 0.004678 0.001117
# 4 0.001929 0.005881 0.000471 0.034697 0.001207 -0.001241
# 5 0.000425 0.001537 0.004678 0.001207 0.034103 -0.000163
# 6 0.005794 -0.004338 0.001117 -0.001241 -0.000163 0.026785
#
#
# Mechanical properties :
#
#
# Convention : Reuss Voigt Hill
#
# Bulk Modulus (GPa) = 48.25050 61.24396 54.74723
# Shear Modulus (GPa) = 29.11231 33.38076 31.24653
#
# Velocity S-wave (km/s) = 3.75012 4.01565 3.88515
# Velocity P-wave (km/s) = 6.48536 7.14745 6.82443
#
# Compressibility (1/GPa) = 0.02072517
#
# Stress axis : x y z
#
# Youngs Moduli (GPa) = 55.50176 73.87563 74.42508
#
# Poissons Ratio (x) = 0.53136 0.16872
# Poissons Ratio (y) = 0.39921 0.19892
# Poissons Ratio (z) = 0.12582 0.19745
#
# Static dielectric constant tensor:
#      x y z
#    x 3.741860 0.021010 -0.050530 
#    y 0.021010 3.947520 -0.280530 
#    z -0.050530 -0.280530 4.133850 
# 
# 
# High freq. dielectric constant tensor:
#      x y z
#    x 1.800210 -0.001560 -0.019310 
#    y -0.001560 1.825410 -0.014080 
#    z -0.019310 -0.014080 1.810470 
# 
# From -- ./inp_files/277787.got.cif
#   From: 2010.06.25/outbox.cif.g09.slc.cpg/sg2_139_cif.got.tgz:277787.got - 2010.06.27 13:26:56.
