data_PCOD8003343
_publ_section_title
;
Structure prediction by ZEFSAII (Michael W. Deem and Ramdas Pophale) SiO2 
 PCOD8003343
Probable space group: P -1
;
_chemical_formula_sum "Si O2"
_cell_formula_units_Z 16
_cell_length_a 7.626936
_cell_length_b 14.604699
_cell_length_c 14.049565
_cell_angle_alpha 152.801379
_cell_angle_beta 78.459021
_cell_angle_gamma 97.584994
_cell_volume 697.149196
_symmetry_space_group_name_H-M "P -1"
_symmetry_group_IT_number 2
_symmetry_cell_setting 'triclinic'
loop_
_space_group_symop_operation_xyz
x,y,z
-x,-y,-z
loop_
_atom_site_type_symbol
_atom_site_label
_atom_site_fract_x
_atom_site_fract_y
_atom_site_fract_z
Si Si1 0.874957 0.390705 0.480815
Si Si2 0.905066 0.945690 0.762737
Si Si3 0.616801 0.184220 0.644006
Si Si4 0.502233 0.613730 0.979801
Si Si5 0.496205 0.438760 0.278712
Si Si6 0.676814 0.129418 0.119564
Si Si7 0.466103 0.104608 0.292883
Si Si8 0.764581 0.917900 0.232450
O O1 0.721479 0.555389 0.691434
O O2 0.778126 0.219112 0.280129
O O3 0.000000 0.500000 0.500000
O O4 0.987941 0.278131 0.451118
O O5 0.733526 0.958634 0.722841
O O6 0.041568 0.106494 0.862854
O O7 0.828596 0.988477 0.917291
O O8 0.521957 0.372296 0.766998
O O9 0.500000 0.000000 0.500000
O O10 0.784938 0.072662 0.462964
O O11 0.651213 0.278184 0.831854
O O12 0.442448 0.664017 0.924109
O O13 0.694938 0.701806 0.066229
O O14 0.591323 0.315040 0.238898
O O15 0.560332 0.656505 0.484610
O O16 0.524489 0.020980 0.099535
O O17 0.604225 0.021735 0.280475
#
# Coordination Sequence:
#
# PCOD8003343 Si02
#       8
#     2   2   2   2   2   2   2   2
#     4  11  22  36  58  85 126 174 218 267 314 362
#     4  12  23  38  60  92 127 174 217 266 317 371
#     4   9  19  40  67  99 122 160 208 262 328 393
#     4  10  20  36  69  95 124 165 210 261 325 391
#     4  11  21  40  60  92 128 170 219 261 316 381
#     4  11  23  38  56  89 133 172 223 260 308 372
#     4  11  22  40  61  88 136 175 215 264 311 369
#     4  11  22  40  64  98 130 163 216 267 322 382
#
# _framework density 22.950612
#
# number of rings (size 3 to 8) (size 9 to 14) (size 15 to 20)
#    0.000    1.250    3.750    4.500    1.750    0.000 
#    2.250    0.000    0.000   12.750    0.000    0.000 
#    0.000    0.000    0.000    0.000    0.000    0.000 
#
# Total GULP energy -198249.320326 kJ/mol
# GULP energy per Si atom -12390.582520 kJ/mol
# Density = 2.289838 g / cm^3
# Si number density = 22.950612 Si / 1000 Ang^3
#
#
#
# Elastic Constant Matrix: (Units=GPa)
#
#
# Indices 1 2 3 4 5 6 
#
# 1 104.1165 35.3738 19.0366 -2.8010 -16.0714 16.5455
# 2 35.3738 84.9645 11.2748 -3.6937 -5.8551 17.1674
# 3 19.0366 11.2748 85.4332 -6.0216 0.1280 6.5078
# 4 -2.8010 -3.6937 -6.0216 48.3053 1.4120 8.2824
# 5 -16.0714 -5.8551 0.1280 1.4120 23.1921 3.9426
# 6 16.5455 17.1674 6.5078 8.2824 3.9426 26.2709
#
#
#
# Elastic Compliance Matrix: (Units=1/GPa)
#
#
# Indices 1 2 3 4 5 6 
#
# 1 0.013949 -0.003112 -0.001983 0.001439 0.010205 -0.008245
# 2 -0.003112 0.015294 -0.000463 0.002408 0.003115 -0.009146
# 3 -0.001983 -0.000463 0.012479 0.001770 -0.001346 -0.001896
# 4 0.001439 0.002408 0.001770 0.022922 0.001975 -0.010442
# 5 0.010205 0.003115 -0.001346 0.001975 0.053722 -0.016815
# 6 -0.008245 -0.009146 -0.001896 -0.010442 -0.016815 0.055520
#
#
# Mechanical properties :
#
#
# Convention : Reuss Voigt Hill
#
# Bulk Modulus (GPa) = 32.67441 45.09829 38.88635
# Shear Modulus (GPa) = 25.61391 33.47556 29.54473
#
# Velocity S-wave (km/s) = 3.34435 3.82329 3.59181
# Velocity P-wave (km/s) = 5.40191 6.25963 5.84652
#
# Compressibility (1/GPa) = 0.03060499
#
# Stress axis : x y z
#
# Youngs Moduli (GPa) = 71.68974 65.38352 80.13321
#
# Poissons Ratio (x) = 0.20351 0.15892
# Poissons Ratio (y) = 0.22313 0.03711
# Poissons Ratio (z) = 0.14218 0.03028
#
# Static dielectric constant tensor:
#      x y z
#    x 4.208860 0.420380 0.182420 
#    y 0.420380 4.606790 -0.293380 
#    z 0.182420 -0.293380 4.765190 
# 
# 
# High freq. dielectric constant tensor:
#      x y z
#    x 1.872630 0.014390 0.011420 
#    y 0.014390 1.917450 0.000480 
#    z 0.011420 0.000480 1.919570 
# 
# From -- ./inp_files/505710.got.cif
#   From: 2010.06.25/outbox.cif.g09.slc.cpg/sg2_253_cif.got.tgz:505710.got - 2010.06.27 13:26:56.
