data_PCOD8003095
_publ_section_title
;
Structure prediction by ZEFSAII (Michael W. Deem and Ramdas Pophale) SiO2 
 PCOD8003095
Probable space group: P -1
;
_chemical_formula_sum "Si O2"
_cell_formula_units_Z 14
_cell_length_a 15.145197
_cell_length_b 12.084581
_cell_length_c 9.169525
_cell_angle_alpha 48.690785
_cell_angle_beta 121.546529
_cell_angle_gamma 150.397067
_cell_volume 616.874256
_symmetry_space_group_name_H-M "P -1"
_symmetry_group_IT_number 2
_symmetry_cell_setting 'triclinic'
loop_
_space_group_symop_operation_xyz
x,y,z
-x,-y,-z
loop_
_atom_site_type_symbol
_atom_site_label
_atom_site_fract_x
_atom_site_fract_y
_atom_site_fract_z
Si Si1 0.127182 0.102705 0.308311
Si Si2 0.730847 0.648094 0.487422
Si Si3 0.145373 0.718335 0.255193
Si Si4 0.810023 0.156114 0.493731
Si Si5 0.598581 0.251105 0.528677
Si Si6 0.300902 0.424841 0.919302
Si Si7 0.652207 0.780802 0.081448
O O1 0.252201 0.319085 0.353766
O O2 0.205101 0.029426 0.411196
O O3 0.134214 0.214333 0.072241
O O4 0.923053 0.859638 0.390768
O O5 0.624644 0.377108 0.588304
O O6 0.627867 0.670434 0.311666
O O7 0.116080 0.757261 0.353898
O O8 0.315721 0.807209 0.322826
O O9 0.960252 0.423194 0.297990
O O10 0.198508 0.917542 0.024780
O O11 0.616361 0.011306 0.450268
O O12 0.699829 0.438254 0.310953
O O13 0.294148 0.270387 0.953234
O O14 0.468270 0.637141 0.989723
#
# Coordination Sequence:
#
# PCOD8003095 Si02
#       7
#     2   2   2   2   2   2   2
#     4  11  21  42  62  93 121 165 213 254 306 367
#     4  10  24  39  66  87 126 163 211 260 302 359
#     4  11  22  39  61  95 131 161 197 256 307 374
#     4  11  22  36  64  93 123 164 203 246 315 361
#     4  11  22  41  65  96 124 161 204 258 304 370
#     4  10  20  36  62  91 121 153 212 255 297 361
#     4  10  20  39  58  94 122 158 203 260 302 363
#
# _framework density 22.695062
#
# number of rings (size 3 to 8) (size 9 to 14) (size 15 to 20)
#    0.000    1.429    4.286    2.143    0.000    6.857 
#    0.000    0.714    3.143    1.714    0.000    0.000 
#    0.000    0.000    0.000    0.000    0.000    0.000 
#
# Total GULP energy -173525.504291 kJ/mol
# GULP energy per Si atom -12394.678878 kJ/mol
# Density = 2.264341 g / cm^3
# Si number density = 22.695062 Si / 1000 Ang^3
#
#
#
# Elastic Constant Matrix: (Units=GPa)
#
#
# Indices 1 2 3 4 5 6 
#
# 1 50.3641 15.6775 10.0672 -10.8067 4.5700 1.5296
# 2 15.6775 86.6814 24.0654 -8.1742 -3.1253 -9.7757
# 3 10.0672 24.0654 41.0754 -11.4015 10.1705 -6.8699
# 4 -10.8067 -8.1742 -11.4015 28.5331 -6.9094 -2.1646
# 5 4.5700 -3.1253 10.1705 -6.9094 21.7395 -0.1350
# 6 1.5296 -9.7757 -6.8699 -2.1646 -0.1350 32.2131
#
#
#
# Elastic Compliance Matrix: (Units=1/GPa)
#
#
# Indices 1 2 3 4 5 6 
#
# 1 0.022881 -0.003441 -0.001549 0.006277 -0.002598 -0.002050
# 2 -0.003441 0.015487 -0.009214 0.001565 0.007777 0.003036
# 3 -0.001549 -0.009214 0.037286 0.008287 -0.015773 0.005720
# 4 0.006277 0.001565 0.008287 0.043726 0.008957 0.004920
# 5 -0.002598 0.007777 -0.015773 0.008957 0.057889 -0.000036
# 6 -0.002050 0.003036 0.005720 0.004920 -0.000036 0.033612
#
#
# Mechanical properties :
#
#
# Convention : Reuss Voigt Hill
#
# Bulk Modulus (GPa) = 21.16586 30.86012 26.01299
# Shear Modulus (GPa) = 19.60489 25.05118 22.32804
#
# Velocity S-wave (km/s) = 2.94230 3.32598 3.14001
# Velocity P-wave (km/s) = 4.57048 5.32698 4.96317
#
# Compressibility (1/GPa) = 0.04724590
#
# Stress axis : x y z
#
# Youngs Moduli (GPa) = 43.70433 64.56912 26.81992
#
# Poissons Ratio (x) = 0.22220 0.04155
# Poissons Ratio (y) = 0.15040 0.24711
# Poissons Ratio (z) = 0.06771 0.59491
#
# Static dielectric constant tensor:
#      x y z
#    x 3.918830 -0.008960 -0.003700 
#    y -0.008960 4.421900 -0.117380 
#    z -0.003700 -0.117380 4.068290 
# 
# 
# High freq. dielectric constant tensor:
#      x y z
#    x 1.884980 0.002760 0.004980 
#    y 0.002760 1.907670 -0.014440 
#    z 0.004980 -0.014440 1.867040 
# 
# From -- ./inp_files/191148.got.cif
#   From: 2010.06.25/outbox.cif.g09.slc.cpg/sg2_96_cif.got.tgz:191148.got - 2010.06.27 13:26:56.
