data_PCOD8003116
_publ_section_title
;
Structure prediction by ZEFSAII (Michael W. Deem and Ramdas Pophale) SiO2 
 PCOD8003116
Probable space group: P -1
;
_chemical_formula_sum "Si O2"
_cell_formula_units_Z 16
_cell_length_a 13.270440
_cell_length_b 13.971272
_cell_length_c 9.110013
_cell_angle_alpha 66.674753
_cell_angle_beta 32.957425
_cell_angle_gamma 84.094890
_cell_volume 749.585888
_symmetry_space_group_name_H-M "P -1"
_symmetry_group_IT_number 2
_symmetry_cell_setting 'triclinic'
loop_
_space_group_symop_operation_xyz
x,y,z
-x,-y,-z
loop_
_atom_site_type_symbol
_atom_site_label
_atom_site_fract_x
_atom_site_fract_y
_atom_site_fract_z
Si Si1 0.164737 0.634331 0.727600
Si Si2 0.843884 0.683201 0.628191
Si Si3 0.907203 0.680887 0.217469
Si Si4 0.978563 0.938168 0.909256
Si Si5 0.335408 0.140830 0.212350
Si Si6 0.216896 0.026716 0.146267
Si Si7 0.777938 0.215829 0.699704
Si Si8 0.547319 0.468350 0.618757
O O1 0.118687 0.714130 0.618306
O O2 0.388523 0.637463 0.419155
O O3 0.000000 0.500000 0.000000
O O4 0.125841 0.679334 0.906771
O O5 0.851377 0.647313 0.474479
O O6 0.813912 0.799114 0.613042
O O7 0.068922 0.710382 0.401969
O O8 0.657321 0.576238 0.003470
O O9 0.724642 0.583574 0.404268
O O10 0.922434 0.805241 0.086780
O O11 0.791609 0.938012 0.034947
O O12 0.203202 0.007323 0.513639
O O13 0.000000 0.000000 0.000000
O O14 0.383676 0.131486 0.984032
O O15 0.549365 0.209194 0.000665
O O16 0.261115 0.916665 0.172841
O O17 0.000000 0.000000 0.500000
O O18 0.500000 0.500000 0.500000
#
# Coordination Sequence:
#
# PCOD8003116 Si02
#       8
#     2   2   2   2   2   2   2   2
#     4  10  22  41  65  99 129 171 235 282 327 408
#     4  12  23  45  68  99 141 179 222 282 348 408
#     4  11  24  43  70 100 142 181 223 290 348 401
#     4  11  21  42  67 101 143 180 224 281 346 409
#     4  11  23  39  66  98 134 180 231 277 337 402
#     4  10  20  36  62  94 128 177 227 269 332 396
#     4  12  22  42  68  96 139 179 233 286 334 406
#     4  11  25  46  72 101 134 182 233 286 342 411
#
# _framework density 21.345120000000001
#
# number of rings (size 3 to 8) (size 9 to 14) (size 15 to 20)
#    0.000    1.000    5.000    3.750    1.750    0.000 
#    2.250    6.875    0.000    0.000    0.000    0.000 
#    0.000    0.000    0.000    0.000    0.000    0.000 
#
# Total GULP energy -198294.941324 kJ/mol
# GULP energy per Si atom -12393.433833 kJ/mol
# Density = 2.129654 g / cm^3
# Si number density = 21.345120 Si / 1000 Ang^3
#
#
#
# Elastic Constant Matrix: (Units=GPa)
#
#
# Indices 1 2 3 4 5 6 
#
# 1 165.4523 64.4816 63.2170 13.4045 9.0473 13.7485
# 2 64.4816 109.7080 32.6399 -2.0337 14.4236 9.2670
# 3 63.2170 32.6399 97.5874 -1.0880 7.4106 5.3872
# 4 13.4045 -2.0337 -1.0880 29.0509 4.0729 4.4145
# 5 9.0473 14.4236 7.4106 4.0729 43.3330 2.7658
# 6 13.7485 9.2670 5.3872 4.4145 2.7658 36.2274
#
#
#
# Elastic Compliance Matrix: (Units=1/GPa)
#
#
# Indices 1 2 3 4 5 6 
#
# 1 0.010309 -0.004606 -0.005182 -0.005179 0.000843 -0.001397
# 2 -0.004606 0.012732 -0.000891 0.003694 -0.003371 -0.001569
# 3 -0.005182 -0.000891 0.014044 0.003063 -0.001300 -0.000168
# 4 -0.005179 0.003694 0.003063 0.038328 -0.004032 -0.003798
# 5 0.000843 -0.003371 -0.001300 -0.004032 0.024666 -0.000656
# 6 -0.001397 -0.001569 -0.000168 -0.003798 -0.000656 0.029073
#
#
# Mechanical properties :
#
#
# Convention : Reuss Voigt Hill
#
# Bulk Modulus (GPa) = 63.58564 77.04719 70.31641
# Shear Modulus (GPa) = 32.10250 35.88288 33.99269
#
# Velocity S-wave (km/s) = 3.88232 4.10455 3.99498
# Velocity P-wave (km/s) = 7.06757 7.65750 7.36844
#
# Compressibility (1/GPa) = 0.01572682
#
# Stress axis : x y z
#
# Youngs Moduli (GPa) = 97.00525 78.54487 71.20377
#
# Poissons Ratio (x) = 0.36179 0.36898
# Poissons Ratio (y) = 0.44682 0.06342
# Poissons Ratio (z) = 0.50268 0.06996
#
# Static dielectric constant tensor:
#      x y z
#    x 4.326220 0.048230 -0.002620 
#    y 0.048230 4.319270 0.102350 
#    z -0.002620 0.102350 4.018960 
# 
# 
# High freq. dielectric constant tensor:
#      x y z
#    x 1.838840 -0.000480 0.004210 
#    y -0.000480 1.838220 -0.014850 
#    z 0.004210 -0.014850 1.837450 
# 
# From -- ./inp_files/269680.got.cif
#   From: 2010.06.25/outbox.cif.g09.slc.cpg/sg2_135_cif.got.tgz:269680.got - 2010.06.27 13:26:56.
