data_PCOD8003577
_publ_section_title
;
Structure prediction by ZEFSAII (Michael W. Deem and Ramdas Pophale) SiO2 
 PCOD8003577
Probable space group: P -1
;
_chemical_formula_sum "Si O2"
_cell_formula_units_Z 14
_cell_length_a 7.058210
_cell_length_b 20.959858
_cell_length_c 7.863301
_cell_angle_alpha 137.124079
_cell_angle_beta 119.060264
_cell_angle_gamma 70.476576
_cell_volume 691.409191
_symmetry_space_group_name_H-M "P -1"
_symmetry_group_IT_number 2
_symmetry_cell_setting 'triclinic'
loop_
_space_group_symop_operation_xyz
x,y,z
-x,-y,-z
loop_
_atom_site_type_symbol
_atom_site_label
_atom_site_fract_x
_atom_site_fract_y
_atom_site_fract_z
Si Si1 0.050268 0.464887 0.696750
Si Si2 0.114878 0.100225 0.713169
Si Si3 0.286123 0.170551 0.583208
Si Si4 0.717314 0.219205 0.728752
Si Si5 0.802961 0.619804 0.073449
Si Si6 0.312310 0.581276 0.792399
Si Si7 0.587387 0.896974 0.835099
O O1 0.232530 0.487781 0.677168
O O2 0.980155 0.563438 0.938736
O O3 0.838082 0.410254 0.422918
O O4 0.160975 0.395731 0.740886
O O5 0.215862 0.101496 0.570599
O O6 0.945650 0.181639 0.811030
O O7 0.299406 0.124076 0.978459
O O8 0.000000 0.000000 0.500000
O O9 0.544940 0.193110 0.753995
O O10 0.245031 0.118084 0.279894
O O11 0.163538 0.269268 0.734249
O O12 0.623976 0.173416 0.421780
O O13 0.728917 0.330670 0.930506
O O14 0.562689 0.578390 0.839976
O O15 0.500000 0.000000 0.000000
#
# Coordination Sequence:
#
# PCOD8003577 Si02
#       7
#     2   2   2   2   2   2   2
#     4  10  21  34  62  88 115 159 201 241 296 359
#     4  12  22  40  66  88 119 163 198 252 312 352
#     4   9  23  42  59  90 125 154 205 254 288 371
#     4   9  22  40  57  89 126 153 208 248 292 370
#     4  10  20  40  55  84 125 153 198 247 296 353
#     4  10  20  37  59  87 119 157 197 248 295 347
#     4  10  22  43  61  90 122 155 205 249 294 371
#
# _framework density 20.248501000000001
#
# number of rings (size 3 to 8) (size 9 to 14) (size 15 to 20)
#    0.857    1.143    1.429    1.714    2.000    2.857 
#    2.571    5.714    0.000    0.000    0.000    0.000 
#    0.000    0.000    0.000    0.000    0.000    0.000 
#
# Total GULP energy -173518.153875 kJ/mol
# GULP energy per Si atom -12394.153848 kJ/mol
# Density = 2.020241 g / cm^3
# Si number density = 20.248501 Si / 1000 Ang^3
#
#
#
# Elastic Constant Matrix: (Units=GPa)
#
#
# Indices 1 2 3 4 5 6 
#
# 1 51.6759 27.0588 -1.8677 1.9486 -0.1599 8.9263
# 2 27.0588 85.1679 35.5606 -14.7183 8.8814 5.5596
# 3 -1.8677 35.5606 91.5776 -5.1458 0.4454 4.3786
# 4 1.9486 -14.7183 -5.1458 29.0299 -5.5175 -0.9992
# 5 -0.1599 8.8814 0.4454 -5.5175 30.5512 0.7342
# 6 8.9263 5.5596 4.3786 -0.9992 0.7342 37.1612
#
#
#
# Elastic Compliance Matrix: (Units=1/GPa)
#
#
# Indices 1 2 3 4 5 6 
#
# 1 0.026808 -0.011598 0.004934 -0.006540 0.002391 -0.005509
# 2 -0.011598 0.020623 -0.007759 0.009069 -0.004328 0.000944
# 3 0.004934 -0.007759 0.014025 -0.001488 0.001850 -0.001754
# 4 -0.006540 0.009069 -0.001488 0.040136 0.004566 0.001378
# 5 0.002391 -0.004328 0.001850 0.004566 0.034817 -0.000710
# 6 -0.005509 0.000944 -0.001754 0.001378 -0.000710 0.028349
#
#
# Mechanical properties :
#
#
# Convention : Reuss Voigt Hill
#
# Bulk Modulus (GPa) = 30.66436 38.88053 34.77245
# Shear Modulus (GPa) = 24.45315 30.52644 27.48980
#
# Velocity S-wave (km/s) = 3.47890 3.88698 3.68859
# Velocity P-wave (km/s) = 5.59588 6.27600 5.94567
#
# Compressibility (1/GPa) = 0.03261115
#
# Stress axis : x y z
#
# Youngs Moduli (GPa) = 37.30220 48.49005 71.30361
#
# Poissons Ratio (x) = 0.56236 -0.35185
# Poissons Ratio (y) = 0.43261 0.55325
# Poissons Ratio (z) = -0.18407 0.37624
#
# Static dielectric constant tensor:
#      x y z
#    x 3.573710 -0.111380 0.032180 
#    y -0.111380 3.668070 -0.120070 
#    z 0.032180 -0.120070 3.696780 
# 
# 
# High freq. dielectric constant tensor:
#      x y z
#    x 1.784680 -0.010040 -0.000170 
#    y -0.010040 1.782420 0.002060 
#    z -0.000170 0.002060 1.789490 
# 
# From -- ./inp_files/221420.got.cif
#   From: 2010.06.25/outbox.cif.g09.slc.cpg/sg2_111_cif.got.tgz:221420.got - 2010.06.27 13:26:56.
