data_PCOD8003627
_publ_section_title
;
Structure prediction by ZEFSAII (Michael W. Deem and Ramdas Pophale) SiO2 
 PCOD8003627
Probable space group: P -1
;
_chemical_formula_sum "Si O2"
_cell_formula_units_Z 12
_cell_length_a 8.542758
_cell_length_b 8.798465
_cell_length_c 9.476574
_cell_angle_alpha 91.255865
_cell_angle_beta 110.791468
_cell_angle_gamma 115.149346
_cell_volume 590.082344
_symmetry_space_group_name_H-M "P -1"
_symmetry_group_IT_number 2
_symmetry_cell_setting 'triclinic'
loop_
_space_group_symop_operation_xyz
x,y,z
-x,-y,-z
loop_
_atom_site_type_symbol
_atom_site_label
_atom_site_fract_x
_atom_site_fract_y
_atom_site_fract_z
Si Si1 0.542218 0.361676 0.136155
Si Si2 0.048568 0.156576 0.121048
Si Si3 0.270013 0.506101 0.068519
Si Si4 0.341367 0.044970 0.890624
Si Si5 0.439639 0.827660 0.303078
Si Si6 0.586998 0.839741 0.649832
O O1 0.468218 0.498693 0.154089
O O2 0.572452 0.277696 0.287883
O O3 0.729502 0.444742 0.097637
O O4 0.366091 0.211017 0.990596
O O5 0.089871 0.329469 0.050709
O O6 0.228285 0.187788 0.274855
O O7 0.867599 0.111745 0.161083
O O8 0.000000 0.000000 0.000000
O O9 0.277198 0.658372 0.172957
O O10 0.376092 0.086220 0.736586
O O11 0.500000 0.000000 0.000000
O O12 0.500183 0.775140 0.467360
O O13 0.355385 0.960100 0.305581
#
# Coordination Sequence:
#
# PCOD8003627 Si02
#       6
#     2   2   2   2   2   2
#     4   9  17  34  57  81 111 144 188 225 285 325
#     4  11  20  36  59  85 117 143 192 235 281 329
#     4   9  19  33  58  87 110 146 188 236 273 336
#     4  11  19  36  61  81 109 151 190 230 281 337
#     4  10  21  36  60  84 115 151 193 218 287 342
#     4  10  20  37  60  82 116 156 181 233 279 337
#
# _framework density 20.336144999999998
#
# number of rings (size 3 to 8) (size 9 to 14) (size 15 to 20)
#    0.000    2.000    5.000    0.000    0.000    3.333 
#    0.000    7.500    3.667    2.000    0.000    0.000 
#    0.000    0.000    0.000    0.000    0.000    0.000 
#
# Total GULP energy -148721.727172 kJ/mol
# GULP energy per Si atom -12393.477264 kJ/mol
# Density = 2.028986 g / cm^3
# Si number density = 20.336145 Si / 1000 Ang^3
#
#
#
# Elastic Constant Matrix: (Units=GPa)
#
#
# Indices 1 2 3 4 5 6 
#
# 1 69.1004 38.3700 31.0230 -9.5323 -4.0271 21.3305
# 2 38.3700 126.6342 41.4617 -18.5116 -12.0373 29.9321
# 3 31.0230 41.4617 107.7387 -36.8213 -22.3683 14.4906
# 4 -9.5323 -18.5116 -36.8213 35.4411 -0.6964 -11.4354
# 5 -4.0271 -12.0373 -22.3683 -0.6964 26.3060 -5.0620
# 6 21.3305 29.9321 14.4906 -11.4354 -5.0620 39.9275
#
#
#
# Elastic Compliance Matrix: (Units=1/GPa)
#
#
# Indices 1 2 3 4 5 6 
#
# 1 0.021004 -0.003558 -0.006972 -0.006357 -0.006169 -0.008626
# 2 -0.003558 0.011152 -0.001522 0.001676 0.002321 -0.005133
# 3 -0.006972 -0.001522 0.023380 0.023859 0.019851 0.005731
# 4 -0.006357 0.001676 0.023859 0.056768 0.024045 0.012788
# 5 -0.006169 0.002321 0.019851 0.024045 0.057283 0.008501
# 6 -0.008626 -0.005133 0.005731 0.012788 0.008501 0.036162
#
#
# Mechanical properties :
#
#
# Convention : Reuss Voigt Hill
#
# Bulk Modulus (GPa) = 31.81603 58.35365 45.08484
# Shear Modulus (GPa) = 20.80464 33.17616 26.99040
#
# Velocity S-wave (km/s) = 3.20197 4.04343 3.64705
# Velocity P-wave (km/s) = 5.41748 7.11027 6.32080
#
# Compressibility (1/GPa) = 0.03143069
#
# Stress axis : x y z
#
# Youngs Moduli (GPa) = 47.61022 89.66933 42.77184
#
# Poissons Ratio (x) = 0.31907 0.29821
# Poissons Ratio (y) = 0.16941 0.06511
# Poissons Ratio (z) = 0.33194 0.13650
#
# Static dielectric constant tensor:
#      x y z
#    x 3.717770 0.054040 -0.305380 
#    y 0.054040 4.140570 -0.264240 
#    z -0.305380 -0.264240 3.524960 
# 
# 
# High freq. dielectric constant tensor:
#      x y z
#    x 1.774580 -0.009770 -0.032270 
#    y -0.009770 1.815380 -0.023710 
#    z -0.032270 -0.023710 1.757800 
# 
# From -- ./inp_files/149857.got.cif
#   From: 2010.06.25/outbox.cif.g09.slc.cpg/sg2_75_cif.got.tgz:149857.got - 2010.06.27 13:26:56.
