data_PCOD8003451
_publ_section_title
;
Structure prediction by ZEFSAII (Michael W. Deem and Ramdas Pophale) SiO2 
 PCOD8003451
Probable space group: P -1
;
_chemical_formula_sum "Si O2"
_cell_formula_units_Z 16
_cell_length_a 11.211922
_cell_length_b 14.039487
_cell_length_c 13.853434
_cell_angle_alpha 159.079645
_cell_angle_beta 72.546071
_cell_angle_gamma 109.073436
_cell_volume 735.811214
_symmetry_space_group_name_H-M "P -1"
_symmetry_group_IT_number 2
_symmetry_cell_setting 'triclinic'
loop_
_space_group_symop_operation_xyz
x,y,z
-x,-y,-z
loop_
_atom_site_type_symbol
_atom_site_label
_atom_site_fract_x
_atom_site_fract_y
_atom_site_fract_z
Si Si1 0.385691 0.837413 0.819598
Si Si2 0.197297 0.148610 0.054533
Si Si3 0.020708 0.236704 0.341379
Si Si4 0.244115 0.342848 0.023383
Si Si5 0.301127 0.664534 0.874177
Si Si6 0.964501 0.301420 0.072677
Si Si7 0.597617 0.106866 0.496123
Si Si8 0.545630 0.794892 0.570432
O O1 0.309052 0.642255 0.733016
O O2 0.440269 0.678608 0.566406
O O3 0.500000 0.000000 0.000000
O O4 0.306975 0.059067 0.006964
O O5 0.110738 0.311475 0.297711
O O6 0.253255 0.342684 0.137927
O O7 0.118497 0.884073 0.775166
O O8 0.014313 0.505761 0.657057
O O9 0.074535 0.005554 0.172824
O O10 0.098392 0.332598 0.013248
O O11 0.329531 0.609074 0.217216
O O12 0.296998 0.087805 0.724445
O O13 0.150571 0.627580 0.899295
O O14 0.364763 0.429244 0.686505
O O15 0.367638 0.944597 0.163692
O O16 0.500000 0.000000 0.500000
O O17 0.522601 0.128567 0.436299
#
# Coordination Sequence:
#
# PCOD8003451 Si02
#       8
#     2   2   2   2   2   2   2   2
#     4  10  21  36  56  89 130 180 209 242 290 374
#     4  10  20  37  57  89 134 170 214 253 298 366
#     4  10  22  35  55  90 129 180 210 246 297 359
#     4  11  24  41  67  97 123 162 209 270 323 372
#     4  11  23  40  60  92 133 176 208 242 297 381
#     4  11  22  39  62  91 131 170 212 254 307 369
#     4  12  26  47  72  94 121 157 212 281 335 377
#     4  11  24  41  62  89 126 171 216 257 308 371
#
# _framework density 21.744709
#
# number of rings (size 3 to 8) (size 9 to 14) (size 15 to 20)
#    0.000    1.250    2.500    3.750    3.500    6.500 
#    0.000    0.000    0.000    4.500    0.000    0.000 
#    0.000    0.000    0.000    0.000    0.000    0.000 
#
# Total GULP energy -198411.215347 kJ/mol
# GULP energy per Si atom -12400.700959 kJ/mol
# Density = 2.169522 g / cm^3
# Si number density = 21.744709 Si / 1000 Ang^3
#
#
#
# Elastic Constant Matrix: (Units=GPa)
#
#
# Indices 1 2 3 4 5 6 
#
# 1 131.9850 21.4286 20.0976 -0.6772 -22.8928 11.4988
# 2 21.4286 65.0856 12.5580 6.4913 -5.9804 20.5620
# 3 20.0976 12.5580 69.5867 12.5623 -16.8667 3.0989
# 4 -0.6772 6.4913 12.5623 23.9803 1.8931 2.1422
# 5 -22.8928 -5.9804 -16.8667 1.8931 26.3371 -4.1092
# 6 11.4988 20.5620 3.0989 2.1422 -4.1092 20.9300
#
#
#
# Elastic Compliance Matrix: (Units=1/GPa)
#
#
# Indices 1 2 3 4 5 6 
#
# 1 0.009348 -0.001725 -0.000775 0.000779 0.006860 -0.002059
# 2 -0.001725 0.023450 -0.002416 -0.003135 -0.000864 -0.021581
# 3 -0.000775 -0.002416 0.020039 -0.011204 0.012967 0.003525
# 4 0.000779 -0.003135 -0.011204 0.049593 -0.011238 -0.002972
# 5 0.006860 -0.000864 0.012967 -0.011238 0.053924 0.006897
# 6 -0.002059 -0.021581 0.003525 -0.002972 0.006897 0.071247
#
#
# Mechanical properties :
#
#
# Convention : Reuss Voigt Hill
#
# Bulk Modulus (GPa) = 23.25316 41.64732 32.45024
# Shear Modulus (GPa) = 19.85958 28.42101 24.14030
#
# Velocity S-wave (km/s) = 3.02537 3.61921 3.33553
# Velocity P-wave (km/s) = 4.78757 6.05470 5.45803
#
# Compressibility (1/GPa) = 0.04300490
#
# Stress axis : x y z
#
# Youngs Moduli (GPa) = 106.97513 42.64478 49.90311
#
# Poissons Ratio (x) = 0.07356 0.03866
# Poissons Ratio (y) = 0.18454 0.12057
# Poissons Ratio (z) = 0.08286 0.10303
#
# Static dielectric constant tensor:
#      x y z
#    x 4.208390 0.206900 -0.200510 
#    y 0.206900 3.889020 0.002750 
#    z -0.200510 0.002750 3.869290 
# 
# 
# High freq. dielectric constant tensor:
#      x y z
#    x 1.875960 0.012830 -0.011680 
#    y 0.012830 1.805420 0.012360 
#    z -0.011680 0.012360 1.857610 
# 
# From -- ./inp_files/459576.got.cif
#   From: 2010.06.25/outbox.cif.g09.slc.cpg/sg2_230_cif.got.tgz:459576.got - 2010.06.27 13:26:56.
