data_PCOD8003816
_publ_section_title
;
Structure prediction by ZEFSAII (Michael W. Deem and Ramdas Pophale) SiO2 
 PCOD8003816
Probable space group: P -1
;
_chemical_formula_sum "Si O2"
_cell_formula_units_Z 16
_cell_length_a 9.145988
_cell_length_b 11.662671
_cell_length_c 15.990225
_cell_angle_alpha 115.116265
_cell_angle_beta 34.681308
_cell_angle_gamma 97.273123
_cell_volume 792.629599
_symmetry_space_group_name_H-M "P -1"
_symmetry_group_IT_number 2
_symmetry_cell_setting 'triclinic'
loop_
_space_group_symop_operation_xyz
x,y,z
-x,-y,-z
loop_
_atom_site_type_symbol
_atom_site_label
_atom_site_fract_x
_atom_site_fract_y
_atom_site_fract_z
Si Si1 0.918376 0.369095 0.791436
Si Si2 0.897303 0.314126 0.317425
Si Si3 0.323429 0.931650 0.353841
Si Si4 0.546764 0.383370 0.344837
Si Si5 0.243659 0.213424 0.428032
Si Si6 0.419814 0.306022 0.976365
Si Si7 0.216486 0.449372 0.809112
Si Si8 0.793673 0.224143 0.506460
O O1 0.711480 0.291775 0.880783
O O2 0.069319 0.319999 0.616505
O O3 0.153874 0.341186 0.744786
O O4 0.738499 0.536556 0.933940
O O5 0.683702 0.309846 0.345403
O O6 0.750258 0.476194 0.466115
O O7 0.913065 0.203075 0.348649
O O8 0.221810 0.270110 0.122367
O O9 0.507816 0.797319 0.169006
O O10 0.322526 0.887131 0.438347
O O11 0.422001 0.055922 0.332864
O O12 0.000000 0.000000 0.500000
O O13 0.468187 0.267233 0.301192
O O14 0.790179 0.414479 0.194419
O O15 0.034414 0.221683 0.454743
O O16 0.526894 0.375061 0.680844
O O17 0.000000 0.500000 0.000000
#
# Coordination Sequence:
#
# PCOD8003816 Si02
#       8
#     2   2   2   2   2   2   2   2
#     4  11  21  36  65  91 116 157 206 248 303 363
#     4  10  20  37  61  89 125 154 199 260 303 347
#     4  10  21  41  61  87 124 163 202 251 299 360
#     4  10  20  38  58  88 125 160 192 249 316 356
#     4  11  21  40  65  85 121 168 205 237 308 368
#     4  11  20  36  67  89 115 162 209 239 303 362
#     4  11  23  36  60  93 130 149 200 264 306 348
#     4  10  22  37  59  89 122 160 201 250 301 356
#
# _framework density 20.185974000000002
#
# number of rings (size 3 to 8) (size 9 to 14) (size 15 to 20)
#    0.000    1.500    5.000    2.250    1.750    3.000 
#    0.000    5.625    2.750    0.000    0.000    0.000 
#    0.000    0.000    0.000    0.000    0.000    0.000 
#
# Total GULP energy -198211.505118 kJ/mol
# GULP energy per Si atom -12388.219070 kJ/mol
# Density = 2.014003 g / cm^3
# Si number density = 20.185974 Si / 1000 Ang^3
#
#
#
# Elastic Constant Matrix: (Units=GPa)
#
#
# Indices 1 2 3 4 5 6 
#
# 1 77.3906 56.0056 13.4103 -12.2884 0.4279 -9.8138
# 2 56.0056 117.9282 40.0077 -15.7452 1.9152 -2.4143
# 3 13.4103 40.0077 90.9571 -19.8682 7.8387 -3.7512
# 4 -12.2884 -15.7452 -19.8682 36.5398 3.1770 4.1481
# 5 0.4279 1.9152 7.8387 3.1770 19.1005 -9.6067
# 6 -9.8138 -2.4143 -3.7512 4.1481 -9.6067 34.4637
#
#
#
# Elastic Compliance Matrix: (Units=1/GPa)
#
#
# Indices 1 2 3 4 5 6 
#
# 1 0.021210 -0.010307 0.002121 0.003009 0.002089 0.005769
# 2 -0.010307 0.015131 -0.005039 0.000680 -0.000688 -0.002697
# 3 0.002121 -0.005039 0.015160 0.007573 -0.007589 -0.001126
# 4 0.003009 0.000680 0.007573 0.034471 -0.011856 -0.005725
# 5 0.002089 -0.000688 -0.007589 -0.011856 0.067505 0.019964
# 6 0.005769 -0.002697 -0.001126 -0.005725 0.019964 0.036601
#
#
# Mechanical properties :
#
#
# Convention : Reuss Voigt Hill
#
# Bulk Modulus (GPa) = 39.91747 56.12481 48.02114
# Shear Modulus (GPa) = 22.23433 29.81096 26.02265
#
# Velocity S-wave (km/s) = 3.32245 3.84711 3.59436
# Velocity P-wave (km/s) = 5.87673 6.89912 6.40835
#
# Compressibility (1/GPa) = 0.02505169
#
# Stress axis : x y z
#
# Youngs Moduli (GPa) = 47.14656 66.08983 65.96445
#
# Poissons Ratio (x) = 0.68118 -0.13994
# Poissons Ratio (y) = 0.48594 0.33241
# Poissons Ratio (z) = -0.10002 0.33304
#
# Static dielectric constant tensor:
#      x y z
#    x 3.831320 0.062470 -0.137990 
#    y 0.062470 4.662870 -0.082980 
#    z -0.137990 -0.082980 3.755240 
# 
# 
# High freq. dielectric constant tensor:
#      x y z
#    x 1.776530 0.001110 -0.012350 
#    y 0.001110 1.782030 -0.022880 
#    z -0.012350 -0.022880 1.774780 
# 
# From -- ./inp_files/500515.got.cif
#   From: 2010.06.25/outbox.cif.g09.slc.cpg/sg2_251_cif.got.tgz:500515.got - 2010.06.27 13:26:56.
