data_PCOD8003396
_publ_section_title
;
Structure prediction by ZEFSAII (Michael W. Deem and Ramdas Pophale) SiO2 
 PCOD8003396
Probable space group: P -1
;
_chemical_formula_sum "Si O2"
_cell_formula_units_Z 14
_cell_length_a 12.263558
_cell_length_b 16.117477
_cell_length_c 16.699403
_cell_angle_alpha 17.583937
_cell_angle_beta 42.847978
_cell_angle_gamma 44.713170
_cell_volume 677.023727
_symmetry_space_group_name_H-M "P -1"
_symmetry_group_IT_number 2
_symmetry_cell_setting 'triclinic'
loop_
_space_group_symop_operation_xyz
x,y,z
-x,-y,-z
loop_
_atom_site_type_symbol
_atom_site_label
_atom_site_fract_x
_atom_site_fract_y
_atom_site_fract_z
Si Si1 0.108423 0.256702 0.204283
Si Si2 0.937531 0.032910 0.192488
Si Si3 0.890986 0.775949 0.298632
Si Si4 0.396491 0.139447 0.038207
Si Si5 0.928334 0.613404 0.723470
Si Si6 0.294100 0.567162 0.574615
Si Si7 0.280537 0.148350 0.834167
O O1 0.271966 0.187954 0.132456
O O2 0.168455 0.328130 0.196200
O O3 0.000000 0.000000 0.500000
O O4 0.000000 0.500000 0.000000
O O5 0.832160 0.882405 0.320401
O O6 0.917975 0.876913 0.429694
O O7 0.869298 0.347056 0.953151
O O8 0.123670 0.020531 0.075766
O O9 0.746622 0.751376 0.335660
O O10 0.000000 0.500000 0.500000
O O11 0.000000 0.000000 0.000000
O O12 0.346833 0.878602 0.251744
O O13 0.574196 0.083181 0.030495
O O14 0.396968 0.405664 0.736529
O O15 0.109814 0.553135 0.711199
O O16 0.327415 0.418290 0.608926
#
# Coordination Sequence:
#
# PCOD8003396 Si02
#       7
#     2   2   2   2   2   2   2
#     4  12  22  39  57  79 113 150 197 228 263 327
#     4  10  21  36  58  83 109 142 184 233 284 324
#     4  10  20  37  56  83 111 144 184 230 277 334
#     4  12  23  37  54  82 116 154 180 228 276 329
#     4  11  20  36  58  81 109 148 188 231 268 323
#     4  11  21  35  53  83 116 147 182 221 278 339
#     4  10  23  36  58  84 118 145 184 226 285 340
#
# _framework density 20.678743000000001
#
# number of rings (size 3 to 8) (size 9 to 14) (size 15 to 20)
#    0.000    1.143    2.857    6.000    0.000    5.714 
#    0.000    0.000    0.000    1.714    0.000    0.000 
#    0.000    0.000    0.000    0.000    0.000    0.000 
#
# Total GULP energy -173586.645315 kJ/mol
# GULP energy per Si atom -12399.046094 kJ/mol
# Density = 2.063168 g / cm^3
# Si number density = 20.678743 Si / 1000 Ang^3
#
#
#
# Elastic Constant Matrix: (Units=GPa)
#
#
# Indices 1 2 3 4 5 6 
#
# 1 73.6147 37.6215 13.0079 9.8370 23.0486 16.0951
# 2 37.6215 75.6361 10.4841 -0.0983 -8.0068 19.1433
# 3 13.0079 10.4841 100.0961 -12.4581 9.7017 9.5561
# 4 9.8370 -0.0983 -12.4581 24.2746 2.8827 4.9735
# 5 23.0486 -8.0068 9.7017 2.8827 24.9362 -1.5159
# 6 16.0951 19.1433 9.5561 4.9735 -1.5159 34.2800
#
#
#
# Elastic Compliance Matrix: (Units=1/GPa)
#
#
# Indices 1 2 3 4 5 6 
#
# 1 0.045644 -0.026224 0.001139 -0.010442 -0.050320 -0.007814
# 2 -0.026224 0.031153 -0.001959 0.006525 0.034008 -0.003981
# 3 0.001139 -0.001959 0.012116 0.007511 -0.007522 -0.004241
# 4 -0.010442 0.006525 0.007511 0.050669 0.002476 -0.008077
# 5 -0.050320 0.034008 -0.007522 0.002476 0.100831 0.010831
# 6 -0.007814 -0.003981 -0.004241 -0.008077 0.010831 0.037896
#
#
# Mechanical properties :
#
#
# Convention : Reuss Voigt Hill
#
# Bulk Modulus (GPa) = 28.71570 41.28600 35.00085
# Shear Modulus (GPa) = 14.53464 29.24706 21.89085
#
# Velocity S-wave (km/s) = 2.65406 3.76487 3.25717
# Velocity P-wave (km/s) = 4.82792 6.23761 5.57748
#
# Compressibility (1/GPa) = 0.03482415
#
# Stress axis : x y z
#
# Youngs Moduli (GPa) = 21.90876 32.09995 82.53350
#
# Poissons Ratio (x) = 0.84179 -0.09398
# Poissons Ratio (y) = 0.57453 0.16169
# Poissons Ratio (z) = -0.02495 0.06288
#
# Static dielectric constant tensor:
#      x y z
#    x 4.777560 0.544470 0.157370 
#    y 0.544470 3.999650 -0.139340 
#    z 0.157370 -0.139340 3.742250 
# 
# 
# High freq. dielectric constant tensor:
#      x y z
#    x 1.788150 0.028110 0.013720 
#    y 0.028110 1.798760 -0.014000 
#    z 0.013720 -0.014000 1.822500 
# 
# From -- ./inp_files/108079.got.cif
#   From: 2010.06.25/outbox.cif.g09.slc.cpg/sg2_55_cif.got.tgz:108079.got - 2010.06.27 13:26:56.
