data_PCOD8003405
_publ_section_title
;
Structure prediction by ZEFSAII (Michael W. Deem and Ramdas Pophale) SiO2 
 PCOD8003405
Probable space group: P -1
;
_chemical_formula_sum "Si O2"
_cell_formula_units_Z 16
_cell_length_a 23.003615
_cell_length_b 7.240882
_cell_length_c 10.660800
_cell_angle_alpha 137.463524
_cell_angle_beta 47.882742
_cell_angle_gamma 100.988054
_cell_volume 708.815965
_symmetry_space_group_name_H-M "P -1"
_symmetry_group_IT_number 2
_symmetry_cell_setting 'triclinic'
loop_
_space_group_symop_operation_xyz
x,y,z
-x,-y,-z
loop_
_atom_site_type_symbol
_atom_site_label
_atom_site_fract_x
_atom_site_fract_y
_atom_site_fract_z
Si Si1 0.251565 0.175144 0.639828
Si Si2 0.563257 0.497735 0.592238
Si Si3 0.947931 0.793019 0.614369
Si Si4 0.260356 0.753055 0.941592
Si Si5 0.584945 0.523692 0.844915
Si Si6 0.340465 0.826281 0.091624
Si Si7 0.034164 0.604524 0.121914
Si Si8 0.399248 0.172110 0.799635
O O1 0.239185 0.489465 0.887530
O O2 0.311184 0.847939 0.479790
O O3 0.304161 0.110266 0.394024
O O4 0.144952 0.273254 0.821297
O O5 0.628278 0.524037 0.412359
O O6 0.563840 0.663509 0.804405
O O7 0.630454 0.079003 0.302254
O O8 0.450936 0.663431 0.800897
O O9 0.000000 0.500000 0.500000
O O10 0.975926 0.659036 0.362529
O O11 0.973006 0.058648 0.735445
O O12 0.829631 0.981446 0.888996
O O13 0.267026 0.965470 0.148857
O O14 0.500000 0.500000 0.000000
O O15 0.585938 0.801488 0.060246
O O16 0.327869 0.551308 0.035206
O O17 0.000000 0.500000 0.000000
O O18 0.500000 0.000000 0.500000
#
# Coordination Sequence:
#
# PCOD8003405 Si02
#       8
#     2   2   2   2   2   2   2   2
#     4  10  22  38  62  87 117 157 201 246 306 369
#     4  11  22  34  55  87 118 162 196 236 296 349
#     4  10  24  46  66  98 128 162 215 273 327 391
#     4  11  24  38  58  85 124 158 193 249 310 366
#     4  11  19  36  56  83 116 156 201 243 281 353
#     4  10  20  37  56  86 120 157 203 239 287 363
#     4  10  22  45  73  94 124 168 213 269 335 383
#     4   9  18  33  55  78 111 154 204 238 278 336
#
# _framework density 22.572858
#
# number of rings (size 3 to 8) (size 9 to 14) (size 15 to 20)
#    0.000    1.750    3.750    1.875    3.500    2.000 
#    6.750    0.000    0.000    0.000    0.000    0.000 
#    0.000    0.000    0.000    0.000    0.000    0.000 
#
# Total GULP energy -198226.147050 kJ/mol
# GULP energy per Si atom -12389.134191 kJ/mol
# Density = 2.252148 g / cm^3
# Si number density = 22.572858 Si / 1000 Ang^3
#
#
#
# Elastic Constant Matrix: (Units=GPa)
#
#
# Indices 1 2 3 4 5 6 
#
# 1 148.6269 26.5388 37.0135 -4.0594 1.1217 -12.0537
# 2 26.5388 50.0025 7.0531 1.5268 -5.2641 -6.2355
# 3 37.0135 7.0531 81.3794 -3.0637 -11.5102 2.0204
# 4 -4.0594 1.5268 -3.0637 31.1330 -1.9271 -1.3685
# 5 1.1217 -5.2641 -11.5102 -1.9271 41.3709 -3.9540
# 6 -12.0537 -6.2355 2.0204 -1.3685 -3.9540 23.8185
#
#
#
# Elastic Compliance Matrix: (Units=1/GPa)
#
#
# Indices 1 2 3 4 5 6 
#
# 1 0.008700 -0.003806 -0.003877 0.001009 -0.001412 0.003559
# 2 -0.003806 0.022979 0.000065 -0.001203 0.003427 0.004584
# 3 -0.003877 0.000065 0.014717 0.001080 0.004023 -0.002464
# 4 0.001009 -0.001203 0.001080 0.032633 0.001859 0.002287
# 5 -0.001412 0.003427 0.004023 0.001859 0.026264 0.004308
# 6 0.003559 0.004584 -0.002464 0.002287 0.004308 0.046041
#
#
# Mechanical properties :
#
#
# Convention : Reuss Voigt Hill
#
# Bulk Modulus (GPa) = 32.09293 46.80218 39.44756
# Shear Modulus (GPa) = 28.25549 33.22469 30.74009
#
# Velocity S-wave (km/s) = 3.54184 3.84068 3.69428
# Velocity P-wave (km/s) = 5.56548 6.35976 5.97583
#
# Compressibility (1/GPa) = 0.03115951
#
# Stress axis : x y z
#
# Youngs Moduli (GPa) = 114.93766 43.51761 67.94958
#
# Poissons Ratio (x) = 0.16565 0.26346
# Poissons Ratio (y) = 0.43750 -0.00444
# Poissons Ratio (z) = 0.44565 -0.00284
#
# Static dielectric constant tensor:
#      x y z
#    x 6.041720 2.661340 1.138180 
#    y 2.661340 8.161730 1.595860 
#    z 1.138180 1.595860 4.764610 
# 
# 
# High freq. dielectric constant tensor:
#      x y z
#    x 1.900510 0.001350 0.011240 
#    y 0.001350 1.862760 0.003800 
#    z 0.011240 0.003800 1.886550 
# 
# From -- ./inp_files/469656.got.cif
#   From: 2010.06.25/outbox.cif.g09.slc.cpg/sg2_235_cif.got.tgz:469656.got - 2010.06.27 13:26:56.
