data_PCOD8003061
_publ_section_title
;
Structure prediction by ZEFSAII (Michael W. Deem and Ramdas Pophale) SiO2 
 PCOD8003061
Probable space group: P -1
;
_chemical_formula_sum "Si O2"
_cell_formula_units_Z 16
_cell_length_a 20.012947
_cell_length_b 19.929674
_cell_length_c 10.724431
_cell_angle_alpha 149.389835
_cell_angle_beta 149.246442
_cell_angle_gamma 21.412033
_cell_volume 755.276444
_symmetry_space_group_name_H-M "P -1"
_symmetry_group_IT_number 2
_symmetry_cell_setting 'triclinic'
loop_
_space_group_symop_operation_xyz
x,y,z
-x,-y,-z
loop_
_atom_site_type_symbol
_atom_site_label
_atom_site_fract_x
_atom_site_fract_y
_atom_site_fract_z
Si Si1 0.158640 0.990031 0.760146
Si Si2 0.402407 0.253639 0.508962
Si Si3 0.686560 0.847307 0.182173
Si Si4 0.007891 0.447962 0.608974
Si Si5 0.533695 0.340152 0.078671
Si Si6 0.538542 0.567920 0.284553
Si Si7 0.357358 0.911301 0.696234
Si Si8 0.887074 0.384791 0.095079
O O1 0.328345 0.811436 0.834212
O O2 0.242167 0.972131 0.733917
O O3 0.000000 0.000000 0.500000
O O4 0.049182 0.190606 0.968490
O O5 0.341051 0.402171 0.537105
O O6 0.202401 0.332286 0.350946
O O7 0.547046 0.033991 0.346810
O O8 0.506554 0.248919 0.784062
O O9 0.887664 0.667176 0.280716
O O10 0.739760 0.893261 0.218739
O O11 0.579515 0.789588 0.884991
O O12 0.140353 0.450955 0.748862
O O13 0.968542 0.343592 0.299929
O O14 0.625834 0.407248 0.275166
O O15 0.322174 0.530506 0.102113
O O16 0.357797 0.778755 0.398150
O O17 0.500000 0.500000 0.000000
#
# Coordination Sequence:
#
# PCOD8003061 Si02
#       8
#     2   2   2   2   2   2   2   2
#     4  12  25  38  56  84 119 155 190 229 278 338
#     4   9  19  37  61  87 112 144 191 237 280 333
#     4  10  20  38  60  83 117 149 182 237 290 331
#     4  10  20  36  62  87 111 148 189 233 283 338
#     4  10  21  39  60  81 115 156 188 230 281 330
#     4   9  19  38  61  82 108 148 194 234 277 331
#     4  10  22  38  56  85 118 149 189 234 282 337
#     4  10  22  38  57  87 116 145 192 234 277 339
#
# _framework density 21.184297000000001
#
# number of rings (size 3 to 8) (size 9 to 14) (size 15 to 20)
#    0.000    2.000    0.000    3.000    0.000    4.000 
#    0.000   15.000    0.000   11.250    0.000    0.000 
#    0.000    0.000    0.000    0.000    0.000    0.000 
#
# Total GULP energy -198235.543804 kJ/mol
# GULP energy per Si atom -12389.721488 kJ/mol
# Density = 2.113608 g / cm^3
# Si number density = 21.184297 Si / 1000 Ang^3
#
#
#
# Elastic Constant Matrix: (Units=GPa)
#
#
# Indices 1 2 3 4 5 6 
#
# 1 -60.4809 -125.9897 -223.3995 -64.5498 104.2643 67.5273
# 2 -125.9897 -62.1492 -184.4941 -61.7790 86.2616 64.1060
# 3 -223.3995 -184.4941 -268.2117 -77.5482 148.2460 85.6586
# 4 -64.5498 -61.7790 -77.5482 17.3694 29.8930 5.2091
# 5 104.2643 86.2616 148.2460 29.8930 -36.2202 -33.5482
# 6 67.5273 64.1060 85.6586 5.2091 -33.5482 4.3382
#
#
#
# Elastic Compliance Matrix: (Units=1/GPa)
#
#
# Indices 1 2 3 4 5 6 
#
# 1 0.009104 -0.003250 -0.003797 0.000567 0.002617 0.000840
# 2 -0.003250 0.019731 -0.009139 0.004746 0.008024 -0.004184
# 3 -0.003797 -0.009139 0.011390 -0.004709 0.004076 0.006433
# 4 0.000567 0.004746 -0.004709 0.038087 0.006672 0.019890
# 5 0.002617 0.008024 0.004076 0.006672 0.030717 -0.010252
# 6 0.000840 -0.004184 0.006433 0.019890 -0.010252 0.049072
#
#
# Mechanical properties :
#
#
# Convention : Reuss Voigt Hill
#
# Bulk Modulus (GPa) = 127.33294 -162.06760 -17.36733
# Shear Modulus (GPa) = 25.89472 6.63358 16.26415
#
# Velocity S-wave (km/s) = 3.50001 1.77149 2.77383
# Velocity P-wave (km/s) = 8.75049 8.51384 1.42927
#
# Compressibility (1/GPa) = 0.00785343
#
# Stress axis : x y z
#
# Youngs Moduli (GPa) = 109.84128 50.68150 87.80012
#
# Poissons Ratio (x) = 0.16471 0.33338
# Poissons Ratio (y) = 0.35697 0.80238
# Poissons Ratio (z) = 0.41708 0.46316
#
# Static dielectric constant tensor:
#      x y z
#    x 4.091100 0.135260 -0.026250 
#    y 0.135260 3.334380 0.171210 
#    z -0.026250 0.171210 4.012690 
# 
# 
# High freq. dielectric constant tensor:
#      x y z
#    x 1.854290 -0.000230 -0.005650 
#    y -0.000230 1.798000 0.013440 
#    z -0.005650 0.013440 1.834560 
# 
# From -- ./inp_files/472788.got.cif
#   From: 2010.06.25/outbox.cif.g09.slc.cpg/sg2_237_cif.got.tgz:472788.got - 2010.06.27 13:26:56.
