data_PCOD8003607
_publ_section_title
;
Structure prediction by ZEFSAII (Michael W. Deem and Ramdas Pophale) SiO2 
 PCOD8003607
Probable space group: P -1
;
_chemical_formula_sum "Si O2"
_cell_formula_units_Z 14
_cell_length_a 12.775761
_cell_length_b 11.414805
_cell_length_c 9.417885
_cell_angle_alpha 95.336747
_cell_angle_beta 144.741536
_cell_angle_gamma 68.102431
_cell_volume 675.841689
_symmetry_space_group_name_H-M "P -1"
_symmetry_group_IT_number 2
_symmetry_cell_setting 'triclinic'
loop_
_space_group_symop_operation_xyz
x,y,z
-x,-y,-z
loop_
_atom_site_type_symbol
_atom_site_label
_atom_site_fract_x
_atom_site_fract_y
_atom_site_fract_z
Si Si1 0.686791 0.923358 0.494143
Si Si2 0.020672 0.561776 0.175136
Si Si3 0.229519 0.134368 0.089342
Si Si4 0.405760 0.594443 0.541938
Si Si5 0.877328 0.652103 0.496803
Si Si6 0.876736 0.094779 0.742265
Si Si7 0.671223 0.517349 0.102039
O O1 0.763888 0.868985 0.732070
O O2 0.757820 0.801098 0.449572
O O3 0.434510 0.016725 0.225862
O O4 0.774694 0.017499 0.541274
O O5 0.232060 0.568261 0.416092
O O6 0.023179 0.467756 0.291104
O O7 0.000000 0.500000 0.000000
O O8 0.819274 0.715436 0.992413
O O9 0.042768 0.108756 0.828511
O O10 0.500000 0.500000 0.500000
O O11 0.306832 0.751855 0.397851
O O12 0.590231 0.554439 0.855398
O O13 0.702405 0.640013 0.209874
O O14 0.090713 0.621613 0.644143
O O15 0.000000 0.000000 0.000000
O O16 0.500000 0.500000 0.000000
#
# Coordination Sequence:
#
# PCOD8003607 Si02
#       7
#     2   2   2   2   2   2   2
#     4  10  20  37  59  90 128 174 201 263 327 380
#     4  11  20  36  63 100 130 160 220 274 315 383
#     4   9  20  34  57  92 134 157 209 267 322 372
#     4  11  24  39  70 100 125 172 220 272 327 382
#     4  11  24  41  68  91 129 180 218 266 329 390
#     4   9  21  37  56  94 131 159 207 266 317 383
#     4  11  25  46  64  97 134 169 223 273 328 389
#
# _framework density 20.714912000000002
#
# number of rings (size 3 to 8) (size 9 to 14) (size 15 to 20)
#    0.000    1.714    2.857    0.857    8.000    2.286 
#    0.000    0.714    0.000    2.571    0.000    0.000 
#    0.000    0.000    0.000    0.000    0.000    0.000 
#
# Total GULP energy -173518.916458 kJ/mol
# GULP energy per Si atom -12394.208318 kJ/mol
# Density = 2.066776 g / cm^3
# Si number density = 20.714912 Si / 1000 Ang^3
#
#
#
# Elastic Constant Matrix: (Units=GPa)
#
#
# Indices 1 2 3 4 5 6 
#
# 1 81.2528 61.3274 40.2127 6.2724 21.9782 -12.5056
# 2 61.3274 193.6565 67.0257 0.5315 20.9710 -20.2993
# 3 40.2127 67.0257 106.7378 11.5878 14.7274 -6.9655
# 4 6.2724 0.5315 11.5878 37.5116 0.7949 1.0475
# 5 21.9782 20.9710 14.7274 0.7949 36.9848 -2.9915
# 6 -12.5056 -20.2993 -6.9655 1.0475 -2.9915 34.8345
#
#
#
# Elastic Compliance Matrix: (Units=1/GPa)
#
#
# Indices 1 2 3 4 5 6 
#
# 1 0.019752 -0.003814 -0.003504 -0.002099 -0.007847 0.003557
# 2 -0.003814 0.007882 -0.003427 0.001531 -0.000674 0.002434
# 3 -0.003504 -0.003427 0.013351 -0.003447 -0.001265 -0.000590
# 4 -0.002099 0.001531 -0.003447 0.028067 0.001043 -0.001305
# 5 -0.007847 -0.000674 -0.001265 0.001043 0.032508 -0.000702
# 6 0.003557 0.002434 -0.000590 -0.001305 -0.000702 0.031264
#
#
# Mechanical properties :
#
#
# Convention : Reuss Voigt Hill
#
# Bulk Modulus (GPa) = 51.29360 79.86428 65.57894
# Shear Modulus (GPa) = 31.09258 36.07160 33.58209
#
# Velocity S-wave (km/s) = 3.87845 4.17746 4.03073
# Velocity P-wave (km/s) = 6.69865 7.86803 7.30677
#
# Compressibility (1/GPa) = 0.01949561
#
# Stress axis : x y z
#
# Youngs Moduli (GPa) = 50.62741 126.87796 74.90273
#
# Poissons Ratio (x) = 0.48393 0.26243
# Poissons Ratio (y) = 0.19310 0.25666
# Poissons Ratio (z) = 0.17738 0.43476
#
# Static dielectric constant tensor:
#      x y z
#    x 3.611690 0.243510 0.468320 
#    y 0.243510 3.931600 0.149690 
#    z 0.468320 0.149690 3.739120 
# 
# 
# High freq. dielectric constant tensor:
#      x y z
#    x 1.797900 0.010020 0.025230 
#    y 0.010020 1.814180 0.002930 
#    z 0.025230 0.002930 1.816360 
# 
# From -- ./inp_files/258663.got.cif
#   From: 2010.06.25/outbox.cif.g09.slc.cpg/sg2_130_cif.got.tgz:258663.got - 2010.06.27 13:26:56.
