data_PCOD8003070
_publ_section_title
;
Structure prediction by ZEFSAII (Michael W. Deem and Ramdas Pophale) SiO2 
 PCOD8003070
Probable space group: P -1
;
_chemical_formula_sum "Si O2"
_cell_formula_units_Z 16
_cell_length_a 22.210999
_cell_length_b 13.871453
_cell_length_c 19.426382
_cell_angle_alpha 154.990611
_cell_angle_beta 18.238081
_cell_angle_gamma 145.537463
_cell_volume 761.673969
_symmetry_space_group_name_H-M "P -1"
_symmetry_group_IT_number 2
_symmetry_cell_setting 'triclinic'
loop_
_space_group_symop_operation_xyz
x,y,z
-x,-y,-z
loop_
_atom_site_type_symbol
_atom_site_label
_atom_site_fract_x
_atom_site_fract_y
_atom_site_fract_z
Si Si1 0.654764 0.438400 0.911669
Si Si2 0.926926 0.642370 0.599814
Si Si3 0.138651 0.711767 0.813134
Si Si4 0.219758 0.513350 0.746379
Si Si5 0.443581 0.851394 0.788655
Si Si6 0.692496 0.008684 0.504959
Si Si7 0.735990 0.616859 0.654947
Si Si8 0.370852 0.060645 0.791530
O O1 0.633866 0.291858 0.769723
O O2 0.876721 0.300865 0.610252
O O3 0.481415 0.431068 0.147969
O O4 0.659531 0.709490 0.073821
O O5 0.832658 0.517647 0.560367
O O6 0.000000 0.500000 0.500000
O O7 0.756552 0.878428 0.958639
O O8 0.218127 0.577355 0.709640
O O9 0.124015 0.520578 0.647240
O O10 0.292919 0.853878 0.707685
O O11 0.928107 0.901201 0.176683
O O12 0.288929 0.702283 0.840790
O O13 0.397635 0.268880 0.402039
O O14 0.000000 0.500000 0.000000
O O15 0.591815 0.869634 0.577669
O O16 0.298264 0.102081 0.133584
O O17 0.603711 0.977521 0.505894
#
# Coordination Sequence:
#
# PCOD8003070 Si02
#       8
#     2   2   2   2   2   2   2   2
#     4  10  22  37  66  90 120 176 218 253 304 370
#     4  10  20  36  62  88 115 167 221 252 290 372
#     4  12  25  39  62  96 133 164 205 272 327 358
#     4  11  22  42  70  95 117 161 216 260 315 384
#     4  10  22  41  68  91 120 162 217 255 306 390
#     4  11  20  37  66  93 119 171 211 259 305 374
#     4  11  25  42  59  97 136 163 208 264 318 373
#     4  11  21  38  65  91 125 166 225 256 295 382
#
# _framework density 21.006364000000001
#
# number of rings (size 3 to 8) (size 9 to 14) (size 15 to 20)
#    0.000    1.250    6.250    0.375    1.750    2.000 
#    0.000    5.000    0.000    0.000    0.000    0.000 
#    0.000    0.000    0.000    0.000    0.000    0.000 
#
# Total GULP energy -198231.473837 kJ/mol
# GULP energy per Si atom -12389.467115 kJ/mol
# Density = 2.095855 g / cm^3
# Si number density = 21.006364 Si / 1000 Ang^3
#
#
#
# Elastic Constant Matrix: (Units=GPa)
#
#
# Indices 1 2 3 4 5 6 
#
# 1 86.9793 23.2741 45.1738 9.1916 -10.6498 3.5586
# 2 23.2741 99.6715 27.2387 5.6004 -6.0397 13.9974
# 3 45.1738 27.2387 70.7909 9.4801 -7.2515 -0.2871
# 4 9.1916 5.6004 9.4801 33.2448 6.3631 -6.8722
# 5 -10.6498 -6.0397 -7.2515 6.3631 34.3441 0.3425
# 6 3.5586 13.9974 -0.2871 -6.8722 0.3425 25.3981
#
#
#
# Elastic Compliance Matrix: (Units=1/GPa)
#
#
# Indices 1 2 3 4 5 6 
#
# 1 0.018050 -0.000441 -0.010505 -0.003376 0.003961 -0.003372
# 2 -0.000441 0.012586 -0.004033 -0.002788 0.001818 -0.007699
# 3 -0.010505 -0.004033 0.022863 -0.002510 0.001293 0.003256
# 4 -0.003376 -0.002788 -0.002510 0.036376 -0.008926 0.011944
# 5 0.003961 0.001818 0.001293 -0.008926 0.032636 -0.004398
# 6 -0.003372 -0.007699 0.003256 0.011944 -0.004398 0.047416
#
#
# Mechanical properties :
#
#
# Convention : Reuss Voigt Hill
#
# Bulk Modulus (GPa) = 42.47682 49.86833 46.17258
# Shear Modulus (GPa) = 24.06936 29.38108 26.72522
#
# Velocity S-wave (km/s) = 3.38866 3.74394 3.57072
# Velocity P-wave (km/s) = 5.96452 6.51772 6.24725
#
# Compressibility (1/GPa) = 0.02354225
#
# Stress axis : x y z
#
# Youngs Moduli (GPa) = 55.40049 79.45228 43.73841
#
# Poissons Ratio (x) = 0.03503 0.45946
# Poissons Ratio (y) = 0.02443 0.17640
# Poissons Ratio (z) = 0.58197 0.32044
#
# Static dielectric constant tensor:
#      x y z
#    x 3.591090 0.232790 -0.393020 
#    y 0.232790 3.891320 -0.157570 
#    z -0.393020 -0.157570 4.095830 
# 
# 
# High freq. dielectric constant tensor:
#      x y z
#    x 1.799430 0.021640 -0.028310 
#    y 0.021640 1.818990 -0.005210 
#    z -0.028310 -0.005210 1.826510 
# 
# From -- ./inp_files/578014.got.cif
#   From: 2010.06.25/outbox.cif.g09.slc.cpg/sg2_290_cif.got.tgz:578014.got - 2010.06.27 13:26:56.
