data_PCOD8003758
_publ_section_title
;
Structure prediction by ZEFSAII (Michael W. Deem and Ramdas Pophale) SiO2 
 PCOD8003758
Probable space group: P -1
;
_chemical_formula_sum "Si O2"
_cell_formula_units_Z 14
_cell_length_a 11.999598
_cell_length_b 11.814868
_cell_length_c 9.098179
_cell_angle_alpha 111.361569
_cell_angle_beta 58.905705
_cell_angle_gamma 139.795258
_cell_volume 711.946528
_symmetry_space_group_name_H-M "P -1"
_symmetry_group_IT_number 2
_symmetry_cell_setting 'triclinic'
loop_
_space_group_symop_operation_xyz
x,y,z
-x,-y,-z
loop_
_atom_site_type_symbol
_atom_site_label
_atom_site_fract_x
_atom_site_fract_y
_atom_site_fract_z
Si Si1 0.316064 0.771167 0.686148
Si Si2 0.403908 0.663787 0.324201
Si Si3 0.432628 0.449107 0.688445
Si Si4 0.356254 0.049087 0.931535
Si Si5 0.951658 0.844392 0.044321
Si Si6 0.619567 0.315487 0.103326
Si Si7 0.906497 0.568405 0.795802
O O1 0.438570 0.791240 0.483971
O O2 0.312149 0.674243 0.777089
O O3 0.115252 0.657721 0.695382
O O4 0.405207 0.955648 0.772582
O O5 0.429049 0.547325 0.318435
O O6 0.557188 0.785152 0.148854
O O7 0.193270 0.526633 0.336647
O O8 0.500000 0.500000 0.500000
O O9 0.216869 0.255997 0.768851
O O10 0.457384 0.599328 0.808797
O O11 0.453402 0.117614 0.058516
O O12 0.134420 0.919449 0.043728
O O13 0.899210 0.708532 0.893937
O O14 0.000000 0.000000 0.000000
O O15 0.801140 0.424969 0.928909
#
# Coordination Sequence:
#
# PCOD8003758 Si02
#       7
#     2   2   2   2   2   2   2
#     4  11  20  38  58  85 122 150 195 242 295 335
#     4  11  21  37  61  86 121 152 196 240 290 355
#     4  11  22  39  61  88 119 155 191 244 304 336
#     4  10  22  37  60  88 113 157 199 238 287 346
#     4  10  20  37  61  84 117 152 197 242 282 350
#     4  10  21  37  61  84 119 156 194 240 287 357
#     4   9  22  35  59  88 111 159 200 236 284 348
#
# _framework density 19.664397000000001
#
# number of rings (size 3 to 8) (size 9 to 14) (size 15 to 20)
#    0.000    1.714    2.857    1.714    2.000    1.714 
#    0.000    0.714    6.286    0.000    0.000    0.000 
#    0.000    0.000    0.000    0.000    0.000    0.000 
#
# Total GULP energy -173579.010671 kJ/mol
# GULP energy per Si atom -12398.500762 kJ/mol
# Density = 1.961964 g / cm^3
# Si number density = 19.664397 Si / 1000 Ang^3
#
#
#
# Elastic Constant Matrix: (Units=GPa)
#
#
# Indices 1 2 3 4 5 6 
#
# 1 102.8022 34.3385 34.1078 2.8466 5.9985 -5.1193
# 2 34.3385 92.5777 30.7704 6.3221 3.6863 6.0773
# 3 34.1078 30.7704 78.4398 -2.6026 3.8095 -4.6494
# 4 2.8466 6.3221 -2.6026 29.8124 -2.8500 2.9620
# 5 5.9985 3.6863 3.8095 -2.8500 25.6212 -0.5869
# 6 -5.1193 6.0773 -4.6494 2.9620 -0.5869 21.2395
#
#
#
# Elastic Compliance Matrix: (Units=1/GPa)
#
#
# Indices 1 2 3 4 5 6 
#
# 1 0.012443 -0.003387 -0.003839 -0.001313 -0.001927 0.003258
# 2 -0.003387 0.014106 -0.004424 -0.002604 -0.000994 -0.005485
# 3 -0.003839 -0.004424 0.016472 0.002330 -0.000572 0.003606
# 4 -0.001313 -0.002604 0.002330 0.035205 0.004163 -0.003856
# 5 -0.001927 -0.000994 -0.000572 0.004163 0.040178 0.000225
# 6 0.003258 -0.005485 0.003606 -0.003856 0.000225 0.050770
#
#
# Mechanical properties :
#
#
# Convention : Reuss Voigt Hill
#
# Bulk Modulus (GPa) = 50.70572 52.47257 51.58914
# Shear Modulus (GPa) = 25.11955 26.97483 26.04719
#
# Velocity S-wave (km/s) = 3.57797 3.70775 3.64343
# Velocity P-wave (km/s) = 6.55062 6.71355 6.63259
#
# Compressibility (1/GPa) = 0.01972164
#
# Stress axis : x y z
#
# Youngs Moduli (GPa) = 80.36340 70.89216 60.70839
#
# Poissons Ratio (x) = 0.24011 0.23306
# Poissons Ratio (y) = 0.27219 0.26857
# Poissons Ratio (z) = 0.30852 0.31363
#
# Static dielectric constant tensor:
#      x y z
#    x 3.573720 0.007260 -0.053520 
#    y 0.007260 3.626490 0.056800 
#    z -0.053520 0.056800 3.538170 
# 
# 
# High freq. dielectric constant tensor:
#      x y z
#    x 1.770670 -0.004550 -0.003860 
#    y -0.004550 1.765010 0.006670 
#    z -0.003860 0.006670 1.758430 
# 
# From -- ./inp_files/162292.got.cif
#   From: 2010.06.25/outbox.cif.g09.slc.cpg/sg2_82_cif.got.tgz:162292.got - 2010.06.27 13:26:56.
