data_PCOD8003398
_publ_section_title
;
Structure prediction by ZEFSAII (Michael W. Deem and Ramdas Pophale) SiO2 
 PCOD8003398
Probable space group: P -1
;
_chemical_formula_sum "Si O2"
_cell_formula_units_Z 14
_cell_length_a 12.460526
_cell_length_b 11.824676
_cell_length_c 17.371258
_cell_angle_alpha 39.457338
_cell_angle_beta 38.137460
_cell_angle_gamma 30.575246
_cell_volume 766.428559
_symmetry_space_group_name_H-M "P -1"
_symmetry_group_IT_number 2
_symmetry_cell_setting 'triclinic'
loop_
_space_group_symop_operation_xyz
x,y,z
-x,-y,-z
loop_
_atom_site_type_symbol
_atom_site_label
_atom_site_fract_x
_atom_site_fract_y
_atom_site_fract_z
Si Si1 0.053123 0.572830 0.821236
Si Si2 0.366850 0.272135 0.944351
Si Si3 0.294729 0.643735 0.305689
Si Si4 0.532635 0.826468 0.479948
Si Si5 0.878848 0.763577 0.414465
Si Si6 0.146223 0.949762 0.369439
Si Si7 0.441579 0.328628 0.623212
O O1 0.233528 0.413972 0.868692
O O2 0.182191 0.456566 0.728374
O O3 0.981910 0.826726 0.730898
O O4 0.820438 0.613682 0.941150
O O5 0.545284 0.308477 0.844031
O O6 0.500000 0.000000 0.000000
O O7 0.432573 0.368303 0.382000
O O8 0.085287 0.770111 0.296107
O O9 0.198862 0.746803 0.391793
O O10 0.734868 0.837421 0.377498
O O11 0.523941 0.783463 0.418907
O O12 0.292700 0.074574 0.504671
O O13 0.000000 0.500000 0.500000
O O14 0.383694 0.874478 0.307151
O O15 0.000000 0.000000 0.500000
O O16 0.500000 0.500000 0.500000
#
# Coordination Sequence:
#
# PCOD8003398 Si02
#       7
#     2   2   2   2   2   2   2
#     4  11  22  35  51  82 120 154 190 229 286 344
#     4  11  22  37  54  79 122 159 197 235 277 348
#     4  11  20  33  55  82 113 150 196 230 286 341
#     4  10  20  37  56  83 118 148 190 240 288 345
#     4   9  21  36  55  81 110 152 196 239 285 333
#     4  12  21  31  53  86 118 149 182 231 291 349
#     4  12  20  33  54  86 117 149 182 231 302 352
#
# _framework density 18.266544
#
# number of rings (size 3 to 8) (size 9 to 14) (size 15 to 20)
#    0.000    1.143    5.714    0.857    2.000    1.143 
#    0.000    0.000    0.000    0.857    0.000   13.000 
#    0.000    0.000    0.000    0.000    0.000    0.000 
#
# Total GULP energy -173461.923712 kJ/mol
# GULP energy per Si atom -12390.137408 kJ/mol
# Density = 1.822497 g / cm^3
# Si number density = 18.266544 Si / 1000 Ang^3
#
#
#
# Elastic Constant Matrix: (Units=GPa)
#
#
# Indices 1 2 3 4 5 6 
#
# 1 116.5147 49.8149 37.8269 6.9004 -19.8222 -2.5815
# 2 49.8149 131.4632 50.3968 8.0915 -4.3651 -2.8928
# 3 37.8269 50.3968 95.7454 17.9172 -15.4412 -4.4934
# 4 6.9004 8.0915 17.9172 37.5342 -11.6276 4.2539
# 5 -19.8222 -4.3651 -15.4412 -11.6276 27.1270 6.9616
# 6 -2.5815 -2.8928 -4.4934 4.2539 6.9616 34.2085
#
#
#
# Elastic Compliance Matrix: (Units=1/GPa)
#
#
# Indices 1 2 3 4 5 6 
#
# 1 0.012093 -0.003732 -0.001952 0.002361 0.008573 -0.001698
# 2 -0.003732 0.010740 -0.004664 -0.000836 -0.004265 0.000986
# 3 -0.001952 -0.004664 0.015295 -0.004783 0.004167 0.001214
# 4 0.002361 -0.000836 -0.004783 0.034435 0.015680 -0.007994
# 5 0.008573 -0.004265 0.004167 0.015680 0.054677 -0.012243
# 6 -0.001698 0.000986 0.001214 -0.007994 -0.012243 0.032833
#
#
# Mechanical properties :
#
#
# Convention : Reuss Voigt Hill
#
# Bulk Modulus (GPa) = 57.36750 68.86670 63.11710
# Shear Modulus (GPa) = 26.79818 33.48624 30.14221
#
# Velocity S-wave (km/s) = 3.83438 4.28623 4.06659
# Velocity P-wave (km/s) = 7.14684 7.89168 7.52847
#
# Compressibility (1/GPa) = 0.01743147
#
# Stress axis : x y z
#
# Youngs Moduli (GPa) = 82.69268 93.10706 65.38166
#
# Poissons Ratio (x) = 0.34747 0.12765
# Poissons Ratio (y) = 0.30861 0.30494
# Poissons Ratio (z) = 0.16144 0.43425
#
# Static dielectric constant tensor:
#      x y z
#    x 3.601580 -0.309750 -0.214550 
#    y -0.309750 3.952210 0.175870 
#    z -0.214550 0.175870 3.411740 
# 
# 
# High freq. dielectric constant tensor:
#      x y z
#    x 1.689900 -0.017030 -0.006930 
#    y -0.017030 1.741650 0.007220 
#    z -0.006930 0.007220 1.677660 
# 
# From -- ./inp_files/63572.got.cif
#   From: 2010.06.25/outbox.cif.g09.slc.cpg/sg2_32_cif.got.tgz:63572.got - 2010.06.27 13:26:56.
