data_PCOD8003946
_publ_section_title
;
Structure prediction by ZEFSAII (Michael W. Deem and Ramdas Pophale) SiO2 
 PCOD8003946
Probable space group: P -1
;
_chemical_formula_sum "Si O2"
_cell_formula_units_Z 16
_cell_length_a 10.773122
_cell_length_b 18.133061
_cell_length_c 6.345721
_cell_angle_alpha 92.934954
_cell_angle_beta 62.331010
_cell_angle_gamma 137.829744
_cell_volume 641.361305
_symmetry_space_group_name_H-M "P -1"
_symmetry_group_IT_number 2
_symmetry_cell_setting 'triclinic'
loop_
_space_group_symop_operation_xyz
x,y,z
-x,-y,-z
loop_
_atom_site_type_symbol
_atom_site_label
_atom_site_fract_x
_atom_site_fract_y
_atom_site_fract_z
Si Si1 0.912483 0.940671 0.327125
Si Si2 0.996962 0.435131 0.797027
Si Si3 0.777246 0.710971 0.405598
Si Si4 0.467922 0.832291 0.765167
Si Si5 0.286384 0.451752 0.841326
Si Si6 0.094457 0.635526 0.623012
Si Si7 0.390569 0.103673 0.846295
Si Si8 0.701167 0.090365 0.026326
O O1 0.801557 0.810230 0.379719
O O2 0.692395 0.903751 0.445737
O O3 0.000000 0.000000 0.500000
O O4 0.149421 0.052365 0.004701
O O5 0.212814 0.474451 0.707522
O O6 0.041852 0.541780 0.797006
O O7 0.946448 0.396585 0.590497
O O8 0.755936 0.318073 0.105216
O O9 0.555904 0.594556 0.719522
O O10 0.712421 0.635109 0.233119
O O11 0.039121 0.791847 0.278781
O O12 0.358276 0.863671 0.779673
O O13 0.551096 0.870289 0.947084
O O14 0.091956 0.379658 0.169162
O O15 0.376420 0.775492 0.457530
O O16 0.306144 0.985066 0.832558
O O17 0.500000 0.000000 0.000000
#
# Coordination Sequence:
#
# PCOD8003946 Si02
#       8
#     2   2   2   2   2   2   2   2
#     4   9  17  32  56  87 119 166 207 262 311 360
#     4  10  20  37  62  91 124 164 213 261 302 384
#     4  10  21  37  59  92 129 162 215 260 312 380
#     4   9  15  29  58  86 112 155 210 247 307 361
#     4  11  22  39  64  90 132 170 201 262 323 373
#     4  10  21  37  61  95 126 165 212 255 320 374
#     4   8  17  31  53  85 122 149 199 260 302 364
#     4   9  16  32  59  85 118 162 208 260 300 369
#
# _framework density 24.946936000000001
#
# number of rings (size 3 to 8) (size 9 to 14) (size 15 to 20)
#    0.000    2.500    1.250    1.875    0.000    1.000 
#    0.000    5.000    5.500    3.750    0.000    0.000 
#    0.000    0.000    0.000    0.000    0.000    0.000 
#
# Total GULP energy -198218.358658 kJ/mol
# GULP energy per Si atom -12388.647416 kJ/mol
# Density = 2.489016 g / cm^3
# Si number density = 24.946936 Si / 1000 Ang^3
#
#
#
# Elastic Constant Matrix: (Units=GPa)
#
#
# Indices 1 2 3 4 5 6 
#
# 1 77.1568 40.5263 55.0886 -7.0918 -34.4883 -5.0871
# 2 40.5263 152.9754 78.9902 -15.4143 -18.4318 -15.6612
# 3 55.0886 78.9902 243.8071 -27.5975 -34.9349 -10.6069
# 4 -7.0918 -15.4143 -27.5975 45.5765 2.5814 -11.2878
# 5 -34.4883 -18.4318 -34.9349 2.5814 47.4329 0.4362
# 6 -5.0871 -15.6612 -10.6069 -11.2878 0.4362 40.4695
#
#
#
# Elastic Compliance Matrix: (Units=1/GPa)
#
#
# Indices 1 2 3 4 5 6 
#
# 1 0.022075 -0.003033 -0.001952 0.000756 0.013383 0.001156
# 2 -0.003033 0.008790 -0.001815 0.002200 -0.000276 0.003161
# 3 -0.001952 -0.001815 0.005789 0.002805 0.001974 0.001331
# 4 0.000756 0.002200 0.002805 0.026644 0.001937 0.009092
# 5 0.013383 -0.000276 0.001974 0.001937 0.032033 0.002288
# 6 0.001156 0.003161 0.001331 0.009092 0.002288 0.028939
#
#
# Mechanical properties :
#
#
# Convention : Reuss Voigt Hill
#
# Bulk Modulus (GPa) = 43.37792 91.46106 67.41949
# Shear Modulus (GPa) = 34.35114 46.65139 40.50127
#
# Velocity S-wave (km/s) = 3.71478 4.32907 4.03363
# Velocity P-wave (km/s) = 5.98542 7.85682 6.98408
#
# Compressibility (1/GPa) = 0.02305321
#
# Stress axis : x y z
#
# Youngs Moduli (GPa) = 45.30011 113.76407 172.73805
#
# Poissons Ratio (x) = 0.34509 0.33713
# Poissons Ratio (y) = 0.13741 0.31359
# Poissons Ratio (z) = 0.08841 0.20653
#
# Static dielectric constant tensor:
#      x y z
#    x 4.647370 -0.198090 -0.522460 
#    y -0.198090 5.272680 -0.049860 
#    z -0.522460 -0.049860 4.976860 
# 
# 
# High freq. dielectric constant tensor:
#      x y z
#    x 1.982130 0.018340 -0.020760 
#    y 0.018340 2.023850 0.004010 
#    z -0.020760 0.004010 2.019110 
# 
# From -- ./inp_files/319034.got.cif
#   From: 2010.06.25/outbox.cif.g09.slc.cpg/sg2_160_cif.got.tgz:319034.got - 2010.06.27 13:26:56.
