data_PCOD8003192
_publ_section_title
;
Structure prediction by ZEFSAII (Michael W. Deem and Ramdas Pophale) SiO2 
 PCOD8003192
Probable space group: P -1
;
_chemical_formula_sum "Si O2"
_cell_formula_units_Z 14
_cell_length_a 8.928634
_cell_length_b 9.120385
_cell_length_c 11.574517
_cell_angle_alpha 125.938754
_cell_angle_beta 121.116473
_cell_angle_gamma 76.217483
_cell_volume 650.440149
_symmetry_space_group_name_H-M "P -1"
_symmetry_group_IT_number 2
_symmetry_cell_setting 'triclinic'
loop_
_space_group_symop_operation_xyz
x,y,z
-x,-y,-z
loop_
_atom_site_type_symbol
_atom_site_label
_atom_site_fract_x
_atom_site_fract_y
_atom_site_fract_z
Si Si1 0.821918 0.531607 0.885027
Si Si2 0.111555 0.668827 0.760686
Si Si3 0.736714 0.925407 0.034027
Si Si4 0.276109 0.460724 0.524766
Si Si5 0.452336 0.022215 0.794720
Si Si6 0.351697 0.616955 0.034646
Si Si7 0.604136 0.304595 0.521752
O O1 0.776862 0.401814 0.697418
O O2 0.830526 0.745593 0.955553
O O3 0.674049 0.456967 0.881504
O O4 0.000000 0.500000 0.000000
O O5 0.227580 0.558528 0.668494
O O6 0.171759 0.601947 0.879520
O O7 0.903682 0.622964 0.645027
O O8 0.144545 0.885939 0.854537
O O9 0.694737 0.905651 0.146062
O O10 0.566641 0.912253 0.878382
O O11 0.419036 0.310012 0.522345
O O12 0.395228 0.605192 0.562899
O O13 0.369501 0.902556 0.599143
O O14 0.573012 0.174896 0.846378
O O15 0.500000 0.500000 0.000000
#
# Coordination Sequence:
#
# PCOD8003192 Si02
#       7
#     2   2   2   2   2   2   2
#     4  12  26  42  61  91 132 164 197 253 319 371
#     4  10  21  38  64  94 119 160 215 256 297 360
#     4  10  20  40  65  92 120 162 211 251 300 365
#     4  10  20  36  63  94 123 154 206 267 304 348
#     4  10  21  38  68  92 117 162 215 253 293 365
#     4  11  22  39  62  90 126 167 203 245 307 375
#     4  11  22  39  61  92 125 161 201 256 315 360
#
# _framework density 21.523886999999998
#
# number of rings (size 3 to 8) (size 9 to 14) (size 15 to 20)
#    0.000    1.429    2.857    3.429    2.000    1.714 
#    0.000    7.143    0.000    0.000    0.000    0.000 
#    0.000    0.000    0.000    0.000    0.000    0.000 
#
# Total GULP energy -173434.157774 kJ/mol
# GULP energy per Si atom -12388.154127 kJ/mol
# Density = 2.147490 g / cm^3
# Si number density = 21.523887 Si / 1000 Ang^3
#
#
#
# Elastic Constant Matrix: (Units=GPa)
#
#
# Indices 1 2 3 4 5 6 
#
# 1 48.3401 -5.9363 10.3828 8.3087 5.2495 -3.4473
# 2 -5.9363 64.7347 29.9890 11.1224 1.1008 -0.9884
# 3 10.3828 29.9890 137.9253 26.1131 3.5084 -15.2978
# 4 8.3087 11.1224 26.1131 22.1052 -0.1104 0.8607
# 5 5.2495 1.1008 3.5084 -0.1104 30.9088 -5.3008
# 6 -3.4473 -0.9884 -15.2978 0.8607 -5.3008 35.7828
#
#
#
# Elastic Compliance Matrix: (Units=1/GPa)
#
#
# Indices 1 2 3 4 5 6 
#
# 1 0.023688 0.004281 -0.000375 -0.010709 -0.003841 0.001929
# 2 0.004281 0.018495 -0.002944 -0.007430 -0.001134 -0.000325
# 3 -0.000375 -0.002944 0.010515 -0.010979 -0.000275 0.004601
# 4 -0.010709 -0.007430 -0.010979 0.066264 0.002335 -0.007179
# 5 -0.003841 -0.001134 -0.000275 0.002335 0.033847 0.004439
# 6 0.001929 -0.000325 0.004601 -0.007179 0.004439 0.030921
#
#
# Mechanical properties :
#
#
# Convention : Reuss Voigt Hill
#
# Bulk Modulus (GPa) = 18.30777 35.54123 26.92450
# Shear Modulus (GPa) = 24.99847 32.19699 28.59773
#
# Velocity S-wave (km/s) = 3.41167 3.87185 3.64902
# Velocity P-wave (km/s) = 4.90343 6.04455 5.50364
#
# Compressibility (1/GPa) = 0.05462162
#
# Stress axis : x y z
#
# Youngs Moduli (GPa) = 42.21502 54.06870 95.10506
#
# Poissons Ratio (x) = -0.23145 0.03564
# Poissons Ratio (y) = -0.18071 0.27999
# Poissons Ratio (z) = 0.01582 0.15918
#
# Static dielectric constant tensor:
#      x y z
#    x 3.798940 -0.172500 -0.117600 
#    y -0.172500 3.474670 0.133040 
#    z -0.117600 0.133040 3.951680 
# 
# 
# High freq. dielectric constant tensor:
#      x y z
#    x 1.846020 0.007790 -0.003410 
#    y 0.007790 1.825610 0.008060 
#    z -0.003410 0.008060 1.854460 
# 
# From -- ./inp_files/175269.got.cif
#   From: 2010.06.25/outbox.cif.g09.slc.cpg/sg2_88_cif.got.tgz:175269.got - 2010.06.27 13:26:56.
