data_PCOD8003297
_publ_section_title
;
Structure prediction by ZEFSAII (Michael W. Deem and Ramdas Pophale) SiO2 
 PCOD8003297
Probable space group: P -1
;
_chemical_formula_sum "Si O2"
_cell_formula_units_Z 14
_cell_length_a 9.587508
_cell_length_b 8.067931
_cell_length_c 13.668393
_cell_angle_alpha 130.012652
_cell_angle_beta 52.931406
_cell_angle_gamma 118.604872
_cell_volume 638.885960
_symmetry_space_group_name_H-M "P -1"
_symmetry_group_IT_number 2
_symmetry_cell_setting 'triclinic'
loop_
_space_group_symop_operation_xyz
x,y,z
-x,-y,-z
loop_
_atom_site_type_symbol
_atom_site_label
_atom_site_fract_x
_atom_site_fract_y
_atom_site_fract_z
Si Si1 0.145967 0.147976 0.428833
Si Si2 0.028645 0.154107 0.263429
Si Si3 0.501373 0.017235 0.267227
Si Si4 0.179362 0.158687 0.010421
Si Si5 0.522408 0.771933 0.352933
Si Si6 0.298791 0.618776 0.553622
Si Si7 0.116642 0.314330 0.897662
O O1 0.076686 0.210494 0.376084
O O2 0.314272 0.022706 0.295748
O O3 0.205083 0.384305 0.545134
O O4 0.000000 0.000000 0.500000
O O5 0.838235 0.214323 0.342972
O O6 0.167145 0.268046 0.165172
O O7 0.022837 0.898944 0.148124
O O8 0.560109 0.258185 0.382280
O O9 0.651104 0.970017 0.109538
O O10 0.471017 0.813205 0.278466
O O11 0.192684 0.337169 0.985425
O O12 0.000000 0.000000 0.000000
O O13 0.392317 0.585573 0.396142
O O14 0.716030 0.695560 0.248855
O O15 0.500000 0.000000 0.500000
O O16 0.000000 0.500000 0.000000
#
# Coordination Sequence:
#
# PCOD8003297 Si02
#       7
#     2   2   2   2   2   2   2
#     4  12  28  40  60  99 139 168 220 284 336 382
#     4  11  22  42  61  94 136 176 209 277 336 396
#     4  10  20  41  67  96 125 173 221 270 321 400
#     4   9  18  39  65  90 127 173 215 264 326 393
#     4   9  17  37  66  91 127 163 219 270 323 384
#     4  11  21  41  69  90 126 183 221 266 331 397
#     4  10  20  36  66 102 127 166 223 275 320 391
#
# _framework density 21.913143000000002
#
# number of rings (size 3 to 8) (size 9 to 14) (size 15 to 20)
#    0.000    1.714    5.714    1.714    2.000    4.000 
#    0.000    0.000    0.000    4.286    0.000    0.000 
#    0.000    0.000    0.000    0.000    0.000    0.000 
#
# Total GULP energy -173445.198311 kJ/mol
# GULP energy per Si atom -12388.942737 kJ/mol
# Density = 2.186327 g / cm^3
# Si number density = 21.913143 Si / 1000 Ang^3
#
#
#
# Elastic Constant Matrix: (Units=GPa)
#
#
# Indices 1 2 3 4 5 6 
#
# 1 72.9741 16.0714 36.1250 -6.0516 -19.2732 -1.6143
# 2 16.0714 100.3726 37.5407 -11.7556 -7.7272 -0.6894
# 3 36.1250 37.5407 127.4783 -26.6429 -24.8282 -7.3277
# 4 -6.0516 -11.7556 -26.6429 37.8103 -8.2662 -5.3706
# 5 -19.2732 -7.7272 -24.8282 -8.2662 48.1089 -1.1369
# 6 -1.6143 -0.6894 -7.3277 -5.3706 -1.1369 18.1565
#
#
#
# Elastic Compliance Matrix: (Units=1/GPa)
#
#
# Indices 1 2 3 4 5 6 
#
# 1 0.017020 -0.000960 -0.003121 0.001537 0.005342 0.001006
# 2 -0.000960 0.011325 -0.002720 0.001469 0.000276 -0.000301
# 3 -0.003121 -0.002720 0.013949 0.011462 0.007696 0.009121
# 4 0.001537 0.001469 0.011462 0.040861 0.014208 0.017794
# 5 0.005342 0.000276 0.007696 0.014208 0.029612 0.009648
# 6 0.001006 -0.000301 0.009121 0.017794 0.009648 0.064703
#
#
# Mechanical properties :
#
#
# Convention : Reuss Voigt Hill
#
# Bulk Modulus (GPa) = 34.85192 53.36658 44.10925
# Shear Modulus (GPa) = 24.92085 34.88768 29.90427
#
# Velocity S-wave (km/s) = 3.37598 3.99443 3.69816
# Velocity P-wave (km/s) = 5.57991 6.75873 6.19742
#
# Compressibility (1/GPa) = 0.02869282
#
# Stress axis : x y z
#
# Youngs Moduli (GPa) = 58.75275 88.30078 71.69145
#
# Poissons Ratio (x) = 0.08475 0.22376
# Poissons Ratio (y) = 0.05639 0.19498
# Poissons Ratio (z) = 0.18338 0.24015
#
# Static dielectric constant tensor:
#      x y z
#    x 3.822640 -0.254290 0.034860 
#    y -0.254290 4.097460 -0.594790 
#    z 0.034860 -0.594790 4.251250 
# 
# 
# High freq. dielectric constant tensor:
#      x y z
#    x 1.845570 -0.016030 -0.021170 
#    y -0.016030 1.844040 -0.023550 
#    z -0.021170 -0.023550 1.865400 
# 
# From -- ./inp_files/237445.got.cif
#   From: 2010.06.25/outbox.cif.g09.slc.cpg/sg2_119_cif.got.tgz:237445.got - 2010.06.27 13:26:56.
