data_PCOD8003675
_publ_section_title
;
Structure prediction by ZEFSAII (Michael W. Deem and Ramdas Pophale) SiO2 
 PCOD8003675
Probable space group: P -1
;
_chemical_formula_sum "Si O2"
_cell_formula_units_Z 16
_cell_length_a 14.147013
_cell_length_b 8.650265
_cell_length_c 19.134656
_cell_angle_alpha 81.050882
_cell_angle_beta 156.703473
_cell_angle_gamma 86.448887
_cell_volume 779.016791
_symmetry_space_group_name_H-M "P -1"
_symmetry_group_IT_number 2
_symmetry_cell_setting 'triclinic'
loop_
_space_group_symop_operation_xyz
x,y,z
-x,-y,-z
loop_
_atom_site_type_symbol
_atom_site_label
_atom_site_fract_x
_atom_site_fract_y
_atom_site_fract_z
Si Si1 0.223290 0.067536 0.502283
Si Si2 0.222626 0.834890 0.707022
Si Si3 0.241803 0.509047 0.362871
Si Si4 0.355125 0.463531 0.837975
Si Si5 0.342097 0.135418 0.073551
Si Si6 0.350381 0.766922 0.075367
Si Si7 0.762446 0.856282 0.644860
Si Si8 0.789955 0.566292 0.500504
O O1 0.257185 0.028710 0.445934
O O2 0.251284 0.241196 0.520954
O O3 0.907725 0.119009 0.306113
O O4 0.468501 0.898927 0.725930
O O5 0.232365 0.652971 0.697622
O O6 0.523441 0.816310 0.904770
O O7 0.000000 0.000000 0.500000
O O8 0.500000 0.500000 0.500000
O O9 0.236408 0.328435 0.354345
O O10 0.262578 0.523295 0.460335
O O11 0.965040 0.690508 0.133310
O O12 0.567939 0.296212 0.945188
O O13 0.106816 0.432202 0.696040
O O14 0.500000 0.500000 0.000000
O O15 0.337170 0.956101 0.063941
O O16 0.565382 0.604817 0.284807
O O17 0.045529 0.801090 0.882318
O O18 0.500000 0.000000 0.500000
#
# Coordination Sequence:
#
# PCOD8003675 Si02
#       8
#     2   2   2   2   2   2   2   2
#     4   8  18  37  60  81 114 155 189 226 286 351
#     4   9  17  33  57  85 113 145 182 226 281 335
#     4  11  23  42  61  82 114 151 196 249 292 334
#     4  11  20  37  61  86 119 161 191 225 287 356
#     4  10  20  37  60  88 115 147 190 242 289 332
#     4  11  22  38  60  88 118 153 195 236 285 356
#     4  11  23  41  60  82 112 155 200 238 286 354
#     4   9  20  37  59  86 117 155 193 232 288 348
#
# _framework density 20.538712
#
# number of rings (size 3 to 8) (size 9 to 14) (size 15 to 20)
#    0.000    2.000    0.000    5.625    0.000    1.000 
#    0.000   20.625    0.000    0.000    0.000    0.000 
#    0.000    0.000    0.000    0.000    0.000    0.000 
#
# Total GULP energy -198281.504742 kJ/mol
# GULP energy per Si atom -12392.594046 kJ/mol
# Density = 2.049196 g / cm^3
# Si number density = 20.538712 Si / 1000 Ang^3
#
#
#
# Elastic Constant Matrix: (Units=GPa)
#
#
# Indices 1 2 3 4 5 6 
#
# 1 113.6810 30.1487 58.5821 4.7514 24.7087 8.8966
# 2 30.1487 70.1487 23.6635 -6.3433 8.1039 4.0567
# 3 58.5821 23.6635 136.6366 2.9850 23.8249 0.9988
# 4 4.7514 -6.3433 2.9850 36.9621 1.4579 5.4366
# 5 24.7087 8.1039 23.8249 1.4579 43.6762 1.5329
# 6 8.8966 4.0567 0.9988 5.4366 1.5329 32.5268
#
#
#
# Elastic Compliance Matrix: (Units=1/GPa)
#
#
# Indices 1 2 3 4 5 6 
#
# 1 0.013139 -0.003718 -0.004186 -0.001443 -0.004322 -0.002557
# 2 -0.003718 0.016770 -0.001317 0.003717 -0.000356 -0.001639
# 3 -0.004186 -0.001317 0.009828 -0.000553 -0.002774 0.001231
# 4 -0.001443 0.003717 -0.000553 0.028646 -0.000359 -0.004823
# 5 -0.004322 -0.000356 -0.002774 -0.000359 0.026928 0.000103
# 6 -0.002557 -0.001639 0.001231 -0.004823 0.000103 0.032411
#
#
# Mechanical properties :
#
#
# Convention : Reuss Voigt Hill
#
# Bulk Modulus (GPa) = 46.95952 60.58389 53.77171
# Shear Modulus (GPa) = 32.62342 36.50448 34.56395
#
# Velocity S-wave (km/s) = 3.98978 4.22044 4.10673
# Velocity P-wave (km/s) = 6.64364 7.30143 6.98029
#
# Compressibility (1/GPa) = 0.02129493
#
# Stress axis : x y z
#
# Youngs Moduli (GPa) = 76.10667 59.63053 101.74941
#
# Poissons Ratio (x) = 0.22173 0.42588
# Poissons Ratio (y) = 0.28300 0.13403
# Poissons Ratio (z) = 0.31855 0.07855
#
# Static dielectric constant tensor:
#      x y z
#    x 4.542950 0.414820 0.273410 
#    y 0.414820 3.590620 0.000510 
#    z 0.273410 0.000510 4.332930 
# 
# 
# High freq. dielectric constant tensor:
#      x y z
#    x 1.802120 0.013800 0.002990 
#    y 0.013800 1.784180 -0.012820 
#    z 0.002990 -0.012820 1.814960 
# 
# From -- ./inp_files/213220.got.cif
#   From: 2010.06.25/outbox.cif.g09.slc.cpg/sg2_107_cif.got.tgz:213220.got - 2010.06.27 13:26:56.
