data_PCOD8003101
_publ_section_title
;
Structure prediction by ZEFSAII (Michael W. Deem and Ramdas Pophale) SiO2 
 PCOD8003101
Probable space group: P -1
;
_chemical_formula_sum "Si O2"
_cell_formula_units_Z 16
_cell_length_a 8.794621
_cell_length_b 11.802042
_cell_length_c 8.916523
_cell_angle_alpha 114.154470
_cell_angle_beta 69.033032
_cell_angle_gamma 113.559283
_cell_volume 752.896672
_symmetry_space_group_name_H-M "P -1"
_symmetry_group_IT_number 2
_symmetry_cell_setting 'triclinic'
loop_
_space_group_symop_operation_xyz
x,y,z
-x,-y,-z
loop_
_atom_site_type_symbol
_atom_site_label
_atom_site_fract_x
_atom_site_fract_y
_atom_site_fract_z
Si Si1 0.545985 0.141759 0.365180
Si Si2 0.232813 0.479686 0.662104
Si Si3 0.034572 0.740764 0.202374
Si Si4 0.304308 0.888570 0.408208
Si Si5 0.586739 0.668319 0.675566
Si Si6 0.170538 0.170131 0.096476
Si Si7 0.121222 0.719578 0.826288
Si Si8 0.096884 0.041928 0.751523
O O1 0.589287 0.170901 0.543068
O O2 0.445571 0.239495 0.395298
O O3 0.719510 0.160422 0.219727
O O4 0.429763 0.992004 0.307858
O O5 0.413354 0.556393 0.717153
O O6 0.267304 0.393063 0.466313
O O7 0.143769 0.583976 0.685701
O O8 0.111733 0.391295 0.780607
O O9 0.179254 0.771539 0.296230
O O10 0.951160 0.858037 0.289768
O O11 0.122011 0.720794 0.006258
O O12 0.200266 0.964368 0.583321
O O13 0.651937 0.748797 0.847437
O O14 0.050980 0.263795 0.170762
O O15 0.209265 0.119016 0.893064
O O16 0.080874 0.050553 0.171858
#
# Coordination Sequence:
#
# PCOD8003101 Si02
#       8
#     2   2   2   2   2   2   2   2
#     4  10  22  40  58  90 125 151 200 248 295 359
#     4  10  22  40  62  86 120 157 211 246 285 354
#     4  11  22  38  64  91 120 160 197 247 303 347
#     4  11  21  38  61  92 123 157 194 247 301 357
#     4  10  21  41  62  87 120 163 199 247 299 346
#     4  10  20  38  63  92 118 157 196 241 308 352
#     4  10  22  41  61  87 123 157 202 248 288 358
#     4  10  20  36  62  92 122 150 197 247 292 371
#
# _framework density 21.251256999999999
#
# number of rings (size 3 to 8) (size 9 to 14) (size 15 to 20)
#    0.000    1.750    1.250    3.000    0.000    1.000 
#   13.500    2.500    0.000    0.000    0.000    0.000 
#    0.000    0.000    0.000    0.000    0.000    0.000 
#
# Total GULP energy -198433.031870 kJ/mol
# GULP energy per Si atom -12402.064492 kJ/mol
# Density = 2.120289 g / cm^3
# Si number density = 21.251257 Si / 1000 Ang^3
#
#
#
# Elastic Constant Matrix: (Units=GPa)
#
#
# Indices 1 2 3 4 5 6 
#
# 1 73.3079 41.3746 33.2187 0.4391 20.3325 3.4070
# 2 41.3746 108.7524 41.0008 -13.9088 7.1525 17.2424
# 3 33.2187 41.0008 70.5603 -4.6088 15.3580 13.3739
# 4 0.4391 -13.9088 -4.6088 29.7995 7.7646 -7.8370
# 5 20.3325 7.1525 15.3580 7.7646 35.4490 6.4823
# 6 3.4070 17.2424 13.3739 -7.8370 6.4823 41.3418
#
#
#
# Elastic Compliance Matrix: (Units=1/GPa)
#
#
# Indices 1 2 3 4 5 6 
#
# 1 0.022279 -0.006524 -0.005384 -0.000607 -0.009735 0.004038
# 2 -0.006524 0.014506 -0.004978 0.004506 0.002617 -0.003458
# 3 -0.005384 -0.004978 0.021393 0.001452 -0.004880 -0.003360
# 4 -0.000607 0.004506 0.001452 0.040776 -0.011443 0.007225
# 5 -0.009735 0.002617 -0.004880 -0.011443 0.039170 -0.007021
# 6 0.004038 -0.003458 -0.003360 0.007225 -0.007021 0.028856
#
#
# Mechanical properties :
#
#
# Convention : Reuss Voigt Hill
#
# Bulk Modulus (GPa) = 40.97078 53.75652 47.36365
# Shear Modulus (GPa) = 23.93653 30.45318 27.19486
#
# Velocity S-wave (km/s) = 3.35977 3.78961 3.58115
# Velocity P-wave (km/s) = 5.86275 6.67074 6.27975
#
# Compressibility (1/GPa) = 0.02440764
#
# Stress axis : x y z
#
# Youngs Moduli (GPa) = 44.88596 68.93582 46.74379
#
# Poissons Ratio (x) = 0.44972 0.25166
# Poissons Ratio (y) = 0.29282 0.23268
# Poissons Ratio (z) = 0.24166 0.34315
#
# Static dielectric constant tensor:
#      x y z
#    x 3.844360 -0.047960 -0.024250 
#    y -0.047960 4.003950 -0.084150 
#    z -0.024250 -0.084150 3.671320 
# 
# 
# High freq. dielectric constant tensor:
#      x y z
#    x 1.832530 -0.001770 -0.004760 
#    y -0.001770 1.838080 -0.005910 
#    z -0.004760 -0.005910 1.817450 
# 
# From -- ./inp_files/181483.got.cif
#   From: 2010.06.25/outbox.cif.g09.slc.cpg/sg2_91_cif.got.tgz:181483.got - 2010.06.27 13:26:56.
