data_PCOD8003152
_publ_section_title
;
Structure prediction by ZEFSAII (Michael W. Deem and Ramdas Pophale) SiO2 
 PCOD8003152
Probable space group: P -1
;
_chemical_formula_sum "Si O2"
_cell_formula_units_Z 16
_cell_length_a 10.419549
_cell_length_b 9.649096
_cell_length_c 12.008510
_cell_angle_alpha 96.302945
_cell_angle_beta 50.471705
_cell_angle_gamma 117.426597
_cell_volume 796.353292
_symmetry_space_group_name_H-M "P -1"
_symmetry_group_IT_number 2
_symmetry_cell_setting 'triclinic'
loop_
_space_group_symop_operation_xyz
x,y,z
-x,-y,-z
loop_
_atom_site_type_symbol
_atom_site_label
_atom_site_fract_x
_atom_site_fract_y
_atom_site_fract_z
Si Si1 0.522890 0.880789 0.056867
Si Si2 0.862140 0.354112 0.349264
Si Si3 0.164229 0.936261 0.780357
Si Si4 0.469531 0.803423 0.313376
Si Si5 0.407652 0.430311 0.858069
Si Si6 0.145262 0.473092 0.842488
Si Si7 0.712091 0.487221 0.856282
Si Si8 0.048116 0.887269 0.089533
O O1 0.408934 0.852467 0.235154
O O2 0.437631 0.699899 0.038071
O O3 0.500000 0.000000 0.000000
O O4 0.749663 0.972420 0.963747
O O5 0.875793 0.196325 0.301619
O O6 0.718992 0.324507 0.527269
O O7 0.784724 0.404172 0.288898
O O8 0.077983 0.490096 0.280424
O O9 0.396871 0.034729 0.676448
O O10 0.050081 0.860897 0.952524
O O11 0.100707 0.059598 0.781228
O O12 0.610394 0.732073 0.197509
O O13 0.338850 0.510537 0.808233
O O14 0.629264 0.530705 0.794594
O O15 0.272045 0.397491 0.038853
O O16 0.028475 0.293019 0.837640
O O17 0.000000 0.500000 0.000000
#
# Coordination Sequence:
#
# PCOD8003152 Si02
#       8
#     2   2   2   2   2   2   2   2
#     4  10  22  37  62  88 117 157 204 252 289 359
#     4  12  24  37  66  91 124 160 197 259 299 359
#     4  10  20  37  62  88 118 157 202 244 305 355
#     4  10  23  41  60  90 123 158 200 243 316 362
#     4  10  21  38  58  86 123 157 200 251 289 364
#     4  12  21  37  63  97 117 152 215 254 293 346
#     4  10  22  38  61  90 119 161 208 238 305 360
#     4  10  20  36  63  88 116 156 204 252 291 352
#
# _framework density 20.091586
#
# number of rings (size 3 to 8) (size 9 to 14) (size 15 to 20)
#    0.000    1.500    3.750    1.125    8.750    2.500 
#    0.000    0.000    0.000    0.750    0.000    0.000 
#    0.000    0.000    0.000    0.000    0.000    0.000 
#
# Total GULP energy -198234.825224 kJ/mol
# GULP energy per Si atom -12389.676577 kJ/mol
# Density = 2.004586 g / cm^3
# Si number density = 20.091586 Si / 1000 Ang^3
#
#
#
# Elastic Constant Matrix: (Units=GPa)
#
#
# Indices 1 2 3 4 5 6 
#
# 1 135.0752 31.1510 48.0635 -7.6697 9.3679 -11.2426
# 2 31.1510 103.2557 35.1750 3.9844 -3.2483 -6.4646
# 3 48.0635 35.1750 97.7977 -11.7603 6.0736 -10.4853
# 4 -7.6697 3.9844 -11.7603 19.5434 -2.3869 2.4771
# 5 9.3679 -3.2483 6.0736 -2.3869 20.8900 -2.7158
# 6 -11.2426 -6.4646 -10.4853 2.4771 -2.7158 32.1197
#
#
#
# Elastic Compliance Matrix: (Units=1/GPa)
#
#
# Indices 1 2 3 4 5 6 
#
# 1 0.009469 -0.001720 -0.003518 0.001382 -0.003145 0.001447
# 2 -0.001720 0.012027 -0.004218 -0.005395 0.003400 0.001145
# 3 -0.003518 -0.004218 0.014761 0.007844 -0.002220 0.001946
# 4 0.001382 -0.005395 0.007844 0.058141 0.002605 -0.002305
# 5 -0.003145 0.003400 -0.002220 0.002605 0.051139 0.002982
# 6 0.001447 0.001145 0.001946 -0.002305 0.002982 0.032936
#
#
# Mechanical properties :
#
#
# Convention : Reuss Voigt Hill
#
# Bulk Modulus (GPa) = 57.65223 62.76750 60.20986
# Shear Modulus (GPa) = 24.61036 29.29322 26.95179
#
# Velocity S-wave (km/s) = 3.50367 3.82250 3.66655
# Velocity P-wave (km/s) = 6.71748 7.12675 6.92514
#
# Compressibility (1/GPa) = 0.01734538
#
# Stress axis : x y z
#
# Youngs Moduli (GPa) = 105.60965 83.14507 67.74574
#
# Poissons Ratio (x) = 0.14299 0.23836
# Poissons Ratio (y) = 0.18162 0.28573
# Poissons Ratio (z) = 0.37158 0.35069
#
# Static dielectric constant tensor:
#      x y z
#    x 4.146710 0.058350 0.134530 
#    y 0.058350 3.731490 0.054290 
#    z 0.134530 0.054290 3.376610 
# 
# 
# High freq. dielectric constant tensor:
#      x y z
#    x 1.793530 0.009750 -0.007790 
#    y 0.009750 1.788920 0.008200 
#    z -0.007790 0.008200 1.740850 
# 
# From -- ./inp_files/419522.got.cif
#   From: 2010.06.25/outbox.cif.g09.slc.cpg/sg2_210_cif.got.tgz:419522.got - 2010.06.27 13:26:56.
