data_PCOD8003435
_publ_section_title
;
Structure prediction by ZEFSAII (Michael W. Deem and Ramdas Pophale) SiO2 
 PCOD8003435
Probable space group: P -1
;
_chemical_formula_sum "Si O2"
_cell_formula_units_Z 16
_cell_length_a 11.347308
_cell_length_b 9.938000
_cell_length_c 9.574216
_cell_angle_alpha 118.655912
_cell_angle_beta 110.655327
_cell_angle_gamma 58.711057
_cell_volume 801.862549
_symmetry_space_group_name_H-M "P -1"
_symmetry_group_IT_number 2
_symmetry_cell_setting 'triclinic'
loop_
_space_group_symop_operation_xyz
x,y,z
-x,-y,-z
loop_
_atom_site_type_symbol
_atom_site_label
_atom_site_fract_x
_atom_site_fract_y
_atom_site_fract_z
Si Si1 0.947964 0.837086 0.585530
Si Si2 0.608042 0.345025 0.883875
Si Si3 0.609608 0.380834 0.592878
Si Si4 0.928270 0.192624 0.874787
Si Si5 0.115669 0.258473 0.201448
Si Si6 0.596612 0.017685 0.742858
Si Si7 0.664924 0.015722 0.446265
Si Si8 0.887767 0.390883 0.692444
O O1 0.940665 0.725332 0.656663
O O2 0.822378 0.870995 0.438426
O O3 0.081124 0.723309 0.492432
O O4 0.942591 0.011997 0.732552
O O5 0.545133 0.383368 0.720112
O O6 0.772328 0.305391 0.926115
O O7 0.598000 0.189442 0.885079
O O8 0.500000 0.500000 0.000000
O O9 0.500000 0.500000 0.500000
O O10 0.725377 0.451713 0.682846
O O11 0.669949 0.185470 0.472329
O O12 0.967084 0.284662 0.808575
O O13 0.039834 0.169423 0.030605
O O14 0.078335 0.447483 0.227677
O O15 0.282248 0.143662 0.212211
O O16 0.445535 0.021189 0.711955
O O17 0.621255 0.025647 0.593412
#
# Coordination Sequence:
#
# PCOD8003435 Si02
#       8
#     2   2   2   2   2   2   2   2
#     4  11  21  39  63  90 116 160 207 241 290 360
#     4  10  21  38  59  84 114 157 201 234 290 360
#     4  10  20  37  57  83 118 152 191 245 295 342
#     4  11  22  41  60  85 129 161 188 245 312 353
#     4  11  22  38  62  90 122 155 202 245 297 351
#     4   9  18  35  58  84 113 153 190 247 289 338
#     4   9  17  34  59  79 114 151 193 235 295 339
#     4  11  23  38  61  91 121 157 201 245 300 354
#
# _framework density 19.953544000000001
#
# number of rings (size 3 to 8) (size 9 to 14) (size 15 to 20)
#    0.000    1.750    5.000    2.250    0.000    3.000 
#    0.000    0.000    0.000    4.500    0.000    0.000 
#    0.000    0.000    0.000    0.000    0.000    0.000 
#
# Total GULP energy -198244.199245 kJ/mol
# GULP energy per Si atom -12390.262453 kJ/mol
# Density = 1.990813 g / cm^3
# Si number density = 19.953544 Si / 1000 Ang^3
#
#
#
# Elastic Constant Matrix: (Units=GPa)
#
#
# Indices 1 2 3 4 5 6 
#
# 1 64.7764 29.5507 42.8381 7.2401 13.3796 6.7516
# 2 29.5507 94.3255 32.7520 -1.5207 2.2648 10.6099
# 3 42.8381 32.7520 70.9676 -0.2596 6.7159 -10.5156
# 4 7.2401 -1.5207 -0.2596 36.8126 -9.5857 4.1605
# 5 13.3796 2.2648 6.7159 -9.5857 31.7119 -0.6907
# 6 6.7516 10.6099 -10.5156 4.1605 -0.6907 29.2674
#
#
#
# Elastic Compliance Matrix: (Units=1/GPa)
#
#
# Indices 1 2 3 4 5 6 
#
# 1 0.036045 -0.001939 -0.021752 -0.009223 -0.013565 -0.014437
# 2 -0.001939 0.014377 -0.006725 0.002219 0.001724 -0.007456
# 3 -0.021752 -0.006725 0.032745 0.003164 0.004090 0.018867
# 4 -0.009223 0.002219 0.003164 0.032663 0.012895 -0.001879
# 5 -0.013565 0.001724 0.004090 0.012895 0.040233 0.003090
# 6 -0.014437 -0.007456 0.018867 -0.001879 0.003090 0.047320
#
#
# Mechanical properties :
#
#
# Convention : Reuss Voigt Hill
#
# Bulk Modulus (GPa) = 44.77126 48.92790 46.84958
# Shear Modulus (GPa) = 18.40554 27.88696 23.14625
#
# Velocity S-wave (km/s) = 3.04043 3.74250 3.40958
# Velocity P-wave (km/s) = 5.90018 6.57641 6.24745
#
# Compressibility (1/GPa) = 0.02233576
#
# Stress axis : x y z
#
# Youngs Moduli (GPa) = 27.74334 69.55644 30.53921
#
# Poissons Ratio (x) = 0.13484 0.66429
# Poissons Ratio (y) = 0.05378 0.20536
# Poissons Ratio (z) = 0.60348 0.46774
#
# Static dielectric constant tensor:
#      x y z
#    x 3.795060 0.112750 0.258200 
#    y 0.112750 3.746550 -0.083990 
#    z 0.258200 -0.083990 3.517410 
# 
# 
# High freq. dielectric constant tensor:
#      x y z
#    x 1.774430 0.008020 0.011850 
#    y 0.008020 1.789860 -0.005990 
#    z 0.011850 -0.005990 1.750080 
# 
# From -- ./inp_files/245599.got.cif
#   From: 2010.06.25/outbox.cif.g09.slc.cpg/sg2_123_cif.got.tgz:245599.got - 2010.06.27 13:26:56.
