data_PCOD8003411
_publ_section_title
;
Structure prediction by ZEFSAII (Michael W. Deem and Ramdas Pophale) SiO2 
 PCOD8003411
Probable space group: P -1
;
_chemical_formula_sum "Si O2"
_cell_formula_units_Z 16
_cell_length_a 14.295431
_cell_length_b 8.932502
_cell_length_c 12.114926
_cell_angle_alpha 30.101233
_cell_angle_beta 110.201370
_cell_angle_gamma 109.318159
_cell_volume 726.448354
_symmetry_space_group_name_H-M "P -1"
_symmetry_group_IT_number 2
_symmetry_cell_setting 'triclinic'
loop_
_space_group_symop_operation_xyz
x,y,z
-x,-y,-z
loop_
_atom_site_type_symbol
_atom_site_label
_atom_site_fract_x
_atom_site_fract_y
_atom_site_fract_z
Si Si1 0.528582 0.557063 0.849719
Si Si2 0.033156 0.336517 0.914496
Si Si3 0.689704 0.143047 0.148725
Si Si4 0.730886 0.480718 0.554990
Si Si5 0.645411 0.183421 0.509942
Si Si6 0.204089 0.834223 0.603475
Si Si7 0.168816 0.512501 0.178134
Si Si8 0.073646 0.703203 0.329256
O O1 0.431694 0.591228 0.714053
O O2 0.606055 0.844643 0.689795
O O3 0.500000 0.500000 0.000000
O O4 0.584258 0.282513 0.993621
O O5 0.113352 0.603444 0.747693
O O6 0.947779 0.418318 0.914097
O O7 0.967871 0.250886 0.837062
O O8 0.088764 0.044193 0.166604
O O9 0.706978 0.180218 0.262832
O O10 0.682682 0.797831 0.330523
O O11 0.782521 0.314843 0.015852
O O12 0.655565 0.245505 0.607037
O O13 0.762093 0.385915 0.751634
O O14 0.828561 0.482178 0.517254
O O15 0.750958 0.239155 0.451582
O O16 0.163964 0.160100 0.383154
O O17 0.000000 0.500000 0.500000
#
# Coordination Sequence:
#
# PCOD8003411 Si02
#       8
#     2   2   2   2   2   2   2   2
#     4  11  24  44  69  93 125 160 212 264 324 381
#     4  10  22  35  60  92 126 173 215 254 307 369
#     4  11  23  42  65  92 128 173 202 264 321 375
#     4  10  24  39  64  94 127 166 210 259 315 377
#     4  11  24  42  67  97 122 164 212 268 314 379
#     4  11  22  38  65  94 126 166 220 258 313 374
#     4  10  22  42  59  92 138 167 206 263 313 368
#     4  10  20  37  56  88 132 169 211 263 304 362
#
# _framework density 22.024965999999999
#
# number of rings (size 3 to 8) (size 9 to 14) (size 15 to 20)
#    0.000    1.500    2.500    1.875    1.750    5.000 
#    0.000    1.250    0.000    0.000    0.000    0.000 
#    0.000    0.000    0.000    0.000    0.000    0.000 
#
# Total GULP energy -198315.749611 kJ/mol
# GULP energy per Si atom -12394.734351 kJ/mol
# Density = 2.197484 g / cm^3
# Si number density = 22.024966 Si / 1000 Ang^3
#
#
#
# Elastic Constant Matrix: (Units=GPa)
#
#
# Indices 1 2 3 4 5 6 
#
# 1 99.4133 11.0596 14.7952 -4.1158 16.2318 -22.9302
# 2 11.0596 92.6491 15.6273 -4.1134 14.2188 -6.5431
# 3 14.7952 15.6273 61.4934 -4.7728 11.8845 -19.4234
# 4 -4.1158 -4.1134 -4.7728 19.1141 -6.5317 3.3854
# 5 16.2318 14.2188 11.8845 -6.5317 46.7708 -3.3726
# 6 -22.9302 -6.5431 -19.4234 3.3854 -3.3726 25.6717
#
#
#
# Elastic Compliance Matrix: (Units=1/GPa)
#
#
# Indices 1 2 3 4 5 6 
#
# 1 0.013428 -0.000372 0.001616 -0.000427 -0.004106 0.012639
# 2 -0.000372 0.011691 -0.002102 0.000876 -0.002727 0.000583
# 3 0.001616 -0.002102 0.022847 0.001025 -0.004323 0.017491
# 4 -0.000427 0.000876 0.001025 0.056112 0.007035 -0.005857
# 5 -0.004106 -0.002727 -0.004323 0.007035 0.025338 -0.005232
# 6 0.012639 0.000583 0.017491 -0.005857 -0.005232 0.063710
#
#
# Mechanical properties :
#
#
# Convention : Reuss Voigt Hill
#
# Bulk Modulus (GPa) = 21.62153 37.39112 29.50632
# Shear Modulus (GPa) = 23.78030 32.44959 28.11494
#
# Velocity S-wave (km/s) = 3.28944 3.84254 3.57669
# Velocity P-wave (km/s) = 4.92599 6.05808 5.52113
#
# Compressibility (1/GPa) = 0.04625020
#
# Stress axis : x y z
#
# Youngs Moduli (GPa) = 74.47247 85.53648 43.76923
#
# Poissons Ratio (x) = 0.03180 -0.07075
# Poissons Ratio (y) = 0.02768 0.09202
# Poissons Ratio (z) = -0.12037 0.17983
#
# Static dielectric constant tensor:
#      x y z
#    x 3.983330 -0.130690 0.324070 
#    y -0.130690 3.994970 0.087730 
#    z 0.324070 0.087730 4.153480 
# 
# 
# High freq. dielectric constant tensor:
#      x y z
#    x 1.868990 -0.012750 0.014040 
#    y -0.012750 1.862790 0.003250 
#    z 0.014040 0.003250 1.871940 
# 
# From -- ./inp_files/38183.got.cif
#   From: 2010.06.25/outbox.cif.g09.slc.cpg/sg2_20_cif.got.tgz:38183.got - 2010.06.27 13:26:56.
