data_PCOD8003418
_publ_section_title
;
Structure prediction by ZEFSAII (Michael W. Deem and Ramdas Pophale) SiO2 
 PCOD8003418
Probable space group: P -1
;
_chemical_formula_sum "Si O2"
_cell_formula_units_Z 16
_cell_length_a 6.309244
_cell_length_b 9.405536
_cell_length_c 26.010758
_cell_angle_alpha 47.252293
_cell_angle_beta 53.159790
_cell_angle_gamma 77.057206
_cell_volume 862.042819
_symmetry_space_group_name_H-M "P -1"
_symmetry_group_IT_number 2
_symmetry_cell_setting 'triclinic'
loop_
_space_group_symop_operation_xyz
x,y,z
-x,-y,-z
loop_
_atom_site_type_symbol
_atom_site_label
_atom_site_fract_x
_atom_site_fract_y
_atom_site_fract_z
Si Si1 0.056419 0.270461 0.909623
Si Si2 0.706100 0.010731 0.421991
Si Si3 0.473822 0.273140 0.040102
Si Si4 0.703653 0.011500 0.660016
Si Si5 0.413717 0.267678 0.586542
Si Si6 0.256452 0.098981 0.011524
Si Si7 0.156114 0.040538 0.235274
Si Si8 0.223778 0.709806 0.743184
O O1 0.172129 0.471836 0.810281
O O2 0.020147 0.086154 0.919049
O O3 0.772692 0.264546 0.981332
O O4 0.284381 0.265758 0.921251
O O5 0.553971 0.849079 0.440939
O O6 0.984746 0.964183 0.410896
O O7 0.500000 0.000000 0.500000
O O8 0.768117 0.232489 0.332424
O O9 0.254192 0.207900 0.040132
O O10 0.362451 0.096595 0.142936
O O11 0.500000 0.500000 0.000000
O O12 0.628343 0.219840 0.607857
O O13 0.669692 0.968113 0.736616
O O14 0.504866 0.819736 0.705957
O O15 0.500000 0.500000 0.500000
O O16 0.097704 0.175624 0.678069
O O17 0.500000 0.000000 0.000000
O O18 0.026904 0.226589 0.210264
#
# Coordination Sequence:
#
# PCOD8003418 Si02
#       8
#     2   2   2   2   2   2   2   2
#     4  10  20  37  57  77 109 154 183 213 282 319
#     4   9  19  35  55  82 107 132 181 227 268 324
#     4  11  21  34  57  86 112 140 183 232 270 316
#     4   8  18  33  57  78 112 138 173 227 269 320
#     4   9  19  36  57  78 108 146 176 214 274 329
#     4   9  22  38  53  73 110 149 185 227 260 326
#     4   9  19  34  51  87 111 134 183 223 268 325
#     4   9  18  32  55  82 104 142 182 217 268 329
#
# _framework density 18.560562999999998
#
# number of rings (size 3 to 8) (size 9 to 14) (size 15 to 20)
#    0.000    3.250    1.250    0.000    1.750    7.500 
#    2.250    0.000    8.250    0.000    0.000    0.000 
#    0.000    0.000    0.000    0.000    0.000    0.000 
#
# Total GULP energy -198210.468465 kJ/mol
# GULP energy per Si atom -12388.154279 kJ/mol
# Density = 1.851832 g / cm^3
# Si number density = 18.560563 Si / 1000 Ang^3
#
#
#
# Elastic Constant Matrix: (Units=GPa)
#
#
# Indices 1 2 3 4 5 6 
#
# 1 115.6227 28.8376 35.6913 -0.0044 17.7359 1.9792
# 2 28.8376 75.3489 45.9953 -8.0228 8.9063 9.3159
# 3 35.6913 45.9953 127.7817 -11.1076 11.3183 -3.1777
# 4 -0.0044 -8.0228 -11.1076 36.7921 -5.9813 5.9016
# 5 17.7359 8.9063 11.3183 -5.9813 19.5010 -1.6196
# 6 1.9792 9.3159 -3.1777 5.9016 -1.6196 23.4303
#
#
#
# Elastic Compliance Matrix: (Units=1/GPa)
#
#
# Indices 1 2 3 4 5 6 
#
# 1 0.011124 -0.002434 -0.001668 -0.002432 -0.008799 -0.000194
# 2 -0.002434 0.019873 -0.006139 0.003534 -0.003015 -0.009627
# 3 -0.001668 -0.006139 0.010806 0.001122 -0.001302 0.003674
# 4 -0.002432 0.003534 0.001122 0.031041 0.008782 -0.008259
# 5 -0.008799 -0.003015 -0.001302 0.008782 0.064442 0.004008
# 6 -0.000194 -0.009627 0.003674 -0.008259 0.004008 0.049380
#
#
# Mechanical properties :
#
#
# Convention : Reuss Voigt Hill
#
# Bulk Modulus (GPa) = 46.90103 59.97797 53.43950
# Shear Modulus (GPa) = 23.33680 29.82659 26.58170
#
# Velocity S-wave (km/s) = 3.54974 4.01307 3.78849
# Velocity P-wave (km/s) = 6.49037 7.33879 6.92758
#
# Compressibility (1/GPa) = 0.02132149
#
# Stress axis : x y z
#
# Youngs Moduli (GPa) = 89.89779 50.31832 92.54517
#
# Poissons Ratio (x) = 0.12249 0.15433
# Poissons Ratio (y) = 0.21884 0.56811
# Poissons Ratio (z) = 0.14992 0.30889
#
# Static dielectric constant tensor:
#      x y z
#    x 3.787210 0.127230 0.243020 
#    y 0.127230 3.312990 -0.134010 
#    z 0.243020 -0.134010 3.447210 
# 
# 
# High freq. dielectric constant tensor:
#      x y z
#    x 1.734740 0.002150 0.015610 
#    y 0.002150 1.694460 -0.011170 
#    z 0.015610 -0.011170 1.712190 
# 
# From -- ./inp_files/84262.got.cif
#   From: 2010.06.25/outbox.cif.g09.slc.cpg/sg2_43_cif.got.tgz:84262.got - 2010.06.27 13:26:56.
