data_PCOD8003793
_publ_section_title
;
Structure prediction by ZEFSAII (Michael W. Deem and Ramdas Pophale) SiO2 
 PCOD8003793
Probable space group: P -1
;
_chemical_formula_sum "Si O2"
_cell_formula_units_Z 16
_cell_length_a 14.850237
_cell_length_b 15.880553
_cell_length_c 15.226601
_cell_angle_alpha 36.469028
_cell_angle_beta 159.078156
_cell_angle_gamma 140.799929
_cell_volume 757.374185
_symmetry_space_group_name_H-M "P -1"
_symmetry_group_IT_number 2
_symmetry_cell_setting 'triclinic'
loop_
_space_group_symop_operation_xyz
x,y,z
-x,-y,-z
loop_
_atom_site_type_symbol
_atom_site_label
_atom_site_fract_x
_atom_site_fract_y
_atom_site_fract_z
Si Si1 0.631936 0.267623 0.590350
Si Si2 0.552798 0.439144 0.851646
Si Si3 0.296292 0.317532 0.556407
Si Si4 0.433407 0.160913 0.063478
Si Si5 0.038814 0.583042 0.102732
Si Si6 0.011868 0.907227 0.424552
Si Si7 0.286094 0.987965 0.240308
Si Si8 0.218808 0.204407 0.403473
O O1 0.612000 0.427894 0.402441
O O2 0.377874 0.195121 0.466675
O O3 0.839080 0.281319 0.844214
O O4 0.711410 0.167619 0.669769
O O5 0.511173 0.343757 0.804290
O O6 0.476119 0.333659 0.951614
O O7 0.845306 0.498017 0.066573
O O8 0.383278 0.235849 0.616923
O O9 0.231576 0.474678 0.337870
O O10 0.057056 0.217811 0.463023
O O11 0.701561 0.103079 0.337494
O O12 0.355155 0.116832 0.127545
O O13 0.202164 0.097610 0.842494
O O14 0.924065 0.652673 0.854552
O O15 0.024000 0.061364 0.353846
O O16 0.500000 0.000000 0.500000
O O17 0.000000 0.000000 0.000000
#
# Coordination Sequence:
#
# PCOD8003793 Si02
#       8
#     2   2   2   2   2   2   2   2
#     4  10  23  41  63  92 126 170 212 259 328 374
#     4   9  21  39  65  87 131 172 212 258 303 386
#     4  10  21  37  55  96 127 176 222 259 302 357
#     4  11  22  45  68  94 126 171 208 256 334 373
#     4  10  20  37  61  87 126 175 216 259 306 373
#     4  11  22  40  64  92 133 173 216 257 309 381
#     4  12  27  46  73 100 126 155 208 270 327 397
#     4  11  22  35  59  89 133 173 218 267 305 369
#
# _framework density 21.125620000000001
#
# number of rings (size 3 to 8) (size 9 to 14) (size 15 to 20)
#    0.000    1.500    2.500    2.250    3.500    5.500 
#    0.000    3.125    0.000    0.000    0.000    0.000 
#    0.000    0.000    0.000    0.000    0.000    0.000 
#
# Total GULP energy -198266.632969 kJ/mol
# GULP energy per Si atom -12391.664561 kJ/mol
# Density = 2.107754 g / cm^3
# Si number density = 21.125620 Si / 1000 Ang^3
#
#
#
# Elastic Constant Matrix: (Units=GPa)
#
#
# Indices 1 2 3 4 5 6 
#
# 1 67.1049 23.8432 25.3216 -15.4954 -7.3159 -16.7367
# 2 23.8432 112.6107 21.8942 -7.4822 -11.9152 -5.1635
# 3 25.3216 21.8942 94.8113 9.7247 0.4846 -6.2166
# 4 -15.4954 -7.4822 9.7247 26.8556 3.0901 -9.5812
# 5 -7.3159 -11.9152 0.4846 3.0901 30.2415 -2.0540
# 6 -16.7367 -5.1635 -6.2166 -9.5812 -2.0540 31.0401
#
#
#
# Elastic Compliance Matrix: (Units=1/GPa)
#
#
# Indices 1 2 3 4 5 6 
#
# 1 0.033556 -0.001176 -0.010229 0.031249 0.006385 0.025917
# 2 -0.001176 0.010254 -0.002284 0.003255 0.003586 0.001856
# 3 -0.010229 -0.002284 0.014791 -0.014269 -0.002664 -0.007514
# 4 0.031249 0.003255 -0.014269 0.074343 0.004038 0.037748
# 5 0.006385 0.003586 -0.002664 0.004038 0.036140 0.007144
# 6 0.025917 0.001856 -0.007514 0.037748 0.007144 0.057119
#
#
# Mechanical properties :
#
#
# Convention : Reuss Voigt Hill
#
# Bulk Modulus (GPa) = 32.02784 46.29388 39.16086
# Shear Modulus (GPa) = 18.94018 31.19194 25.06606
#
# Velocity S-wave (km/s) = 2.99749 3.84669 3.44833
# Velocity P-wave (km/s) = 5.21282 6.45682 5.86788
#
# Compressibility (1/GPa) = 0.03122283
#
# Stress axis : x y z
#
# Youngs Moduli (GPa) = 29.80128 97.52243 67.60813
#
# Poissons Ratio (x) = 0.11466 0.69155
# Poissons Ratio (y) = 0.03504 0.15444
# Poissons Ratio (z) = 0.30483 0.22278
#
# Static dielectric constant tensor:
#      x y z
#    x 3.552180 0.259750 -0.152590 
#    y 0.259750 4.106950 -0.056060 
#    z -0.152590 -0.056060 3.909860 
# 
# 
# High freq. dielectric constant tensor:
#      x y z
#    x 1.792680 0.020050 -0.005490 
#    y 0.020050 1.849160 0.001830 
#    z -0.005490 0.001830 1.831850 
# 
# From -- ./inp_files/53134.got.cif
#   From: 2010.06.25/outbox.cif.g09.slc.cpg/sg2_27_cif.got.tgz:53134.got - 2010.06.27 13:26:56.
