data_PCOD8003456
_publ_section_title
;
Structure prediction by ZEFSAII (Michael W. Deem and Ramdas Pophale) SiO2 
 PCOD8003456
Probable space group: P -1
;
_chemical_formula_sum "Si O2"
_cell_formula_units_Z 14
_cell_length_a 7.407828
_cell_length_b 5.189184
_cell_length_c 19.388360
_cell_angle_alpha 126.168887
_cell_angle_beta 81.932908
_cell_angle_gamma 94.502787
_cell_volume 595.703835
_symmetry_space_group_name_H-M "P -1"
_symmetry_group_IT_number 2
_symmetry_cell_setting 'triclinic'
loop_
_space_group_symop_operation_xyz
x,y,z
-x,-y,-z
loop_
_atom_site_type_symbol
_atom_site_label
_atom_site_fract_x
_atom_site_fract_y
_atom_site_fract_z
Si Si1 0.218646 0.034668 0.652632
Si Si2 0.192895 0.720893 0.459867
Si Si3 0.309715 0.194290 0.179062
Si Si4 0.594379 0.807346 0.575993
Si Si5 0.025351 0.572063 0.682031
Si Si6 0.793486 0.392503 0.982950
Si Si7 0.531936 0.421658 0.884011
O O1 0.157975 0.828291 0.556751
O O2 0.435002 0.021332 0.653089
O O3 0.115816 0.899034 0.703826
O O4 0.158439 0.401304 0.702888
O O5 0.270917 0.350374 0.399568
O O6 0.005047 0.676939 0.419938
O O7 0.319023 0.974870 0.453777
O O8 0.171346 0.369828 0.265150
O O9 0.425806 0.462649 0.176803
O O10 0.199145 0.984862 0.095037
O O11 0.449509 0.964188 0.177080
O O12 0.500000 0.500000 0.500000
O O13 0.682051 0.567424 0.953548
O O14 0.673307 0.463155 0.068820
O O15 0.000000 0.500000 0.000000
#
# Coordination Sequence:
#
# PCOD8003456 Si02
#       7
#     2   2   2   2   2   2   2
#     4  11  21  37  58  82 113 152 204 246 290 344
#     4  11  21  37  58  85 107 157 204 242 296 353
#     4  10  21  40  56  83 125 155 185 237 308 336
#     4  10  20  37  58  78 110 145 194 257 299 339
#     4  12  23  36  59  83 120 154 190 251 290 346
#     4   9  20  38  68  91 115 153 202 235 286 353
#     4   9  20  39  62  88 120 154 192 238 292 345
#
# _framework density 23.501612000000002
#
# number of rings (size 3 to 8) (size 9 to 14) (size 15 to 20)
#    0.857    0.857    0.000    7.286    0.000    0.571 
#    0.000    4.286    0.000    0.000    0.000    0.000 
#    0.000    0.000    0.000    0.000    0.000    0.000 
#
# Total GULP energy -173484.560320 kJ/mol
# GULP energy per Si atom -12391.754309 kJ/mol
# Density = 2.344812 g / cm^3
# Si number density = 23.501612 Si / 1000 Ang^3
#
#
#
# Elastic Constant Matrix: (Units=GPa)
#
#
# Indices 1 2 3 4 5 6 
#
# 1 87.4537 27.0352 10.7624 -8.9309 -24.5090 -7.7689
# 2 27.0352 180.6611 34.2479 -33.1672 -17.2075 -13.1880
# 3 10.7624 34.2479 61.5769 -15.4747 -29.8257 0.0663
# 4 -8.9309 -33.1672 -15.4747 35.4058 10.8664 -12.5006
# 5 -24.5090 -17.2075 -29.8257 10.8664 29.1200 -1.2206
# 6 -7.7689 -13.1880 0.0663 -12.5006 -1.2206 28.8544
#
#
#
# Elastic Compliance Matrix: (Units=1/GPa)
#
#
# Indices 1 2 3 4 5 6 
#
# 1 0.018127 -0.001381 0.009703 0.002462 0.023724 0.006298
# 2 -0.001381 0.008430 -0.003523 0.009603 -0.003057 0.007520
# 3 0.009703 -0.003523 0.039359 0.004157 0.045039 0.004618
# 4 0.002462 0.009603 0.004157 0.050975 -0.005891 0.026877
# 5 0.023724 -0.003057 0.045039 -0.005891 0.101108 0.006612
# 6 0.006298 0.007520 0.004618 0.026877 0.006612 0.051703
#
#
# Mechanical properties :
#
#
# Convention : Reuss Voigt Hill
#
# Bulk Modulus (GPa) = 13.24260 52.64249 32.94255
# Shear Modulus (GPa) = 17.52701 35.85246 26.68974
#
# Velocity S-wave (km/s) = 2.73386 3.91004 3.37360
# Velocity P-wave (km/s) = 3.95124 6.54467 5.40579
#
# Compressibility (1/GPa) = 0.07551388
#
# Stress axis : x y z
#
# Youngs Moduli (GPa) = 55.16682 118.61756 25.40738
#
# Poissons Ratio (x) = 0.16376 -0.24652
# Poissons Ratio (y) = 0.07616 0.08951
# Poissons Ratio (z) = -0.53526 0.41789
#
# Static dielectric constant tensor:
#      x y z
#    x 4.492130 -0.742780 -0.375240 
#    y -0.742780 4.752500 0.117280 
#    z -0.375240 0.117280 3.895000 
# 
# 
# High freq. dielectric constant tensor:
#      x y z
#    x 1.913900 -0.014150 -0.025980 
#    y -0.014150 1.941230 -0.006070 
#    z -0.025980 -0.006070 1.905130 
# 
# From -- ./inp_files/585018.got.cif
#   From: 2010.06.25/outbox.cif.g09.slc.cpg/sg2_293_cif.got.tgz:585018.got - 2010.06.27 13:26:56.
