data_PCOD8003616
_publ_section_title
;
Structure prediction by ZEFSAII (Michael W. Deem and Ramdas Pophale) SiO2 
 PCOD8003616
Probable space group: P -1
;
_chemical_formula_sum "Si O2"
_cell_formula_units_Z 16
_cell_length_a 11.681118
_cell_length_b 12.338525
_cell_length_c 12.186279
_cell_angle_alpha 42.444664
_cell_angle_beta 112.896860
_cell_angle_gamma 81.505213
_cell_volume 780.429969
_symmetry_space_group_name_H-M "P -1"
_symmetry_group_IT_number 2
_symmetry_cell_setting 'triclinic'
loop_
_space_group_symop_operation_xyz
x,y,z
-x,-y,-z
loop_
_atom_site_type_symbol
_atom_site_label
_atom_site_fract_x
_atom_site_fract_y
_atom_site_fract_z
Si Si1 0.890962 0.192568 0.103965
Si Si2 0.374218 0.154942 0.147050
Si Si3 0.703166 0.940415 0.536734
Si Si4 0.515663 0.471487 0.655957
Si Si5 0.526309 0.113225 0.012762
Si Si6 0.249392 0.945569 0.315194
Si Si7 0.146334 0.104755 0.578763
Si Si8 0.123965 0.502820 0.960469
O O1 0.934104 0.984602 0.334947
O O2 0.706332 0.357868 0.849693
O O3 0.884550 0.333639 0.088852
O O4 0.047807 0.080068 0.160064
O O5 0.560620 0.947008 0.429223
O O6 0.297997 0.343783 0.069918
O O7 0.260071 0.096622 0.131370
O O8 0.396130 0.212797 0.992802
O O9 0.651577 0.095387 0.504912
O O10 0.746499 0.033049 0.389802
O O11 0.870492 0.673411 0.834445
O O12 0.500000 0.500000 0.500000
O O13 0.480191 0.321418 0.784750
O O14 0.358043 0.708435 0.476217
O O15 0.500000 0.000000 0.000000
O O16 0.728028 0.925018 0.263755
O O17 0.013704 0.360360 0.294137
#
# Coordination Sequence:
#
# PCOD8003616 Si02
#       8
#     2   2   2   2   2   2   2   2
#     4  11  24  39  64  94 130 162 203 254 310 374
#     4  10  22  37  62  92 127 162 207 252 301 371
#     4  10  20  37  59  93 131 162 203 248 302 376
#     4  11  25  45  66  88 121 166 209 259 314 363
#     4  10  23  45  64  85 118 163 212 259 306 364
#     4  11  22  39  64  92 126 161 207 249 311 367
#     4  10  22  37  60  91 127 157 198 257 305 365
#     4  11  20  36  60  94 128 160 196 245 314 362
#
# _framework density 20.501519999999999
#
# number of rings (size 3 to 8) (size 9 to 14) (size 15 to 20)
#    0.000    1.500    1.250    4.500    3.500    1.500 
#    0.000    4.375    0.000    0.000    0.000    0.000 
#    0.000    0.000    0.000    0.000    0.000    0.000 
#
# Total GULP energy -198218.326669 kJ/mol
# GULP energy per Si atom -12388.645417 kJ/mol
# Density = 2.045486 g / cm^3
# Si number density = 20.501520 Si / 1000 Ang^3
#
#
#
# Elastic Constant Matrix: (Units=GPa)
#
#
# Indices 1 2 3 4 5 6 
#
# 1 154.9520 58.0559 62.6966 -0.9235 -11.2796 -1.2568
# 2 58.0559 129.8134 69.5406 -6.1914 -3.9134 3.1588
# 3 62.6966 69.5406 119.5315 1.2870 -3.0908 -6.2571
# 4 -0.9235 -6.1914 1.2870 32.2549 -11.4868 -0.2662
# 5 -11.2796 -3.9134 -3.0908 -11.4868 27.8054 1.7140
# 6 -1.2568 3.1588 -6.2571 -0.2662 1.7140 26.5125
#
#
#
# Elastic Compliance Matrix: (Units=1/GPa)
#
#
# Indices 1 2 3 4 5 6 
#
# 1 0.008830 -0.001924 -0.003456 0.001253 0.003468 -0.000379
# 2 -0.001924 0.012174 -0.006224 0.003117 0.001719 -0.003090
# 3 -0.003456 -0.006224 0.013983 -0.002537 -0.002017 0.003983
# 4 0.001253 0.003117 -0.002537 0.037517 0.016261 -0.001585
# 5 0.003468 0.001719 -0.002017 0.016261 0.044305 -0.003217
# 6 -0.000379 -0.003090 0.003983 -0.001585 -0.003217 0.039200
#
#
# Mechanical properties :
#
#
# Convention : Reuss Voigt Hill
#
# Bulk Modulus (GPa) = 84.89662 87.20926 86.05294
# Shear Modulus (GPa) = 27.30122 31.58147 29.44135
#
# Velocity S-wave (km/s) = 3.65316 3.92911 3.79365
# Velocity P-wave (km/s) = 7.70026 7.95073 7.82650
#
# Compressibility (1/GPa) = 0.01177903
#
# Stress axis : x y z
#
# Youngs Moduli (GPa) = 113.25610 82.14399 71.51478
#
# Poissons Ratio (x) = 0.15806 0.24712
# Poissons Ratio (y) = 0.21792 0.44511
# Poissons Ratio (z) = 0.39136 0.51127
#
# Static dielectric constant tensor:
#      x y z
#    x 4.167970 -0.173890 0.182170 
#    y -0.173890 3.596500 0.080270 
#    z 0.182170 0.080270 4.022710 
# 
# 
# High freq. dielectric constant tensor:
#      x y z
#    x 1.824950 -0.011920 0.001560 
#    y -0.011920 1.787660 0.004230 
#    z 0.001560 0.004230 1.799910 
# 
# From -- ./inp_files/427441.got.cif
#   From: 2010.06.25/outbox.cif.g09.slc.cpg/sg2_214_cif.got.tgz:427441.got - 2010.06.27 13:26:56.
