data_PCOD8003376
_publ_section_title
;
Structure prediction by ZEFSAII (Michael W. Deem and Ramdas Pophale) SiO2 
 PCOD8003376
Probable space group: P -1
;
_chemical_formula_sum "Si O2"
_cell_formula_units_Z 16
_cell_length_a 10.584437
_cell_length_b 6.717046
_cell_length_c 12.462619
_cell_angle_alpha 98.957465
_cell_angle_beta 88.347053
_cell_angle_gamma 98.808143
_cell_volume 864.904845
_symmetry_space_group_name_H-M "P -1"
_symmetry_group_IT_number 2
_symmetry_cell_setting 'triclinic'
loop_
_space_group_symop_operation_xyz
x,y,z
-x,-y,-z
loop_
_atom_site_type_symbol
_atom_site_label
_atom_site_fract_x
_atom_site_fract_y
_atom_site_fract_z
Si Si1 0.386117 0.881052 0.118907
Si Si2 0.391767 0.421536 0.412079
Si Si3 0.985935 0.099854 0.394642
Si Si4 0.624611 0.208225 0.122633
Si Si5 0.728434 0.003715 0.299172
Si Si6 0.215102 0.709884 0.500370
Si Si7 0.754493 0.989786 0.670271
Si Si8 0.539112 0.612065 0.225802
O O1 0.465139 0.703203 0.138564
O O2 0.479815 0.094168 0.124282
O O3 0.275232 0.915673 0.207162
O O4 0.321487 0.815559 0.000631
O O5 0.500000 0.500000 0.500000
O O6 0.259886 0.492903 0.462856
O O7 0.363748 0.177045 0.381191
O O8 0.432399 0.519427 0.305201
O O9 0.875563 0.966787 0.312695
O O10 0.927992 0.309956 0.443514
O O11 0.119791 0.123846 0.330032
O O12 0.000000 0.000000 0.500000
O O13 0.716646 0.112098 0.194009
O O14 0.621987 0.445274 0.166771
O O15 0.688551 0.152477 0.406918
O O16 0.637010 0.789757 0.294005
O O17 0.219798 0.825615 0.396884
#
# Coordination Sequence:
#
# PCOD8003376 Si02
#       8
#     2   2   2   2   2   2   2   2
#     4  10  21  35  57  79 114 141 176 226 270 327
#     4  12  23  29  54  88 112 137 176 220 273 329
#     4   8  19  38  56  73 108 152 181 212 268 315
#     4  10  20  37  55  84 107 141 182 220 278 320
#     4   9  20  37  56  78 108 145 178 223 263 322
#     4   9  20  37  51  77 111 142 174 215 266 319
#     4  11  20  37  54  79 109 145 179 221 263 316
#     4  11  20  34  55  81 111 141 174 222 276 324
#
# _framework density 18.499146
#
# number of rings (size 3 to 8) (size 9 to 14) (size 15 to 20)
#    0.750    1.250    2.500    1.875    1.750    1.500 
#    0.000    1.875    0.000    0.750    0.000    0.000 
#    0.000    0.000    0.000    0.000    0.000    0.000 
#
# Total GULP energy -198242.399068 kJ/mol
# GULP energy per Si atom -12390.149942 kJ/mol
# Density = 1.845704 g / cm^3
# Si number density = 18.499146 Si / 1000 Ang^3
#
#
#
# Elastic Constant Matrix: (Units=GPa)
#
#
# Indices 1 2 3 4 5 6 
#
# 1 80.7572 7.0285 35.6247 3.8674 -0.8298 -15.2848
# 2 7.0285 53.7639 10.0539 8.1740 -2.3732 -12.9189
# 3 35.6247 10.0539 111.9410 7.8125 -4.3874 -12.7595
# 4 3.8674 8.1740 7.8125 23.8076 -4.0009 -2.9217
# 5 -0.8298 -2.3732 -4.3874 -4.0009 26.1503 1.3239
# 6 -15.2848 -12.9189 -12.7595 -2.9217 1.3239 20.1361
#
#
#
# Elastic Compliance Matrix: (Units=1/GPa)
#
#
# Indices 1 2 3 4 5 6 
#
# 1 0.016030 0.001196 -0.004017 -0.000537 -0.000663 0.010355
# 2 0.001196 0.022937 -0.000347 -0.006111 0.000393 0.014492
# 3 -0.004017 -0.000347 0.010803 -0.002189 0.001158 0.003180
# 4 -0.000537 -0.006111 -0.002189 0.045996 0.006070 0.000559
# 5 -0.000663 0.000393 0.001158 0.006070 0.039440 -0.001230
# 6 0.010355 0.014492 0.003180 0.000559 -0.001230 0.068997
#
#
# Mechanical properties :
#
#
# Convention : Reuss Voigt Hill
#
# Bulk Modulus (GPa) = 23.02313 39.09737 31.06025
# Shear Modulus (GPa) = 22.22057 26.93580 24.57818
#
# Velocity S-wave (km/s) = 3.46955 3.81997 3.64897
# Velocity P-wave (km/s) = 5.34068 6.37470 5.88046
#
# Compressibility (1/GPa) = 0.04343457
#
# Stress axis : x y z
#
# Youngs Moduli (GPa) = 62.38478 43.59773 92.56316
#
# Poissons Ratio (x) = -0.05216 0.37182
# Poissons Ratio (y) = -0.07463 0.03213
# Poissons Ratio (z) = 0.25060 0.01513
#
# Static dielectric constant tensor:
#      x y z
#    x 3.497340 -0.182910 -0.071210 
#    y -0.182910 3.258550 0.068490 
#    z -0.071210 0.068490 3.484970 
# 
# 
# High freq. dielectric constant tensor:
#      x y z
#    x 1.698090 -0.014800 0.001420 
#    y -0.014800 1.709050 0.003500 
#    z 0.001420 0.003500 1.716310 
# 
# From -- ./inp_files/410549.got.cif
#   From: 2010.06.25/outbox.cif.g09.slc.cpg/sg2_206_cif.got.tgz:410549.got - 2010.06.27 13:26:56.
