data_PCOD8003419
_publ_section_title
;
Structure prediction by ZEFSAII (Michael W. Deem and Ramdas Pophale) SiO2 
 PCOD8003419
Probable space group: P -1
;
_chemical_formula_sum "Si O2"
_cell_formula_units_Z 16
_cell_length_a 14.529096
_cell_length_b 15.816342
_cell_length_c 16.615934
_cell_angle_alpha 27.822247
_cell_angle_beta 129.428300
_cell_angle_gamma 148.440444
_cell_volume 815.672099
_symmetry_space_group_name_H-M "P -1"
_symmetry_group_IT_number 2
_symmetry_cell_setting 'triclinic'
loop_
_space_group_symop_operation_xyz
x,y,z
-x,-y,-z
loop_
_atom_site_type_symbol
_atom_site_label
_atom_site_fract_x
_atom_site_fract_y
_atom_site_fract_z
Si Si1 0.649153 0.997253 0.974804
Si Si2 0.350757 0.197096 0.120277
Si Si3 0.912877 0.662334 0.584843
Si Si4 0.741231 0.775302 0.122156
Si Si5 0.379973 0.434766 0.414312
Si Si6 0.544960 0.007064 0.745526
Si Si7 0.941097 0.702398 0.382632
Si Si8 0.662835 0.876116 0.490502
O O1 0.784530 0.322663 0.812299
O O2 0.505248 0.897192 0.907924
O O3 0.792395 0.021270 0.992828
O O4 0.516435 0.750234 0.179716
O O5 0.484796 0.194155 0.164103
O O6 0.500000 0.500000 0.000000
O O7 0.246705 0.180965 0.003430
O O8 0.165515 0.903950 0.320388
O O9 0.820767 0.712249 0.543466
O O10 0.917779 0.735921 0.433714
O O11 0.136404 0.897065 0.539055
O O12 0.897551 0.817037 0.203044
O O13 0.511528 0.441313 0.292815
O O14 0.500000 0.500000 0.500000
O O15 0.313977 0.184954 0.532980
O O16 0.778246 0.347045 0.576180
O O17 0.388623 0.974716 0.668796
#
# Coordination Sequence:
#
# PCOD8003419 Si02
#       8
#     2   2   2   2   2   2   2   2
#     4   9  19  36  57  79 107 146 184 219 267 329
#     4  11  21  34  56  86 112 142 184 234 276 316
#     4  11  21  35  57  85 111 140 184 233 271 315
#     4   9  19  37  57  78 112 151 184 220 272 333
#     4  11  21  38  60  81 110 149 183 217 272 336
#     4   9  20  39  57  76 110 148 182 222 274 332
#     4  10  20  37  57  79 109 151 187 220 271 334
#     4  10  21  38  56  82 112 143 181 231 276 317
#
# _framework density 19.615725000000001
#
# number of rings (size 3 to 8) (size 9 to 14) (size 15 to 20)
#    0.000    2.000    0.000    5.250    0.000    1.000 
#    0.000   13.125    0.000    0.000    0.000    0.000 
#    0.000    0.000    0.000    0.000    0.000    0.000 
#
# Total GULP energy -198397.909642 kJ/mol
# GULP energy per Si atom -12399.869353 kJ/mol
# Density = 1.957108 g / cm^3
# Si number density = 19.615725 Si / 1000 Ang^3
#
#
#
# Elastic Constant Matrix: (Units=GPa)
#
#
# Indices 1 2 3 4 5 6 
#
# 1 115.1287 51.4550 45.2140 -4.9244 9.6813 -5.5117
# 2 51.4550 87.2442 31.9108 -5.3650 8.6391 0.8813
# 3 45.2140 31.9108 76.6170 17.0588 5.2209 0.8572
# 4 -4.9244 -5.3650 17.0588 25.7478 -2.2216 0.2674
# 5 9.6813 8.6391 5.2209 -2.2216 35.6878 0.0521
# 6 -5.5117 0.8813 0.8572 0.2674 0.0521 32.5537
#
#
#
# Elastic Compliance Matrix: (Units=1/GPa)
#
#
# Indices 1 2 3 4 5 6 
#
# 1 0.014675 -0.005238 -0.007961 0.006864 -0.001125 0.002781
# 2 -0.005238 0.016960 -0.005148 0.005821 -0.001567 -0.001256
# 3 -0.007961 -0.005148 0.024164 -0.018699 -0.001291 -0.001689
# 4 0.006864 0.005821 -0.018699 0.053985 0.002824 0.001049
# 5 -0.001125 -0.001567 -0.001291 0.002824 0.029070 -0.000184
# 6 0.002781 -0.001256 -0.001689 0.001049 -0.000184 0.031260
#
#
# Mechanical properties :
#
#
# Convention : Reuss Voigt Hill
#
# Bulk Modulus (GPa) = 52.34144 59.57215 55.95679
# Shear Modulus (GPa) = 23.45473 28.82520 26.13996
#
# Velocity S-wave (km/s) = 3.46166 3.83756 3.65444
# Velocity P-wave (km/s) = 6.53596 7.07611 6.81139
#
# Compressibility (1/GPa) = 0.01910532
#
# Stress axis : x y z
#
# Youngs Moduli (GPa) = 68.14431 58.96271 41.38302
#
# Poissons Ratio (x) = 0.30882 0.32946
# Poissons Ratio (y) = 0.35691 0.21304
# Poissons Ratio (z) = 0.54252 0.30354
#
# Static dielectric constant tensor:
#      x y z
#    x 3.727900 -0.141150 0.108720 
#    y -0.141150 3.411750 0.130460 
#    z 0.108720 0.130460 3.721020 
# 
# 
# High freq. dielectric constant tensor:
#      x y z
#    x 1.774360 -0.008410 0.002200 
#    y -0.008410 1.752430 0.010690 
#    z 0.002200 0.010690 1.766630 
# 
# From -- ./inp_files/188148.got.cif
#   From: 2010.06.25/outbox.cif.g09.slc.cpg/sg2_95_cif.got.tgz:188148.got - 2010.06.27 13:26:56.
