data_PCOD8003165
_publ_section_title
;
Structure prediction by ZEFSAII (Michael W. Deem and Ramdas Pophale) SiO2 
 PCOD8003165
Probable space group: P -1
;
_chemical_formula_sum "Si O2"
_cell_formula_units_Z 14
_cell_length_a 14.455859
_cell_length_b 13.745297
_cell_length_c 8.653242
_cell_angle_alpha 116.826312
_cell_angle_beta 96.275393
_cell_angle_gamma 31.153349
_cell_volume 635.137367
_symmetry_space_group_name_H-M "P -1"
_symmetry_group_IT_number 2
_symmetry_cell_setting 'triclinic'
loop_
_space_group_symop_operation_xyz
x,y,z
-x,-y,-z
loop_
_atom_site_type_symbol
_atom_site_label
_atom_site_fract_x
_atom_site_fract_y
_atom_site_fract_z
Si Si1 0.906124 0.326897 0.895548
Si Si2 0.126204 0.433402 0.763325
Si Si3 0.151137 0.166343 0.552268
Si Si4 0.388476 0.004146 0.953994
Si Si5 0.946490 0.931269 0.950250
Si Si6 0.564752 0.217831 0.936935
Si Si7 0.787003 0.533505 0.498375
O O1 0.085823 0.156376 0.672794
O O2 0.785924 0.568055 0.102405
O O3 0.699744 0.473169 0.898793
O O4 0.040630 0.123943 0.910921
O O5 0.226021 0.207215 0.655526
O O6 0.196090 0.390571 0.572282
O O7 0.861538 0.716412 0.950046
O O8 0.936096 0.415554 0.583885
O O9 0.349644 0.895522 0.302840
O O10 0.384363 0.942975 0.068853
O O11 0.500000 0.000000 0.000000
O O12 0.533118 0.787869 0.693213
O O13 0.127906 0.672952 0.696920
O O14 0.698431 0.175525 0.010521
O O15 0.000000 0.000000 0.000000
#
# Coordination Sequence:
#
# PCOD8003165 Si02
#       7
#     2   2   2   2   2   2   2
#     4  11  23  39  63  92 125 160 208 264 307 373
#     4  11  21  36  57  94 135 171 205 246 299 379
#     4  11  20  35  61  92 132 169 205 247 306 374
#     4  12  19  33  64  94 125 172 201 234 305 376
#     4  10  24  48  68  87 121 162 214 273 317 361
#     4  11  23  41  63  91 129 163 206 259 310 370
#     4  10  20  36  63  89 127 167 210 251 309 365
#
# _framework density 22.042473999999999
#
# number of rings (size 3 to 8) (size 9 to 14) (size 15 to 20)
#    0.000    1.143    7.143    1.714    0.000    3.429 
#    0.000    3.571    0.000    0.000    0.000    0.000 
#    0.000    0.000    0.000    0.000    0.000    0.000 
#
# Total GULP energy -173625.144662 kJ/mol
# GULP energy per Si atom -12401.796047 kJ/mol
# Density = 2.199230 g / cm^3
# Si number density = 22.042474 Si / 1000 Ang^3
#
#
#
# Elastic Constant Matrix: (Units=GPa)
#
#
# Indices 1 2 3 4 5 6 
#
# 1 140.0701 32.0820 56.5448 -14.5209 -1.4640 -2.9614
# 2 32.0820 51.7395 17.7134 -7.7558 -3.5512 -12.4557
# 3 56.5448 17.7134 90.0191 -12.0511 -20.2830 9.9779
# 4 -14.5209 -7.7558 -12.0511 25.2457 4.2163 -7.1107
# 5 -1.4640 -3.5512 -20.2830 4.2163 28.3356 -3.2747
# 6 -2.9614 -12.4557 9.9779 -7.1107 -3.2747 28.5905
#
#
#
# Elastic Compliance Matrix: (Units=1/GPa)
#
#
# Indices 1 2 3 4 5 6 
#
# 1 0.011342 -0.003806 -0.007402 0.003380 -0.005425 0.002320
# 2 -0.003806 0.027926 -0.003297 0.008892 0.001388 0.015293
# 3 -0.007402 -0.003297 0.020138 0.000031 0.012717 -0.007766
# 4 0.003380 0.008892 0.000031 0.049524 -0.004203 0.016049
# 5 -0.005425 0.001388 0.012717 -0.004203 0.044879 -0.000301
# 6 0.002320 0.015293 -0.007766 0.016049 -0.000301 0.048547
#
#
# Mechanical properties :
#
#
# Convention : Reuss Voigt Hill
#
# Bulk Modulus (GPa) = 32.89897 54.94545 43.92221
# Shear Modulus (GPa) = 20.70429 28.13360 24.41894
#
# Velocity S-wave (km/s) = 3.06811 3.57646 3.33199
# Velocity P-wave (km/s) = 5.24488 6.48351 5.89681
#
# Compressibility (1/GPa) = 0.03039609
#
# Stress axis : x y z
#
# Youngs Moduli (GPa) = 88.16805 35.80919 49.65853
#
# Poissons Ratio (x) = 0.13628 0.36759
# Poissons Ratio (y) = 0.33555 0.16370
# Poissons Ratio (z) = 0.65265 0.11805
#
# Static dielectric constant tensor:
#      x y z
#    x 3.985840 -0.316340 -0.273720 
#    y -0.316340 3.914790 -0.075690 
#    z -0.273720 -0.075690 4.275510 
# 
# 
# High freq. dielectric constant tensor:
#      x y z
#    x 1.851380 -0.017930 -0.027990 
#    y -0.017930 1.859710 -0.018260 
#    z -0.027990 -0.018260 1.863520 
# 
# From -- ./inp_files/197742.got.cif
#   From: 2010.06.25/outbox.cif.g09.slc.cpg/sg2_99_cif.got.tgz:197742.got - 2010.06.27 13:26:56.
