data_PCOD8003003
_publ_section_title
;
Structure prediction by ZEFSAII (Michael W. Deem and Ramdas Pophale) SiO2 
 PCOD8003003
Probable space group: P -1
;
_chemical_formula_sum "Si O2"
_cell_formula_units_Z 16
_cell_length_a 11.259915
_cell_length_b 8.798555
_cell_length_c 17.828130
_cell_angle_alpha 148.723118
_cell_angle_beta 49.830952
_cell_angle_gamma 124.935995
_cell_volume 699.697825
_symmetry_space_group_name_H-M "P -1"
_symmetry_group_IT_number 2
_symmetry_cell_setting 'triclinic'
loop_
_space_group_symop_operation_xyz
x,y,z
-x,-y,-z
loop_
_atom_site_type_symbol
_atom_site_label
_atom_site_fract_x
_atom_site_fract_y
_atom_site_fract_z
Si Si1 0.541311 0.933622 0.039691
Si Si2 0.361525 0.962136 0.393524
Si Si3 0.164802 0.376032 0.198059
Si Si4 0.353628 0.372879 0.853492
Si Si5 0.786152 0.749738 0.287056
Si Si6 0.893377 0.428710 0.861170
Si Si7 0.696136 0.843191 0.666162
Si Si8 0.096035 0.664010 0.594210
O O1 0.468283 0.158054 0.222615
O O2 0.724886 0.901475 0.965234
O O3 0.458821 0.617224 0.957537
O O4 0.500000 0.000000 0.000000
O O5 0.317502 0.173254 0.567669
O O6 0.330567 0.121499 0.395887
O O7 0.255724 0.660535 0.317430
O O8 0.546035 0.915380 0.305505
O O9 0.104539 0.445155 0.169598
O O10 0.015671 0.280607 0.267258
O O11 0.316911 0.456047 0.816088
O O12 0.193890 0.345739 0.954671
O O13 0.931914 0.579196 0.183751
O O14 0.832813 0.028025 0.333721
O O15 0.816106 0.098561 0.756519
O O16 0.764064 0.529914 0.518979
O O17 0.000000 0.500000 0.500000
#
# Coordination Sequence:
#
# PCOD8003003 Si02
#       8
#     2   2   2   2   2   2   2   2
#     4  10  21  37  65  88 112 141 192 246 284 325
#     4  10  20  38  61  83 113 151 191 235 280 336
#     4  10  20  36  61  89 110 144 194 242 282 322
#     4  10  23  39  59  85 114 152 192 226 285 350
#     4  12  23  37  59  84 120 155 185 228 285 345
#     4  10  20  38  61  83 113 151 191 235 280 336
#     4  10  20  36  61  89 110 144 194 242 282 322
#     4  12  21  35  56  89 120 144 191 238 279 331
#
# _framework density 22.867014999999999
#
# number of rings (size 3 to 8) (size 9 to 14) (size 15 to 20)
#    0.000    1.500    2.500    3.000    3.500    5.000 
#    0.000    1.250    5.500    0.000    0.000    0.000 
#    0.000    0.000    0.000    0.000    0.000    0.000 
#
# Total GULP energy -198426.105801 kJ/mol
# GULP energy per Si atom -12401.631613 kJ/mol
# Density = 2.281497 g / cm^3
# Si number density = 22.867015 Si / 1000 Ang^3
#
#
#
# Elastic Constant Matrix: (Units=GPa)
#
#
# Indices 1 2 3 4 5 6 
#
# 1 117.5290 13.0463 69.9532 -10.4396 -23.6450 -23.5802
# 2 13.0463 69.6052 50.3441 -24.7008 -13.1280 -21.9377
# 3 69.9532 50.3441 134.8692 -52.7948 -40.7482 2.8793
# 4 -10.4396 -24.7008 -52.7948 38.7525 -3.3985 2.8007
# 5 -23.6450 -13.1280 -40.7482 -3.3985 50.4357 0.7304
# 6 -23.5802 -21.9377 2.8793 2.8007 0.7304 25.5533
#
#
#
# Elastic Compliance Matrix: (Units=1/GPa)
#
#
# Indices 1 2 3 4 5 6 
#
# 1 -0.022422 -0.027663 0.058363 0.063126 0.034547 -0.058923
# 2 -0.027663 -0.000451 0.056905 0.076192 0.038628 -0.041782
# 3 0.058363 0.056905 -0.094136 -0.088887 -0.041670 0.124250
# 4 0.063126 0.076192 -0.088887 -0.042162 -0.027243 0.139079
# 5 0.034547 0.038628 -0.041670 -0.027243 0.009526 0.072450
# 6 -0.058923 -0.041782 0.124250 0.139079 0.072450 -0.082424
#
#
# Mechanical properties :
#
#
# Convention : Reuss Voigt Hill
#
# Bulk Modulus (GPa) = 17.18246 65.41006 41.29626
# Shear Modulus (GPa) = -12.89068 35.52562 11.31747
#
# Velocity S-wave (km/s) = -2.37686 3.94582 2.22711
# Velocity P-wave (km/s) = 0.04734 7.03036 4.97110
#
# Compressibility (1/GPa) = 0.05819888
#
# Stress axis : x y z
#
# Youngs Moduli (GPa) = -44.59811 -2216.64269 -10.62296
#
# Poissons Ratio (x) = -61.31998 0.61998
# Poissons Ratio (y) = -1.23374 0.60450
# Poissons Ratio (z) = 2.60286 126.13795
#
# Static dielectric constant tensor:
#      x y z
#    x 4.586180 0.337330 0.198610 
#    y 0.337330 4.212320 0.104520 
#    z 0.198610 0.104520 4.581900 
# 
# 
# High freq. dielectric constant tensor:
#      x y z
#    x 1.907380 -0.014340 -0.013660 
#    y -0.014340 1.889440 -0.019420 
#    z -0.013660 -0.019420 1.910280 
# 
# From -- ./inp_files/256697.got.cif
#   From: 2010.06.25/outbox.cif.g09.slc.cpg/sg2_129_cif.got.tgz:256697.got - 2010.06.27 13:26:56.
