data_PCOD8003782
_publ_section_title
;
Structure prediction by ZEFSAII (Michael W. Deem and Ramdas Pophale) SiO2 
 PCOD8003782
Probable space group: P -1
;
_chemical_formula_sum "Si O2"
_cell_formula_units_Z 16
_cell_length_a 9.099803
_cell_length_b 6.596089
_cell_length_c 30.626251
_cell_angle_alpha 135.203872
_cell_angle_beta 38.147975
_cell_angle_gamma 131.010367
_cell_volume 779.450215
_symmetry_space_group_name_H-M "P -1"
_symmetry_group_IT_number 2
_symmetry_cell_setting 'triclinic'
loop_
_space_group_symop_operation_xyz
x,y,z
-x,-y,-z
loop_
_atom_site_type_symbol
_atom_site_label
_atom_site_fract_x
_atom_site_fract_y
_atom_site_fract_z
Si Si1 0.835894 0.921057 0.886009
Si Si2 0.697378 0.443667 0.781137
Si Si3 0.975956 0.957090 0.660745
Si Si4 0.216984 0.217608 0.558121
Si Si5 0.392469 0.565116 0.990184
Si Si6 0.755835 0.345963 0.652223
Si Si7 0.812156 0.709893 0.081972
Si Si8 0.389897 0.895643 0.615241
O O1 0.877956 0.731265 0.804850
O O2 0.600190 0.750792 0.939902
O O3 0.060509 0.979769 0.877459
O O4 0.806854 0.240693 0.924705
O O5 0.782321 0.163254 0.738871
O O6 0.720899 0.464421 0.726930
O O7 0.417816 0.438413 0.856958
O O8 0.142452 0.021523 0.588556
O O9 0.817982 0.620218 0.646006
O O10 0.154234 0.001503 0.668067
O O11 0.314035 0.563249 0.601203
O O12 0.420553 0.089572 0.466495
O O13 0.982860 0.186048 0.576092
O O14 0.279385 0.263813 0.942896
O O15 0.500000 0.500000 0.000000
O O16 0.511960 0.115443 0.658731
O O17 0.000000 0.500000 0.000000
#
# Coordination Sequence:
#
# PCOD8003782 Si02
#       8
#     2   2   2   2   2   2   2   2
#     4   9  19  36  55  75 108 144 176 224 282 339
#     4  10  22  38  54  78 115 150 185 235 285 336
#     4  10  22  37  54  84 118 150 191 235 281 339
#     4   9  20  38  59  85 118 150 188 239 284 332
#     4   9  18  34  56  83 107 131 175 233 283 334
#     4  10  22  37  57  85 116 152 193 233 283 340
#     4   9  19  37  58  79 103 142 188 228 282 338
#     4  10  20  37  61  87 114 151 194 233 282 339
#
# _framework density 20.527289
#
# number of rings (size 3 to 8) (size 9 to 14) (size 15 to 20)
#    0.000    2.500    0.000    1.500    0.000    9.000 
#    0.000    5.000    0.000    0.000    0.000    0.000 
#    0.000    0.000    0.000    0.000    0.000    0.000 
#
# Total GULP energy -198273.048447 kJ/mol
# GULP energy per Si atom -12392.065528 kJ/mol
# Density = 2.048057 g / cm^3
# Si number density = 20.527289 Si / 1000 Ang^3
#
#
#
# Elastic Constant Matrix: (Units=GPa)
#
#
# Indices 1 2 3 4 5 6 
#
# 1 127.8220 49.6621 33.1684 12.7051 18.9451 16.7320
# 2 49.6621 65.1445 23.8353 10.6567 8.7947 2.8023
# 3 33.1684 23.8353 78.1061 -5.3807 7.9002 0.7331
# 4 12.7051 10.6567 -5.3807 18.3872 11.4795 4.8579
# 5 18.9451 8.7947 7.9002 11.4795 34.3786 3.4179
# 6 16.7320 2.8023 0.7331 4.8579 3.4179 40.8292
#
#
#
# Elastic Compliance Matrix: (Units=1/GPa)
#
#
# Indices 1 2 3 4 5 6 
#
# 1 0.012817 -0.007781 -0.002828 -0.001989 -0.003346 -0.004151
# 2 -0.007781 0.024995 -0.005646 -0.013703 0.003477 0.002914
# 3 -0.002828 -0.005646 0.017232 0.013711 -0.005542 0.000070
# 4 -0.001989 -0.013703 0.013711 0.086064 -0.026641 -0.006500
# 5 -0.003346 0.003477 -0.005542 -0.026641 0.040108 0.001044
# 6 -0.004151 0.002914 0.000070 -0.006500 0.001044 0.026678
#
#
# Mechanical properties :
#
#
# Convention : Reuss Voigt Hill
#
# Bulk Modulus (GPa) = 44.37915 53.82269 49.10092
# Shear Modulus (GPa) = 20.16816 29.67944 24.92380
#
# Velocity S-wave (km/s) = 3.13789 3.80656 3.48829
# Velocity P-wave (km/s) = 5.89873 6.75255 6.34003
#
# Compressibility (1/GPa) = 0.02253311
#
# Stress axis : x y z
#
# Youngs Moduli (GPa) = 78.01992 40.00840 58.03274
#
# Poissons Ratio (x) = 0.31129 0.16413
# Poissons Ratio (y) = 0.60705 0.32768
# Poissons Ratio (z) = 0.22065 0.22591
#
# Static dielectric constant tensor:
#      x y z
#    x 4.399630 0.159700 0.176980 
#    y 0.159700 3.720880 -0.032010 
#    z 0.176980 -0.032010 3.787470 
# 
# 
# High freq. dielectric constant tensor:
#      x y z
#    x 1.810450 0.016600 0.000870 
#    y 0.016600 1.784330 -0.005300 
#    z 0.000870 -0.005300 1.797490 
# 
# From -- ./inp_files/52317.got.cif
#   From: 2010.06.25/outbox.cif.g09.slc.cpg/sg2_27_cif.got.tgz:52317.got - 2010.06.27 13:26:56.
