data_PCOD8003333
_publ_section_title
;
Structure prediction by ZEFSAII (Michael W. Deem and Ramdas Pophale) SiO2 
 PCOD8003333
Probable space group: P -1
;
_chemical_formula_sum "Si O2"
_cell_formula_units_Z 14
_cell_length_a 8.787292
_cell_length_b 16.843825
_cell_length_c 11.504877
_cell_angle_alpha 135.980271
_cell_angle_beta 38.813550
_cell_angle_gamma 106.940655
_cell_volume 583.425162
_symmetry_space_group_name_H-M "P -1"
_symmetry_group_IT_number 2
_symmetry_cell_setting 'triclinic'
loop_
_space_group_symop_operation_xyz
x,y,z
-x,-y,-z
loop_
_atom_site_type_symbol
_atom_site_label
_atom_site_fract_x
_atom_site_fract_y
_atom_site_fract_z
Si Si1 0.908467 0.480245 0.780768
Si Si2 0.276038 0.056515 0.585191
Si Si3 0.470503 0.052539 0.222870
Si Si4 0.423750 0.487836 0.217113
Si Si5 0.804587 0.161502 0.705581
Si Si6 0.194508 0.621462 0.737879
Si Si7 0.489638 0.819980 0.873204
O O1 0.816360 0.455698 0.685352
O O2 0.908290 0.618052 0.930473
O O3 0.268329 0.351532 0.454324
O O4 0.704195 0.487923 0.012713
O O5 0.452222 0.074028 0.394627
O O6 0.500000 0.000000 0.500000
O O7 0.239586 0.932723 0.452540
O O8 0.936898 0.214309 0.977293
O O9 0.609203 0.120243 0.139334
O O10 0.124409 0.131897 0.461547
O O11 0.656872 0.883503 0.898239
O O12 0.261699 0.598282 0.536409
O O13 0.531099 0.330466 0.023601
O O14 0.796385 0.125041 0.809761
O O15 0.500000 0.500000 0.500000
#
# Coordination Sequence:
#
# PCOD8003333 Si02
#       7
#     2   2   2   2   2   2   2
#     4  11  24  42  71  95 133 173 234 277 326 397
#     4  11  25  42  66 100 141 174 213 275 349 399
#     4  10  22  40  65  96 126 167 230 267 322 397
#     4  11  24  44  70 100 128 178 233 279 327 394
#     4  11  21  42  72  95 125 173 231 274 318 401
#     4  12  27  44  68 102 142 181 214 276 352 405
#     4  10  20  36  68  95 118 167 227 276 310 377
#
# _framework density 23.996223000000001
#
# number of rings (size 3 to 8) (size 9 to 14) (size 15 to 20)
#    0.000    1.143    2.857    3.857    6.000    0.571 
#    0.000    1.429    0.000   16.286    0.000    0.000 
#    0.000    0.000    0.000    0.000    0.000    0.000 
#
# Total GULP energy -173533.148354 kJ/mol
# GULP energy per Si atom -12395.224882 kJ/mol
# Density = 2.394161 g / cm^3
# Si number density = 23.996223 Si / 1000 Ang^3
#
#
#
# Elastic Constant Matrix: (Units=GPa)
#
#
# Indices 1 2 3 4 5 6 
#
# 1 95.4976 35.8374 34.2305 -6.7964 22.8132 -15.6740
# 2 35.8374 124.4175 48.0792 -22.8106 26.4540 -10.4005
# 3 34.2305 48.0792 102.6742 3.5914 29.1445 -6.9012
# 4 -6.7964 -22.8106 3.5914 38.0939 0.7300 3.8605
# 5 22.8132 26.4540 29.1445 0.7300 39.4431 -0.8321
# 6 -15.6740 -10.4005 -6.9012 3.8605 -0.8321 40.7255
#
#
#
# Elastic Compliance Matrix: (Units=1/GPa)
#
#
# Indices 1 2 3 4 5 6 
#
# 1 0.013897 -0.001339 -0.002224 0.001548 -0.005433 0.004372
# 2 -0.001339 0.012572 -0.004334 0.007670 -0.004573 0.001140
# 3 -0.002224 -0.004334 0.014548 -0.004319 -0.006460 0.000780
# 4 0.001548 0.007670 -0.004319 0.031721 -0.003462 -0.001255
# 5 -0.005433 -0.004573 -0.006460 -0.003462 0.036330 -0.003283
# 6 0.004372 0.001140 0.000780 -0.001255 -0.003283 0.026712
#
#
# Mechanical properties :
#
#
# Convention : Reuss Voigt Hill
#
# Bulk Modulus (GPa) = 39.64903 62.09815 50.87359
# Shear Modulus (GPa) = 31.25374 37.28197 34.26786
#
# Velocity S-wave (km/s) = 3.61285 3.94593 3.78306
# Velocity P-wave (km/s) = 5.82774 6.83337 6.35049
#
# Compressibility (1/GPa) = 0.02522130
#
# Stress axis : x y z
#
# Youngs Moduli (GPa) = 71.95957 79.54336 68.73912
#
# Poissons Ratio (x) = 0.10650 0.15290
# Poissons Ratio (y) = 0.09634 0.29793
# Poissons Ratio (z) = 0.16006 0.34476
#
# Static dielectric constant tensor:
#      x y z
#    x 4.073740 -0.084710 0.171170 
#    y -0.084710 4.763670 -0.026650 
#    z 0.171170 -0.026650 4.374160 
# 
# 
# High freq. dielectric constant tensor:
#      x y z
#    x 1.934740 -0.006850 0.012690 
#    y -0.006850 1.969550 -0.001690 
#    z 0.012690 -0.001690 1.956740 
# 
# From -- ./inp_files/403307.got.cif
#   From: 2010.06.25/outbox.cif.g09.slc.cpg/sg2_202_cif.got.tgz:403307.got - 2010.06.27 13:26:56.
