data_PCOD8003733
_publ_section_title
;
Structure prediction by ZEFSAII (Michael W. Deem and Ramdas Pophale) SiO2 
 PCOD8003733
Probable space group: P -1
;
_chemical_formula_sum "Si O2"
_cell_formula_units_Z 16
_cell_length_a 19.385937
_cell_length_b 9.067640
_cell_length_c 13.043831
_cell_angle_alpha 108.796301
_cell_angle_beta 145.212840
_cell_angle_gamma 46.018903
_cell_volume 749.965798
_symmetry_space_group_name_H-M "P -1"
_symmetry_group_IT_number 2
_symmetry_cell_setting 'triclinic'
loop_
_space_group_symop_operation_xyz
x,y,z
-x,-y,-z
loop_
_atom_site_type_symbol
_atom_site_label
_atom_site_fract_x
_atom_site_fract_y
_atom_site_fract_z
Si Si1 0.342480 0.887611 0.998854
Si Si2 0.639045 0.716793 0.481223
Si Si3 0.342651 0.291414 0.273383
Si Si4 0.026702 0.451770 0.803676
Si Si5 0.238572 0.690181 0.931582
Si Si6 0.487930 0.418789 0.362667
Si Si7 0.531492 0.152219 0.075377
Si Si8 0.851336 0.920664 0.574428
O O1 0.504023 0.744055 0.253862
O O2 0.243787 0.819220 0.880124
O O3 0.454436 0.784073 0.004552
O O4 0.176272 0.192196 0.862502
O O5 0.670251 0.610677 0.609152
O O6 0.849726 0.522560 0.640066
O O7 0.542395 0.984164 0.441571
O O8 0.361826 0.393092 0.227487
O O9 0.142193 0.397678 0.032835
O O10 0.953562 0.666130 0.691595
O O11 0.010908 0.885255 0.724856
O O12 0.357710 0.635726 0.164081
O O13 0.342359 0.425016 0.960473
O O14 0.500000 0.500000 0.500000
O O15 0.709984 0.150826 0.535638
O O16 0.731492 0.985224 0.343869
O O17 0.500000 0.000000 0.000000
#
# Coordination Sequence:
#
# PCOD8003733 Si02
#       8
#     2   2   2   2   2   2   2   2
#     4  11  25  41  65  97 129 169 210 266 325 380
#     4  10  21  38  63  91 130 164 214 265 319 373
#     4  10  20  37  60  93 125 170 212 264 317 374
#     4  11  21  39  66  94 130 165 219 263 315 386
#     4  11  25  45  64  96 135 166 217 265 320 390
#     4  11  23  41  65  92 134 176 215 259 324 381
#     4  11  25  44  71  95 125 170 219 267 324 380
#     4  11  24  43  67  95 128 172 217 268 316 382
#
# _framework density 21.334306000000002
#
# number of rings (size 3 to 8) (size 9 to 14) (size 15 to 20)
#    0.000    1.250    2.500    3.000    3.500    7.000 
#    2.250    0.000    0.000    0.000    0.000    0.000 
#    0.000    0.000    0.000    0.000    0.000    0.000 
#
# Total GULP energy -198448.282466 kJ/mol
# GULP energy per Si atom -12403.017654 kJ/mol
# Density = 2.128575 g / cm^3
# Si number density = 21.334306 Si / 1000 Ang^3
#
#
#
# Elastic Constant Matrix: (Units=GPa)
#
#
# Indices 1 2 3 4 5 6 
#
# 1 137.9671 36.8760 41.2121 6.6153 8.6985 4.5412
# 2 36.8760 84.7069 47.8731 14.2942 1.5697 -4.9063
# 3 41.2121 47.8731 97.9732 2.4266 9.8229 -4.8004
# 4 6.6153 14.2942 2.4266 23.9852 -3.9933 -7.5634
# 5 8.6985 1.5697 9.8229 -3.9933 44.0291 1.3503
# 6 4.5412 -4.9063 -4.8004 -7.5634 1.3503 27.2683
#
#
#
# Elastic Compliance Matrix: (Units=1/GPa)
#
#
# Indices 1 2 3 4 5 6 
#
# 1 0.008882 -0.002184 -0.002640 -0.001968 -0.001180 -0.002825
# 2 -0.002184 0.019049 -0.008236 -0.009942 0.000702 -0.000451
# 3 -0.002640 -0.008236 0.015614 0.004648 -0.002342 0.003112
# 4 -0.001968 -0.009942 0.004648 0.052711 0.004064 0.013776
# 5 -0.001180 0.000702 -0.002342 0.004064 0.023816 -0.000142
# 6 -0.002825 -0.000451 0.003112 0.013776 -0.000142 0.041438
#
#
# Mechanical properties :
#
#
# Convention : Reuss Voigt Hill
#
# Bulk Modulus (GPa) = 57.38820 63.61887 60.50354
# Shear Modulus (GPa) = 25.84792 32.03559 28.94175
#
# Velocity S-wave (km/s) = 3.48453 3.87925 3.68718
# Velocity P-wave (km/s) = 6.56865 7.06750 6.82263
#
# Compressibility (1/GPa) = 0.01742518
#
# Stress axis : x y z
#
# Youngs Moduli (GPa) = 112.58311 52.49521 64.04528
#
# Poissons Ratio (x) = 0.11466 0.16911
# Poissons Ratio (y) = 0.24590 0.52745
# Poissons Ratio (z) = 0.29727 0.43233
#
# Static dielectric constant tensor:
#      x y z
#    x 4.058350 -0.011780 -0.041890 
#    y -0.011780 3.697190 -0.018490 
#    z -0.041890 -0.018490 3.874120 
# 
# 
# High freq. dielectric constant tensor:
#      x y z
#    x 1.852720 -0.000110 0.000030 
#    y -0.000110 1.827670 0.001110 
#    z 0.000030 0.001110 1.840720 
# 
# From -- ./inp_files/46257.got.cif
#   From: 2010.06.25/outbox.cif.g09.slc.cpg/sg2_24_cif.got.tgz:46257.got - 2010.06.27 13:26:56.
