data_PCOD8003829
_publ_section_title
;
Structure prediction by ZEFSAII (Michael W. Deem and Ramdas Pophale) SiO2 
 PCOD8003829
Probable space group: P -1
;
_chemical_formula_sum "Si O2"
_cell_formula_units_Z 14
_cell_length_a 13.177202
_cell_length_b 23.876352
_cell_length_c 9.447549
_cell_angle_alpha 145.130856
_cell_angle_beta 34.802366
_cell_angle_gamma 154.477481
_cell_volume 691.751466
_symmetry_space_group_name_H-M "P -1"
_symmetry_group_IT_number 2
_symmetry_cell_setting 'triclinic'
loop_
_space_group_symop_operation_xyz
x,y,z
-x,-y,-z
loop_
_atom_site_type_symbol
_atom_site_label
_atom_site_fract_x
_atom_site_fract_y
_atom_site_fract_z
Si Si1 0.637618 0.879768 0.662337
Si Si2 0.991622 0.956358 0.648220
Si Si3 0.079500 0.591359 0.396807
Si Si4 0.093518 0.677252 0.860563
Si Si5 0.780982 0.684321 0.429885
Si Si6 0.624277 0.744851 0.146417
Si Si7 0.758418 0.589265 0.555401
O O1 0.751830 0.910251 0.749708
O O2 0.370531 0.828599 0.880905
O O3 0.592898 0.757594 0.377108
O O4 0.825223 0.015788 0.629177
O O5 0.896622 0.837705 0.618902
O O6 0.145519 0.099692 0.854960
O O7 0.040320 0.645384 0.689418
O O8 0.369626 0.675942 0.213955
O O9 0.921398 0.431895 0.267276
O O10 0.977886 0.611430 0.420282
O O11 0.888905 0.671187 0.142960
O O12 0.862186 0.663378 0.438365
O O13 0.482286 0.572842 0.527041
O O14 0.681740 0.653173 0.870188
#
# Coordination Sequence:
#
# PCOD8003829 Si02
#       7
#     2   2   2   2   2   2   2
#     4   8  18  36  61  88 116 155 192 244 305 333
#     4   9  19  38  60  88 121 152 197 241 303 342
#     4  10  21  38  63  90 115 154 197 252 294 339
#     4  10  20  37  61  91 120 144 205 250 287 349
#     4  11  24  39  57  91 119 159 199 241 291 358
#     4   9  19  41  60  85 120 153 195 244 286 358
#     4  11  24  41  61  84 123 162 197 236 300 349
#
# _framework density 20.238482999999999
#
# number of rings (size 3 to 8) (size 9 to 14) (size 15 to 20)
#    0.857    1.429    1.429    0.857    2.000    2.286 
#    5.143    0.714    0.000    0.000    0.000    0.000 
#    0.000    0.000    0.000    0.000    0.000    0.000 
#
# Total GULP energy -173508.359644 kJ/mol
# GULP energy per Si atom -12393.454260 kJ/mol
# Density = 2.019242 g / cm^3
# Si number density = 20.238483 Si / 1000 Ang^3
#
#
#
# Elastic Constant Matrix: (Units=GPa)
#
#
# Indices 1 2 3 4 5 6 
#
# 1 108.8550 46.1346 -1.4930 5.9325 -12.7455 9.6619
# 2 46.1346 110.4006 -2.6288 8.7822 -6.3724 1.7779
# 3 -1.4930 -2.6288 26.2702 -0.1981 0.4957 4.5722
# 4 5.9325 8.7822 -0.1981 18.0777 -0.8177 -5.4681
# 5 -12.7455 -6.3724 0.4957 -0.8177 18.9726 -3.5912
# 6 9.6619 1.7779 4.5722 -5.4681 -3.5912 28.9197
#
#
#
# Elastic Compliance Matrix: (Units=1/GPa)
#
#
# Indices 1 2 3 4 5 6 
#
# 1 0.012269 -0.004494 0.000764 -0.002693 0.005892 -0.003721
# 2 -0.004494 0.011307 0.000836 -0.003984 0.000584 -0.000007
# 3 0.000764 0.000836 0.039465 -0.002489 -0.001713 -0.007229
# 4 -0.002693 -0.003984 -0.002489 0.062319 0.002176 0.013592
# 5 0.005892 0.000584 -0.001713 0.002176 0.058116 0.005895
# 6 -0.003721 -0.000007 -0.007229 0.013592 0.005895 0.040267
#
#
# Mechanical properties :
#
#
# Convention : Reuss Voigt Hill
#
# Bulk Modulus (GPa) = 17.46696 36.61682 27.04189
# Shear Modulus (GPa) = 20.11139 26.76151 23.43645
#
# Velocity S-wave (km/s) = 3.15575 3.64030 3.40665
# Velocity P-wave (km/s) = 4.68270 5.98339 5.37255
#
# Compressibility (1/GPa) = 0.05725096
#
# Stress axis : x y z
#
# Youngs Moduli (GPa) = 81.50773 88.44294 25.33900
#
# Poissons Ratio (x) = 0.39750 -0.01935
# Poissons Ratio (y) = 0.36633 -0.02119
# Poissons Ratio (z) = -0.06224 -0.07395
#
# Static dielectric constant tensor:
#      x y z
#    x 3.369770 0.147950 0.075770 
#    y 0.147950 3.832750 0.026910 
#    z 0.075770 0.026910 3.326640 
# 
# 
# High freq. dielectric constant tensor:
#      x y z
#    x 1.771930 0.014680 0.002250 
#    y 0.014680 1.799460 -0.001330 
#    z 0.002250 -0.001330 1.760720 
# 
# From -- ./inp_files/282415.got.cif
#   From: 2010.06.25/outbox.cif.g09.slc.cpg/sg2_142_cif.got.tgz:282415.got - 2010.06.27 13:26:56.
