data_PCOD8003179
_publ_section_title
;
Structure prediction by ZEFSAII (Michael W. Deem and Ramdas Pophale) SiO2 
 PCOD8003179
Probable space group: P -1
;
_chemical_formula_sum "Si O2"
_cell_formula_units_Z 14
_cell_length_a 14.164609
_cell_length_b 7.397162
_cell_length_c 10.038045
_cell_angle_alpha 81.446619
_cell_angle_beta 62.439146
_cell_angle_gamma 124.796120
_cell_volume 630.712943
_symmetry_space_group_name_H-M "P -1"
_symmetry_group_IT_number 2
_symmetry_cell_setting 'triclinic'
loop_
_space_group_symop_operation_xyz
x,y,z
-x,-y,-z
loop_
_atom_site_type_symbol
_atom_site_label
_atom_site_fract_x
_atom_site_fract_y
_atom_site_fract_z
Si Si1 0.379304 0.187859 0.645885
Si Si2 0.404310 0.316100 0.212242
Si Si3 0.396079 0.960701 0.886897
Si Si4 0.132775 0.242264 0.482366
Si Si5 0.863484 0.842194 0.211545
Si Si6 0.283995 0.787383 0.254242
Si Si7 0.584790 0.320674 0.299370
O O1 0.500000 0.500000 0.500000
O O2 0.203083 0.033132 0.748455
O O3 0.433503 0.091081 0.520106
O O4 0.393345 0.153560 0.796016
O O5 0.294721 0.341849 0.332995
O O6 0.533558 0.424608 0.225383
O O7 0.293892 0.999562 0.291967
O O8 0.500000 0.500000 0.000000
O O9 0.354766 0.767594 0.819506
O O10 0.562207 0.135141 0.823063
O O11 0.266875 0.791835 0.105554
O O12 0.081477 0.150579 0.678956
O O13 0.146094 0.480145 0.426941
O O14 0.000000 0.000000 0.500000
O O15 0.726404 0.543906 0.279394
O O16 0.000000 0.000000 0.000000
#
# Coordination Sequence:
#
# PCOD8003179 Si02
#       7
#     2   2   2   2   2   2   2
#     4  10  20  36  63  92 126 166 217 273 331 397
#     4  11  24  41  74 104 134 181 232 284 344 405
#     4  10  20  37  66 102 132 166 223 291 339 397
#     4  12  27  47  70  98 143 185 229 282 346 415
#     4  11  26  43  66  97 136 180 227 280 345 409
#     4  10  23  40  66 104 138 174 231 281 340 409
#     4  10  21  39  67  98 132 167 228 284 343 399
#
# _framework density 22.197102000000001
#
# number of rings (size 3 to 8) (size 9 to 14) (size 15 to 20)
#    0.000    1.429    1.429    4.714   10.000    1.714 
#    0.000    0.714    0.000    0.000    0.000    0.000 
#    0.000    0.000    0.000    0.000    0.000    0.000 
#
# Total GULP energy -173474.587594 kJ/mol
# GULP energy per Si atom -12391.041971 kJ/mol
# Density = 2.214658 g / cm^3
# Si number density = 22.197102 Si / 1000 Ang^3
#
#
#
# Elastic Constant Matrix: (Units=GPa)
#
#
# Indices 1 2 3 4 5 6 
#
# 1 68.2252 26.5614 45.4507 1.4693 21.7744 2.7631
# 2 26.5614 114.2666 30.6562 8.1394 10.2837 -3.1368
# 3 45.4507 30.6562 160.0502 17.5490 23.7305 5.4537
# 4 1.4693 8.1394 17.5490 33.8577 1.6511 5.5696
# 5 21.7744 10.2837 23.7305 1.6511 51.8213 8.4059
# 6 2.7631 -3.1368 5.4537 5.5696 8.4059 41.4093
#
#
#
# Elastic Compliance Matrix: (Units=1/GPa)
#
#
# Indices 1 2 3 4 5 6 
#
# 1 0.020944 -0.003251 -0.004710 0.002634 -0.006058 -0.000148
# 2 -0.003251 0.009931 -0.000735 -0.002080 -0.000434 0.001434
# 3 -0.004710 -0.000735 0.008389 -0.003889 -0.001593 0.000000
# 4 0.002634 -0.002080 -0.003889 0.032618 0.000755 -0.004361
# 5 -0.006058 -0.000434 -0.001593 0.000755 0.023324 -0.004255
# 6 -0.000148 0.001434 0.000000 -0.004361 -0.004255 0.025718
#
#
# Mechanical properties :
#
#
# Convention : Reuss Voigt Hill
#
# Bulk Modulus (GPa) = 45.72449 60.87542 53.29996
# Shear Modulus (GPa) = 34.33888 41.40926 37.87407
#
# Velocity S-wave (km/s) = 3.93746 4.32386 4.13517
# Velocity P-wave (km/s) = 6.42771 7.23962 6.84571
#
# Compressibility (1/GPa) = 0.02187012
#
# Stress axis : x y z
#
# Youngs Moduli (GPa) = 47.74695 100.69390 119.20203
#
# Poissons Ratio (x) = 0.32737 0.56149
# Poissons Ratio (y) = 0.15523 0.08766
# Poissons Ratio (z) = 0.22491 0.07405
#
# Static dielectric constant tensor:
#      x y z
#    x 9.509870 0.891800 -2.832030 
#    y 0.891800 4.318590 -0.195590 
#    z -2.832030 -0.195590 6.100580 
# 
# 
# High freq. dielectric constant tensor:
#      x y z
#    x 1.871560 -0.013980 0.024230 
#    y -0.013980 1.865150 0.027740 
#    z 0.024230 0.027740 1.877470 
# 
# From -- ./inp_files/295202.got.cif
#   From: 2010.06.25/outbox.cif.g09.slc.cpg/sg2_148_cif.got.tgz:295202.got - 2010.06.27 13:26:56.
