data_PCOD8003195
_publ_section_title
;
Structure prediction by ZEFSAII (Michael W. Deem and Ramdas Pophale) SiO2 
 PCOD8003195
Probable space group: P -1
;
_chemical_formula_sum "Si O2"
_cell_formula_units_Z 14
_cell_length_a 10.066241
_cell_length_b 9.203520
_cell_length_c 9.164597
_cell_angle_alpha 103.396979
_cell_angle_beta 122.108589
_cell_angle_gamma 99.814907
_cell_volume 653.688983
_symmetry_space_group_name_H-M "P -1"
_symmetry_group_IT_number 2
_symmetry_cell_setting 'triclinic'
loop_
_space_group_symop_operation_xyz
x,y,z
-x,-y,-z
loop_
_atom_site_type_symbol
_atom_site_label
_atom_site_fract_x
_atom_site_fract_y
_atom_site_fract_z
Si Si1 0.527019 0.658806 0.887822
Si Si2 0.768583 0.904883 0.284984
Si Si3 0.985880 0.748881 0.529391
Si Si4 0.524911 0.869592 0.380301
Si Si5 0.932181 0.492535 0.672572
Si Si6 0.566303 0.362955 0.489301
Si Si7 0.699814 0.416298 0.993433
O O1 0.463148 0.703678 0.708455
O O2 0.629414 0.538146 0.895033
O O3 0.640957 0.826253 0.063235
O O4 0.362733 0.583139 0.875878
O O5 0.837996 0.766127 0.345734
O O6 0.684819 0.951547 0.389831
O O7 0.898451 0.066428 0.330069
O O8 0.925069 0.651897 0.622751
O O9 0.082881 0.650642 0.480604
O O10 0.554837 0.757494 0.494835
O O11 0.371207 0.759978 0.162642
O O12 0.500000 0.000000 0.500000
O O13 0.765681 0.422385 0.659417
O O14 0.098786 0.530957 0.877218
O O15 0.500000 0.500000 0.500000
#
# Coordination Sequence:
#
# PCOD8003195 Si02
#       7
#     2   2   2   2   2   2   2
#     4  10  20  39  65  92 117 162 213 250 300 362
#     4  10  21  40  65  89 124 162 207 252 306 362
#     4  10  20  36  63  95 120 157 203 266 304 345
#     4  11  24  41  60  91 130 165 198 248 314 370
#     4  11  22  37  61  95 125 154 210 256 302 363
#     4  12  24  40  62  91 127 167 200 249 311 371
#     4  10  21  39  65  90 121 161 208 258 296 359
#
# _framework density 21.416910999999999
#
# number of rings (size 3 to 8) (size 9 to 14) (size 15 to 20)
#    0.000    1.429    2.857    3.429    2.000    1.714 
#    0.000    3.571    0.000    6.000    0.000    0.000 
#    0.000    0.000    0.000    0.000    0.000    0.000 
#
# Total GULP energy -173468.840953 kJ/mol
# GULP energy per Si atom -12390.631497 kJ/mol
# Density = 2.136817 g / cm^3
# Si number density = 21.416911 Si / 1000 Ang^3
#
#
#
# Elastic Constant Matrix: (Units=GPa)
#
#
# Indices 1 2 3 4 5 6 
#
# 1 67.9236 4.6681 27.9177 7.1336 6.4101 -10.7187
# 2 4.6681 89.6097 15.1834 3.9139 -3.0415 -4.6624
# 3 27.9177 15.1834 98.7113 1.5629 7.1145 -0.4691
# 4 7.1336 3.9139 1.5629 30.1014 -1.7567 -4.7630
# 5 6.4101 -3.0415 7.1145 -1.7567 31.4199 -2.3748
# 6 -10.7187 -4.6624 -0.4691 -4.7630 -2.3748 30.6131
#
#
#
# Elastic Compliance Matrix: (Units=1/GPa)
#
#
# Indices 1 2 3 4 5 6 
#
# 1 0.018193 0.000248 -0.004936 -0.003332 -0.002330 0.005633
# 2 0.000248 0.011673 -0.001955 -0.001099 0.001596 0.001787
# 3 -0.004936 -0.001955 0.011957 0.000378 -0.002015 -0.001940
# 4 -0.003332 -0.001099 0.000378 0.034981 0.002771 0.004329
# 5 -0.002330 0.001596 -0.002015 0.002771 0.033250 0.002407
# 6 0.005633 0.001787 -0.001940 0.004329 0.002407 0.035741
#
#
# Mechanical properties :
#
#
# Convention : Reuss Voigt Hill
#
# Bulk Modulus (GPa) = 35.04121 39.08701 37.06411
# Shear Modulus (GPa) = 29.65730 32.32524 30.99127
#
# Velocity S-wave (km/s) = 3.72527 3.88923 3.80813
# Velocity P-wave (km/s) = 5.90767 6.20147 6.05635
#
# Compressibility (1/GPa) = 0.02853782
#
# Stress axis : x y z
#
# Youngs Moduli (GPa) = 54.96639 85.66808 83.63108
#
# Poissons Ratio (x) = -0.02126 0.41281
# Poissons Ratio (y) = -0.01364 0.16348
# Poissons Ratio (z) = 0.27132 0.16746
#
# Static dielectric constant tensor:
#      x y z
#    x 3.737670 -0.012930 -0.277020 
#    y -0.012930 3.684620 0.169600 
#    z -0.277020 0.169600 2.840380 
# 
# 
# High freq. dielectric constant tensor:
#      x y z
#    x 1.832690 0.000190 0.001630 
#    y 0.000190 1.842460 0.005440 
#    z 0.001630 0.005440 1.837370 
# 
# From -- ./inp_files/157116.got.cif
#   From: 2010.06.25/outbox.cif.g09.slc.cpg/sg2_79_cif.got.tgz:157116.got - 2010.06.27 13:26:56.
