data_PCOD8003803
_publ_section_title
;
Structure prediction by ZEFSAII (Michael W. Deem and Ramdas Pophale) SiO2 
 PCOD8003803
Probable space group: P -1
;
_chemical_formula_sum "Si O2"
_cell_formula_units_Z 16
_cell_length_a 15.977032
_cell_length_b 9.175869
_cell_length_c 10.792340
_cell_angle_alpha 60.118957
_cell_angle_beta 57.737700
_cell_angle_gamma 106.296775
_cell_volume 773.274245
_symmetry_space_group_name_H-M "P -1"
_symmetry_group_IT_number 2
_symmetry_cell_setting 'triclinic'
loop_
_space_group_symop_operation_xyz
x,y,z
-x,-y,-z
loop_
_atom_site_type_symbol
_atom_site_label
_atom_site_fract_x
_atom_site_fract_y
_atom_site_fract_z
Si Si1 0.138059 0.680458 0.570135
Si Si2 0.923144 0.961595 0.202368
Si Si3 0.848185 0.539040 0.570881
Si Si4 0.173927 0.814790 0.877706
Si Si5 0.195163 0.372287 0.988039
Si Si6 0.911199 0.041900 0.615231
Si Si7 0.651301 0.174114 0.466196
Si Si8 0.310942 0.740866 0.952664
O O1 0.122284 0.580682 0.489579
O O2 0.288187 0.787756 0.460941
O O3 0.155532 0.906527 0.450403
O O4 0.999630 0.455186 0.861663
O O5 0.810695 0.967327 0.250469
O O6 0.827787 0.686798 0.449213
O O7 0.036848 0.175194 0.125810
O O8 0.000000 0.000000 0.000000
O O9 0.704678 0.326528 0.862199
O O10 0.987554 0.721481 0.474307
O O11 0.252996 0.824184 0.697526
O O12 0.262019 0.873083 0.909812
O O13 0.320102 0.595441 0.697657
O O14 0.196313 0.493763 0.058196
O O15 0.218632 0.212191 0.090761
O O16 0.000000 0.000000 0.500000
O O17 0.477907 0.915175 0.704006
#
# Coordination Sequence:
#
# PCOD8003803 Si02
#       8
#     2   2   2   2   2   2   2   2
#     4  12  23  39  66  98 121 165 214 266 317 369
#     4  11  22  37  63 101 125 156 207 281 313 360
#     4  11  23  39  64  95 135 156 207 261 329 364
#     4  11  21  38  65  92 121 162 217 259 308 364
#     4  10  20  37  61  88 126 159 209 259 311 355
#     4  11  21  36  63  97 122 156 206 271 311 360
#     4  11  24  41  62  91 130 169 214 251 314 380
#     4  11  24  41  62  90 133 173 203 253 315 393
#
# _framework density 20.691234999999999
#
# number of rings (size 3 to 8) (size 9 to 14) (size 15 to 20)
#    0.000    1.000    5.000    3.000    5.250    0.500 
#    0.000    3.750    0.000    7.500    0.000    0.000 
#    0.000    0.000    0.000    0.000    0.000    0.000 
#
# Total GULP energy -198261.493455 kJ/mol
# GULP energy per Si atom -12391.343341 kJ/mol
# Density = 2.064414 g / cm^3
# Si number density = 20.691235 Si / 1000 Ang^3
#
#
#
# Elastic Constant Matrix: (Units=GPa)
#
#
# Indices 1 2 3 4 5 6 
#
# 1 118.0206 35.8964 56.1814 -6.9078 23.7671 -13.8527
# 2 35.8964 85.6624 42.5469 4.9258 2.6325 -2.6876
# 3 56.1814 42.5469 112.5823 5.1830 20.0247 -10.7359
# 4 -6.9078 4.9258 5.1830 20.7448 -2.5145 11.1835
# 5 23.7671 2.6325 20.0247 -2.5145 40.3833 -6.8405
# 6 -13.8527 -2.6876 -10.7359 11.1835 -6.8405 27.4278
#
#
#
# Elastic Compliance Matrix: (Units=1/GPa)
#
#
# Indices 1 2 3 4 5 6 
#
# 1 0.013016 -0.003313 -0.004520 0.004995 -0.004676 0.001277
# 2 -0.003313 0.015423 -0.004540 -0.003366 0.003017 0.000186
# 3 -0.004520 -0.004540 0.014306 -0.007049 -0.003762 0.004808
# 4 0.004995 -0.003366 -0.007049 0.067588 0.000229 -0.028068
# 5 -0.004676 0.003017 -0.003762 0.000229 0.029843 0.003811
# 6 0.001277 0.000186 0.004808 -0.028068 0.003811 0.051400
#
#
# Mechanical properties :
#
#
# Convention : Reuss Voigt Hill
#
# Bulk Modulus (GPa) = 55.55333 65.05719 60.30526
# Shear Modulus (GPa) = 22.49000 29.82053 26.15527
#
# Velocity S-wave (km/s) = 3.30044 3.80045 3.55924
# Velocity P-wave (km/s) = 6.43669 7.12517 6.78966
#
# Compressibility (1/GPa) = 0.01800072
#
# Stress axis : x y z
#
# Youngs Moduli (GPa) = 76.82699 64.83677 69.90219
#
# Poissons Ratio (x) = 0.21480 0.31595
# Poissons Ratio (y) = 0.25452 0.31732
# Poissons Ratio (z) = 0.34725 0.29433
#
# Static dielectric constant tensor:
#      x y z
#    x 4.101580 -0.063170 0.716480 
#    y -0.063170 3.681140 -0.160740 
#    z 0.716480 -0.160740 3.937950 
# 
# 
# High freq. dielectric constant tensor:
#      x y z
#    x 1.809230 0.000520 0.045900 
#    y 0.000520 1.795780 0.001450 
#    z 0.045900 0.001450 1.795580 
# 
# From -- ./inp_files/461081.got.cif
#   From: 2010.06.25/outbox.cif.g09.slc.cpg/sg2_231_cif.got.tgz:461081.got - 2010.06.27 13:26:56.
