data_PCOD8003907
_publ_section_title
;
Structure prediction by ZEFSAII (Michael W. Deem and Ramdas Pophale) SiO2 
 PCOD8003907
Probable space group: P -1
;
_chemical_formula_sum "Si O2"
_cell_formula_units_Z 16
_cell_length_a 10.022721
_cell_length_b 14.173154
_cell_length_c 11.557612
_cell_angle_alpha 148.476036
_cell_angle_beta 67.128400
_cell_angle_gamma 103.766214
_cell_volume 775.942365
_symmetry_space_group_name_H-M "P -1"
_symmetry_group_IT_number 2
_symmetry_cell_setting 'triclinic'
loop_
_space_group_symop_operation_xyz
x,y,z
-x,-y,-z
loop_
_atom_site_type_symbol
_atom_site_label
_atom_site_fract_x
_atom_site_fract_y
_atom_site_fract_z
Si Si1 0.889503 0.675386 0.073852
Si Si2 0.806268 0.500197 0.686397
Si Si3 0.950680 0.764623 0.779912
Si Si4 0.882582 0.045965 0.912044
Si Si5 0.448171 0.805606 0.829955
Si Si6 0.080699 0.941074 0.528917
Si Si7 0.506405 0.514665 0.696409
Si Si8 0.806492 0.413070 0.003714
O O1 0.821193 0.605910 0.140844
O O2 0.829399 0.894738 0.303079
O O3 0.840545 0.568625 0.871319
O O4 0.068299 0.638842 0.992723
O O5 0.848003 0.620183 0.690127
O O6 0.634368 0.492484 0.726793
O O7 0.909419 0.302578 0.422455
O O8 0.852380 0.928660 0.912147
O O9 0.008397 0.820603 0.943547
O O10 0.725194 0.159750 0.045128
O O11 0.961309 0.925393 0.652791
O O12 0.528380 0.680352 0.776568
O O13 0.482727 0.682669 0.574872
O O14 0.500000 0.000000 0.000000
O O15 0.181798 0.741263 0.263891
O O16 0.000000 0.000000 0.500000
O O17 0.351158 0.566975 0.865640
#
# Coordination Sequence:
#
# PCOD8003907 Si02
#       8
#     2   2   2   2   2   2   2   2
#     4  10  21  39  63  86 119 164 220 256 302 363
#     4  11  21  40  61  96 127 163 204 263 318 377
#     4  10  22  34  66  91 124 160 205 261 318 367
#     4  11  20  40  61  95 119 160 215 261 304 371
#     4  11  24  41  63  90 128 169 202 257 315 381
#     4  10  20  37  62  88 118 158 213 261 296 355
#     4  11  25  41  62  93 133 162 207 251 325 379
#     4  10  23  40  61  89 121 170 210 258 304 369
#
# _framework density 20.620087999999999
#
# number of rings (size 3 to 8) (size 9 to 14) (size 15 to 20)
#    0.000    1.500    2.500    3.000    0.000    6.500 
#    0.000    0.625    0.000    0.000    0.000    0.000 
#    0.000    0.000    0.000    0.000    0.000    0.000 
#
# Total GULP energy -198341.876043 kJ/mol
# GULP energy per Si atom -12396.367253 kJ/mol
# Density = 2.057316 g / cm^3
# Si number density = 20.620088 Si / 1000 Ang^3
#
#
#
# Elastic Constant Matrix: (Units=GPa)
#
#
# Indices 1 2 3 4 5 6 
#
# 1 97.4664 28.1190 44.8270 -16.5237 -0.8019 -2.5119
# 2 28.1190 57.9944 29.5152 1.2983 3.1053 10.1324
# 3 44.8270 29.5152 126.7369 -13.2959 4.9860 7.0072
# 4 -16.5237 1.2983 -13.2959 41.1459 -0.2660 1.3149
# 5 -0.8019 3.1053 4.9860 -0.2660 24.8402 -7.8403
# 6 -2.5119 10.1324 7.0072 1.3149 -7.8403 27.9959
#
#
#
# Elastic Compliance Matrix: (Units=1/GPa)
#
#
# Indices 1 2 3 4 5 6 
#
# 1 0.014839 -0.006604 -0.003657 0.004836 0.003820 0.005480
# 2 -0.006604 0.024085 -0.002916 -0.004072 -0.005847 -0.010026
# 3 -0.003657 -0.002916 0.010329 0.002030 -0.002657 -0.002697
# 4 0.004836 -0.004072 0.002030 0.027025 0.000645 0.000311
# 5 0.003820 -0.005847 -0.002657 0.000645 0.046761 0.016189
# 6 0.005480 -0.010026 -0.002697 0.000311 0.016189 0.045034
#
#
# Mechanical properties :
#
#
# Convention : Reuss Voigt Hill
#
# Bulk Modulus (GPa) = 43.66747 54.12448 48.89597
# Shear Modulus (GPa) = 24.74502 30.77886 27.76194
#
# Velocity S-wave (km/s) = 3.46792 3.86769 3.67325
# Velocity P-wave (km/s) = 6.10397 6.80079 6.46178
#
# Compressibility (1/GPa) = 0.02290034
#
# Stress axis : x y z
#
# Youngs Moduli (GPa) = 67.38781 41.51965 96.81029
#
# Poissons Ratio (x) = 0.27420 0.35400
# Poissons Ratio (y) = 0.44504 0.28230
# Poissons Ratio (z) = 0.24641 0.12107
#
# Static dielectric constant tensor:
#      x y z
#    x 3.554130 0.012070 0.220280 
#    y 0.012070 3.804140 0.370970 
#    z 0.220280 0.370970 4.321190 
# 
# 
# High freq. dielectric constant tensor:
#      x y z
#    x 1.785020 -0.005470 0.012120 
#    y -0.005470 1.812600 0.007450 
#    z 0.012120 0.007450 1.812150 
# 
# From -- ./inp_files/399724.got.cif
#   From: 2010.06.25/outbox.cif.g09.slc.cpg/sg2_200_cif.got.tgz:399724.got - 2010.06.27 13:26:56.
