data_PCOD8003772
_publ_section_title
;
Structure prediction by ZEFSAII (Michael W. Deem and Ramdas Pophale) SiO2 
 PCOD8003772
Probable space group: P -1
;
_chemical_formula_sum "Si O2"
_cell_formula_units_Z 14
_cell_length_a 6.870840
_cell_length_b 8.366822
_cell_length_c 10.656816
_cell_angle_alpha 89.179689
_cell_angle_beta 74.909761
_cell_angle_gamma 70.971450
_cell_volume 557.508548
_symmetry_space_group_name_H-M "P -1"
_symmetry_group_IT_number 2
_symmetry_cell_setting 'triclinic'
loop_
_space_group_symop_operation_xyz
x,y,z
-x,-y,-z
loop_
_atom_site_type_symbol
_atom_site_label
_atom_site_fract_x
_atom_site_fract_y
_atom_site_fract_z
Si Si1 0.689152 0.180774 0.054042
Si Si2 0.165652 0.327479 0.804821
Si Si3 0.480375 0.548700 0.357474
Si Si4 0.280988 0.414042 0.174281
Si Si5 0.867572 0.824476 0.933436
Si Si6 0.402939 0.970460 0.683536
Si Si7 0.246622 0.907101 0.466765
O O1 0.492931 0.350550 0.045295
O O2 0.883166 0.226491 0.078853
O O3 0.577404 0.107568 0.182480
O O4 0.762827 0.030594 0.938925
O O5 0.291747 0.455281 0.740376
O O6 0.236214 0.163876 0.704782
O O7 0.905306 0.414066 0.838679
O O8 0.226400 0.261538 0.937428
O O9 0.500000 0.500000 0.500000
O O10 0.372884 0.432507 0.297161
O O11 0.315069 0.739431 0.372155
O O12 0.173240 0.263945 0.186474
O O13 0.637849 0.963641 0.602927
O O14 0.314303 0.861718 0.601707
O O15 0.000000 0.000000 0.500000
#
# Coordination Sequence:
#
# PCOD8003772 Si02
#       7
#     2   2   2   2   2   2   2
#     4  10  22  40  62  89 120 155 201 251 300 360
#     4  10  23  41  61  90 123 156 198 252 305 359
#     4  11  25  41  59  90 127 159 200 252 302 356
#     4  12  23  39  64  90 121 163 202 244 304 362
#     4  10  23  42  62  89 124 158 199 251 303 359
#     4   9  20  39  59  84 120 155 196 250 298 347
#     4  10  20  37  61  86 115 158 204 243 292 355
#
# _framework density 25.111722
#
# number of rings (size 3 to 8) (size 9 to 14) (size 15 to 20)
#    0.000    1.714    0.000    3.429    0.000    5.143 
#    0.000    8.571    0.000    0.000    0.000    0.000 
#    0.000    0.000    0.000    0.000    0.000    0.000 
#
# Total GULP energy -173446.121847 kJ/mol
# GULP energy per Si atom -12389.008703 kJ/mol
# Density = 2.505457 g / cm^3
# Si number density = 25.111722 Si / 1000 Ang^3
#
#
#
# Elastic Constant Matrix: (Units=GPa)
#
#
# Indices 1 2 3 4 5 6 
#
# 1 173.4625 54.3868 34.6949 30.9992 -6.9332 -3.4796
# 2 54.3868 73.6655 27.9681 26.5614 2.1778 -1.6695
# 3 34.6949 27.9681 44.3893 14.0859 7.5048 4.5309
# 4 30.9992 26.5614 14.0859 50.0649 5.4124 -0.9986
# 5 -6.9332 2.1778 7.5048 5.4124 46.4984 21.2287
# 6 -3.4796 -1.6695 4.5309 -0.9986 21.2287 45.3939
#
#
#
# Elastic Compliance Matrix: (Units=1/GPa)
#
#
# Indices 1 2 3 4 5 6 
#
# 1 0.008217 -0.003981 -0.003577 -0.002236 0.002401 -0.000331
# 2 -0.003981 0.022431 -0.008968 -0.006891 0.000036 0.001246
# 3 -0.003577 -0.008968 0.032439 -0.001727 -0.004293 -0.001872
# 4 -0.002236 -0.006891 -0.001727 0.025939 -0.003683 0.002040
# 5 0.002401 0.000036 -0.004293 -0.003683 0.028914 -0.012989
# 6 -0.000331 0.001246 -0.001872 0.002040 -0.012989 0.028356
#
#
# Mechanical properties :
#
#
# Convention : Reuss Voigt Hill
#
# Bulk Modulus (GPa) = 33.29385 58.40188 45.84786
# Shear Modulus (GPa) = 26.40471 40.02261 33.21366
#
# Velocity S-wave (km/s) = 3.24619 3.99655 3.64075
# Velocity P-wave (km/s) = 5.22851 6.67861 5.99755
#
# Compressibility (1/GPa) = 0.03003558
#
# Stress axis : x y z
#
# Youngs Moduli (GPa) = 121.69192 44.58146 30.82710
#
# Poissons Ratio (x) = 0.17749 0.11027
# Poissons Ratio (y) = 0.48448 0.27645
# Poissons Ratio (z) = 0.43529 0.39979
#
# Static dielectric constant tensor:
#      x y z
#    x 4.525520 -0.033210 -0.125470 
#    y -0.033210 4.793440 0.500450 
#    z -0.125470 0.500450 4.547890 
# 
# 
# High freq. dielectric constant tensor:
#      x y z
#    x 2.010700 -0.002500 -0.004730 
#    y -0.002500 2.003350 0.031510 
#    z -0.004730 0.031510 1.981920 
# 
# From -- ./inp_files/107027.got.cif
#   From: 2010.06.25/outbox.cif.g09.slc.cpg/sg2_54_cif.got.tgz:107027.got - 2010.06.27 13:26:56.
