data_PCOD8003759
_publ_section_title
;
Structure prediction by ZEFSAII (Michael W. Deem and Ramdas Pophale) SiO2 
 PCOD8003759
Probable space group: P -1
;
_chemical_formula_sum "Si O2"
_cell_formula_units_Z 16
_cell_length_a 22.504599
_cell_length_b 5.899421
_cell_length_c 10.556274
_cell_angle_alpha 71.141879
_cell_angle_beta 140.710217
_cell_angle_gamma 84.661864
_cell_volume 688.474229
_symmetry_space_group_name_H-M "P -1"
_symmetry_group_IT_number 2
_symmetry_cell_setting 'triclinic'
loop_
_space_group_symop_operation_xyz
x,y,z
-x,-y,-z
loop_
_atom_site_type_symbol
_atom_site_label
_atom_site_fract_x
_atom_site_fract_y
_atom_site_fract_z
Si Si1 0.907313 0.422326 0.859704
Si Si2 0.630583 0.847748 0.859699
Si Si3 0.646512 0.939586 0.369557
Si Si4 0.005388 0.618007 0.620886
Si Si5 0.574404 0.179519 0.472461
Si Si6 0.545218 0.175700 0.899185
Si Si7 0.844749 0.254646 0.282744
Si Si8 0.976673 0.186716 0.754425
O O1 0.780222 0.692617 0.625672
O O2 0.907341 0.276726 0.754118
O O3 0.000000 0.500000 0.000000
O O4 0.940896 0.165639 0.063360
O O5 0.499967 0.952960 0.625983
O O6 0.652874 0.023123 0.756922
O O7 0.643051 0.926423 0.010795
O O8 0.709565 0.500932 0.020771
O O9 0.567739 0.819912 0.265960
O O10 0.638264 0.105798 0.455349
O O11 0.605728 0.146330 0.139704
O O12 0.100892 0.687791 0.760602
O O13 0.000000 0.500000 0.500000
O O14 0.039079 0.359501 0.823436
O O15 0.881437 0.921647 0.395285
O O16 0.497546 0.525470 0.296843
O O17 0.887818 0.315625 0.470845
#
# Coordination Sequence:
#
# PCOD8003759 Si02
#       8
#     2   2   2   2   2   2   2   2
#     4  11  24  39  59  88 124 161 202 256 310 366
#     4  10  22  37  59  91 120 156 201 247 307 366
#     4  10  23  40  62  90 118 159 207 249 304 367
#     4   9  20  36  55  85 116 152 198 246 299 358
#     4  10  22  38  59  90 123 153 197 256 309 358
#     4  10  21  42  64  87 121 159 205 253 302 364
#     4  10  20  37  61  84 119 162 204 252 302 368
#     4  10  22  39  57  85 119 159 209 249 300 370
#
# _framework density 23.239795000000001
#
# number of rings (size 3 to 8) (size 9 to 14) (size 15 to 20)
#    0.000    2.000    0.000    2.250    0.000   11.000 
#    0.000    0.000    0.000    0.000    0.000    0.000 
#    0.000    0.000    0.000    0.000    0.000    0.000 
#
# Total GULP energy -198215.565943 kJ/mol
# GULP energy per Si atom -12388.472871 kJ/mol
# Density = 2.318690 g / cm^3
# Si number density = 23.239795 Si / 1000 Ang^3
#
#
#
# Elastic Constant Matrix: (Units=GPa)
#
#
# Indices 1 2 3 4 5 6 
#
# 1 103.7584 38.6268 55.7279 -12.0231 -12.9705 -13.8703
# 2 38.6268 76.8955 31.8949 -29.5640 0.6985 -4.3949
# 3 55.7279 31.8949 115.2784 -26.2341 6.7327 -1.9026
# 4 -12.0231 -29.5640 -26.2341 39.0297 -3.6044 -8.1596
# 5 -12.9705 0.6985 6.7327 -3.6044 39.1077 -11.0960
# 6 -13.8703 -4.3949 -1.9026 -8.1596 -11.0960 47.1738
#
#
#
# Elastic Compliance Matrix: (Units=1/GPa)
#
#
# Indices 1 2 3 4 5 6 
#
# 1 0.017864 -0.006454 -0.007861 -0.002606 0.008845 0.005964
# 2 -0.006454 0.022242 0.000643 0.015853 -0.000378 0.002854
# 3 -0.007861 0.000643 0.014088 0.006733 -0.004897 -0.001671
# 4 -0.002606 0.015853 0.006733 0.043771 0.004451 0.009600
# 5 0.008845 -0.000378 -0.004897 0.004451 0.032847 0.010864
# 6 0.005964 0.002854 -0.001671 0.009600 0.010864 0.027366
#
#
# Mechanical properties :
#
#
# Convention : Reuss Voigt Hill
#
# Bulk Modulus (GPa) = 37.24585 60.93684 49.09134
# Shear Modulus (GPa) = 25.71084 36.37442 31.04263
#
# Velocity S-wave (km/s) = 3.32976 3.96053 3.65876
# Velocity P-wave (km/s) = 5.55379 6.86966 6.24647
#
# Compressibility (1/GPa) = 0.02684863
#
# Stress axis : x y z
#
# Youngs Moduli (GPa) = 55.97963 44.96064 70.98405
#
# Poissons Ratio (x) = 0.29019 0.55802
# Poissons Ratio (y) = 0.36131 -0.04567
# Poissons Ratio (z) = 0.44007 -0.02892
#
# Static dielectric constant tensor:
#      x y z
#    x 4.976270 -0.012730 -0.414690 
#    y -0.012730 4.182140 -0.156460 
#    z -0.414690 -0.156460 3.954490 
# 
# 
# High freq. dielectric constant tensor:
#      x y z
#    x 1.931160 -0.018880 -0.018770 
#    y -0.018880 1.913010 -0.017740 
#    z -0.018770 -0.017740 1.898100 
# 
# From -- ./inp_files/364505.got.cif
#   From: 2010.06.25/outbox.cif.g09.slc.cpg/sg2_183_cif.got.tgz:364505.got - 2010.06.27 13:26:56.
