data_PCOD8003310
_publ_section_title
;
Structure prediction by ZEFSAII (Michael W. Deem and Ramdas Pophale) SiO2 
 PCOD8003310
Probable space group: P -1
;
_chemical_formula_sum "Si O2"
_cell_formula_units_Z 14
_cell_length_a 22.232979
_cell_length_b 7.014671
_cell_length_c 13.793839
_cell_angle_alpha 124.025800
_cell_angle_beta 19.550954
_cell_angle_gamma 121.613465
_cell_volume 596.608309
_symmetry_space_group_name_H-M "P -1"
_symmetry_group_IT_number 2
_symmetry_cell_setting 'triclinic'
loop_
_space_group_symop_operation_xyz
x,y,z
-x,-y,-z
loop_
_atom_site_type_symbol
_atom_site_label
_atom_site_fract_x
_atom_site_fract_y
_atom_site_fract_z
Si Si1 0.172758 0.069502 0.041932
Si Si2 0.245771 0.893329 0.281997
Si Si3 0.180381 0.863733 0.162001
Si Si4 0.495943 0.739006 0.019063
Si Si5 0.696922 0.599417 0.215568
Si Si6 0.248734 0.013584 0.598778
Si Si7 0.060026 0.756618 0.967532
O O1 0.268867 0.017195 0.984759
O O2 0.171410 0.834882 0.914538
O O3 0.964522 0.148845 0.394085
O O4 0.291154 0.258334 0.862155
O O5 0.294803 0.836136 0.078375
O O6 0.362559 0.721714 0.124335
O O7 0.308731 0.161060 0.281124
O O8 0.157867 0.609852 0.075970
O O9 0.000000 0.000000 0.500000
O O10 0.431370 0.938010 0.248585
O O11 0.500000 0.500000 0.000000
O O12 0.500000 0.500000 0.500000
O O13 0.741114 0.760726 0.285175
O O14 0.110497 0.070627 0.737770
O O15 0.182619 0.789838 0.695243
O O16 0.000000 0.500000 0.000000
#
# Coordination Sequence:
#
# PCOD8003310 Si02
#       7
#     2   2   2   2   2   2   2
#     4  10  22  41  66 100 132 176 228 274 340 407
#     4  10  23  42  62  98 136 172 231 276 331 412
#     4  10  23  43  68  97 133 180 230 274 337 409
#     4  11  24  40  66  96 138 182 219 281 341 400
#     4  11  24  43  67  97 139 181 222 289 340 402
#     4  10  22  40  61  99 130 168 225 274 333 404
#     4  10  20  36  66  93 128 168 216 277 337 392
#
# _framework density 23.465982
#
# number of rings (size 3 to 8) (size 9 to 14) (size 15 to 20)
#    0.000    1.714    1.429    1.714    2.000    6.286 
#    0.000    4.286    0.000    0.000    0.000    0.000 
#    0.000    0.000    0.000    0.000    0.000    0.000 
#
# Total GULP energy -173446.806985 kJ/mol
# GULP energy per Si atom -12389.057642 kJ/mol
# Density = 2.341257 g / cm^3
# Si number density = 23.465982 Si / 1000 Ang^3
#
#
#
# Elastic Constant Matrix: (Units=GPa)
#
#
# Indices 1 2 3 4 5 6 
#
# 1 144.8764 72.6774 34.8325 2.8016 13.3921 -30.4325
# 2 72.6774 134.8143 39.4846 -15.5962 10.1495 -17.5854
# 3 34.8325 39.4846 74.8319 -11.1019 11.9475 2.5729
# 4 2.8016 -15.5962 -11.1019 45.0493 4.7087 8.4690
# 5 13.3921 10.1495 11.9475 4.7087 24.3728 -2.9309
# 6 -30.4325 -17.5854 2.5729 8.4690 -2.9309 38.5829
#
#
#
# Elastic Compliance Matrix: (Units=1/GPa)
#
#
# Indices 1 2 3 4 5 6 
#
# 1 0.012339 -0.004812 -0.004147 -0.005050 -0.000701 0.008871
# 2 -0.004812 0.011539 -0.003172 0.003481 -0.001180 0.000822
# 3 -0.004147 -0.003172 0.019479 0.006318 -0.008134 -0.008021
# 4 -0.005050 0.003481 0.006318 0.027946 -0.008324 -0.009584
# 5 -0.000701 -0.001180 -0.008134 -0.008324 0.048095 0.004932
# 6 0.008871 0.000822 -0.008021 -0.009584 0.004932 0.036303
#
#
# Mechanical properties :
#
#
# Convention : Reuss Voigt Hill
#
# Bulk Modulus (GPa) = 52.36730 72.05684 62.21207
# Shear Modulus (GPa) = 26.83425 35.43622 31.13523
#
# Velocity S-wave (km/s) = 3.38529 3.89023 3.64651
# Velocity P-wave (km/s) = 6.13555 7.13807 6.65572
#
# Compressibility (1/GPa) = 0.01909589
#
# Stress axis : x y z
#
# Youngs Moduli (GPa) = 81.04267 86.65924 51.33655
#
# Poissons Ratio (x) = 0.41697 0.21289
# Poissons Ratio (y) = 0.38994 0.16286
# Poissons Ratio (z) = 0.33609 0.27492
#
# Static dielectric constant tensor:
#      x y z
#    x 4.757660 -0.168720 0.342000 
#    y -0.168720 4.161860 -0.143420 
#    z 0.342000 -0.143420 4.134720 
# 
# 
# High freq. dielectric constant tensor:
#      x y z
#    x 1.945560 -0.016140 0.021580 
#    y -0.016140 1.918800 -0.012640 
#    z 0.021580 -0.012640 1.916960 
# 
# From -- ./inp_files/542234.got.cif
#   From: 2010.06.25/outbox.cif.g09.slc.cpg/sg2_272_cif.got.tgz:542234.got - 2010.06.27 13:26:56.
