data_PCOD8003923
_publ_section_title
;
Structure prediction by ZEFSAII (Michael W. Deem and Ramdas Pophale) SiO2 
 PCOD8003923
Probable space group: P -1
;
_chemical_formula_sum "Si O2"
_cell_formula_units_Z 14
_cell_length_a 14.158491
_cell_length_b 8.797477
_cell_length_c 8.376458
_cell_angle_alpha 61.525740
_cell_angle_beta 126.360888
_cell_angle_gamma 83.797273
_cell_volume 615.891422
_symmetry_space_group_name_H-M "P -1"
_symmetry_group_IT_number 2
_symmetry_cell_setting 'triclinic'
loop_
_space_group_symop_operation_xyz
x,y,z
-x,-y,-z
loop_
_atom_site_type_symbol
_atom_site_label
_atom_site_fract_x
_atom_site_fract_y
_atom_site_fract_z
Si Si1 0.201874 0.303595 0.158369
Si Si2 0.254442 0.597633 0.874656
Si Si3 0.736171 0.055837 0.795331
Si Si4 0.966772 0.728823 0.398638
Si Si5 0.127048 0.407353 0.375544
Si Si6 0.573549 0.304507 0.784904
Si Si7 0.321911 0.530220 0.631055
O O1 0.224902 0.311364 0.365824
O O2 0.289363 0.065468 0.306425
O O3 0.270969 0.405055 0.081781
O O4 0.035387 0.416528 0.910405
O O5 0.355515 0.522426 0.857470
O O6 0.095656 0.743330 0.578148
O O7 0.295553 0.716851 0.977142
O O8 0.632923 0.112286 0.817277
O O9 0.718530 0.256567 0.598987
O O10 0.893150 0.895824 0.100844
O O11 0.864962 0.780769 0.425085
O O12 0.000000 0.500000 0.500000
O O13 0.186823 0.515888 0.487838
O O14 0.500000 0.500000 0.500000
O O15 0.457857 0.331843 0.782264
#
# Coordination Sequence:
#
# PCOD8003923 Si02
#       7
#     2   2   2   2   2   2   2
#     4  10  20  37  62  90 118 165 202 254 305 365
#     4  11  21  41  67  87 127 165 203 253 319 359
#     4  11  22  39  62  93 129 158 211 252 304 369
#     4  11  20  41  65  94 123 156 200 264 311 362
#     4  10  20  38  63  88 125 159 200 251 317 357
#     4  10  24  42  59  89 128 168 206 254 300 364
#     4  11  22  40  62  90 128 166 203 253 304 366
#
# _framework density 22.731276999999999
#
# number of rings (size 3 to 8) (size 9 to 14) (size 15 to 20)
#    0.000    1.429    4.286    2.143    0.000    4.000 
#    0.000    9.286    0.000    0.000    0.000    0.000 
#    0.000    0.000    0.000    0.000    0.000    0.000 
#
# Total GULP energy -173475.089587 kJ/mol
# GULP energy per Si atom -12391.077828 kJ/mol
# Density = 2.267954 g / cm^3
# Si number density = 22.731277 Si / 1000 Ang^3
#
#
#
# Elastic Constant Matrix: (Units=GPa)
#
#
# Indices 1 2 3 4 5 6 
#
# 1 120.7202 34.3745 14.9311 -2.0878 -16.6160 -20.9159
# 2 34.3745 108.4106 19.2090 4.9240 -5.4933 -25.9319
# 3 14.9311 19.2090 51.5465 8.9010 -8.2675 -4.6364
# 4 -2.0878 4.9240 8.9010 25.8119 -8.0308 -3.0961
# 5 -16.6160 -5.4933 -8.2675 -8.0308 27.0582 14.6792
# 6 -20.9159 -25.9319 -4.6364 -3.0961 14.6792 38.4547
#
#
#
# Elastic Compliance Matrix: (Units=1/GPa)
#
#
# Indices 1 2 3 4 5 6 
#
# 1 0.010333 -0.002376 -0.001720 0.003791 0.005335 0.002079
# 2 -0.002376 0.012499 -0.003715 -0.001906 -0.005256 0.008542
# 3 -0.001720 -0.003715 0.022869 -0.006119 0.005044 -0.003101
# 4 0.003791 -0.001906 -0.006119 0.045873 0.014707 -0.001882
# 5 0.005335 -0.005256 0.005044 0.014707 0.056058 -0.020250
# 6 0.002079 0.008542 -0.003101 -0.001882 -0.020250 0.040100
#
#
# Mechanical properties :
#
#
# Convention : Reuss Voigt Hill
#
# Bulk Modulus (GPa) = 33.24520 46.41182 39.82851
# Shear Modulus (GPa) = 23.43230 32.40914 27.92072
#
# Velocity S-wave (km/s) = 3.21415 3.78001 3.50851
# Velocity P-wave (km/s) = 5.33211 6.28595 5.82858
#
# Compressibility (1/GPa) = 0.03007953
#
# Stress axis : x y z
#
# Youngs Moduli (GPa) = 96.77716 80.00449 43.72689
#
# Poissons Ratio (x) = 0.19010 0.07519
# Poissons Ratio (y) = 0.22996 0.16246
# Poissons Ratio (z) = 0.16642 0.29724
#
# Static dielectric constant tensor:
#      x y z
#    x 4.672160 -0.661150 -0.192100 
#    y -0.661150 4.276390 0.258710 
#    z -0.192100 0.258710 4.113830 
# 
# 
# High freq. dielectric constant tensor:
#      x y z
#    x 1.909370 -0.026160 -0.010530 
#    y -0.026160 1.885400 0.024510 
#    z -0.010530 0.024510 1.881270 
# 
# From -- ./inp_files/175554.got.cif
#   From: 2010.06.25/outbox.cif.g09.slc.cpg/sg2_88_cif.got.tgz:175554.got - 2010.06.27 13:26:56.
