data_PCOD8003417
_publ_section_title
;
Structure prediction by ZEFSAII (Michael W. Deem and Ramdas Pophale) SiO2 
 PCOD8003417
Probable space group: P -1
;
_chemical_formula_sum "Si O2"
_cell_formula_units_Z 10
_cell_length_a 11.742217
_cell_length_b 13.772462
_cell_length_c 9.515327
_cell_angle_alpha 80.440492
_cell_angle_beta 77.077626
_cell_angle_gamma 148.943377
_cell_volume 543.869646
_symmetry_space_group_name_H-M "P -1"
_symmetry_group_IT_number 2
_symmetry_cell_setting 'triclinic'
loop_
_space_group_symop_operation_xyz
x,y,z
-x,-y,-z
loop_
_atom_site_type_symbol
_atom_site_label
_atom_site_fract_x
_atom_site_fract_y
_atom_site_fract_z
Si Si1 0.416493 0.759863 0.716363
Si Si2 0.202101 0.913456 0.738572
Si Si3 0.898652 0.857924 0.930981
Si Si4 0.315225 0.842322 0.944655
Si Si5 0.516807 0.377683 0.119052
O O1 0.459447 0.863492 0.814345
O O2 0.568321 0.771835 0.706741
O O3 0.605300 0.954774 0.487795
O O4 0.051172 0.464246 0.843009
O O5 0.358017 0.973995 0.807718
O O6 0.197683 0.026558 0.753898
O O7 0.834594 0.589440 0.896204
O O8 0.783230 0.843575 0.846810
O O9 0.607221 0.554333 0.123258
O O10 0.000000 0.000000 0.000000
O O11 0.500000 0.000000 0.000000
#
# Coordination Sequence:
#
# PCOD8003417 Si02
#       5
#     2   2   2   2   2
#     4  10  20  37  57  77 108 140 176 220 260 318
#     4   9  19  37  55  80 106 140 180 209 265 318
#     4   9  18  36  55  76 112 137 169 223 260 307
#     4  10  22  37  54  79 110 138 175 224 265 305
#     4   8  19  35  54  77 108 139 172 212 272 300
#
# _framework density 18.386759000000001
#
# number of rings (size 3 to 8) (size 9 to 14) (size 15 to 20)
#    1.200    1.600    0.000    0.600    2.800    1.600 
#    3.600    1.000    0.000    0.000    0.000    0.000 
#    0.000    0.000    0.000    0.000    0.000    0.000 
#
# Total GULP energy -123915.164488 kJ/mol
# GULP energy per Si atom -12391.516449 kJ/mol
# Density = 1.834491 g / cm^3
# Si number density = 18.386759 Si / 1000 Ang^3
#
#
#
# Elastic Constant Matrix: (Units=GPa)
#
#
# Indices 1 2 3 4 5 6 
#
# 1 110.1710 48.0936 28.5191 14.4638 10.6997 18.1447
# 2 48.0936 130.9097 32.2546 26.5442 2.0539 5.1239
# 3 28.5191 32.2546 83.8716 10.9082 15.8902 3.2350
# 4 14.4638 26.5442 10.9082 17.7167 -0.3418 0.3748
# 5 10.6997 2.0539 15.8902 -0.3418 21.4567 9.0564
# 6 18.1447 5.1239 3.2350 0.3748 9.0564 21.5630
#
#
#
# Elastic Compliance Matrix: (Units=1/GPa)
#
#
# Indices 1 2 3 4 5 6 
#
# 1 0.013245 -0.002940 -0.002253 -0.004825 -0.000608 -0.009770
# 2 -0.002940 0.012177 -0.002142 -0.014474 0.001934 -0.000659
# 3 -0.002253 -0.002142 0.016552 -0.005520 -0.013400 0.005646
# 4 -0.004825 -0.014474 -0.005520 0.085541 0.007724 0.003597
# 5 -0.000608 0.001934 -0.013400 0.007724 0.068013 -0.026637
# 6 -0.009770 -0.000659 0.005646 0.003597 -0.026637 0.065031
#
#
# Mechanical properties :
#
#
# Convention : Reuss Voigt Hill
#
# Bulk Modulus (GPa) = 36.62601 60.29855 48.46228
# Shear Modulus (GPa) = 17.58513 26.55295 22.06904
#
# Velocity S-wave (km/s) = 3.09593 3.80430 3.46825
# Velocity P-wave (km/s) = 5.72213 7.22237 6.51557
#
# Compressibility (1/GPa) = 0.02730300
#
# Stress axis : x y z
#
# Youngs Moduli (GPa) = 75.49829 82.12149 60.41640
#
# Poissons Ratio (x) = 0.24148 0.13614
# Poissons Ratio (y) = 0.22200 0.12940
# Poissons Ratio (z) = 0.17013 0.17588
#
# Static dielectric constant tensor:
#      x y z
#    x 3.645660 0.066410 0.001900 
#    y 0.066410 3.054550 -0.046240 
#    z 0.001900 -0.046240 3.043450 
# 
# 
# High freq. dielectric constant tensor:
#      x y z
#    x 1.735400 0.007820 0.003970 
#    y 0.007820 1.685120 0.003080 
#    z 0.003970 0.003080 1.684390 
# 
# From -- ./inp_files/2488.got.cif
#   From: 2010.06.25/outbox.cif.g09.slc.cpg/sg2_2_cif.got.tgz:2488.got - 2010.06.27 13:26:56.
