data_PCOD8003611
_publ_section_title
;
Structure prediction by ZEFSAII (Michael W. Deem and Ramdas Pophale) SiO2 
 PCOD8003611
Probable space group: P -1
;
_chemical_formula_sum "Si O2"
_cell_formula_units_Z 12
_cell_length_a 12.525298
_cell_length_b 6.637247
_cell_length_c 23.134497
_cell_angle_alpha 134.966198
_cell_angle_beta 155.325495
_cell_angle_gamma 54.926054
_cell_volume 553.013982
_symmetry_space_group_name_H-M "P -1"
_symmetry_group_IT_number 2
_symmetry_cell_setting 'triclinic'
loop_
_space_group_symop_operation_xyz
x,y,z
-x,-y,-z
loop_
_atom_site_type_symbol
_atom_site_label
_atom_site_fract_x
_atom_site_fract_y
_atom_site_fract_z
Si Si1 0.178789 0.641343 0.233559
Si Si2 0.919984 0.860094 0.643819
Si Si3 0.439864 0.597165 0.554305
Si Si4 0.616382 0.661568 0.927915
Si Si5 0.496692 0.762096 0.008255
Si Si6 0.436818 0.228478 0.651946
O O1 0.312149 0.400641 0.280357
O O2 0.304924 0.733610 0.252299
O O3 0.234551 0.902039 0.360572
O O4 0.869841 0.539891 0.046433
O O5 0.835915 0.597688 0.595861
O O6 0.813117 0.752865 0.506224
O O7 0.223575 0.010220 0.817255
O O8 0.500000 0.500000 0.500000
O O9 0.392727 0.920300 0.599480
O O10 0.465210 0.484788 0.764700
O O11 0.690013 0.016489 0.020535
O O12 0.421802 0.615157 0.878767
O O13 0.500000 0.500000 0.000000
#
# Coordination Sequence:
#
# PCOD8003611 Si02
#       6
#     2   2   2   2   2   2
#     4  10  20  37  59  92 128 161 201 247 305 370
#     4  10  21  38  62  93 119 160 212 247 297 372
#     4  11  19  35  63  94 126 162 197 241 313 367
#     4  10  24  41  59  93 124 158 213 254 299 366
#     4  10  24  46  65  80 120 171 210 254 305 357
#     4  11  21  36  63  95 128 156 198 259 308 360
#
# _framework density 21.699269999999999
#
# number of rings (size 3 to 8) (size 9 to 14) (size 15 to 20)
#    0.000    1.667    3.333    1.500    0.000   10.667 
#    0.000    1.667    0.000    0.000    0.000    0.000 
#    0.000    0.000    0.000    0.000    0.000    0.000 
#
# Total GULP energy -148665.549786 kJ/mol
# GULP energy per Si atom -12388.795816 kJ/mol
# Density = 2.164988 g / cm^3
# Si number density = 21.699270 Si / 1000 Ang^3
#
#
#
# Elastic Constant Matrix: (Units=GPa)
#
#
# Indices 1 2 3 4 5 6 
#
# 1 96.2662 40.5222 58.2895 7.7108 -15.7252 14.6584
# 2 40.5222 98.9419 11.7190 8.8558 -0.5859 33.5808
# 3 58.2895 11.7190 79.7748 3.4409 -21.4602 4.2681
# 4 7.7108 8.8558 3.4409 26.2930 -5.2177 -1.5589
# 5 -15.7252 -0.5859 -21.4602 -5.2177 45.0476 2.1534
# 6 14.6584 33.5808 4.2681 -1.5589 2.1534 37.4944
#
#
#
# Elastic Compliance Matrix: (Units=1/GPa)
#
#
# Indices 1 2 3 4 5 6 
#
# 1 0.023324 -0.007105 -0.015752 -0.002386 0.000321 -0.001080
# 2 -0.007105 0.017720 0.003387 -0.005255 -0.000592 -0.013662
# 3 -0.015752 0.003387 0.025311 0.001507 0.006782 -0.000083
# 4 -0.002386 -0.005255 0.001507 0.041571 0.004299 0.006949
# 5 0.000321 -0.000592 0.006782 0.004299 0.026113 -0.001688
# 6 -0.001080 -0.013662 -0.000083 0.006949 -0.001688 0.039725
#
#
# Mechanical properties :
#
#
# Convention : Reuss Voigt Hill
#
# Bulk Modulus (GPa) = 36.47626 55.11606 45.79616
# Shear Modulus (GPa) = 22.53865 32.73047 27.63456
#
# Velocity S-wave (km/s) = 3.22636 3.88798 3.57252
# Velocity P-wave (km/s) = 5.54306 6.75354 6.17802
#
# Compressibility (1/GPa) = 0.02741509
#
# Stress axis : x y z
#
# Youngs Moduli (GPa) = 42.87362 56.43476 39.50842
#
# Poissons Ratio (x) = 0.40097 0.62233
# Poissons Ratio (y) = 0.30462 -0.13381
# Poissons Ratio (z) = 0.67534 -0.19114
#
# Static dielectric constant tensor:
#      x y z
#    x 3.961720 0.002240 -0.106730 
#    y 0.002240 4.005280 -0.095300 
#    z -0.106730 -0.095300 3.772350 
# 
# 
# High freq. dielectric constant tensor:
#      x y z
#    x 1.846930 0.004630 -0.009140 
#    y 0.004630 1.853210 -0.017870 
#    z -0.009140 -0.017870 1.843190 
# 
# From -- ./inp_files/23312.got.cif
#   From: 2010.06.25/outbox.cif.g09.slc.cpg/sg2_12_cif.got.tgz:23312.got - 2010.06.27 13:26:56.
