data_PCOD8003962
_publ_section_title
;
Structure prediction by ZEFSAII (Michael W. Deem and Ramdas Pophale) SiO2 
 PCOD8003962
Probable space group: P -1
;
_chemical_formula_sum "Si O2"
_cell_formula_units_Z 16
_cell_length_a 16.726771
_cell_length_b 15.165741
_cell_length_c 13.487893
_cell_angle_alpha 54.533557
_cell_angle_beta 153.725475
_cell_angle_gamma 144.054929
_cell_volume 736.159961
_symmetry_space_group_name_H-M "P -1"
_symmetry_group_IT_number 2
_symmetry_cell_setting 'triclinic'
loop_
_space_group_symop_operation_xyz
x,y,z
-x,-y,-z
loop_
_atom_site_type_symbol
_atom_site_label
_atom_site_fract_x
_atom_site_fract_y
_atom_site_fract_z
Si Si1 0.450535 0.380331 0.293395
Si Si2 0.791603 0.042165 0.124154
Si Si3 0.821760 0.852156 0.684224
Si Si4 0.952936 0.289467 0.706692
Si Si5 0.308921 0.962508 0.601782
Si Si6 0.064362 0.236782 0.497484
Si Si7 0.569032 0.331895 0.092327
Si Si8 0.561249 0.806350 0.755128
O O1 0.433320 0.341378 0.416540
O O2 0.780751 0.586603 0.500339
O O3 0.414129 0.249758 0.280769
O O4 0.188154 0.341912 0.004938
O O5 0.660818 0.096112 0.910223
O O6 0.506719 0.825303 0.926869
O O7 0.088994 0.157907 0.314950
O O8 0.882049 0.080377 0.314798
O O9 0.702983 0.914333 0.487780
O O10 0.109848 0.988133 0.988949
O O11 0.855118 0.156416 0.602166
O O12 0.667183 0.200952 0.506904
O O13 0.102475 0.467588 0.705267
O O14 0.159865 0.836186 0.616508
O O15 0.317139 0.287206 0.796550
O O16 0.543840 0.324476 0.188187
#
# Coordination Sequence:
#
# PCOD8003962 Si02
#       8
#     2   2   2   2   2   2   2   2
#     4  11  25  40  61  92 126 157 204 247 300 362
#     4  11  24  42  63  87 124 161 207 248 299 352
#     4  11  24  42  61  90 124 166 196 249 303 359
#     4  11  22  36  62  95 124 156 194 249 312 360
#     4  12  22  40  66  92 120 157 206 247 307 359
#     4  11  23  42  64  90 120 163 204 252 296 356
#     4  10  20  37  62  93 122 156 192 254 307 353
#     4  11  20  37  61  89 127 157 193 247 305 363
#
# _framework density 21.734407000000001
#
# number of rings (size 3 to 8) (size 9 to 14) (size 15 to 20)
#    0.000    1.000    6.250    2.250    1.750    4.000 
#    0.000    0.625    0.000    0.000    0.000    0.000 
#    0.000    0.000    0.000    0.000    0.000    0.000 
#
# Total GULP energy -198405.393097 kJ/mol
# GULP energy per Si atom -12400.337069 kJ/mol
# Density = 2.168494 g / cm^3
# Si number density = 21.734407 Si / 1000 Ang^3
#
#
#
# Elastic Constant Matrix: (Units=GPa)
#
#
# Indices 1 2 3 4 5 6 
#
# 1 161.0771 42.3754 -136.7941 24.2046 5.8588 -67.5317
# 2 42.3754 83.6213 -17.5721 -7.6942 14.2744 5.4694
# 3 -136.7941 -17.5721 324.4167 -85.7721 31.3829 101.6291
# 4 24.2046 -7.6942 -85.7721 35.2462 -13.0423 -28.2584
# 5 5.8588 14.2744 31.3829 -13.0423 30.9495 1.3674
# 6 -67.5317 5.4694 101.6291 -28.2584 1.3674 66.8327
#
#
#
# Elastic Compliance Matrix: (Units=1/GPa)
#
#
# Indices 1 2 3 4 5 6 
#
# 1 0.016987 -0.007325 0.005061 0.010043 -0.001370 0.014343
# 2 -0.007325 0.019851 0.005042 0.007621 -0.009083 -0.013285
# 3 0.005061 0.005042 0.015801 0.027101 -0.007544 -0.007713
# 4 0.010043 0.007621 0.027101 0.101332 0.009321 0.010968
# 5 -0.001370 -0.009083 -0.007544 0.009321 0.047727 0.013795
# 6 0.014343 -0.013285 -0.007713 0.010968 0.013795 0.046627
#
#
# Mechanical properties :
#
#
# Convention : Reuss Voigt Hill
#
# Bulk Modulus (GPa) = 17.18424 38.34815 27.76619
# Shear Modulus (GPa) = 19.07175 72.01272 45.54224
#
# Velocity S-wave (km/s) = 2.96546 5.76238 4.58252
# Velocity P-wave (km/s) = 4.43271 7.87119 6.38766
#
# Compressibility (1/GPa) = 0.05819285
#
# Stress axis : x y z
#
# Youngs Moduli (GPa) = 58.86843 50.37606 63.28889
#
# Poissons Ratio (x) = 0.36900 -0.32028
# Poissons Ratio (y) = 0.43121 -0.31909
# Poissons Ratio (z) = -0.29791 -0.25398
#
# Static dielectric constant tensor:
#      x y z
#    x 3.961160 0.122190 0.190720 
#    y 0.122190 3.999020 0.027530 
#    z 0.190720 0.027530 3.799970 
# 
# 
# High freq. dielectric constant tensor:
#      x y z
#    x 1.854630 0.002940 0.014670 
#    y 0.002940 1.840770 -0.013260 
#    z 0.014670 -0.013260 1.848820 
# 
# From -- ./inp_files/428687.got.cif
#   From: 2010.06.25/outbox.cif.g09.slc.cpg/sg2_215_cif.got.tgz:428687.got - 2010.06.27 13:26:56.
