data_PCOD8003952
_publ_section_title
;
Structure prediction by ZEFSAII (Michael W. Deem and Ramdas Pophale) SiO2 
 PCOD8003952
Probable space group: P -1
;
_chemical_formula_sum "Si O2"
_cell_formula_units_Z 14
_cell_length_a 25.174890
_cell_length_b 16.845100
_cell_length_c 16.058811
_cell_angle_alpha 17.445654
_cell_angle_beta 24.223058
_cell_angle_gamma 18.839617
_cell_volume 656.404522
_symmetry_space_group_name_H-M "P -1"
_symmetry_group_IT_number 2
_symmetry_cell_setting 'triclinic'
loop_
_space_group_symop_operation_xyz
x,y,z
-x,-y,-z
loop_
_atom_site_type_symbol
_atom_site_label
_atom_site_fract_x
_atom_site_fract_y
_atom_site_fract_z
Si Si1 0.617374 0.104953 0.131283
Si Si2 0.695896 0.116360 0.488956
Si Si3 0.187207 0.218989 0.983951
Si Si4 0.113379 0.107905 0.724656
Si Si5 0.601201 0.111256 0.337342
Si Si6 0.682569 0.659409 0.068799
Si Si7 0.324766 0.525488 0.562742
O O1 0.672896 0.980820 0.271486
O O2 0.776629 0.896175 0.049925
O O3 0.475398 0.073034 0.339123
O O4 0.545801 0.490929 0.844442
O O5 0.674751 0.410412 0.274416
O O6 0.519911 0.260796 0.558635
O O7 0.816582 0.010654 0.347864
O O8 0.776734 0.780543 0.766887
O O9 0.278272 0.383180 0.699002
O O10 0.000000 0.500000 0.000000
O O11 0.264884 0.896118 0.255725
O O12 0.000000 0.500000 0.500000
O O13 0.253315 0.961570 0.740609
O O14 0.000000 0.000000 0.000000
O O15 0.763024 0.472181 0.229318
O O16 0.500000 0.000000 0.000000
#
# Coordination Sequence:
#
# PCOD8003952 Si02
#       7
#     2   2   2   2   2   2   2
#     4  10  21  42  69  92 120 162 226 264 309 364
#     4  11  21  39  64  90 122 168 213 253 299 372
#     4  12  24  39  59  96 128 161 202 259 329 379
#     4  12  25  41  60  96 136 164 207 258 334 387
#     4  10  22  42  69  92 119 168 218 271 301 373
#     4  10  20  37  62  92 119 152 211 254 294 366
#     4  11  22  40  64  88 122 165 210 254 299 368
#
# _framework density 21.328312
#
# number of rings (size 3 to 8) (size 9 to 14) (size 15 to 20)
#    0.000    1.143    0.000    9.000    0.000    0.000 
#    7.714    0.000    0.000    0.000    0.000    0.000 
#    0.000    0.000    0.000    0.000    0.000    0.000 
#
# Total GULP energy -173525.344346 kJ/mol
# GULP energy per Si atom -12394.667453 kJ/mol
# Density = 2.127977 g / cm^3
# Si number density = 21.328312 Si / 1000 Ang^3
#
#
#
# Elastic Constant Matrix: (Units=GPa)
#
#
# Indices 1 2 3 4 5 6 
#
# 1 103.6182 95.5801 68.7866 -29.4983 3.9920 70.4412
# 2 95.5801 192.1207 109.1373 -45.1620 21.0131 88.2580
# 3 68.7866 109.1373 188.4896 -41.6160 0.8418 56.4555
# 4 -29.4983 -45.1620 -41.6160 74.3282 -4.2593 -36.0878
# 5 3.9920 21.0131 0.8418 -4.2593 45.5581 8.9691
# 6 70.4412 88.2580 56.4555 -36.0878 8.9691 61.2804
#
#
#
# Elastic Compliance Matrix: (Units=1/GPa)
#
#
# Indices 1 2 3 4 5 6 
#
# 1 0.056009 0.007308 -0.003616 -0.014278 0.006384 -0.080918
# 2 0.007308 0.018847 -0.004507 -0.004721 -0.003052 -0.033725
# 3 -0.003616 -0.004507 0.008608 0.002720 0.001689 0.004071
# 4 -0.014278 -0.004721 0.002720 0.023124 -0.001253 0.034507
# 5 0.006384 -0.003052 0.001689 -0.001253 0.024383 -0.008806
# 6 -0.080918 -0.033725 0.004071 0.034507 -0.008806 0.175764
#
#
# Mechanical properties :
#
#
# Convention : Reuss Voigt Hill
#
# Bulk Modulus (GPa) = 12.21983 114.58182 63.40083
# Shear Modulus (GPa) = 14.89686 50.28165 32.58926
#
# Velocity S-wave (km/s) = 2.64570 4.86068 3.91318
# Velocity P-wave (km/s) = 3.88262 9.23803 7.08576
#
# Compressibility (1/GPa) = 0.08183420
#
# Stress axis : x y z
#
# Youngs Moduli (GPa) = 17.85432 53.06019 116.17414
#
# Poissons Ratio (x) = -0.38775 0.42003
# Poissons Ratio (y) = -0.13047 0.52356
# Poissons Ratio (z) = 0.06455 0.23912
#
# Static dielectric constant tensor:
#      x y z
#    x 4.012760 0.371570 0.139370 
#    y 0.371570 3.886530 0.200660 
#    z 0.139370 0.200660 4.363220 
# 
# 
# High freq. dielectric constant tensor:
#      x y z
#    x 1.836180 0.029820 -0.005780 
#    y 0.029820 1.823020 0.002700 
#    z -0.005780 0.002700 1.863900 
# 
# From -- ./inp_files/439525.got.cif
#   From: 2010.06.25/outbox.cif.g09.slc.cpg/sg2_220_cif.got.tgz:439525.got - 2010.06.27 13:26:56.
