data_PCOD8003207
_publ_section_title
;
Structure prediction by ZEFSAII (Michael W. Deem and Ramdas Pophale) SiO2 
 PCOD8003207
Probable space group: P -1
;
_chemical_formula_sum "Si O2"
_cell_formula_units_Z 14
_cell_length_a 9.684578
_cell_length_b 7.675713
_cell_length_c 9.031638
_cell_angle_alpha 75.061627
_cell_angle_beta 85.992202
_cell_angle_gamma 72.724029
_cell_volume 619.404806
_symmetry_space_group_name_H-M "P -1"
_symmetry_group_IT_number 2
_symmetry_cell_setting 'triclinic'
loop_
_space_group_symop_operation_xyz
x,y,z
-x,-y,-z
loop_
_atom_site_type_symbol
_atom_site_label
_atom_site_fract_x
_atom_site_fract_y
_atom_site_fract_z
Si Si1 0.936783 0.668129 0.579552
Si Si2 0.482709 0.121069 0.123353
Si Si3 0.300013 0.011886 0.401628
Si Si4 0.985451 0.362247 0.860289
Si Si5 0.279237 0.792205 0.728537
Si Si6 0.240008 0.448590 0.940617
Si Si7 0.970340 0.070067 0.676404
O O1 0.962423 0.577766 0.758347
O O2 0.019853 0.827101 0.506468
O O3 0.000000 0.500000 0.500000
O O4 0.765617 0.786208 0.550585
O O5 0.633366 0.152311 0.153716
O O6 0.434747 0.011895 0.288864
O O7 0.369656 0.324617 0.058033
O O8 0.500000 0.000000 0.000000
O O9 0.342430 0.841992 0.555144
O O10 0.172120 0.997953 0.301595
O O11 0.153071 0.306815 0.913241
O O12 0.955431 0.222404 0.773381
O O13 0.868136 0.383691 0.992750
O O14 0.298213 0.566354 0.784276
O O15 0.112043 0.903471 0.738135
#
# Coordination Sequence:
#
# PCOD8003207 Si02
#       7
#     2   2   2   2   2   2   2
#     4   9  17  35  61  96 126 160 206 268 319 373
#     4  12  27  45  64  92 134 177 218 263 326 390
#     4  11  22  43  68  96 129 172 217 269 322 382
#     4  10  20  36  63  99 127 166 211 270 322 381
#     4  11  24  43  66  94 132 171 214 266 327 388
#     4  11  23  40  64  90 132 169 216 266 324 378
#     4  10  21  36  69  98 128 161 219 269 327 377
#
# _framework density 22.602343000000001
#
# number of rings (size 3 to 8) (size 9 to 14) (size 15 to 20)
#    0.000    1.429    1.429    5.143    4.000    0.571 
#    0.000    0.714    0.000    0.000    0.000    0.000 
#    0.000    0.000    0.000    0.000    0.000    0.000 
#
# Total GULP energy -173485.776420 kJ/mol
# GULP energy per Si atom -12391.841173 kJ/mol
# Density = 2.255090 g / cm^3
# Si number density = 22.602343 Si / 1000 Ang^3
#
#
#
# Elastic Constant Matrix: (Units=GPa)
#
#
# Indices 1 2 3 4 5 6 
#
# 1 109.9589 32.2461 21.2286 2.1110 22.1456 7.8964
# 2 32.2461 76.5212 36.6548 -3.4968 -0.3506 10.0841
# 3 21.2286 36.6548 104.6310 -13.4145 -4.1069 -2.6960
# 4 2.1110 -3.4968 -13.4145 41.5627 0.6882 2.7690
# 5 22.1456 -0.3506 -4.1069 0.6882 38.9388 1.3939
# 6 7.8964 10.0841 -2.6960 2.7690 1.3939 18.9444
#
#
#
# Elastic Compliance Matrix: (Units=1/GPa)
#
#
# Indices 1 2 3 4 5 6 
#
# 1 0.012230 -0.004210 -0.001496 -0.001183 -0.007045 -0.002378
# 2 -0.004210 0.018922 -0.005863 0.000502 0.002274 -0.009392
# 3 -0.001496 -0.005863 0.012535 0.003270 0.001886 0.004912
# 4 -0.001183 0.000502 0.003270 0.025411 0.000683 -0.003073
# 5 -0.007045 0.002274 0.001886 0.000683 0.029906 -0.000306
# 6 -0.002378 -0.009392 0.004912 -0.003073 -0.000306 0.059947
#
#
# Mechanical properties :
#
#
# Convention : Reuss Voigt Hill
#
# Bulk Modulus (GPa) = 48.66539 52.37446 50.51993
# Shear Modulus (GPa) = 26.46347 33.28799 29.87573
#
# Velocity S-wave (km/s) = 3.42545 3.84183 3.63960
# Velocity P-wave (km/s) = 6.10105 6.54996 6.32949
#
# Compressibility (1/GPa) = 0.02054848
#
# Stress axis : x y z
#
# Youngs Moduli (GPa) = 81.76497 52.84854 79.77843
#
# Poissons Ratio (x) = 0.22250 0.11935
# Poissons Ratio (y) = 0.34424 0.46775
# Poissons Ratio (z) = 0.12232 0.30986
#
# Static dielectric constant tensor:
#      x y z
#    x 3.979900 0.085820 -0.086660 
#    y 0.085820 4.158160 -0.446390 
#    z -0.086660 -0.446390 4.607970 
# 
# 
# High freq. dielectric constant tensor:
#      x y z
#    x 1.879440 0.009810 0.002350 
#    y 0.009810 1.881230 -0.015290 
#    z 0.002350 -0.015290 1.905890 
# 
# From -- ./inp_files/157323.got.cif
#   From: 2010.06.25/outbox.cif.g09.slc.cpg/sg2_79_cif.got.tgz:157323.got - 2010.06.27 13:26:56.
