data_PCOD8003877
_publ_section_title
;
Structure prediction by ZEFSAII (Michael W. Deem and Ramdas Pophale) SiO2 
 PCOD8003877
Probable space group: P -1
;
_chemical_formula_sum "Si O2"
_cell_formula_units_Z 16
_cell_length_a 6.521026
_cell_length_b 17.667168
_cell_length_c 5.402580
_cell_angle_alpha 102.211472
_cell_angle_beta 100.472743
_cell_angle_gamma 87.410032
_cell_volume 598.188896
_symmetry_space_group_name_H-M "P -1"
_symmetry_group_IT_number 2
_symmetry_cell_setting 'triclinic'
loop_
_space_group_symop_operation_xyz
x,y,z
-x,-y,-z
loop_
_atom_site_type_symbol
_atom_site_label
_atom_site_fract_x
_atom_site_fract_y
_atom_site_fract_z
Si Si1 0.708273 0.067379 0.553641
Si Si2 0.836368 0.596909 0.662171
Si Si3 0.234423 0.265253 0.572247
Si Si4 0.431591 0.703573 0.923891
Si Si5 0.815313 0.897824 0.393154
Si Si6 0.286666 0.567141 0.508238
Si Si7 0.511769 0.130865 0.062169
Si Si8 0.906410 0.341470 0.850351
O O1 0.634323 0.109679 0.816420
O O2 0.939910 0.093689 0.559892
O O3 0.701444 0.974433 0.531089
O O4 0.575833 0.082905 0.283809
O O5 0.732629 0.681177 0.626812
O O6 0.669389 0.526123 0.535423
O O7 0.043069 0.579926 0.536942
O O8 0.905648 0.604663 0.967676
O O9 0.249763 0.171940 0.477668
O O10 0.999683 0.281268 0.631541
O O11 0.399357 0.293822 0.825421
O O12 0.450446 0.618769 0.736600
O O13 0.452125 0.778235 0.799892
O O14 0.197718 0.708520 0.988720
O O15 0.729744 0.881620 0.083211
O O16 0.278889 0.602363 0.254426
#
# Coordination Sequence:
#
# PCOD8003877 Si02
#       8
#     2   2   2   2   2   2   2   2
#     4  11  25  45  72  98 135 180 221 274 341 393
#     4   9  19  36  59  89 117 163 202 259 311 374
#     4  10  22  41  57  89 126 155 208 260 313 377
#     4  10  23  38  59  91 118 166 205 260 313 385
#     4  10  24  44  66 102 132 175 225 277 328 409
#     4   9  19  36  60  86 121 157 212 251 310 382
#     4  11  25  44  69  99 139 175 224 276 334 395
#     4  10  20  37  62  83 121 164 204 255 318 371
#
# _framework density 26.747401
#
# number of rings (size 3 to 8) (size 9 to 14) (size 15 to 20)
#    0.000    2.000    0.000    1.875    7.000    5.500 
#    9.000    1.250    0.000    0.000    0.000    0.000 
#    0.000    0.000    0.000    0.000    0.000    0.000 
#
# Total GULP energy -198302.032537 kJ/mol
# GULP energy per Si atom -12393.877034 kJ/mol
# Density = 2.668652 g / cm^3
# Si number density = 26.747401 Si / 1000 Ang^3
#
#
#
# Elastic Constant Matrix: (Units=GPa)
#
#
# Indices 1 2 3 4 5 6 
#
# 1 33.5802 39.8045 5.1034 5.6511 5.7250 9.7613
# 2 39.8045 207.9511 58.9108 12.2046 25.2609 11.0642
# 3 5.1034 58.9108 107.7610 -5.2677 26.0151 4.7968
# 4 5.6511 12.2046 -5.2677 41.7157 -1.4949 1.3069
# 5 5.7250 25.2609 26.0151 -1.4949 31.2302 10.3194
# 6 9.7613 11.0642 4.7968 1.3069 10.3194 37.7091
#
#
#
# Elastic Compliance Matrix: (Units=1/GPa)
#
#
# Indices 1 2 3 4 5 6 
#
# 1 0.042106 -0.008172 0.002927 -0.002706 -0.000853 -0.008547
# 2 -0.008172 0.007651 -0.003368 -0.001670 -0.002290 0.000983
# 3 0.002927 -0.003368 0.013217 0.001904 -0.009048 0.000959
# 4 -0.002706 -0.001670 0.001904 0.025135 0.001582 -0.000356
# 5 -0.000853 -0.002290 -0.009048 0.001582 0.045059 -0.010342
# 6 -0.008547 0.000983 0.000959 -0.000356 -0.010342 0.031163
#
#
# Mechanical properties :
#
#
# Convention : Reuss Voigt Hill
#
# Bulk Modulus (GPa) = 21.85837 61.88108 41.86972
# Shear Modulus (GPa) = 25.40558 38.49589 31.95073
#
# Velocity S-wave (km/s) = 3.08528 3.79785 3.45996
# Velocity P-wave (km/s) = 4.56966 6.51284 5.62579
#
# Compressibility (1/GPa) = 0.04574907
#
# Stress axis : x y z
#
# Youngs Moduli (GPa) = 23.74934 130.70145 75.65870
#
# Poissons Ratio (x) = 1.06807 -0.22148
# Poissons Ratio (y) = 0.19408 0.25484
# Poissons Ratio (z) = -0.06952 0.44024
#
# Static dielectric constant tensor:
#      x y z
#    x 5.077180 0.030500 0.158720 
#    y 0.030500 5.235800 0.081120 
#    z 0.158720 0.081120 4.658070 
# 
# 
# High freq. dielectric constant tensor:
#      x y z
#    x 2.103730 0.001000 0.009570 
#    y 0.001000 2.086520 0.005270 
#    z 0.009570 0.005270 2.059400 
# 
# From -- ./inp_files/45181.got.cif
#   From: 2010.06.25/outbox.cif.g09.slc.cpg/sg2_23_cif.got.tgz:45181.got - 2010.06.27 13:26:56.
