data_PCOD8003884
_publ_section_title
;
Structure prediction by ZEFSAII (Michael W. Deem and Ramdas Pophale) SiO2 
 PCOD8003884
Probable space group: P -1
;
_chemical_formula_sum "Si O2"
_cell_formula_units_Z 16
_cell_length_a 19.930546
_cell_length_b 8.547750
_cell_length_c 26.502832
_cell_angle_alpha 31.837312
_cell_angle_beta 161.215837
_cell_angle_gamma 140.638854
_cell_volume 753.932480
_symmetry_space_group_name_H-M "P -1"
_symmetry_group_IT_number 2
_symmetry_cell_setting 'triclinic'
loop_
_space_group_symop_operation_xyz
x,y,z
-x,-y,-z
loop_
_atom_site_type_symbol
_atom_site_label
_atom_site_fract_x
_atom_site_fract_y
_atom_site_fract_z
Si Si1 0.684101 0.440901 0.568721
Si Si2 0.677187 0.660887 0.975416
Si Si3 0.812698 0.745911 0.851713
Si Si4 0.952637 0.694777 0.606755
Si Si5 0.713084 0.285511 0.836059
Si Si6 0.997313 0.636326 0.538617
Si Si7 0.665688 0.689032 0.201995
Si Si8 0.962790 0.676088 0.079339
O O1 0.439203 0.609080 0.349778
O O2 0.788400 0.539525 0.564181
O O3 0.684441 0.084651 0.670193
O O4 0.816850 0.530640 0.687128
O O5 0.459666 0.581605 0.822723
O O6 0.804052 0.721501 0.999801
O O7 0.643970 0.983332 0.892431
O O8 0.807301 0.405763 0.173849
O O9 0.667150 0.557798 0.768596
O O10 0.857356 0.554592 0.988544
O O11 0.039131 0.770963 0.982866
O O12 0.944440 0.580820 0.574408
O O13 0.903330 0.057612 0.477503
O O14 0.163521 0.351758 0.711418
O O15 0.782597 0.659332 0.347103
O O16 0.500000 0.000000 0.000000
O O17 0.000000 0.000000 0.000000
#
# Coordination Sequence:
#
# PCOD8003884 Si02
#       8
#     2   2   2   2   2   2   2   2
#     4  10  20  37  62  85 123 157 201 249 301 363
#     4  11  21  40  63  86 123 162 201 250 308 364
#     4  10  21  39  56  87 122 159 201 255 294 359
#     4  10  20  42  63  92 123 162 201 253 306 373
#     4  11  21  36  60  84 117 165 200 247 305 352
#     4  10  23  42  66  88 127 158 202 258 310 365
#     4  11  23  43  63  92 122 159 204 257 311 364
#     4   9  18  39  59  82 124 155 195 252 294 352
#
# _framework density 21.222059000000002
#
# number of rings (size 3 to 8) (size 9 to 14) (size 15 to 20)
#    0.000    1.750    5.000    1.125    0.000    2.000 
#    4.500    0.000    0.000    0.000    0.000    0.000 
#    0.000    0.000    0.000    0.000    0.000    0.000 
#
# Total GULP energy -198219.894672 kJ/mol
# GULP energy per Si atom -12388.743417 kJ/mol
# Density = 2.117376 g / cm^3
# Si number density = 21.222059 Si / 1000 Ang^3
#
#
#
# Elastic Constant Matrix: (Units=GPa)
#
#
# Indices 1 2 3 4 5 6 
#
# 1 73.4741 18.7594 19.6561 0.7111 -25.9823 -8.2907
# 2 18.7594 95.2108 23.1435 6.1746 -3.0637 -3.7796
# 3 19.6561 23.1435 108.3006 2.1120 -1.6690 -4.8772
# 4 0.7111 6.1746 2.1120 34.7026 -5.0554 -0.1445
# 5 -25.9823 -3.0637 -1.6690 -5.0554 28.4431 -1.2987
# 6 -8.2907 -3.7796 -4.8772 -0.1445 -1.2987 20.8510
#
#
#
# Elastic Compliance Matrix: (Units=1/GPa)
#
#
# Indices 1 2 3 4 5 6 
#
# 1 0.024390 -0.003179 -0.003022 0.003620 0.022854 0.009863
# 2 -0.003179 0.011675 -0.001896 -0.002207 -0.002138 0.000260
# 3 -0.003022 -0.001896 0.010192 -0.000573 -0.002437 0.000683
# 4 0.003620 -0.002207 -0.000573 0.030417 0.008517 0.001647
# 5 0.022854 -0.002138 -0.002437 0.008517 0.057713 0.011783
# 6 0.009863 0.000260 0.000683 0.001647 0.011783 0.052833
#
#
# Mechanical properties :
#
#
# Convention : Reuss Voigt Hill
#
# Bulk Modulus (GPa) = 33.26338 44.45596 38.85967
# Shear Modulus (GPa) = 23.42647 31.16111 27.29379
#
# Velocity S-wave (km/s) = 3.32606 3.83604 3.59012
# Velocity P-wave (km/s) = 5.51890 6.37289 5.96121
#
# Compressibility (1/GPa) = 0.03006309
#
# Stress axis : x y z
#
# Youngs Moduli (GPa) = 41.00088 85.65368 98.12070
#
# Poissons Ratio (x) = 0.27228 0.29648
# Poissons Ratio (y) = 0.13034 0.18605
# Poissons Ratio (z) = 0.12389 0.16241
#
# Static dielectric constant tensor:
#      x y z
#    x 6.439450 1.104490 -0.247260 
#    y 1.104490 5.305260 0.274370 
#    z -0.247260 0.274370 4.057380 
# 
# 
# High freq. dielectric constant tensor:
#      x y z
#    x 1.809380 -0.011790 -0.008150 
#    y -0.011790 1.829270 0.011170 
#    z -0.008150 0.011170 1.843870 
# 
# From -- ./inp_files/620683.got.cif
#   From: 2010.06.25/outbox.cif.g09.slc.cpg/sg2_311_cif.got.tgz:620683.got - 2010.06.27 13:26:56.
