data_PCOD8003620
_publ_section_title
;
Structure prediction by ZEFSAII (Michael W. Deem and Ramdas Pophale) SiO2 
 PCOD8003620
Probable space group: P -1
;
_chemical_formula_sum "Si O2"
_cell_formula_units_Z 16
_cell_length_a 5.331469
_cell_length_b 14.639627
_cell_length_c 11.504334
_cell_angle_alpha 52.706161
_cell_angle_beta 96.867742
_cell_angle_gamma 113.446402
_cell_volume 646.205402
_symmetry_space_group_name_H-M "P -1"
_symmetry_group_IT_number 2
_symmetry_cell_setting 'triclinic'
loop_
_space_group_symop_operation_xyz
x,y,z
-x,-y,-z
loop_
_atom_site_type_symbol
_atom_site_label
_atom_site_fract_x
_atom_site_fract_y
_atom_site_fract_z
Si Si1 0.359775 0.691550 0.184634
Si Si2 0.160576 0.382156 0.635008
Si Si3 0.287105 0.091032 0.605233
Si Si4 0.560284 0.628157 0.557723
Si Si5 0.296981 0.085596 0.356980
Si Si6 0.176578 0.306397 0.120108
Si Si7 0.308772 0.511461 0.130976
Si Si8 0.654240 0.128985 0.124104
O O1 0.627486 0.672336 0.256834
O O2 0.192921 0.582903 0.161907
O O3 0.148191 0.688018 0.277718
O O4 0.481079 0.832571 0.024004
O O5 0.278862 0.533163 0.549176
O O6 0.171528 0.363312 0.510809
O O7 0.437880 0.234513 0.541566
O O8 0.408720 0.066654 0.505817
O O9 0.351386 0.010945 0.773506
O O10 0.955062 0.041708 0.606172
O O11 0.558662 0.571378 0.727934
O O12 0.184130 0.194638 0.288625
O O13 0.530302 0.141325 0.231233
O O14 0.090118 0.404623 0.115513
O O15 0.963445 0.239395 0.056652
O O16 0.468207 0.382436 0.016577
#
# Coordination Sequence:
#
# PCOD8003620 Si02
#       8
#     2   2   2   2   2   2   2   2
#     4  11  23  44  67  94 125 171 216 273 323 372
#     4  10  25  44  70  95 126 163 223 275 327 373
#     4  10  22  39  61  90 130 167 212 254 320 386
#     4  10  21  43  65  93 126 169 209 271 325 380
#     4  10  20  39  59  89 131 168 210 253 310 394
#     4  10  20  37  59  97 130 165 213 258 313 400
#     4  10  20  37  65  94 129 168 208 262 328 386
#     4  11  22  37  62  90 127 174 209 264 316 382
#
# _framework density 24.759929
#
# number of rings (size 3 to 8) (size 9 to 14) (size 15 to 20)
#    0.000    1.750    2.500    1.875    1.750    6.000 
#    6.750    1.250    0.000    0.000    0.000    0.000 
#    0.000    0.000    0.000    0.000    0.000    0.000 
#
# Total GULP energy -198247.512707 kJ/mol
# GULP energy per Si atom -12390.469544 kJ/mol
# Density = 2.470357 g / cm^3
# Si number density = 24.759929 Si / 1000 Ang^3
#
#
#
# Elastic Constant Matrix: (Units=GPa)
#
#
# Indices 1 2 3 4 5 6 
#
# 1 45.2416 -6.0903 11.3838 -6.2409 -7.5993 -2.8114
# 2 -6.0903 64.1491 17.5385 -17.5843 3.4109 -1.1840
# 3 11.3838 17.5385 124.9673 -18.9922 10.2643 4.2814
# 4 -6.2409 -17.5843 -18.9922 38.1770 -13.0286 -4.7030
# 5 -7.5993 3.4109 10.2643 -13.0286 36.7649 1.1614
# 6 -2.8114 -1.1840 4.2814 -4.7030 1.1614 15.1023
#
#
#
# Elastic Compliance Matrix: (Units=1/GPa)
#
#
# Indices 1 2 3 4 5 6 
#
# 1 0.026974 0.005686 -0.002806 0.009772 0.009022 0.008612
# 2 0.005686 0.019630 -0.002126 0.010928 0.003621 0.006325
# 3 -0.002806 -0.002126 0.009130 0.002077 -0.002118 -0.002468
# 4 0.009772 0.010928 0.002077 0.040417 0.014320 0.013572
# 5 0.009022 0.003621 -0.002118 0.014320 0.034256 0.004389
# 6 0.008612 0.006325 -0.002468 0.013572 0.004389 0.072902
#
#
# Mechanical properties :
#
#
# Convention : Reuss Voigt Hill
#
# Bulk Modulus (GPa) = 17.46987 31.11353 24.29170
# Shear Modulus (GPa) = 22.63652 32.11059 27.37355
#
# Velocity S-wave (km/s) = 3.02692 3.60512 3.32860
# Velocity P-wave (km/s) = 4.39174 5.47016 4.96034
#
# Compressibility (1/GPa) = 0.05724140
#
# Stress axis : x y z
#
# Youngs Moduli (GPa) = 37.07298 50.94363 109.52539
#
# Poissons Ratio (x) = -0.28967 0.30734
# Poissons Ratio (y) = -0.21080 0.23287
# Poissons Ratio (z) = 0.10403 0.10831
#
# Static dielectric constant tensor:
#      x y z
#    x 4.110450 -0.254520 0.186850 
#    y -0.254520 4.365430 -0.019740 
#    z 0.186850 -0.019740 4.939970 
# 
# 
# High freq. dielectric constant tensor:
#      x y z
#    x 1.955520 -0.018450 0.009450 
#    y -0.018450 1.956500 -0.010070 
#    z 0.009450 -0.010070 2.019000 
# 
# From -- ./inp_files/109855.got.cif
#   From: 2010.06.25/outbox.cif.g09.slc.cpg/sg2_55_cif.got.tgz:109855.got - 2010.06.27 13:26:56.
