data_PCOD8003211
_publ_section_title
;
Structure prediction by ZEFSAII (Michael W. Deem and Ramdas Pophale) SiO2 
 PCOD8003211
Probable space group: P -1
;
_chemical_formula_sum "Si O2"
_cell_formula_units_Z 16
_cell_length_a 8.930822
_cell_length_b 5.607186
_cell_length_c 17.206064
_cell_angle_alpha 104.747623
_cell_angle_beta 63.827502
_cell_angle_gamma 114.586606
_cell_volume 700.501743
_symmetry_space_group_name_H-M "P -1"
_symmetry_group_IT_number 2
_symmetry_cell_setting 'triclinic'
loop_
_space_group_symop_operation_xyz
x,y,z
-x,-y,-z
loop_
_atom_site_type_symbol
_atom_site_label
_atom_site_fract_x
_atom_site_fract_y
_atom_site_fract_z
Si Si1 0.963697 0.460814 0.193931
Si Si2 0.001277 0.108325 0.668703
Si Si3 0.727844 0.021467 0.314449
Si Si4 0.430759 0.241990 0.440376
Si Si5 0.663631 0.571812 0.175245
Si Si6 0.907485 0.684687 0.993892
Si Si7 0.323959 0.392099 0.313696
Si Si8 0.130322 0.737305 0.439026
O O1 0.896105 0.259247 0.263379
O O2 0.795629 0.453846 0.179136
O O3 0.062792 0.737721 0.236072
O O4 0.107438 0.395704 0.100429
O O5 0.001833 0.219783 0.591528
O O6 0.867436 0.813741 0.677701
O O7 0.200636 0.122606 0.645738
O O8 0.582958 0.113993 0.397421
O O9 0.654818 0.830233 0.242432
O O10 0.500000 0.500000 0.500000
O O11 0.417238 0.339708 0.365187
O O12 0.236990 0.009532 0.484795
O O13 0.719234 0.626533 0.076522
O O14 0.456683 0.384889 0.212181
O O15 0.000000 0.500000 0.000000
O O16 0.000000 0.000000 0.000000
O O17 0.288672 0.665296 0.355615
O O18 0.000000 0.500000 0.500000
#
# Coordination Sequence:
#
# PCOD8003211 Si02
#       8
#     2   2   2   2   2   2   2   2
#     4  10  20  38  67 104 135 176 227 283 345 411
#     4  10  25  42  70  96 134 182 231 275 355 425
#     4  11  20  42  71  97 131 174 233 285 342 410
#     4  11  26  45  71 103 132 171 238 295 353 414
#     4  10  20  38  68 100 132 180 229 279 343 419
#     4  10  20  36  64 109 148 179 228 297 352 417
#     4  11  23  45  66  94 134 184 224 278 356 418
#     4  11  26  50  67  94 137 185 229 288 358 425
#
# _framework density 22.840772000000001
#
# number of rings (size 3 to 8) (size 9 to 14) (size 15 to 20)
#    0.000    1.500    3.750    0.750    0.000    5.500 
#    2.250    3.125    0.000    3.000    0.000    0.000 
#    0.000    0.000    0.000    0.000    0.000    0.000 
#
# Total GULP energy -198240.562316 kJ/mol
# GULP energy per Si atom -12390.035145 kJ/mol
# Density = 2.278879 g / cm^3
# Si number density = 22.840772 Si / 1000 Ang^3
#
#
#
# Elastic Constant Matrix: (Units=GPa)
#
#
# Indices 1 2 3 4 5 6 
#
# 1 82.5773 40.3380 45.3605 3.4626 -2.7625 0.4467
# 2 40.3380 102.6792 43.9483 6.3486 2.2496 -10.7620
# 3 45.3605 43.9483 135.4536 5.9365 -13.5090 3.1404
# 4 3.4626 6.3486 5.9365 46.9204 3.3345 -1.5814
# 5 -2.7625 2.2496 -13.5090 3.3345 27.5031 4.7328
# 6 0.4467 -10.7620 3.1404 -1.5814 4.7328 24.4953
#
#
#
# Elastic Compliance Matrix: (Units=1/GPa)
#
#
# Indices 1 2 3 4 5 6 
#
# 1 0.016784 -0.005202 -0.003809 -0.000174 0.000647 -0.002239
# 2 -0.005202 0.014211 -0.003488 -0.000509 -0.004653 0.007652
# 3 -0.003809 -0.003488 0.010521 -0.001133 0.005901 -0.004025
# 4 -0.000174 -0.000509 -0.001133 0.021857 -0.003530 0.002018
# 5 0.000647 -0.004653 0.005901 -0.003530 0.042053 -0.011166
# 6 -0.002239 0.007652 -0.004025 0.002018 -0.011166 0.047030
#
#
# Mechanical properties :
#
#
# Convention : Reuss Voigt Hill
#
# Bulk Modulus (GPa) = 60.53523 64.44487 62.49005
# Shear Modulus (GPa) = 27.32845 32.52129 29.92487
#
# Velocity S-wave (km/s) = 3.46277 3.77746 3.62353
# Velocity P-wave (km/s) = 6.52291 6.87762 6.70261
#
# Compressibility (1/GPa) = 0.01651931
#
# Stress axis : x y z
#
# Youngs Moduli (GPa) = 59.58019 70.36878 95.04552
#
# Poissons Ratio (x) = 0.36603 0.36202
# Poissons Ratio (y) = 0.30991 0.33152
# Poissons Ratio (z) = 0.22694 0.24545
#
# Static dielectric constant tensor:
#      x y z
#    x 3.966680 -0.127470 -0.065890 
#    y -0.127470 4.475970 0.076650 
#    z -0.065890 0.076650 4.486030 
# 
# 
# High freq. dielectric constant tensor:
#      x y z
#    x 1.881450 -0.016070 -0.010830 
#    y -0.016070 1.913400 0.005030 
#    z -0.010830 0.005030 1.906140 
# 
# From -- ./inp_files/553715.got.cif
#   From: 2010.06.25/outbox.cif.g09.slc.cpg/sg2_277_cif.got.tgz:553715.got - 2010.06.27 13:26:56.
