data_PCOD8003776
_publ_section_title
;
Structure prediction by ZEFSAII (Michael W. Deem and Ramdas Pophale) SiO2 
 PCOD8003776
Probable space group: P -1
;
_chemical_formula_sum "Si O2"
_cell_formula_units_Z 16
_cell_length_a 9.321231
_cell_length_b 12.191549
_cell_length_c 12.486598
_cell_angle_alpha 130.025931
_cell_angle_beta 128.283081
_cell_angle_gamma 80.887489
_cell_volume 781.941629
_symmetry_space_group_name_H-M "P -1"
_symmetry_group_IT_number 2
_symmetry_cell_setting 'triclinic'
loop_
_space_group_symop_operation_xyz
x,y,z
-x,-y,-z
loop_
_atom_site_type_symbol
_atom_site_label
_atom_site_fract_x
_atom_site_fract_y
_atom_site_fract_z
Si Si1 0.284423 0.079574 0.769604
Si Si2 0.099734 0.830824 0.128234
Si Si3 0.061152 0.819545 0.341773
Si Si4 0.290693 0.128606 0.037954
Si Si5 0.499596 0.482744 0.364054
Si Si6 0.113600 0.515937 0.228829
Si Si7 0.700276 0.118326 0.955492
Si Si8 0.069034 0.419168 0.386227
O O1 0.519039 0.175242 0.914063
O O2 0.161566 0.185058 0.751020
O O3 0.206135 0.922709 0.564978
O O4 0.257408 0.030431 0.851010
O O5 0.149957 0.891766 0.311507
O O6 0.277752 0.918400 0.182475
O O7 0.911905 0.858340 0.010780
O O8 0.053638 0.647554 0.989290
O O9 0.042728 0.644936 0.232934
O O10 0.453364 0.303039 0.199432
O O11 0.362194 0.043137 0.109489
O O12 0.500000 0.500000 0.500000
O O13 0.323647 0.537038 0.281183
O O14 0.719917 0.589662 0.486264
O O15 0.117942 0.522344 0.364908
O O16 0.902581 0.246927 0.179008
O O17 0.000000 0.500000 0.500000
#
# Coordination Sequence:
#
# PCOD8003776 Si02
#       8
#     2   2   2   2   2   2   2   2
#     4  10  23  37  58  84 114 153 198 232 277 351
#     4   9  20  38  56  87 115 146 190 244 281 332
#     4  10  21  40  59  79 112 158 202 229 270 350
#     4  10  20  37  61  86 117 151 187 233 292 348
#     4   9  19  35  58  86 116 148 194 227 276 355
#     4   9  19  36  61  79 110 156 194 231 279 337
#     4  11  22  36  58  88 122 145 181 244 303 324
#     4  10  21  35  54  89 125 144 182 238 290 344
#
# _framework density 20.461887000000001
#
# number of rings (size 3 to 8) (size 9 to 14) (size 15 to 20)
#    0.000    2.250    0.000    2.625    5.250    0.500 
#    0.000    3.750    0.000    0.000    0.000    0.000 
#    0.000    0.000    0.000    0.000    0.000    0.000 
#
# Total GULP energy -198317.681776 kJ/mol
# GULP energy per Si atom -12394.855111 kJ/mol
# Density = 2.041532 g / cm^3
# Si number density = 20.461887 Si / 1000 Ang^3
#
#
#
# Elastic Constant Matrix: (Units=GPa)
#
#
# Indices 1 2 3 4 5 6 
#
# 1 143.1423 45.4512 47.9531 0.6748 5.7764 -2.3823
# 2 45.4512 81.7798 33.3032 -2.6770 3.1486 -11.8823
# 3 47.9531 33.3032 82.9112 -4.2213 -7.9368 -0.5841
# 4 0.6748 -2.6770 -4.2213 17.6881 4.3653 -7.6980
# 5 5.7764 3.1486 -7.9368 4.3653 40.7705 -6.0502
# 6 -2.3823 -11.8823 -0.5841 -7.6980 -6.0502 24.2544
#
#
#
# Elastic Compliance Matrix: (Units=1/GPa)
#
#
# Indices 1 2 3 4 5 6 
#
# 1 0.009783 -0.004011 -0.004389 -0.002590 -0.002015 -0.002434
# 2 -0.004011 0.018061 -0.004623 0.006427 -0.000908 0.010156
# 3 -0.004389 -0.004623 0.016947 0.002287 0.003947 -0.000577
# 4 -0.002590 0.006427 0.002287 0.069531 -0.003548 0.024132
# 5 -0.002015 -0.000908 0.003947 -0.003548 0.026774 0.005005
# 6 -0.002434 0.010156 -0.000577 0.024132 0.005005 0.054860
#
#
# Mechanical properties :
#
#
# Convention : Reuss Voigt Hill
#
# Bulk Modulus (GPa) = 53.34752 62.36090 57.85421
# Shear Modulus (GPa) = 21.90600 28.61767 25.26184
#
# Velocity S-wave (km/s) = 3.27551 3.74382 3.51747
# Velocity P-wave (km/s) = 6.35874 7.01648 6.69569
#
# Compressibility (1/GPa) = 0.01874501
#
# Stress axis : x y z
#
# Youngs Moduli (GPa) = 102.21983 55.36935 59.00869
#
# Poissons Ratio (x) = 0.22207 0.25899
# Poissons Ratio (y) = 0.40996 0.27279
# Poissons Ratio (z) = 0.44864 0.25597
#
# Static dielectric constant tensor:
#      x y z
#    x 4.178920 -0.157720 -0.086340 
#    y -0.157720 3.402790 -0.245190 
#    z -0.086340 -0.245190 3.438440 
# 
# 
# High freq. dielectric constant tensor:
#      x y z
#    x 1.815180 -0.011830 -0.012710 
#    y -0.011830 1.766010 -0.014410 
#    z -0.012710 -0.014410 1.795790 
# 
# From -- ./inp_files/237878.got.cif
#   From: 2010.06.25/outbox.cif.g09.slc.cpg/sg2_119_cif.got.tgz:237878.got - 2010.06.27 13:26:56.
