data_PCOD8003057
_publ_section_title
;
Structure prediction by ZEFSAII (Michael W. Deem and Ramdas Pophale) SiO2 
 PCOD8003057
Probable space group: P -1
;
_chemical_formula_sum "Si O2"
_cell_formula_units_Z 16
_cell_length_a 11.439905
_cell_length_b 20.289302
_cell_length_c 8.323438
_cell_angle_alpha 51.592109
_cell_angle_beta 96.566305
_cell_angle_gamma 139.174085
_cell_volume 712.163968
_symmetry_space_group_name_H-M "P -1"
_symmetry_group_IT_number 2
_symmetry_cell_setting 'triclinic'
loop_
_space_group_symop_operation_xyz
x,y,z
-x,-y,-z
loop_
_atom_site_type_symbol
_atom_site_label
_atom_site_fract_x
_atom_site_fract_y
_atom_site_fract_z
Si Si1 0.737631 0.593656 0.428203
Si Si2 0.052483 0.962917 0.432521
Si Si3 0.714907 0.409281 0.509541
Si Si4 0.370156 0.208848 0.483368
Si Si5 0.843398 0.257275 0.135712
Si Si6 0.132483 0.895376 0.794252
Si Si7 0.800660 0.537798 0.839190
Si Si8 0.385736 0.725902 0.990772
O O1 0.500000 0.500000 0.500000
O O2 0.695831 0.482002 0.497100
O O3 0.785401 0.605800 0.606878
O O4 0.974996 0.790570 0.091319
O O5 0.975091 0.825926 0.715487
O O6 0.868646 0.879770 0.389047
O O7 0.338051 0.139340 0.154135
O O8 0.000000 0.000000 0.500000
O O9 0.464125 0.240925 0.622961
O O10 0.723443 0.338730 0.746088
O O11 0.944797 0.554360 0.204634
O O12 0.331209 0.096631 0.545686
O O13 0.566339 0.391448 0.143743
O O14 0.755702 0.124512 0.210357
O O15 0.612104 0.177536 0.228563
O O16 0.942949 0.293400 0.273264
O O17 0.797349 0.447364 0.881082
#
# Coordination Sequence:
#
# PCOD8003057 Si02
#       8
#     2   2   2   2   2   2   2   2
#     4  10  21  36  60  90 124 153 195 247 301 343
#     4  10  20  36  62  84 119 156 193 239 300 350
#     4   9  22  38  60  91 115 159 198 241 295 353
#     4  10  20  40  63  85 122 154 198 238 298 360
#     4  10  22  39  61  87 121 152 205 242 295 346
#     4  10  21  39  58  85 122 157 184 256 292 337
#     4  10  20  39  61  90 112 161 197 241 291 356
#     4  11  20  38  64  86 115 160 201 242 286 357
#
# _framework density 22.466736999999998
#
# number of rings (size 3 to 8) (size 9 to 14) (size 15 to 20)
#    0.000    2.000    2.500    1.500    5.250    2.000 
#    2.250    4.375    0.000    0.000    0.000    0.000 
#    0.000    0.000    0.000    0.000    0.000    0.000 
#
# Total GULP energy -198227.346775 kJ/mol
# GULP energy per Si atom -12389.209173 kJ/mol
# Density = 2.241560 g / cm^3
# Si number density = 22.466737 Si / 1000 Ang^3
#
#
#
# Elastic Constant Matrix: (Units=GPa)
#
#
# Indices 1 2 3 4 5 6 
#
# 1 76.5977 12.8919 -3.9733 -0.5200 9.2487 14.5615
# 2 12.8919 93.3139 21.8014 13.5186 -2.2878 21.6550
# 3 -3.9733 21.8014 78.2280 10.9717 12.4335 3.4816
# 4 -0.5200 13.5186 10.9717 32.3315 4.5147 1.5154
# 5 9.2487 -2.2878 12.4335 4.5147 24.2069 6.6496
# 6 14.5615 21.6550 3.4816 1.5154 6.6496 23.8013
#
#
#
# Elastic Compliance Matrix: (Units=1/GPa)
#
#
# Indices 1 2 3 4 5 6 
#
# 1 0.015393 -0.001259 0.002143 0.001129 -0.005343 -0.007164
# 2 -0.001259 0.016970 -0.004826 -0.006135 0.010221 -0.016428
# 3 0.002143 -0.004826 0.015977 -0.002132 -0.010100 0.003700
# 4 0.001129 -0.006135 -0.002132 0.035095 -0.007882 0.005171
# 5 -0.005343 0.010221 -0.010100 -0.007882 0.056418 -0.019813
# 6 -0.007164 -0.016428 0.003700 0.005171 -0.019813 0.066009
#
#
# Mechanical properties :
#
#
# Convention : Reuss Voigt Hill
#
# Bulk Modulus (GPa) = 24.71950 34.39775 29.55863
# Shear Modulus (GPa) = 22.00400 30.56259 26.28329
#
# Velocity S-wave (km/s) = 3.13294 3.69229 3.42406
# Velocity P-wave (km/s) = 4.91057 5.78974 5.36818
#
# Compressibility (1/GPa) = 0.04045389
#
# Stress axis : x y z
#
# Youngs Moduli (GPa) = 64.96437 58.92812 62.59168
#
# Poissons Ratio (x) = 0.07420 -0.13410
# Poissons Ratio (y) = 0.08180 0.30208
# Poissons Ratio (z) = -0.13919 0.28439
#
# Static dielectric constant tensor:
#      x y z
#    x 4.259730 0.512390 0.156250 
#    y 0.512390 4.417820 0.351740 
#    z 0.156250 0.351740 4.342930 
# 
# 
# High freq. dielectric constant tensor:
#      x y z
#    x 1.883830 0.009690 0.006080 
#    y 0.009690 1.871470 0.018240 
#    z 0.006080 0.018240 1.883270 
# 
# From -- ./inp_files/281691.got.cif
#   From: 2010.06.25/outbox.cif.g09.slc.cpg/sg2_141_cif.got.tgz:281691.got - 2010.06.27 13:26:56.
