data_PCOD8003354
_publ_section_title
;
Structure prediction by ZEFSAII (Michael W. Deem and Ramdas Pophale) SiO2 
 PCOD8003354
Probable space group: P -1
;
_chemical_formula_sum "Si O2"
_cell_formula_units_Z 16
_cell_length_a 11.536279
_cell_length_b 16.589066
_cell_length_c 19.374719
_cell_angle_alpha 156.557167
_cell_angle_beta 141.331823
_cell_angle_gamma 40.974844
_cell_volume 910.443315
_symmetry_space_group_name_H-M "P -1"
_symmetry_group_IT_number 2
_symmetry_cell_setting 'triclinic'
loop_
_space_group_symop_operation_xyz
x,y,z
-x,-y,-z
loop_
_atom_site_type_symbol
_atom_site_label
_atom_site_fract_x
_atom_site_fract_y
_atom_site_fract_z
Si Si1 0.248816 0.844666 0.941472
Si Si2 0.652987 0.927356 0.194404
Si Si3 0.707749 0.005602 0.126732
Si Si4 0.032050 0.294426 0.199828
Si Si5 0.986118 0.624344 0.161468
Si Si6 0.352232 0.637704 0.410173
Si Si7 0.746773 0.398057 0.383038
Si Si8 0.912973 0.617581 0.854878
O O1 0.185819 0.724752 0.751688
O O2 0.163984 0.753511 0.898540
O O3 0.473966 0.810560 0.025404
O O4 0.176276 0.086437 0.091610
O O5 0.731305 0.921104 0.148518
O O6 0.819621 0.815822 0.232247
O O7 0.591710 0.160787 0.371485
O O8 0.753321 0.235573 0.321298
O O9 0.854112 0.857807 0.031790
O O10 0.500000 0.000000 0.000000
O O11 0.116862 0.440877 0.408166
O O12 0.991644 0.406629 0.195197
O O13 0.189247 0.698095 0.324184
O O14 0.945715 0.486066 0.100667
O O15 0.000000 0.500000 0.000000
O O16 0.536346 0.513984 0.363455
O O17 0.273718 0.494236 0.319053
#
# Coordination Sequence:
#
# PCOD8003354 Si02
#       8
#     2   2   2   2   2   2   2   2
#     4  11  23  37  59  81 113 154 189 230 275 335
#     4  12  20  37  56  85 115 147 186 233 278 332
#     4  12  19  31  58  86 117 141 177 228 293 341
#     4  11  23  39  55  83 116 150 192 228 277 331
#     4  10  20  37  55  81 112 150 183 229 283 335
#     4  10  22  33  58  87 112 144 183 230 285 341
#     4  12  21  37  58  86 117 150 179 230 287 339
#     4  10  20  37  53  84 114 144 186 225 280 335
#
# _framework density 17.573855999999999
#
# number of rings (size 3 to 8) (size 9 to 14) (size 15 to 20)
#    0.750    0.250    6.250    2.250    0.000    1.000 
#    0.000    0.625    0.000    0.000    0.000    2.625 
#    0.000    0.000    0.000    0.000    0.000    0.000 
#
# Total GULP energy -198354.938193 kJ/mol
# GULP energy per Si atom -12397.183637 kJ/mol
# Density = 1.753386 g / cm^3
# Si number density = 17.573856 Si / 1000 Ang^3
#
#
#
# Elastic Constant Matrix: (Units=GPa)
#
#
# Indices 1 2 3 4 5 6 
#
# 1 87.0081 31.2152 32.1295 -5.5855 1.5253 10.2350
# 2 31.2152 84.2665 24.9928 2.7374 3.0695 7.2961
# 3 32.1295 24.9928 104.6896 1.8927 -7.6716 2.7195
# 4 -5.5855 2.7374 1.8927 26.5540 -0.7802 -4.7217
# 5 1.5253 3.0695 -7.6716 -0.7802 23.6117 -0.8422
# 6 10.2350 7.2961 2.7195 -4.7217 -0.8422 22.6718
#
#
#
# Elastic Compliance Matrix: (Units=1/GPa)
#
#
# Indices 1 2 3 4 5 6 
#
# 1 0.015098 -0.004142 -0.003708 0.003022 -0.001701 -0.004472
# 2 -0.004142 0.014535 -0.002251 -0.002859 -0.002563 -0.003228
# 3 -0.003708 -0.002251 0.011536 -0.001076 0.004279 0.000950
# 4 0.003022 -0.002859 -0.001076 0.040149 0.001442 0.008100
# 5 -0.001701 -0.002563 0.004279 0.001442 0.044341 0.003027
# 6 -0.004472 -0.003228 0.000950 0.008100 0.003027 0.048851
#
#
# Mechanical properties :
#
#
# Convention : Reuss Voigt Hill
#
# Bulk Modulus (GPa) = 47.69473 50.29325 48.99399
# Shear Modulus (GPa) = 24.78924 27.07594 25.93259
#
# Velocity S-wave (km/s) = 3.75984 3.92943 3.84557
# Velocity P-wave (km/s) = 6.78579 7.01908 6.90342
#
# Compressibility (1/GPa) = 0.02096668
#
# Stress axis : x y z
#
# Youngs Moduli (GPa) = 66.23222 68.80015 86.68725
#
# Poissons Ratio (x) = 0.28498 0.32144
# Poissons Ratio (y) = 0.27435 0.19513
# Poissons Ratio (z) = 0.24559 0.15487
#
# Static dielectric constant tensor:
#      x y z
#    x 3.285990 0.138150 -0.113440 
#    y 0.138150 3.213760 0.072090 
#    z -0.113440 0.072090 3.373140 
# 
# 
# High freq. dielectric constant tensor:
#      x y z
#    x 1.664810 0.006550 -0.011320 
#    y 0.006550 1.661520 0.009010 
#    z -0.011320 0.009010 1.690700 
# 
# From -- ./inp_files/276130.got.cif
#   From: 2010.06.25/outbox.cif.g09.slc.cpg/sg2_139_cif.got.tgz:276130.got - 2010.06.27 13:26:56.
