data_PCOD8003534
_publ_section_title
;
Structure prediction by ZEFSAII (Michael W. Deem and Ramdas Pophale) SiO2 
 PCOD8003534
Probable space group: P -1
;
_chemical_formula_sum "Si O2"
_cell_formula_units_Z 12
_cell_length_a 19.196077
_cell_length_b 9.250311
_cell_length_c 13.049871
_cell_angle_alpha 140.675587
_cell_angle_beta 152.938283
_cell_angle_gamma 38.765517
_cell_volume 634.054783
_symmetry_space_group_name_H-M "P -1"
_symmetry_group_IT_number 2
_symmetry_cell_setting 'triclinic'
loop_
_space_group_symop_operation_xyz
x,y,z
-x,-y,-z
loop_
_atom_site_type_symbol
_atom_site_label
_atom_site_fract_x
_atom_site_fract_y
_atom_site_fract_z
Si Si1 0.633262 0.786601 0.003623
Si Si2 0.073004 0.233984 0.492786
Si Si3 0.845646 0.959290 0.010957
Si Si4 0.652833 0.261438 0.752920
Si Si5 0.840741 0.186443 0.763768
Si Si6 0.346706 0.291133 0.246879
O O1 0.814112 0.774108 0.266432
O O2 0.600902 0.543579 0.863797
O O3 0.621336 0.823797 0.886692
O O4 0.500000 0.000000 0.000000
O O5 0.000000 0.500000 0.500000
O O6 0.924431 0.134725 0.273715
O O7 0.179282 0.055188 0.445916
O O8 0.692350 0.117502 0.831769
O O9 0.981328 0.796971 0.020666
O O10 0.793048 0.789587 0.927073
O O11 0.813373 0.185189 0.849439
O O12 0.510065 0.194043 0.472321
O O13 0.705359 0.419902 0.668364
#
# Coordination Sequence:
#
# PCOD8003534 Si02
#       6
#     2   2   2   2   2   2
#     4  11  21  38  60  81 113 152 193 227 274 343
#     4  10  20  37  59  82 114 149 190 225 276 338
#     4  10  22  36  60  85 118 142 188 237 285 322
#     4  11  20  38  61  84 112 152 192 226 277 342
#     4   9  20  37  60  86 106 151 195 223 276 337
#     4  11  22  37  58  89 114 145 188 238 284 324
#
# _framework density 18.925810999999999
#
# number of rings (size 3 to 8) (size 9 to 14) (size 15 to 20)
#    1.000    0.667    1.667    5.500    0.000    0.667 
#    0.000    0.833    3.667    0.000    0.000    0.000 
#    0.000    0.000    0.000    0.000    0.000    0.000 
#
# Total GULP energy -148751.430228 kJ/mol
# GULP energy per Si atom -12395.952519 kJ/mol
# Density = 1.888273 g / cm^3
# Si number density = 18.925811 Si / 1000 Ang^3
#
#
#
# Elastic Constant Matrix: (Units=GPa)
#
#
# Indices 1 2 3 4 5 6 
#
# 1 66.9746 40.6073 22.1541 7.2716 3.5357 -7.4654
# 2 40.6073 90.9570 35.4546 5.6114 -9.9819 -12.2619
# 3 22.1541 35.4546 120.1773 -12.5553 -11.1183 -1.8715
# 4 7.2716 5.6114 -12.5553 36.2657 2.0233 -4.1883
# 5 3.5357 -9.9819 -11.1183 2.0233 26.4406 -0.5494
# 6 -7.4654 -12.2619 -1.8715 -4.1883 -0.5494 27.2244
#
#
#
# Elastic Compliance Matrix: (Units=1/GPa)
#
#
# Indices 1 2 3 4 5 6 
#
# 1 0.022323 -0.009527 -0.002304 -0.003276 -0.007279 0.001021
# 2 -0.009527 0.017990 -0.002998 -0.001708 0.007043 0.005164
# 3 -0.002304 -0.002998 0.010364 0.004272 0.003196 -0.000548
# 4 -0.003276 -0.001708 0.004272 0.030391 -0.000668 0.003288
# 5 -0.007279 0.007043 0.003196 -0.000668 0.042893 0.002159
# 6 0.001021 0.005164 -0.000548 0.003288 0.002159 0.039849
#
#
# Mechanical properties :
#
#
# Convention : Reuss Voigt Hill
#
# Bulk Modulus (GPa) = 47.57476 52.72677 50.15077
# Shear Modulus (GPa) = 24.94077 29.97901 27.45989
#
# Velocity S-wave (km/s) = 3.63411 3.98430 3.81323
# Velocity P-wave (km/s) = 6.54226 7.00617 6.77818
#
# Compressibility (1/GPa) = 0.02101955
#
# Stress axis : x y z
#
# Youngs Moduli (GPa) = 44.79633 55.58535 96.49080
#
# Poissons Ratio (x) = 0.52956 0.22234
# Poissons Ratio (y) = 0.42677 0.28925
# Poissons Ratio (z) = 0.10322 0.16663
#
# Static dielectric constant tensor:
#      x y z
#    x 3.221960 -0.042430 -0.019030 
#    y -0.042430 3.435490 -0.043510 
#    z -0.019030 -0.043510 3.495520 
# 
# 
# High freq. dielectric constant tensor:
#      x y z
#    x 1.709380 -0.002390 -0.001610 
#    y -0.002390 1.742220 -0.009340 
#    z -0.001610 -0.009340 1.739310 
# 
# From -- ./inp_files/149289.got.cif
#   From: 2010.06.25/outbox.cif.g09.slc.cpg/sg2_75_cif.got.tgz:149289.got - 2010.06.27 13:26:56.
