data_PCOD8003790
_publ_section_title
;
Structure prediction by ZEFSAII (Michael W. Deem and Ramdas Pophale) SiO2 
 PCOD8003790
Probable space group: P -1
;
_chemical_formula_sum "Si O2"
_cell_formula_units_Z 16
_cell_length_a 7.793900
_cell_length_b 5.532736
_cell_length_c 21.886277
_cell_angle_alpha 56.580127
_cell_angle_beta 56.783035
_cell_angle_gamma 64.567747
_cell_volume 647.893992
_symmetry_space_group_name_H-M "P -1"
_symmetry_group_IT_number 2
_symmetry_cell_setting 'triclinic'
loop_
_space_group_symop_operation_xyz
x,y,z
-x,-y,-z
loop_
_atom_site_type_symbol
_atom_site_label
_atom_site_fract_x
_atom_site_fract_y
_atom_site_fract_z
Si Si1 0.273957 0.175993 0.299994
Si Si2 0.197920 0.283424 0.432495
Si Si3 0.767823 0.230716 0.942357
Si Si4 0.992622 0.672856 0.229644
Si Si5 0.294201 0.420897 0.972000
Si Si6 0.914832 0.866795 0.398910
Si Si7 0.291836 0.757064 0.803640
Si Si8 0.631832 0.355663 0.327797
O O1 0.271812 0.097588 0.383277
O O2 0.508606 0.086581 0.239514
O O3 0.182520 0.527864 0.257002
O O4 0.116947 0.001969 0.320552
O O5 0.153260 0.068267 0.525651
O O6 0.397028 0.440777 0.389007
O O7 0.984437 0.515112 0.427964
O O8 0.538996 0.356622 0.944405
O O9 0.932389 0.366049 0.850209
O O10 0.803464 0.348432 0.987488
O O11 0.803068 0.876348 0.974516
O O12 0.789636 0.533716 0.304577
O O13 0.917800 0.020416 0.206703
O O14 0.237635 0.570554 0.896972
O O15 0.723339 0.006307 0.372891
O O16 0.372865 0.566765 0.754438
#
# Coordination Sequence:
#
# PCOD8003790 Si02
#       8
#     2   2   2   2   2   2   2   2
#     4  10  21  40  58  90 122 162 208 262 316 384
#     4  10  20  37  61  87 120 162 205 256 317 383
#     4  10  23  44  67  96 130 174 221 272 329 390
#     4  11  23  39  62  89 124 166 210 264 322 386
#     4  10  23  44  67  96 130 174 221 272 329 390
#     4  10  20  37  61  87 120 162 205 256 317 383
#     4  11  23  39  62  89 124 166 210 264 322 386
#     4  10  23  38  56  92 124 158 206 264 316 384
#
# _framework density 24.695395000000001
#
# number of rings (size 3 to 8) (size 9 to 14) (size 15 to 20)
#    0.000    1.750    1.250    2.250    3.500    1.000 
#    0.000    0.000    0.000   12.000    0.000    0.000 
#    0.000    0.000    0.000    0.000    0.000    0.000 
#
# Total GULP energy -198239.868786 kJ/mol
# GULP energy per Si atom -12389.991799 kJ/mol
# Density = 2.463919 g / cm^3
# Si number density = 24.695395 Si / 1000 Ang^3
#
#
#
# Elastic Constant Matrix: (Units=GPa)
#
#
# Indices 1 2 3 4 5 6 
#
# 1 58.2238 21.3127 19.9592 -1.2814 10.1429 -16.8115
# 2 21.3127 76.0078 30.9006 5.7625 7.5017 4.3620
# 3 19.9592 30.9006 107.0538 2.0243 14.0403 -7.2447
# 4 -1.2814 5.7625 2.0243 24.7146 -1.9525 -3.5973
# 5 10.1429 7.5017 14.0403 -1.9525 45.8315 1.2627
# 6 -16.8115 4.3620 -7.2447 -3.5973 1.2627 30.0087
#
#
#
# Elastic Compliance Matrix: (Units=1/GPa)
#
#
# Indices 1 2 3 4 5 6 
#
# 1 0.025923 -0.007749 -0.001024 0.005249 -0.004378 0.016215
# 2 -0.007749 0.017952 -0.004227 -0.005492 0.000075 -0.008633
# 3 -0.001024 -0.004227 0.011287 0.000224 -0.002609 0.002902
# 4 0.005249 -0.005492 0.000224 0.043398 0.001271 0.008942
# 5 -0.004378 0.000075 -0.002609 0.001271 0.023738 -0.003940
# 6 0.016215 -0.008633 0.002902 0.008942 -0.003940 0.045601
#
#
# Mechanical properties :
#
#
# Convention : Reuss Voigt Hill
#
# Bulk Modulus (GPa) = 34.29241 42.84781 38.57011
# Shear Modulus (GPa) = 24.55563 31.38516 27.97039
#
# Velocity S-wave (km/s) = 3.15674 3.56882 3.36909
# Velocity P-wave (km/s) = 5.21565 5.86261 5.54857
#
# Compressibility (1/GPa) = 0.02916097
#
# Stress axis : x y z
#
# Youngs Moduli (GPa) = 38.57618 55.70320 88.60023
#
# Poissons Ratio (x) = 0.43163 0.09074
# Poissons Ratio (y) = 0.29892 0.37455
# Poissons Ratio (z) = 0.03951 0.23548
#
# Static dielectric constant tensor:
#      x y z
#    x 4.499120 -0.472050 -0.019960 
#    y -0.472050 4.243540 0.012110 
#    z -0.019960 0.012110 4.628240 
# 
# 
# High freq. dielectric constant tensor:
#      x y z
#    x 1.978760 -0.028790 0.000060 
#    y -0.028790 1.957090 0.005490 
#    z 0.000060 0.005490 1.992440 
# 
# From -- ./inp_files/46965.got.cif
#   From: 2010.06.25/outbox.cif.g09.slc.cpg/sg2_24_cif.got.tgz:46965.got - 2010.06.27 13:26:56.
