data_PCOD8003066
_publ_section_title
;
Structure prediction by ZEFSAII (Michael W. Deem and Ramdas Pophale) SiO2 
 PCOD8003066
Probable space group: P -1
;
_chemical_formula_sum "Si O2"
_cell_formula_units_Z 16
_cell_length_a 17.770204
_cell_length_b 23.619872
_cell_length_c 15.206691
_cell_angle_alpha 19.767882
_cell_angle_beta 150.488465
_cell_angle_gamma 158.770693
_cell_volume 780.406878
_symmetry_space_group_name_H-M "P -1"
_symmetry_group_IT_number 2
_symmetry_cell_setting 'triclinic'
loop_
_space_group_symop_operation_xyz
x,y,z
-x,-y,-z
loop_
_atom_site_type_symbol
_atom_site_label
_atom_site_fract_x
_atom_site_fract_y
_atom_site_fract_z
Si Si1 0.523282 0.159808 0.858950
Si Si2 0.450427 0.619310 0.836543
Si Si3 0.154920 0.137228 0.536427
Si Si4 0.119686 0.069821 0.111898
Si Si5 0.006059 0.183855 0.000757
Si Si6 0.082445 0.405827 0.327889
Si Si7 0.574743 0.033086 0.773063
Si Si8 0.239638 0.546666 0.094100
O O1 0.339267 0.152336 0.678569
O O2 0.733876 0.418633 0.672641
O O3 0.500000 0.000000 0.000000
O O4 0.537044 0.073543 0.091504
O O5 0.625721 0.739835 0.916809
O O6 0.474983 0.815549 0.526868
O O7 0.500000 0.500000 0.000000
O O8 0.207897 0.420058 0.907978
O O9 0.239014 0.389488 0.256960
O O10 0.055219 0.015847 0.706829
O O11 0.000000 0.000000 0.500000
O O12 0.050667 0.158175 0.983702
O O13 0.064205 0.849814 0.416202
O O14 0.000000 0.000000 0.000000
O O15 0.821796 0.183462 0.808337
O O16 0.202900 0.448117 0.298768
O O17 0.950843 0.475703 0.087905
O O18 0.459404 0.808900 0.921654
#
# Coordination Sequence:
#
# PCOD8003066 Si02
#       8
#     2   2   2   2   2   2   2   2
#     4  10  23  36  60  95 126 160 210 262 321 385
#     4  10  22  41  64  89 122 171 216 259 310 375
#     4  11  23  39  63  97 128 164 209 264 329 381
#     4  11  23  40  62  94 124 172 215 256 310 381
#     4  10  23  41  64  90 130 164 213 262 316 377
#     4  10  20  36  62  87 128 164 201 264 316 372
#     4  10  21  40  66  91 122 170 209 264 324 373
#     4  10  20  37  65  93 125 161 209 263 320 383
#
# _framework density 20.502126000000001
#
# number of rings (size 3 to 8) (size 9 to 14) (size 15 to 20)
#    0.000    1.750    2.500    1.125    1.750    6.500 
#    0.000    1.875    0.000    0.000    0.000    0.000 
#    0.000    0.000    0.000    0.000    0.000    0.000 
#
# Total GULP energy -198287.726578 kJ/mol
# GULP energy per Si atom -12392.982911 kJ/mol
# Density = 2.045546 g / cm^3
# Si number density = 20.502126 Si / 1000 Ang^3
#
#
#
# Elastic Constant Matrix: (Units=GPa)
#
#
# Indices 1 2 3 4 5 6 
#
# 1 70.5719 42.7080 29.0149 -3.5052 17.5624 -7.4410
# 2 42.7080 186.5547 48.3531 -12.4197 7.8219 -3.2013
# 3 29.0149 48.3531 104.2524 -6.5082 25.5663 -6.7840
# 4 -3.5052 -12.4197 -6.5082 35.8415 -7.1380 -1.1490
# 5 17.5624 7.8219 25.5663 -7.1380 26.3091 -4.7878
# 6 -7.4410 -3.2013 -6.7840 -1.1490 -4.7878 31.0066
#
#
#
# Elastic Compliance Matrix: (Units=1/GPa)
#
#
# Indices 1 2 3 4 5 6 
#
# 1 0.019882 -0.003920 -0.000907 -0.001747 -0.011269 0.002363
# 2 -0.003920 0.007023 -0.003031 0.002305 0.004070 -0.000165
# 3 -0.000907 -0.003031 0.014308 -0.001023 -0.012561 0.000622
# 4 -0.001747 0.002305 -0.001023 0.030438 0.010150 0.002290
# 5 -0.011269 0.004070 -0.012561 0.010150 0.060125 0.004628
# 6 0.002363 -0.000165 0.000622 0.002290 0.004628 0.033737
#
#
# Mechanical properties :
#
#
# Convention : Reuss Voigt Hill
#
# Bulk Modulus (GPa) = 39.22147 66.83679 53.02913
# Shear Modulus (GPa) = 26.35362 34.71830 30.53596
#
# Velocity S-wave (km/s) = 3.58915 4.11956 3.86347
# Velocity P-wave (km/s) = 6.02893 7.43629 6.76928
#
# Compressibility (1/GPa) = 0.02549624
#
# Stress axis : x y z
#
# Youngs Moduli (GPa) = 50.29739 142.38086 69.89266
#
# Poissons Ratio (x) = 0.55809 0.06340
# Poissons Ratio (y) = 0.19715 0.21188
# Poissons Ratio (z) = 0.04563 0.43163
#
# Static dielectric constant tensor:
#      x y z
#    x 3.450020 -0.055610 0.049930 
#    y -0.055610 4.439030 -0.167450 
#    z 0.049930 -0.167450 3.698990 
# 
# 
# High freq. dielectric constant tensor:
#      x y z
#    x 1.769040 0.002640 0.019340 
#    y 0.002640 1.831710 -0.006880 
#    z 0.019340 -0.006880 1.801760 
# 
# From -- ./inp_files/218826.got.cif
#   From: 2010.06.25/outbox.cif.g09.slc.cpg/sg2_110_cif.got.tgz:218826.got - 2010.06.27 13:26:56.
