data_PCOD8003382
_publ_section_title
;
Structure prediction by ZEFSAII (Michael W. Deem and Ramdas Pophale) SiO2 
 PCOD8003382
Probable space group: P -1
;
_chemical_formula_sum "Si O2"
_cell_formula_units_Z 16
_cell_length_a 16.559585
_cell_length_b 12.136658
_cell_length_c 5.304375
_cell_angle_alpha 124.597133
_cell_angle_beta 64.157291
_cell_angle_gamma 113.134864
_cell_volume 774.427387
_symmetry_space_group_name_H-M "P -1"
_symmetry_group_IT_number 2
_symmetry_cell_setting 'triclinic'
loop_
_space_group_symop_operation_xyz
x,y,z
-x,-y,-z
loop_
_atom_site_type_symbol
_atom_site_label
_atom_site_fract_x
_atom_site_fract_y
_atom_site_fract_z
Si Si1 0.946284 0.110272 0.611803
Si Si2 0.812646 0.882320 0.268893
Si Si3 0.214598 0.800444 0.838137
Si Si4 0.135053 0.258630 0.480027
Si Si5 0.352812 0.023321 0.197672
Si Si6 0.328300 0.640890 0.205700
Si Si7 0.253598 0.547972 0.683165
Si Si8 0.526471 0.120745 0.816738
O O1 0.024584 0.233430 0.562954
O O2 0.876835 0.035043 0.392830
O O3 0.887227 0.165651 0.985602
O O4 0.000000 0.000000 0.500000
O O5 0.836306 0.792833 0.355135
O O6 0.706538 0.895970 0.440396
O O7 0.824009 0.817162 0.899887
O O8 0.248771 0.734607 0.452372
O O9 0.213775 0.687616 0.914927
O O10 0.286710 0.940674 0.969599
O O11 0.170864 0.419468 0.619676
O O12 0.397449 0.912248 0.138837
O O13 0.433645 0.135291 0.107263
O O14 0.320048 0.546503 0.346130
O O15 0.429581 0.736154 0.189199
O O16 0.311690 0.546280 0.858190
O O17 0.500000 0.000000 0.500000
#
# Coordination Sequence:
#
# PCOD8003382 Si02
#       8
#     2   2   2   2   2   2   2   2
#     4   9  20  39  60  89 119 151 193 242 292 342
#     4  10  23  40  61  86 122 150 190 242 297 343
#     4   9  19  37  56  88 118 153 185 240 293 338
#     4  11  22  41  61  84 113 163 200 235 278 345
#     4  10  21  35  57  95 116 149 185 242 302 351
#     4  10  20  37  55  87 116 152 185 242 288 339
#     4  10  21  38  59  82 115 161 198 231 283 340
#     4  11  19  32  60  90 119 144 191 239 299 348
#
# _framework density 20.660426999999999
#
# number of rings (size 3 to 8) (size 9 to 14) (size 15 to 20)
#    0.750    1.250    2.500    1.125    3.500    1.500 
#    4.500    0.625    0.000    4.500    0.000    0.000 
#    0.000    0.000    0.000    0.000    0.000    0.000 
#
# Total GULP energy -198244.904686 kJ/mol
# GULP energy per Si atom -12390.306543 kJ/mol
# Density = 2.061340 g / cm^3
# Si number density = 20.660427 Si / 1000 Ang^3
#
#
#
# Elastic Constant Matrix: (Units=GPa)
#
#
# Indices 1 2 3 4 5 6 
#
# 1 62.0113 33.9336 39.0420 -16.1771 -8.7670 22.7388
# 2 33.9336 134.6533 35.3541 -18.3328 1.0709 36.1270
# 3 39.0420 35.3541 85.7761 -21.7229 2.3006 20.8499
# 4 -16.1771 -18.3328 -21.7229 29.0893 3.0477 -0.7997
# 5 -8.7670 1.0709 2.3006 3.0477 40.7421 -7.6924
# 6 22.7388 36.1270 20.8499 -0.7997 -7.6924 34.7923
#
#
#
# Elastic Compliance Matrix: (Units=1/GPa)
#
#
# Indices 1 2 3 4 5 6 
#
# 1 0.028750 -0.000662 -0.007501 0.009251 0.003555 -0.012610
# 2 -0.000662 0.011983 0.000515 0.007580 -0.003492 -0.012917
# 3 -0.007501 0.000515 0.019932 0.011350 -0.005200 -0.008466
# 4 0.009251 0.007580 0.011350 0.052906 -0.006772 -0.021000
# 5 0.003555 -0.003492 -0.005200 -0.006772 0.028183 0.010495
# 6 -0.012610 -0.012917 -0.008466 -0.021000 0.010495 0.057307
#
#
# Mechanical properties :
#
#
# Convention : Reuss Voigt Hill
#
# Bulk Modulus (GPa) = 22.04058 55.45557 38.74808
# Shear Modulus (GPa) = 21.78838 32.53213 27.16026
#
# Velocity S-wave (km/s) = 3.25098 3.97244 3.62968
# Velocity P-wave (km/s) = 4.97825 6.92388 6.03005
#
# Compressibility (1/GPa) = 0.04537085
#
# Stress axis : x y z
#
# Youngs Moduli (GPa) = 34.78232 83.44895 50.17140
#
# Poissons Ratio (x) = 0.05520 0.37632
# Poissons Ratio (y) = 0.02301 -0.02584
# Poissons Ratio (z) = 0.26089 -0.04298
#
# Static dielectric constant tensor:
#      x y z
#    x 3.736520 0.388960 -0.111910 
#    y 0.388960 3.930140 -0.313320 
#    z -0.111910 -0.313320 3.740430 
# 
# 
# High freq. dielectric constant tensor:
#      x y z
#    x 1.783060 0.022120 0.006450 
#    y 0.022120 1.802840 -0.020810 
#    z 0.006450 -0.020810 1.802740 
# 
# From -- ./inp_files/110622.got.cif
#   From: 2010.06.25/outbox.cif.g09.slc.cpg/sg2_56_cif.got.tgz:110622.got - 2010.06.27 13:26:56.
