data_PCOD8003361
_publ_section_title
;
Structure prediction by ZEFSAII (Michael W. Deem and Ramdas Pophale) SiO2 
 PCOD8003361
Probable space group: P -1
;
_chemical_formula_sum "Si O2"
_cell_formula_units_Z 16
_cell_length_a 11.694032
_cell_length_b 9.289983
_cell_length_c 8.492811
_cell_angle_alpha 57.119616
_cell_angle_beta 103.663120
_cell_angle_gamma 101.798806
_cell_volume 749.615718
_symmetry_space_group_name_H-M "P -1"
_symmetry_group_IT_number 2
_symmetry_cell_setting 'triclinic'
loop_
_space_group_symop_operation_xyz
x,y,z
-x,-y,-z
loop_
_atom_site_type_symbol
_atom_site_label
_atom_site_fract_x
_atom_site_fract_y
_atom_site_fract_z
Si Si1 0.459635 0.737157 0.226975
Si Si2 0.895975 0.180324 0.742470
Si Si3 0.653520 0.498082 0.397902
Si Si4 0.645002 0.034356 0.188961
Si Si5 0.901026 0.547959 0.564501
Si Si6 0.744116 0.241936 0.363610
Si Si7 0.035438 0.675813 0.817144
Si Si8 0.109619 0.006692 0.839888
O O1 0.556247 0.625177 0.247598
O O2 0.382224 0.625316 0.393405
O O3 0.530585 0.899808 0.237158
O O4 0.374555 0.803558 0.026511
O O5 0.874634 0.350271 0.736582
O O6 0.805962 0.157387 0.581405
O O7 0.871446 0.024957 0.949048
O O8 0.029479 0.171296 0.712716
O O9 0.780034 0.604483 0.415431
O O10 0.664660 0.387826 0.309956
O O11 0.659860 0.094898 0.337737
O O12 0.763341 0.949068 0.224510
O O13 0.000000 0.500000 0.500000
O O14 0.942920 0.680238 0.638711
O O15 0.835375 0.328705 0.213281
O O16 0.033225 0.845363 0.824809
O O17 0.000000 0.500000 0.000000
#
# Coordination Sequence:
#
# PCOD8003361 Si02
#       8
#     2   2   2   2   2   2   2   2
#     4  10  23  41  61  84 114 158 204 244 287 343
#     4  10  20  37  54  90 120 155 187 233 306 348
#     4  10  22  40  62  86 116 155 200 243 290 348
#     4  10  22  39  60  85 113 159 197 248 292 337
#     4  11  20  36  62  87 117 154 185 238 297 356
#     4  10  22  37  62  83 121 152 190 248 289 356
#     4  11  21  34  55  91 118 154 189 231 295 354
#     4  10  22  35  59  83 125 152 192 242 286 363
#
# _framework density 21.344269000000001
#
# number of rings (size 3 to 8) (size 9 to 14) (size 15 to 20)
#    0.000    1.750    3.750    1.500    3.500    4.000 
#    0.000    0.000    0.000    0.000    0.000    0.000 
#    0.000    0.000    0.000    0.000    0.000    0.000 
#
# Total GULP energy -198313.896921 kJ/mol
# GULP energy per Si atom -12394.618558 kJ/mol
# Density = 2.129569 g / cm^3
# Si number density = 21.344269 Si / 1000 Ang^3
#
#
#
# Elastic Constant Matrix: (Units=GPa)
#
#
# Indices 1 2 3 4 5 6 
#
# 1 90.6476 39.2452 8.6604 8.6625 11.0743 -11.7089
# 2 39.2452 88.1020 33.2102 23.6314 16.8580 -8.5252
# 3 8.6604 33.2102 57.5960 14.9175 10.0585 -3.0250
# 4 8.6625 23.6314 14.9175 31.3312 -4.7065 7.3666
# 5 11.0743 16.8580 10.0585 -4.7065 25.7374 -1.5068
# 6 -11.7089 -8.5252 -3.0250 7.3666 -1.5068 37.7563
#
#
#
# Elastic Compliance Matrix: (Units=1/GPa)
#
#
# Indices 1 2 3 4 5 6 
#
# 1 0.014401 -0.005695 0.002555 -0.002322 -0.003673 0.003691
# 2 -0.005695 0.023851 -0.005751 -0.017136 -0.013710 0.005955
# 3 0.002555 -0.005751 0.024570 -0.010084 -0.008598 0.003087
# 4 -0.002322 -0.017136 -0.010084 0.057846 0.025826 -0.015653
# 5 -0.003673 -0.013710 -0.008598 0.025826 0.057047 -0.007686
# 6 0.003691 0.005955 0.003087 -0.015653 -0.007686 0.031970
#
#
# Mechanical properties :
#
#
# Convention : Reuss Voigt Hill
#
# Bulk Modulus (GPa) = 22.20245 44.28634 33.24440
# Shear Modulus (GPa) = 20.62034 29.31365 24.96699
#
# Velocity S-wave (km/s) = 3.11156 3.70993 3.42384
# Velocity P-wave (km/s) = 4.83050 6.25660 5.58922
#
# Compressibility (1/GPa) = 0.04504008
#
# Stress axis : x y z
#
# Youngs Moduli (GPa) = 69.44091 41.92658 40.70051
#
# Poissons Ratio (x) = 0.23877 -0.10400
# Poissons Ratio (y) = 0.39547 0.23407
# Poissons Ratio (z) = -0.17744 0.24112
#
# Static dielectric constant tensor:
#      x y z
#    x 3.956760 -0.150280 0.112070 
#    y -0.150280 4.534950 -0.252510 
#    z 0.112070 -0.252510 3.910680 
# 
# 
# High freq. dielectric constant tensor:
#      x y z
#    x 1.839580 -0.002850 0.001280 
#    y -0.002850 1.836120 -0.002450 
#    z 0.001280 -0.002450 1.835570 
# 
# From -- ./inp_files/216766.got.cif
#   From: 2010.06.25/outbox.cif.g09.slc.cpg/sg2_109_cif.got.tgz:216766.got - 2010.06.27 13:26:56.
