data_PCOD8003232
_publ_section_title
;
Structure prediction by ZEFSAII (Michael W. Deem and Ramdas Pophale) SiO2 
 PCOD8003232
Probable space group: P -1
;
_chemical_formula_sum "Si O2"
_cell_formula_units_Z 16
_cell_length_a 8.420058
_cell_length_b 16.397589
_cell_length_c 20.771004
_cell_angle_alpha 29.944902
_cell_angle_beta 138.257346
_cell_angle_gamma 148.721562
_cell_volume 743.071034
_symmetry_space_group_name_H-M "P -1"
_symmetry_group_IT_number 2
_symmetry_cell_setting 'triclinic'
loop_
_space_group_symop_operation_xyz
x,y,z
-x,-y,-z
loop_
_atom_site_type_symbol
_atom_site_label
_atom_site_fract_x
_atom_site_fract_y
_atom_site_fract_z
Si Si1 0.714845 0.157923 0.685881
Si Si2 0.004975 0.672328 0.029060
Si Si3 0.298948 0.961228 0.809306
Si Si4 0.661017 0.340981 0.746423
Si Si5 0.124539 0.683689 0.559382
Si Si6 0.428290 0.217670 0.180497
Si Si7 0.290075 0.482748 0.576289
Si Si8 0.258636 0.093308 0.357422
O O1 0.590220 0.045315 0.795014
O O2 0.570543 0.274446 0.544097
O O3 0.087179 0.343367 0.673179
O O4 0.622472 0.982621 0.726518
O O5 0.756624 0.423043 0.115661
O O6 0.242371 0.734978 0.114484
O O7 0.839795 0.772588 0.928448
O O8 0.193045 0.762590 0.956782
O O9 0.373725 0.138895 0.760747
O O10 0.017307 0.897191 0.722311
O O11 0.564462 0.476507 0.651503
O O12 0.934528 0.473783 0.687741
O O13 0.479192 0.774660 0.598675
O O14 0.970451 0.635830 0.476597
O O15 0.119349 0.852609 0.480421
O O16 0.433961 0.205097 0.267306
#
# Coordination Sequence:
#
# PCOD8003232 Si02
#       8
#     2   2   2   2   2   2   2   2
#     4  11  23  39  62  88 130 165 188 248 323 361
#     4  10  23  40  67  86 114 164 214 256 286 348
#     4  11  22  39  62  91 122 162 204 250 297 358
#     4  12  21  40  66  95 117 157 213 248 296 361
#     4  11  19  35  66  91 119 154 204 254 297 353
#     4  10  20  43  62  87 123 159 204 255 303 353
#     4  11  22  39  62  92 129 160 192 252 309 368
#     4  10  20  36  64  92 117 158 208 252 294 355
#
# _framework density 21.532260999999998
#
# number of rings (size 3 to 8) (size 9 to 14) (size 15 to 20)
#    0.000    1.250    5.000    2.250    0.000    0.500 
#    0.000    6.250    0.000    0.000    0.000    0.000 
#    0.000    0.000    0.000    0.000    0.000    0.000 
#
# Total GULP energy -198352.925973 kJ/mol
# GULP energy per Si atom -12397.057873 kJ/mol
# Density = 2.148325 g / cm^3
# Si number density = 21.532261 Si / 1000 Ang^3
#
#
#
# Elastic Constant Matrix: (Units=GPa)
#
#
# Indices 1 2 3 4 5 6 
#
# 1 72.3605 20.4246 21.5012 -6.0502 -7.7862 9.9020
# 2 20.4246 79.7994 43.0343 0.8238 3.6888 10.2372
# 3 21.5012 43.0343 90.1404 -1.3670 -8.1356 6.7808
# 4 -6.0502 0.8238 -1.3670 50.3483 9.8753 1.0186
# 5 -7.7862 3.6888 -8.1356 9.8753 40.0706 -15.3640
# 6 9.9020 10.2372 6.7808 1.0186 -15.3640 20.3759
#
#
#
# Elastic Compliance Matrix: (Units=1/GPa)
#
#
# Indices 1 2 3 4 5 6 
#
# 1 0.016114 -0.002096 -0.002353 0.002027 0.000013 -0.006086
# 2 -0.002096 0.019978 -0.008874 0.001303 -0.009453 -0.013258
# 3 -0.002353 -0.008874 0.016041 -0.000884 0.005560 0.004500
# 4 0.002027 0.001303 -0.000884 0.021970 -0.008802 -0.009081
# 5 0.000013 -0.009453 0.005560 -0.008802 0.042770 0.035582
# 6 -0.006086 -0.013258 0.004500 -0.009081 0.035582 0.084483
#
#
# Mechanical properties :
#
#
# Convention : Reuss Voigt Hill
#
# Bulk Modulus (GPa) = 39.23523 45.80231 42.51877
# Shear Modulus (GPa) = 21.14180 32.64830 26.89505
#
# Velocity S-wave (km/s) = 3.13687 3.89813 3.53804
# Velocity P-wave (km/s) = 5.60189 6.44812 6.03984
#
# Compressibility (1/GPa) = 0.02548730
#
# Stress axis : x y z
#
# Youngs Moduli (GPa) = 62.05631 50.05577 62.33850
#
# Poissons Ratio (x) = 0.10492 0.14670
# Poissons Ratio (y) = 0.13008 0.55317
# Poissons Ratio (z) = 0.14604 0.44418
#
# Static dielectric constant tensor:
#      x y z
#    x 3.711740 0.141190 -0.124940 
#    y 0.141190 3.834530 -0.185770 
#    z -0.124940 -0.185770 4.027440 
# 
# 
# High freq. dielectric constant tensor:
#      x y z
#    x 1.820600 0.018110 -0.012930 
#    y 0.018110 1.841050 -0.020520 
#    z -0.012930 -0.020520 1.848000 
# 
# From -- ./inp_files/303241.got.cif
#   From: 2010.06.25/outbox.cif.g09.slc.cpg/sg2_152_cif.got.tgz:303241.got - 2010.06.27 13:26:56.
