data_PCOD8003001
_publ_section_title
;
Structure prediction by ZEFSAII (Michael W. Deem and Ramdas Pophale) SiO2 
 PCOD8003001
Probable space group: P -1
;
_chemical_formula_sum "Si O2"
_cell_formula_units_Z 16
_cell_length_a 11.150454
_cell_length_b 19.351338
_cell_length_c 16.069351
_cell_angle_alpha 156.509744
_cell_angle_beta 36.430607
_cell_angle_gamma 132.263075
_cell_volume 788.830473
_symmetry_space_group_name_H-M "P -1"
_symmetry_group_IT_number 2
_symmetry_cell_setting 'triclinic'
loop_
_space_group_symop_operation_xyz
x,y,z
-x,-y,-z
loop_
_atom_site_type_symbol
_atom_site_label
_atom_site_fract_x
_atom_site_fract_y
_atom_site_fract_z
Si Si1 0.392019 0.509675 0.659522
Si Si2 0.468714 0.353959 0.918388
Si Si3 0.871701 0.815378 0.129542
Si Si4 0.718362 0.859131 0.699983
Si Si5 0.127594 0.638233 0.508187
Si Si6 0.914376 0.095657 0.737952
Si Si7 0.098205 0.845877 0.586570
Si Si8 0.190299 0.564878 0.567534
O O1 0.500000 0.500000 0.500000
O O2 0.300875 0.337204 0.532940
O O3 0.564011 0.501518 0.625435
O O4 0.222388 0.700464 0.977495
O O5 0.354104 0.222092 0.789226
O O6 0.708812 0.246245 0.687261
O O7 0.500000 0.500000 0.000000
O O8 0.318537 0.451814 0.185150
O O9 0.899172 0.889827 0.288019
O O10 0.900935 0.947782 0.185776
O O11 0.065748 0.642405 0.807784
O O12 0.879926 0.822740 0.647405
O O13 0.795047 0.960255 0.693726
O O14 0.500000 0.000000 0.000000
O O15 0.139356 0.779690 0.585799
O O16 0.157045 0.701029 0.655716
O O17 0.899200 0.602333 0.592101
O O18 0.000000 0.000000 0.500000
#
# Coordination Sequence:
#
# PCOD8003001 Si02
#       8
#     2   2   2   2   2   2   2   2
#     4  12  21  40  72  92 127 186 216 264 349 381
#     4   9  19  35  59  87 119 164 205 254 318 393
#     4  10  20  38  61  84 128 164 210 261 327 385
#     4  11  23  41  68 101 130 172 228 270 323 409
#     4   9  20  36  58  91 124 154 211 266 308 377
#     4  11  26  44  63 100 135 170 228 283 322 391
#     4  10  20  36  61  88 126 164 204 258 331 371
#     4  10  20  37  59  93 121 161 216 262 307 404
#
# _framework density 20.283192
#
# number of rings (size 3 to 8) (size 9 to 14) (size 15 to 20)
#    0.000    1.750    2.500    1.875    3.500    3.000 
#    4.500    1.250    0.000    0.000    0.000    0.000 
#    0.000    0.000    0.000    0.000    0.000    0.000 
#
# Total GULP energy -198217.381561 kJ/mol
# GULP energy per Si atom -12388.586348 kJ/mol
# Density = 2.023703 g / cm^3
# Si number density = 20.283192 Si / 1000 Ang^3
#
#
#
# Elastic Constant Matrix: (Units=GPa)
#
#
# Indices 1 2 3 4 5 6 
#
# 1 123.4645 57.2395 46.1598 -3.8766 -2.3156 -2.4184
# 2 57.2395 113.0693 32.5435 9.9767 -0.6290 7.5435
# 3 46.1598 32.5435 97.0247 0.9766 -2.1917 2.5132
# 4 -3.8766 9.9767 0.9766 36.2988 -0.6982 -1.3426
# 5 -2.3156 -0.6290 -2.1917 -0.6982 34.4673 -7.1884
# 6 -2.4184 7.5435 2.5132 -1.3426 -7.1884 34.2159
#
#
#
# Elastic Compliance Matrix: (Units=1/GPa)
#
#
# Indices 1 2 3 4 5 6 
#
# 1 0.012369 -0.005528 -0.004108 0.003074 0.001104 0.002747
# 2 -0.005528 0.012671 -0.001512 -0.004180 -0.001042 -0.003456
# 3 -0.004108 -0.001512 0.012801 -0.000392 0.000326 -0.000844
# 4 0.003074 -0.004180 -0.000392 0.029156 0.001232 0.002571
# 5 0.001104 -0.001042 0.000326 0.001232 0.030520 0.006744
# 6 0.002747 -0.003456 -0.000844 0.002571 0.006744 0.031762
#
#
# Mechanical properties :
#
#
# Convention : Reuss Voigt Hill
#
# Bulk Modulus (GPa) = 64.32368 67.27159 65.79763
# Shear Modulus (GPa) = 31.89650 34.17077 33.03364
#
# Velocity S-wave (km/s) = 3.96985 4.10894 4.04000
# Velocity P-wave (km/s) = 7.26599 7.46655 7.36695
#
# Compressibility (1/GPa) = 0.01554637
#
# Stress axis : x y z
#
# Youngs Moduli (GPa) = 80.84771 78.91847 78.11702
#
# Poissons Ratio (x) = 0.43623 0.32088
# Poissons Ratio (y) = 0.44690 0.11813
# Poissons Ratio (z) = 0.33209 0.11935
#
# Static dielectric constant tensor:
#      x y z
#    x 3.675180 0.124660 -0.195300 
#    y 0.124660 3.648200 -0.203250 
#    z -0.195300 -0.203250 4.036040 
# 
# 
# High freq. dielectric constant tensor:
#      x y z
#    x 1.784500 0.004610 -0.014400 
#    y 0.004610 1.800840 0.003450 
#    z -0.014400 0.003450 1.786110 
# 
# From -- ./inp_files/570765.got.cif
#   From: 2010.06.25/outbox.cif.g09.slc.cpg/sg2_286_cif.got.tgz:570765.got - 2010.06.27 13:26:56.
