data_PCOD8003315
_publ_section_title
;
Structure prediction by ZEFSAII (Michael W. Deem and Ramdas Pophale) SiO2 
 PCOD8003315
Probable space group: P -1
;
_chemical_formula_sum "Si O2"
_cell_formula_units_Z 16
_cell_length_a 15.304926
_cell_length_b 16.364707
_cell_length_c 8.141438
_cell_angle_alpha 52.316445
_cell_angle_beta 143.805891
_cell_angle_gamma 142.710738
_cell_volume 726.815026
_symmetry_space_group_name_H-M "P -1"
_symmetry_group_IT_number 2
_symmetry_cell_setting 'triclinic'
loop_
_space_group_symop_operation_xyz
x,y,z
-x,-y,-z
loop_
_atom_site_type_symbol
_atom_site_label
_atom_site_fract_x
_atom_site_fract_y
_atom_site_fract_z
Si Si1 0.833446 0.032849 0.064352
Si Si2 0.743461 0.028443 0.390232
Si Si3 0.919807 0.813835 0.062244
Si Si4 0.794670 0.790726 0.380552
Si Si5 0.278514 0.417571 0.735314
Si Si6 0.593294 0.753709 0.435886
Si Si7 0.365066 0.886155 0.163237
Si Si8 0.778288 0.398524 0.738460
O O1 0.981008 0.102393 0.356956
O O2 0.749150 0.878063 0.106703
O O3 0.666402 0.041538 0.834262
O O4 0.941733 0.125791 0.956418
O O5 0.954596 0.088895 0.708382
O O6 0.654923 0.897808 0.301527
O O7 0.596642 0.979645 0.380060
O O8 0.741900 0.130433 0.150789
O O9 0.846975 0.667651 0.188186
O O10 0.724331 0.789263 0.754066
O O11 0.776299 0.681207 0.378076
O O12 0.648972 0.709874 0.415854
O O13 0.243827 0.521821 0.525512
O O14 0.500000 0.500000 0.000000
O O15 0.366688 0.643490 0.275034
O O16 0.275194 0.734763 0.262521
O O17 0.000000 0.500000 0.000000
#
# Coordination Sequence:
#
# PCOD8003315 Si02
#       8
#     2   2   2   2   2   2   2   2
#     4  10  21  39  63 102 123 159 210 269 336 372
#     4  10  20  36  66  95 127 163 206 267 329 378
#     4  11  23  37  64  93 131 164 206 272 322 370
#     4  10  22  38  67  92 130 159 209 274 319 378
#     4  12  26  45  62  93 130 174 218 258 310 380
#     4  10  21  39  64 100 123 159 216 267 320 379
#     4  10  21  40  63  92 131 165 216 259 313 395
#     4  11  23  42  67  88 127 181 217 246 309 388
#
# _framework density 22.013853000000001
#
# number of rings (size 3 to 8) (size 9 to 14) (size 15 to 20)
#    0.000    1.500    2.500    2.625    5.250    1.000 
#    2.250    0.625    0.000    0.000    0.000    0.000 
#    0.000    0.000    0.000    0.000    0.000    0.000 
#
# Total GULP energy -198297.771657 kJ/mol
# GULP energy per Si atom -12393.610729 kJ/mol
# Density = 2.196375 g / cm^3
# Si number density = 22.013853 Si / 1000 Ang^3
#
#
#
# Elastic Constant Matrix: (Units=GPa)
#
#
# Indices 1 2 3 4 5 6 
#
# 1 55.3295 20.8143 17.9504 -9.5575 12.6400 9.0570
# 2 20.8143 108.2727 45.1087 -25.7447 -0.7613 11.9816
# 3 17.9504 45.1087 103.2653 -7.5450 8.7924 6.3137
# 4 -9.5575 -25.7447 -7.5450 46.9220 4.7377 8.0962
# 5 12.6400 -0.7613 8.7924 4.7377 31.9882 -0.3355
# 6 9.0570 11.9816 6.3137 8.0962 -0.3355 36.5178
#
#
#
# Elastic Compliance Matrix: (Units=1/GPa)
#
#
# Indices 1 2 3 4 5 6 
#
# 1 0.023538 -0.001896 -0.001642 0.005557 -0.009783 -0.006254
# 2 -0.001896 0.013950 -0.005065 0.007144 0.001365 -0.004803
# 3 -0.001642 -0.005065 0.012345 -0.000870 -0.002735 0.000102
# 4 0.005557 0.007144 -0.000870 0.028560 -0.006121 -0.009960
# 5 -0.009783 0.001365 -0.002735 -0.006121 0.036862 0.004147
# 6 -0.006254 -0.004803 0.000102 -0.009960 0.004147 0.032739
#
#
# Mechanical properties :
#
#
# Convention : Reuss Voigt Hill
#
# Bulk Modulus (GPa) = 30.64935 48.29047 39.46991
# Shear Modulus (GPa) = 28.39676 35.28523 31.84099
#
# Velocity S-wave (km/s) = 3.59548 4.00792 3.80729
# Velocity P-wave (km/s) = 5.58477 6.58802 6.10703
#
# Compressibility (1/GPa) = 0.03262712
#
# Stress axis : x y z
#
# Youngs Moduli (GPa) = 42.48416 71.68242 81.00660
#
# Poissons Ratio (x) = 0.13594 0.13300
# Poissons Ratio (y) = 0.08057 0.41028
# Poissons Ratio (z) = 0.06975 0.36306
#
# Static dielectric constant tensor:
#      x y z
#    x 3.914490 0.236170 0.107250 
#    y 0.236170 4.379570 0.032880 
#    z 0.107250 0.032880 4.134910 
# 
# 
# High freq. dielectric constant tensor:
#      x y z
#    x 1.857840 0.026190 0.013250 
#    y 0.026190 1.860350 -0.014250 
#    z 0.013250 -0.014250 1.864010 
# 
# From -- ./inp_files/336693.got.cif
#   From: 2010.06.25/outbox.cif.g09.slc.cpg/sg2_169_cif.got.tgz:336693.got - 2010.06.27 13:26:56.
