data_PCOD8003868
_publ_section_title
;
Structure prediction by ZEFSAII (Michael W. Deem and Ramdas Pophale) SiO2 
 PCOD8003868
Probable space group: P -1
;
_chemical_formula_sum "Si O2"
_cell_formula_units_Z 16
_cell_length_a 19.683671
_cell_length_b 23.090824
_cell_length_c 13.125969
_cell_angle_alpha 143.222590
_cell_angle_beta 27.106326
_cell_angle_gamma 162.463968
_cell_volume 767.739316
_symmetry_space_group_name_H-M "P -1"
_symmetry_group_IT_number 2
_symmetry_cell_setting 'triclinic'
loop_
_space_group_symop_operation_xyz
x,y,z
-x,-y,-z
loop_
_atom_site_type_symbol
_atom_site_label
_atom_site_fract_x
_atom_site_fract_y
_atom_site_fract_z
Si Si1 0.463462 0.374651 0.109973
Si Si2 0.732287 0.905116 0.165823
Si Si3 0.577699 0.298474 0.505679
Si Si4 0.155886 0.575041 0.008197
Si Si5 0.800878 0.080690 0.620705
Si Si6 0.718313 0.664861 0.030330
Si Si7 0.358361 0.992593 0.041760
Si Si8 0.265085 0.441824 0.780201
O O1 0.722827 0.586467 0.001766
O O2 0.582606 0.423112 0.132866
O O3 0.148384 0.259649 0.365862
O O4 0.409331 0.238513 0.940186
O O5 0.463696 0.768005 0.417323
O O6 0.000000 0.000000 0.000000
O O7 0.910833 0.104938 0.170829
O O8 0.434591 0.322178 0.711457
O O9 0.946552 0.506685 0.279051
O O10 0.408828 0.134172 0.417141
O O11 0.503222 0.821591 0.899079
O O12 0.194594 0.484053 0.850467
O O13 0.000000 0.500000 0.000000
O O14 0.807342 0.110497 0.772296
O O15 0.646045 0.081818 0.768562
O O16 0.500000 0.500000 0.000000
O O17 0.065588 0.799550 0.086141
O O18 0.500000 0.500000 0.500000
#
# Coordination Sequence:
#
# PCOD8003868 Si02
#       8
#     2   2   2   2   2   2   2   2
#     4  12  23  40  64 100 140 173 219 284 341 385
#     4  10  20  37  61  98 131 172 224 285 323 394
#     4  11  20  38  68  99 130 170 228 284 319 388
#     4  12  25  44  71  98 130 185 235 264 329 419
#     4  11  19  39  69  95 132 176 223 278 324 394
#     4  11  20  36  66 101 130 170 230 272 334 397
#     4  11  23  42  64  96 134 179 228 262 329 415
#     4  12  28  44  64 101 147 175 213 290 349 385
#
# _framework density 20.840409000000001
#
# number of rings (size 3 to 8) (size 9 to 14) (size 15 to 20)
#    0.000    0.750    8.750    1.500    1.750    1.500 
#    0.000    0.625    0.000    1.500    0.000    0.000 
#    0.000    0.000    0.000    0.000    0.000    0.000 
#
# Total GULP energy -198370.991407 kJ/mol
# GULP energy per Si atom -12398.186963 kJ/mol
# Density = 2.079298 g / cm^3
# Si number density = 20.840409 Si / 1000 Ang^3
#
#
#
# Elastic Constant Matrix: (Units=GPa)
#
#
# Indices 1 2 3 4 5 6 
#
# 1 87.9250 42.6102 27.3925 0.5534 9.3002 2.6853
# 2 42.6102 150.5109 24.4894 -1.6722 7.7635 -4.2878
# 3 27.3925 24.4894 79.7811 -6.4871 10.2107 0.2862
# 4 0.5534 -1.6722 -6.4871 40.3825 -1.3293 7.2734
# 5 9.3002 7.7635 10.2107 -1.3293 24.6637 3.2611
# 6 2.6853 -4.2878 0.2862 7.2734 3.2611 38.1908
#
#
#
# Elastic Compliance Matrix: (Units=1/GPa)
#
#
# Indices 1 2 3 4 5 6 
#
# 1 0.014486 -0.003402 -0.003636 -0.000840 -0.002803 -0.000974
# 2 -0.003402 0.007873 -0.001144 -0.000060 -0.000886 0.001219
# 3 -0.003636 -0.001144 0.014867 0.002258 -0.004296 -0.000047
# 4 -0.000840 -0.000060 0.002258 0.026095 0.001477 -0.005060
# 5 -0.002803 -0.000886 -0.004296 0.001477 0.044259 -0.003931
# 6 -0.000974 0.001219 -0.000047 -0.005060 -0.003931 0.027689
#
#
# Mechanical properties :
#
#
# Convention : Reuss Voigt Hill
#
# Bulk Modulus (GPa) = 47.93284 56.35568 52.14426
# Shear Modulus (GPa) = 31.52810 35.56239 33.54524
#
# Velocity S-wave (km/s) = 3.89374 4.13536 4.01637
# Velocity P-wave (km/s) = 6.57760 7.06412 6.82520
#
# Compressibility (1/GPa) = 0.02086252
#
# Stress axis : x y z
#
# Youngs Moduli (GPa) = 69.03118 127.01397 67.26106
#
# Poissons Ratio (x) = 0.43211 0.24453
# Poissons Ratio (y) = 0.23485 0.07698
# Poissons Ratio (z) = 0.25097 0.14537
#
# Static dielectric constant tensor:
#      x y z
#    x 3.822550 -0.532960 0.385600 
#    y -0.532960 5.125160 -0.199330 
#    z 0.385600 -0.199330 4.012190 
# 
# 
# High freq. dielectric constant tensor:
#      x y z
#    x 1.779540 -0.002980 0.021820 
#    y -0.002980 1.838120 0.002760 
#    z 0.021820 0.002760 1.809330 
# 
# From -- ./inp_files/467130.got.cif
#   From: 2010.06.25/outbox.cif.g09.slc.cpg/sg2_234_cif.got.tgz:467130.got - 2010.06.27 13:26:56.
