data_PCOD8003289
_publ_section_title
;
Structure prediction by ZEFSAII (Michael W. Deem and Ramdas Pophale) SiO2 
 PCOD8003289
Probable space group: P -1
;
_chemical_formula_sum "Si O2"
_cell_formula_units_Z 16
_cell_length_a 8.680435
_cell_length_b 8.849388
_cell_length_c 16.499449
_cell_angle_alpha 41.813981
_cell_angle_beta 92.709174
_cell_angle_gamma 108.846179
_cell_volume 761.182467
_symmetry_space_group_name_H-M "P -1"
_symmetry_group_IT_number 2
_symmetry_cell_setting 'triclinic'
loop_
_space_group_symop_operation_xyz
x,y,z
-x,-y,-z
loop_
_atom_site_type_symbol
_atom_site_label
_atom_site_fract_x
_atom_site_fract_y
_atom_site_fract_z
Si Si1 0.598484 0.763571 0.855142
Si Si2 0.114951 0.946921 0.680923
Si Si3 0.426859 0.634574 0.250990
Si Si4 0.238127 0.483426 0.147449
Si Si5 0.355534 0.084542 0.483774
Si Si6 0.182328 0.727141 0.318808
Si Si7 0.316259 0.891029 0.852524
Si Si8 0.899582 0.233168 0.526742
O O1 0.678950 0.711475 0.795490
O O2 0.457315 0.874911 0.799985
O O3 0.755199 0.979419 0.826320
O O4 0.500000 0.500000 0.000000
O O5 0.172669 0.924745 0.782714
O O6 0.955188 0.681178 0.761144
O O7 0.274383 0.002512 0.603288
O O8 0.054064 0.169091 0.587421
O O9 0.349431 0.662553 0.150979
O O10 0.451906 0.382518 0.355374
O O11 0.295592 0.605619 0.330644
O O12 0.603677 0.875578 0.176252
O O13 0.234226 0.642761 0.005386
O O14 0.500000 0.000000 0.500000
O O15 0.198171 0.959964 0.468360
O O16 0.221053 0.771458 0.399357
O O17 0.986332 0.525024 0.379940
#
# Coordination Sequence:
#
# PCOD8003289 Si02
#       8
#     2   2   2   2   2   2   2   2
#     4   9  19  38  63  89 124 167 213 255 308 373
#     4  12  23  40  69  90 132 167 213 265 321 385
#     4  11  22  40  67  92 132 165 214 261 324 375
#     4  11  21  43  68  89 130 175 216 260 318 386
#     4  12  27  42  65  96 129 168 214 264 326 389
#     4  10  20  36  65  95 122 163 213 256 314 383
#     4  10  25  39  64 101 124 168 220 268 314 371
#     4  11  22  41  64  91 128 169 209 259 328 384
#
# _framework density 21.019926000000002
#
# number of rings (size 3 to 8) (size 9 to 14) (size 15 to 20)
#    0.000    1.250    3.750    1.875    5.250    2.500 
#    0.000    0.000    0.000    1.500    0.000    0.000 
#    0.000    0.000    0.000    0.000    0.000    0.000 
#
# Total GULP energy -198229.368880 kJ/mol
# GULP energy per Si atom -12389.335555 kJ/mol
# Density = 2.097208 g / cm^3
# Si number density = 21.019926 Si / 1000 Ang^3
#
#
#
# Elastic Constant Matrix: (Units=GPa)
#
#
# Indices 1 2 3 4 5 6 
#
# 1 84.9928 31.9608 39.5072 0.9831 0.1463 -6.3061
# 2 31.9608 112.1839 37.4653 -14.6671 11.8378 4.9416
# 3 39.5072 37.4653 93.0787 -7.5973 -0.1017 3.8445
# 4 0.9831 -14.6671 -7.5973 40.3112 4.7772 -3.8638
# 5 0.1463 11.8378 -0.1017 4.7772 29.4527 3.7188
# 6 -6.3061 4.9416 3.8445 -3.8638 3.7188 36.4717
#
#
#
# Elastic Compliance Matrix: (Units=1/GPa)
#
#
# Indices 1 2 3 4 5 6 
#
# 1 0.015956 -0.003193 -0.005828 -0.002457 0.001150 0.003428
# 2 -0.003193 0.012054 -0.003106 0.004445 -0.005456 -0.000831
# 3 -0.005828 -0.003106 0.014672 0.001412 0.001367 -0.002123
# 4 -0.002457 0.004445 0.001412 0.027764 -0.006581 0.002436
# 5 0.001150 -0.005456 0.001367 -0.006581 0.037685 -0.003746
# 6 0.003428 -0.000831 -0.002123 0.002436 -0.003746 0.028988
#
#
# Mechanical properties :
#
#
# Convention : Reuss Voigt Hill
#
# Bulk Modulus (GPa) = 54.26299 56.45802 55.36051
# Shear Modulus (GPa) = 29.84792 33.33525 31.59159
#
# Velocity S-wave (km/s) = 3.77235 3.98664 3.88098
# Velocity P-wave (km/s) = 6.69666 6.93604 6.81740
#
# Compressibility (1/GPa) = 0.01842877
#
# Stress axis : x y z
#
# Youngs Moduli (GPa) = 62.67071 82.95823 68.15757
#
# Poissons Ratio (x) = 0.26489 0.39725
# Poissons Ratio (y) = 0.20011 0.21166
# Poissons Ratio (z) = 0.36527 0.25763
#
# Static dielectric constant tensor:
#      x y z
#    x 3.790920 -0.130230 -0.301520 
#    y -0.130230 4.065990 -0.247120 
#    z -0.301520 -0.247120 3.800770 
# 
# 
# High freq. dielectric constant tensor:
#      x y z
#    x 1.805320 -0.010910 -0.031030 
#    y -0.010910 1.834330 -0.024390 
#    z -0.031030 -0.024390 1.819510 
# 
# From -- ./inp_files/494307.got.cif
#   From: 2010.06.25/outbox.cif.g09.slc.cpg/sg2_248_cif.got.tgz:494307.got - 2010.06.27 13:26:56.
