data_PCOD8003299
_publ_section_title
;
Structure prediction by ZEFSAII (Michael W. Deem and Ramdas Pophale) SiO2 
 PCOD8003299
Probable space group: P -1
;
_chemical_formula_sum "Si O2"
_cell_formula_units_Z 16
_cell_length_a 17.282333
_cell_length_b 9.166360
_cell_length_c 17.027559
_cell_angle_alpha 106.851236
_cell_angle_beta 157.163224
_cell_angle_gamma 86.955138
_cell_volume 818.854883
_symmetry_space_group_name_H-M "P -1"
_symmetry_group_IT_number 2
_symmetry_cell_setting 'triclinic'
loop_
_space_group_symop_operation_xyz
x,y,z
-x,-y,-z
loop_
_atom_site_type_symbol
_atom_site_label
_atom_site_fract_x
_atom_site_fract_y
_atom_site_fract_z
Si Si1 0.032244 0.237823 0.620708
Si Si2 0.247271 0.185711 0.234710
Si Si3 0.052753 0.369953 0.981623
Si Si4 0.235780 0.624739 0.686501
Si Si5 0.479091 0.450217 0.809849
Si Si6 0.472303 0.968293 0.561578
Si Si7 0.546384 0.335351 0.696518
Si Si8 0.317022 0.186981 0.756927
O O1 0.182515 0.270420 0.685881
O O2 0.825994 0.272547 0.418234
O O3 0.234631 0.378244 0.894895
O O4 0.889183 0.028809 0.486941
O O5 0.215298 0.328633 0.180468
O O6 0.381493 0.121281 0.292939
O O7 0.394316 0.285934 0.466915
O O8 0.000000 0.000000 0.000000
O O9 0.189383 0.476454 0.045872
O O10 0.000000 0.500000 0.000000
O O11 0.807433 0.175162 0.697040
O O12 0.298026 0.504640 0.674165
O O13 0.000000 0.500000 0.500000
O O14 0.467841 0.778612 0.979540
O O15 0.417523 0.372085 0.651574
O O16 0.436812 0.290057 0.803720
O O17 0.500000 0.000000 0.500000
O O18 0.573148 0.170260 0.724545
#
# Coordination Sequence:
#
# PCOD8003299 Si02
#       8
#     2   2   2   2   2   2   2   2
#     4  10  20  38  62  90 114 159 205 235 285 358
#     4  11  20  40  65  87 114 156 210 245 290 365
#     4  12  21  39  66  87 112 154 208 251 291 360
#     4  11  18  38  65  89 114 161 205 235 282 362
#     4  11  23  40  55  89 131 151 191 252 309 342
#     4  10  20  39  61  87 112 151 201 243 292 362
#     4  11  24  40  59  89 124 157 194 259 307 347
#     4  10  20  36  66  84 117 160 198 243 285 348
#
# _framework density 19.539480999999999
#
# number of rings (size 3 to 8) (size 9 to 14) (size 15 to 20)
#    0.000    1.250    7.500    1.500    0.000    1.000 
#    4.500    1.250    0.000    0.000    0.000    0.000 
#    0.000    0.000    0.000    0.000    0.000    0.000 
#
# Total GULP energy -198363.645708 kJ/mol
# GULP energy per Si atom -12397.727857 kJ/mol
# Density = 1.949501 g / cm^3
# Si number density = 19.539481 Si / 1000 Ang^3
#
#
#
# Elastic Constant Matrix: (Units=GPa)
#
#
# Indices 1 2 3 4 5 6 
#
# 1 94.6745 47.7877 33.8072 4.4451 10.3885 -12.9605
# 2 47.7877 119.0155 49.4928 -8.8533 4.3667 -9.3379
# 3 33.8072 49.4928 104.3780 3.1689 16.7515 -4.0117
# 4 4.4451 -8.8533 3.1689 45.7332 1.8805 9.7248
# 5 10.3885 4.3667 16.7515 1.8805 19.0971 0.3992
# 6 -12.9605 -9.3379 -4.0117 9.7248 0.3992 14.2965
#
#
#
# Elastic Compliance Matrix: (Units=1/GPa)
#
#
# Indices 1 2 3 4 5 6 
#
# 1 0.016681 -0.005199 -0.001104 -0.005545 -0.006692 0.015375
# 2 -0.005199 0.012680 -0.005085 0.003172 0.004079 -0.000129
# 3 -0.001104 -0.005085 0.014122 -0.001649 -0.010484 0.001055
# 4 -0.005545 0.003172 -0.001649 0.027835 0.001465 -0.022393
# 5 -0.006692 0.004079 -0.010484 0.001465 0.064315 -0.009136
# 6 0.015375 -0.000129 0.001055 -0.022393 -0.009136 0.099584
#
#
# Mechanical properties :
#
#
# Convention : Reuss Voigt Hill
#
# Bulk Modulus (GPa) = 48.29183 64.47149 56.38166
# Shear Modulus (GPa) = 18.87539 28.29073 23.58306
#
# Velocity S-wave (km/s) = 3.11145 3.80922 3.47788
# Velocity P-wave (km/s) = 6.13814 7.23975 6.71159
#
# Compressibility (1/GPa) = 0.02070744
#
# Stress axis : x y z
#
# Youngs Moduli (GPa) = 59.95005 78.86129 70.80957
#
# Poissons Ratio (x) = 0.41001 0.07818
# Poissons Ratio (y) = 0.31169 0.36004
# Poissons Ratio (z) = 0.06619 0.40099
#
# Static dielectric constant tensor:
#      x y z
#    x 3.160190 -0.544380 -0.444420 
#    y -0.544380 3.331650 -1.416790 
#    z -0.444420 -1.416790 0.956990 
# 
# 
# High freq. dielectric constant tensor:
#      x y z
#    x 1.725160 -0.005380 0.022610 
#    y -0.005380 1.776080 0.009400 
#    z 0.022610 0.009400 1.764560 
# 
# From -- ./inp_files/575556.got.cif
#   From: 2010.06.25/outbox.cif.g09.slc.cpg/sg2_288_cif.got.tgz:575556.got - 2010.06.27 13:26:56.
