data_PCOD8003765
_publ_section_title
;
Structure prediction by ZEFSAII (Michael W. Deem and Ramdas Pophale) SiO2 
 PCOD8003765
Probable space group: P -1
;
_chemical_formula_sum "Si O2"
_cell_formula_units_Z 16
_cell_length_a 17.507708
_cell_length_b 20.512880
_cell_length_c 9.431804
_cell_angle_alpha 150.100938
_cell_angle_beta 42.270150
_cell_angle_gamma 150.703333
_cell_volume 824.431629
_symmetry_space_group_name_H-M "P -1"
_symmetry_group_IT_number 2
_symmetry_cell_setting 'triclinic'
loop_
_space_group_symop_operation_xyz
x,y,z
-x,-y,-z
loop_
_atom_site_type_symbol
_atom_site_label
_atom_site_fract_x
_atom_site_fract_y
_atom_site_fract_z
Si Si1 0.499256 0.207481 0.844708
Si Si2 0.072137 0.670533 0.818879
Si Si3 0.708325 0.144863 0.376083
Si Si4 0.924429 0.780173 0.842097
Si Si5 0.773528 0.839309 0.947912
Si Si6 0.101469 0.209746 0.774353
Si Si7 0.005090 0.446883 0.735114
Si Si8 0.666792 0.577643 0.373573
O O1 0.577833 0.153386 0.547062
O O2 0.381276 0.058616 0.843667
O O3 0.395483 0.224453 0.922641
O O4 0.645100 0.403482 0.081348
O O5 0.226405 0.835614 0.832651
O O6 0.000000 0.500000 0.500000
O O7 0.101413 0.631152 0.858930
O O8 0.969631 0.719532 0.073669
O O9 0.836192 0.287179 0.589095
O O10 0.812243 0.802798 0.975271
O O11 0.897652 0.611729 0.504310
O O12 0.885679 0.746101 0.996182
O O13 0.102774 0.955316 0.887373
O O14 0.785639 0.728901 0.611346
O O15 0.271014 0.326316 0.686160
O O16 0.000000 0.000000 0.500000
O O17 0.000000 0.500000 0.000000
O O18 0.500000 0.500000 0.500000
#
# Coordination Sequence:
#
# PCOD8003765 Si02
#       8
#     2   2   2   2   2   2   2   2
#     4  10  20  37  61  85 122 165 211 242 316 378
#     4  10  20  37  61  88 121 154 212 260 302 361
#     4  10  20  38  64  86 118 166 205 260 308 372
#     4  11  22  38  64  89 131 156 207 268 320 363
#     4  10  21  39  57  92 127 162 199 261 315 374
#     4  12  22  38  65  96 126 163 214 260 311 372
#     4  11  23  37  63  93 120 156 209 267 321 364
#     4  10  22  36  61  88 123 164 207 249 299 386
#
# _framework density 19.407311
#
# number of rings (size 3 to 8) (size 9 to 14) (size 15 to 20)
#    0.000    1.500    5.000    1.500    5.250    0.000 
#    0.000    2.500    0.000    4.500    0.000    0.000 
#    0.000    0.000    0.000    0.000    0.000    0.000 
#
# Total GULP energy -198233.235951 kJ/mol
# GULP energy per Si atom -12389.577247 kJ/mol
# Density = 1.936314 g / cm^3
# Si number density = 19.407311 Si / 1000 Ang^3
#
#
#
# Elastic Constant Matrix: (Units=GPa)
#
#
# Indices 1 2 3 4 5 6 
#
# 1 83.0008 40.7091 37.1467 -6.6383 -7.7775 -11.1230
# 2 40.7091 116.3231 39.2515 -7.1757 -2.6169 -25.7225
# 3 37.1467 39.2515 96.2556 0.8849 -4.5346 -14.6464
# 4 -6.6383 -7.1757 0.8849 36.6199 -4.8594 -1.8709
# 5 -7.7775 -2.6169 -4.5346 -4.8594 33.5510 -8.4136
# 6 -11.1230 -25.7225 -14.6464 -1.8709 -8.4136 29.2147
#
#
#
# Elastic Compliance Matrix: (Units=1/GPa)
#
#
# Indices 1 2 3 4 5 6 
#
# 1 0.016738 -0.003534 -0.004496 0.003108 0.004041 0.002370
# 2 -0.003534 0.013069 -0.002342 0.002858 0.002799 0.009977
# 3 -0.004496 -0.002342 0.013663 -0.001262 0.001283 0.003365
# 4 0.003108 0.002858 -0.001262 0.029720 0.006816 0.006933
# 5 0.004041 0.002799 0.001283 0.006816 0.035995 0.015449
# 6 0.002370 0.009977 0.003365 0.006933 0.015449 0.050496
#
#
# Mechanical properties :
#
#
# Convention : Reuss Voigt Hill
#
# Bulk Modulus (GPa) = 44.00104 58.86601 51.43352
# Shear Modulus (GPa) = 26.59551 31.77527 29.18539
#
# Velocity S-wave (km/s) = 3.70589 4.05073 3.88214
# Velocity P-wave (km/s) = 6.40571 7.23018 6.83040
#
# Compressibility (1/GPa) = 0.02272674
#
# Stress axis : x y z
#
# Youngs Moduli (GPa) = 59.74265 76.51593 73.18977
#
# Poissons Ratio (x) = 0.27041 0.32907
# Poissons Ratio (y) = 0.21113 0.17140
# Poissons Ratio (z) = 0.26861 0.17919
#
# Static dielectric constant tensor:
#      x y z
#    x 3.516530 -0.288170 -0.287800 
#    y -0.288170 3.943130 0.241730 
#    z -0.287800 0.241730 4.122790 
# 
# 
# High freq. dielectric constant tensor:
#      x y z
#    x 1.730390 -0.017900 -0.028320 
#    y -0.017900 1.760160 0.001920 
#    z -0.028320 0.001920 1.763690 
# 
# From -- ./inp_files/338010.got.cif
#   From: 2010.06.25/outbox.cif.g09.slc.cpg/sg2_170_cif.got.tgz:338010.got - 2010.06.27 13:26:56.
