data_PCOD8003188
_publ_section_title
;
Structure prediction by ZEFSAII (Michael W. Deem and Ramdas Pophale) SiO2 
 PCOD8003188
Probable space group: P -1
;
_chemical_formula_sum "Si O2"
_cell_formula_units_Z 12
_cell_length_a 6.716812
_cell_length_b 11.385487
_cell_length_c 8.447313
_cell_angle_alpha 85.739301
_cell_angle_beta 56.787192
_cell_angle_gamma 66.499071
_cell_volume 486.817862
_symmetry_space_group_name_H-M "P -1"
_symmetry_group_IT_number 2
_symmetry_cell_setting 'triclinic'
loop_
_space_group_symop_operation_xyz
x,y,z
-x,-y,-z
loop_
_atom_site_type_symbol
_atom_site_label
_atom_site_fract_x
_atom_site_fract_y
_atom_site_fract_z
Si Si1 0.365731 0.373806 0.649195
Si Si2 0.529426 0.512323 0.801134
Si Si3 0.966612 0.604043 0.641591
Si Si4 0.044364 0.308028 0.029827
Si Si5 0.704597 0.823737 0.506430
Si Si6 0.213198 0.043220 0.832269
O O1 0.565621 0.382905 0.695015
O O2 0.103848 0.392306 0.860516
O O3 0.459028 0.238770 0.523604
O O4 0.270187 0.499784 0.560459
O O5 0.800262 0.527435 0.656172
O O6 0.500000 0.500000 0.000000
O O7 0.274531 0.639603 0.835221
O O8 0.941635 0.712859 0.511020
O O9 0.842641 0.676752 0.851523
O O10 0.205502 0.154914 0.942378
O O11 0.838908 0.895494 0.329997
O O12 0.499683 0.921752 0.712191
O O13 0.000000 0.000000 0.000000
#
# Coordination Sequence:
#
# PCOD8003188 Si02
#       6
#     2   2   2   2   2   2
#     4  10  20  37  59  96 136 163 206 265 316 389
#     4  11  18  33  63  96 126 171 210 245 323 392
#     4  11  20  36  63  95 131 166 205 265 325 378
#     4  10  20  36  63  93 127 166 217 260 312 386
#     4  10  23  40  65  95 129 169 213 272 322 369
#     4  10  22  45  67  86 127 174 220 268 317 381
#
# _framework density 24.649875999999999
#
# number of rings (size 3 to 8) (size 9 to 14) (size 15 to 20)
#    0.000    1.667    3.333    2.500    0.000    1.333 
#    0.000    2.500    0.000    0.000    0.000    0.000 
#    0.000    0.000    0.000    0.000    0.000    0.000 
#
# Total GULP energy -148682.222412 kJ/mol
# GULP energy per Si atom -12390.185201 kJ/mol
# Density = 2.459377 g / cm^3
# Si number density = 24.649876 Si / 1000 Ang^3
#
#
#
# Elastic Constant Matrix: (Units=GPa)
#
#
# Indices 1 2 3 4 5 6 
#
# 1 134.2412 48.8733 53.8802 5.4135 13.1699 3.0536
# 2 48.8733 128.3552 55.8378 2.7792 7.0797 -5.6068
# 3 53.8802 55.8378 128.1734 2.1493 2.9237 4.0418
# 4 5.4135 2.7792 2.1493 61.4827 8.8871 11.0736
# 5 13.1699 7.0797 2.9237 8.8871 52.6728 3.8085
# 6 3.0536 -5.6068 4.0418 11.0736 3.8085 26.2907
#
#
#
# Elastic Compliance Matrix: (Units=1/GPa)
#
#
# Indices 1 2 3 4 5 6 
#
# 1 0.009706 -0.002319 -0.002999 -0.000234 -0.001852 -0.000794
# 2 -0.002319 0.010478 -0.003670 -0.000653 -0.000764 0.003454
# 3 -0.002999 -0.003670 0.010712 0.000369 0.000756 -0.002346
# 4 -0.000234 -0.000653 0.000369 0.017977 -0.002372 -0.007397
# 5 -0.001852 -0.000764 0.000756 -0.002372 0.020052 -0.001970
# 6 -0.000794 0.003454 -0.002346 -0.007397 -0.001970 0.042627
#
#
# Mechanical properties :
#
#
# Convention : Reuss Voigt Hill
#
# Bulk Modulus (GPa) = 77.39842 78.66137 78.02990
# Shear Modulus (GPa) = 37.35977 43.56782 40.46379
#
# Velocity S-wave (km/s) = 3.89732 4.20868 4.05599
# Velocity P-wave (km/s) = 7.19162 7.45641 7.32521
#
# Compressibility (1/GPa) = 0.01292016
#
# Stress axis : x y z
#
# Youngs Moduli (GPa) = 103.02587 95.44180 93.35260
#
# Poissons Ratio (x) = 0.22130 0.27996
# Poissons Ratio (y) = 0.23888 0.34263
# Poissons Ratio (z) = 0.30897 0.35030
#
# Static dielectric constant tensor:
#      x y z
#    x 4.405480 0.345900 0.305360 
#    y 0.345900 4.589290 -0.021730 
#    z 0.305360 -0.021730 5.049460 
# 
# 
# High freq. dielectric constant tensor:
#      x y z
#    x 1.960760 0.014390 0.023400 
#    y 0.014390 1.968560 -0.001780 
#    z 0.023400 -0.001780 2.031790 
# 
# From -- ./inp_files/89414.got.cif
#   From: 2010.06.25/outbox.cif.g09.slc.cpg/sg2_45_cif.got.tgz:89414.got - 2010.06.27 13:26:56.
