data_PCOD8003404
_publ_section_title
;
Structure prediction by ZEFSAII (Michael W. Deem and Ramdas Pophale) SiO2 
 PCOD8003404
Probable space group: P -1
;
_chemical_formula_sum "Si O2"
_cell_formula_units_Z 16
_cell_length_a 10.374747
_cell_length_b 11.647701
_cell_length_c 8.752973
_cell_angle_alpha 121.380257
_cell_angle_beta 96.663315
_cell_angle_gamma 115.303851
_cell_volume 733.618731
_symmetry_space_group_name_H-M "P -1"
_symmetry_group_IT_number 2
_symmetry_cell_setting 'triclinic'
loop_
_space_group_symop_operation_xyz
x,y,z
-x,-y,-z
loop_
_atom_site_type_symbol
_atom_site_label
_atom_site_fract_x
_atom_site_fract_y
_atom_site_fract_z
Si Si1 0.064802 0.905700 0.739889
Si Si2 0.638453 0.489126 0.574431
Si Si3 0.385065 0.053151 0.995074
Si Si4 0.774380 0.614743 0.370634
Si Si5 0.608851 0.295862 0.964034
Si Si6 0.916403 0.792158 0.969042
Si Si7 0.572730 0.763589 0.410083
Si Si8 0.752755 0.085559 0.814232
O O1 0.230934 0.922856 0.780053
O O2 0.957122 0.775144 0.501723
O O3 0.961098 0.845265 0.836901
O O4 0.106497 0.087932 0.847471
O O5 0.500000 0.500000 0.500000
O O6 0.744824 0.518263 0.460985
O O7 0.558195 0.311615 0.522268
O O8 0.746356 0.617463 0.814642
O O9 0.488244 0.229688 0.047815
O O10 0.308448 0.045665 0.143029
O O11 0.500000 0.000000 0.000000
O O12 0.663977 0.677352 0.372753
O O13 0.745955 0.487907 0.145916
O O14 0.511945 0.279107 0.792125
O O15 0.682671 0.192653 0.880296
O O16 0.056213 0.788695 0.067189
O O17 0.690304 0.962558 0.575827
#
# Coordination Sequence:
#
# PCOD8003404 Si02
#       8
#     2   2   2   2   2   2   2   2
#     4   9  17  32  60  83 110 141 187 235 271 327
#     4   9  20  33  59  88 106 141 189 238 267 326
#     4   9  20  36  57  86 111 147 181 232 280 330
#     4  10  20  37  56  86 112 144 188 233 282 321
#     4  11  23  37  55  82 122 148 177 233 287 332
#     4   9  17  33  58  87 106 139 192 236 269 315
#     4  11  21  37  57  84 111 150 193 226 273 332
#     4  10  20  39  60  81 110 152 190 226 274 336
#
# _framework density 21.809694
#
# number of rings (size 3 to 8) (size 9 to 14) (size 15 to 20)
#    0.000    2.250    1.250    1.500    8.750    0.000 
#    0.000   15.000    0.000    0.000    0.000    0.000 
#    0.000    0.000    0.000    0.000    0.000    0.000 
#
# Total GULP energy -198212.858530 kJ/mol
# GULP energy per Si atom -12388.303658 kJ/mol
# Density = 2.176005 g / cm^3
# Si number density = 21.809694 Si / 1000 Ang^3
#
#
#
# Elastic Constant Matrix: (Units=GPa)
#
#
# Indices 1 2 3 4 5 6 
#
# 1 90.9419 31.9206 50.2294 9.7236 28.9263 -14.0308
# 2 31.9206 43.2550 38.2528 10.2259 10.1267 -15.6207
# 3 50.2294 38.2528 180.4929 34.0585 31.4525 -15.4261
# 4 9.7236 10.2259 34.0585 33.2522 0.8584 0.4767
# 5 28.9263 10.1267 31.4525 0.8584 40.2379 6.0546
# 6 -14.0308 -15.6207 -15.4261 0.4767 6.0546 19.1709
#
#
#
# Elastic Compliance Matrix: (Units=1/GPa)
#
#
# Indices 1 2 3 4 5 6 
#
# 1 0.020848 -0.004348 0.000520 -0.005109 -0.016835 0.017578
# 2 -0.004348 0.047667 -0.000534 -0.013048 -0.014199 0.040037
# 3 0.000520 -0.000534 0.010084 -0.010231 -0.009611 0.011349
# 4 -0.005109 -0.013048 -0.010231 0.046007 0.018421 -0.029565
# 5 -0.016835 -0.014199 -0.009611 0.018421 0.055094 -0.049483
# 6 0.017578 0.040037 0.011349 -0.029565 -0.049483 0.123145
#
#
# Mechanical properties :
#
#
# Convention : Reuss Voigt Hill
#
# Bulk Modulus (GPa) = 14.31119 61.72173 38.01646
# Shear Modulus (GPa) = 14.93155 31.48466 23.20810
#
# Velocity S-wave (km/s) = 2.61938 3.80361 3.26562
# Velocity P-wave (km/s) = 3.96539 6.90300 5.62920
#
# Compressibility (1/GPa) = 0.06987540
#
# Stress axis : x y z
#
# Youngs Moduli (GPa) = 47.96586 20.97894 99.16289
#
# Poissons Ratio (x) = 0.09121 -0.05153
# Poissons Ratio (y) = 0.20853 0.05297
# Poissons Ratio (z) = -0.02493 0.01121
#
# Static dielectric constant tensor:
#      x y z
#    x 3.796340 0.290410 0.375650 
#    y 0.290410 4.059370 0.114070 
#    z 0.375650 0.114070 4.091590 
# 
# 
# High freq. dielectric constant tensor:
#      x y z
#    x 1.835820 0.000660 0.030790 
#    y 0.000660 1.829780 0.009980 
#    z 0.030790 0.009980 1.865800 
# 
# From -- ./inp_files/217019.got.cif
#   From: 2010.06.25/outbox.cif.g09.slc.cpg/sg2_109_cif.got.tgz:217019.got - 2010.06.27 13:26:56.
