data_PCOD8003120
_publ_section_title
;
Structure prediction by ZEFSAII (Michael W. Deem and Ramdas Pophale) SiO2 
 PCOD8003120
Probable space group: P -1
;
_chemical_formula_sum "Si O2"
_cell_formula_units_Z 16
_cell_length_a 20.974845
_cell_length_b 8.979981
_cell_length_c 8.918885
_cell_angle_alpha 79.512308
_cell_angle_beta 128.055033
_cell_angle_gamma 58.572775
_cell_volume 747.535823
_symmetry_space_group_name_H-M "P -1"
_symmetry_group_IT_number 2
_symmetry_cell_setting 'triclinic'
loop_
_space_group_symop_operation_xyz
x,y,z
-x,-y,-z
loop_
_atom_site_type_symbol
_atom_site_label
_atom_site_fract_x
_atom_site_fract_y
_atom_site_fract_z
Si Si1 0.033711 0.049509 0.746111
Si Si2 0.995838 0.446516 0.670929
Si Si3 0.766104 0.501260 0.770940
Si Si4 0.278604 0.984025 0.694898
Si Si5 0.783471 0.240318 0.224155
Si Si6 0.634996 0.742936 0.834303
Si Si7 0.149743 0.305208 0.185596
Si Si8 0.473914 0.925495 0.112890
O O1 0.993235 0.269934 0.720297
O O2 0.888041 0.185948 0.480659
O O3 0.128952 0.946564 0.759222
O O4 0.124994 0.803631 0.034918
O O5 0.000000 0.500000 0.500000
O O6 0.854790 0.724923 0.487260
O O7 0.136516 0.291139 0.991012
O O8 0.762711 0.559225 0.932572
O O9 0.817613 0.570901 0.747557
O O10 0.617389 0.675116 0.457033
O O11 0.269470 0.019290 0.493660
O O12 0.273764 0.814974 0.757144
O O13 0.419725 0.846820 0.988128
O O14 0.642012 0.554044 0.924880
O O15 0.500000 0.000000 0.500000
O O16 0.642103 0.830566 0.981251
O O17 0.000000 0.500000 0.000000
O O18 0.500000 0.000000 0.000000
#
# Coordination Sequence:
#
# PCOD8003120 Si02
#       8
#     2   2   2   2   2   2   2   2
#     4  10  20  36  62  95 122 159 198 259 316 360
#     4  11  22  37  64  97 122 156 207 254 307 373
#     4  10  21  41  63  88 127 163 209 253 308 371
#     4  11  22  40  61  92 127 164 205 250 313 372
#     4  10  20  37  64  92 127 157 202 255 312 374
#     4   9  21  39  64  90 116 167 209 252 306 363
#     4  10  22  38  58  90 129 162 195 254 314 364
#     4  11  22  42  65  87 122 169 211 251 309 371
#
# _framework density 21.403658
#
# number of rings (size 3 to 8) (size 9 to 14) (size 15 to 20)
#    0.000    1.750    2.500    2.250    5.250    0.000 
#    2.250   11.875    0.000    0.000    0.000    0.000 
#    0.000    0.000    0.000    0.000    0.000    0.000 
#
# Total GULP energy -198239.302100 kJ/mol
# GULP energy per Si atom -12389.956381 kJ/mol
# Density = 2.135494 g / cm^3
# Si number density = 21.403658 Si / 1000 Ang^3
#
#
#
# Elastic Constant Matrix: (Units=GPa)
#
#
# Indices 1 2 3 4 5 6 
#
# 1 108.4083 30.0891 57.3830 5.0766 -16.8977 35.9324
# 2 30.0891 77.5890 53.3346 -2.3083 -10.8444 25.2984
# 3 57.3830 53.3346 131.6284 9.0284 -18.3975 22.9318
# 4 5.0766 -2.3083 9.0284 41.3238 7.3811 -6.6045
# 5 -16.8977 -10.8444 -18.3975 7.3811 35.6761 -0.2681
# 6 35.9324 25.2984 22.9318 -6.6045 -0.2681 46.2194
#
#
#
# Elastic Compliance Matrix: (Units=1/GPa)
#
#
# Indices 1 2 3 4 5 6 
#
# 1 0.016295 0.001342 -0.004401 -0.004023 0.006601 -0.011756
# 2 0.001342 0.020426 -0.006959 0.000561 0.003074 -0.008673
# 3 -0.004401 -0.006959 0.012922 -0.003167 0.003122 0.000385
# 4 -0.004023 0.000561 -0.003167 0.028399 -0.009181 0.008397
# 5 0.006601 0.003074 0.003122 -0.009181 0.035529 -0.009469
# 6 -0.011756 -0.008673 0.000385 0.008397 -0.009469 0.036476
#
#
# Mechanical properties :
#
#
# Convention : Reuss Voigt Hill
#
# Bulk Modulus (GPa) = 33.77621 66.58212 50.17917
# Shear Modulus (GPa) = 27.78496 36.43179 32.10838
#
# Velocity S-wave (km/s) = 3.60688 4.13016 3.87736
# Velocity P-wave (km/s) = 5.75856 7.34300 6.59851
#
# Compressibility (1/GPa) = 0.02960664
#
# Stress axis : x y z
#
# Youngs Moduli (GPa) = 61.36721 48.95711 77.38625
#
# Poissons Ratio (x) = -0.06570 0.34058
# Poissons Ratio (y) = -0.08235 0.53856
# Poissons Ratio (z) = 0.27008 0.34071
#
# Static dielectric constant tensor:
#      x y z
#    x 3.257240 0.608600 0.531220 
#    y 0.608600 3.521120 -0.752030 
#    z 0.531220 -0.752030 3.071490 
# 
# 
# High freq. dielectric constant tensor:
#      x y z
#    x 1.838740 0.008100 -0.020020 
#    y 0.008100 1.823270 0.004120 
#    z -0.020020 0.004120 1.846740 
# 
# From -- ./inp_files/185970.got.cif
#   From: 2010.06.25/outbox.cif.g09.slc.cpg/sg2_93_cif.got.tgz:185970.got - 2010.06.27 13:26:56.
