data_PCOD8003743
_publ_section_title
;
Structure prediction by ZEFSAII (Michael W. Deem and Ramdas Pophale) SiO2 
 PCOD8003743
Probable space group: P -1
;
_chemical_formula_sum "Si O2"
_cell_formula_units_Z 10
_cell_length_a 14.020621
_cell_length_b 5.126545
_cell_length_c 9.078685
_cell_angle_alpha 100.732430
_cell_angle_beta 107.731057
_cell_angle_gamma 58.916057
_cell_volume 531.969425
_symmetry_space_group_name_H-M "P -1"
_symmetry_group_IT_number 2
_symmetry_cell_setting 'triclinic'
loop_
_space_group_symop_operation_xyz
x,y,z
-x,-y,-z
loop_
_atom_site_type_symbol
_atom_site_label
_atom_site_fract_x
_atom_site_fract_y
_atom_site_fract_z
Si Si1 0.781197 0.740107 0.728212
Si Si2 0.332940 0.766839 0.053300
Si Si3 0.395556 0.195654 0.578541
Si Si4 0.122707 0.857649 0.116646
Si Si5 0.575905 0.278199 0.219126
O O1 0.723694 0.724588 0.547698
O O2 0.861551 0.404502 0.792474
O O3 0.681123 0.950976 0.821619
O O4 0.863855 0.887141 0.756116
O O5 0.444524 0.458617 0.123524
O O6 0.220929 0.725963 0.021160
O O7 0.340337 0.841398 0.894706
O O8 0.392566 0.511845 0.643250
O O9 0.500000 0.000000 0.500000
O O10 0.406393 0.016160 0.714785
O O11 0.000000 0.000000 0.000000
#
# Coordination Sequence:
#
# PCOD8003743 Si02
#       5
#     2   2   2   2   2
#     4  10  21  35  58  83 108 140 192 222 269 332
#     4   9  23  35  57  85 112 144 189 218 275 321
#     4  12  21  36  54  83 116 151 177 217 281 330
#     4  10  20  37  61  82 104 142 193 235 263 313
#     4  11  23  34  57  83 121 144 173 228 273 333
#
# _framework density 18.798074
#
# number of rings (size 3 to 8) (size 9 to 14) (size 15 to 20)
#    1.200    0.400    2.000    3.600    2.800    1.600 
#    0.000    0.000    0.000    7.200    0.000    0.000 
#    0.000    0.000    0.000    0.000    0.000    0.000 
#
# Total GULP energy -123972.794906 kJ/mol
# GULP energy per Si atom -12397.279491 kJ/mol
# Density = 1.875529 g / cm^3
# Si number density = 18.798074 Si / 1000 Ang^3
#
#
#
# Elastic Constant Matrix: (Units=GPa)
#
#
# Indices 1 2 3 4 5 6 
#
# 1 68.5414 15.2940 22.0488 -7.1623 15.0193 -6.0676
# 2 15.2940 69.9517 3.7550 -21.6609 -1.0141 10.3865
# 3 22.0488 3.7550 68.9281 -12.2119 1.2556 -13.1881
# 4 -7.1623 -21.6609 -12.2119 38.7308 1.2765 3.8327
# 5 15.0193 -1.0141 1.2556 1.2765 30.8850 -6.2046
# 6 -6.0676 10.3865 -13.1881 3.8327 -6.2046 23.3068
#
#
#
# Elastic Compliance Matrix: (Units=1/GPa)
#
#
# Indices 1 2 3 4 5 6 
#
# 1 0.019460 -0.004483 -0.005610 -0.000535 -0.009045 0.001570
# 2 -0.004483 0.020866 0.000059 0.012097 -0.000140 -0.012459
# 3 -0.005610 0.000059 0.018723 0.003840 0.003712 0.009464
# 4 -0.000535 0.012097 0.003840 0.034768 -0.002915 -0.009851
# 5 -0.009045 -0.000140 0.003712 -0.002915 0.038879 0.010637
# 6 0.001570 -0.012459 0.009464 -0.009851 0.010637 0.058673
#
#
# Mechanical properties :
#
#
# Convention : Reuss Voigt Hill
#
# Bulk Modulus (GPa) = 25.65380 32.17965 28.91672
# Shear Modulus (GPa) = 22.27856 29.67275 25.97565
#
# Velocity S-wave (km/s) = 3.44634 3.97734 3.72132
# Velocity P-wave (km/s) = 5.43259 6.18451 5.82070
#
# Compressibility (1/GPa) = 0.03898058
#
# Stress axis : x y z
#
# Youngs Moduli (GPa) = 51.38764 47.92376 53.41096
#
# Poissons Ratio (x) = 0.21486 0.29965
# Poissons Ratio (y) = 0.23039 -0.00317
# Poissons Ratio (z) = 0.28830 -0.00284
#
# Static dielectric constant tensor:
#      x y z
#    x 3.294760 0.174280 0.023180 
#    y 0.174280 3.347680 0.000690 
#    z 0.023180 0.000690 3.475450 
# 
# 
# High freq. dielectric constant tensor:
#      x y z
#    x 1.712960 0.020490 0.010860 
#    y 0.020490 1.727950 -0.006360 
#    z 0.010860 -0.006360 1.726230 
# 
# From -- ./inp_files/18792.got.cif
#   From: 2010.06.25/outbox.cif.g09.slc.cpg/sg2_10_cif.got.tgz:18792.got - 2010.06.27 13:26:56.
