data_PCOD8003377
_publ_section_title
;
Structure prediction by ZEFSAII (Michael W. Deem and Ramdas Pophale) SiO2 
 PCOD8003377
Probable space group: P -1
;
_chemical_formula_sum "Si O2"
_cell_formula_units_Z 16
_cell_length_a 8.522675
_cell_length_b 12.597548
_cell_length_c 12.468893
_cell_angle_alpha 75.694793
_cell_angle_beta 134.064292
_cell_angle_gamma 127.204620
_cell_volume 730.148570
_symmetry_space_group_name_H-M "P -1"
_symmetry_group_IT_number 2
_symmetry_cell_setting 'triclinic'
loop_
_space_group_symop_operation_xyz
x,y,z
-x,-y,-z
loop_
_atom_site_type_symbol
_atom_site_label
_atom_site_fract_x
_atom_site_fract_y
_atom_site_fract_z
Si Si1 0.020557 0.551143 0.713863
Si Si2 0.582490 0.678968 0.032727
Si Si3 0.362321 0.906810 0.199811
Si Si4 0.793284 0.561684 0.810047
Si Si5 0.793036 0.777722 0.872297
Si Si6 0.348667 0.804256 0.643525
Si Si7 0.086931 0.712988 0.321539
Si Si8 0.590809 0.279929 0.860962
O O1 0.152054 0.660930 0.652732
O O2 0.841528 0.574926 0.700425
O O3 0.838101 0.393153 0.620890
O O4 0.249300 0.556423 0.894302
O O5 0.595091 0.780216 0.103649
O O6 0.750769 0.626650 0.171414
O O7 0.696471 0.750719 0.955946
O O8 0.231956 0.829208 0.269638
O O9 0.519095 0.851104 0.235620
O O10 0.594514 0.071200 0.288752
O O11 0.129710 0.883949 0.012121
O O12 0.673861 0.640297 0.777280
O O13 0.571353 0.396322 0.772151
O O14 0.081503 0.639252 0.990434
O O15 0.645300 0.841107 0.740388
O O16 0.188612 0.791176 0.463990
#
# Coordination Sequence:
#
# PCOD8003377 Si02
#       8
#     2   2   2   2   2   2   2   2
#     4  10  20  37  55  84 112 143 184 229 278 319
#     4   9  20  32  59  88 104 141 188 234 263 322
#     4  10  20  39  59  81 109 149 187 224 271 330
#     4   9  17  32  57  84 109 138 184 233 271 318
#     4   9  20  36  57  86 111 143 183 230 275 325
#     4  11  23  37  55  82 118 147 179 226 281 329
#     4  11  21  37  57  82 111 148 188 226 269 325
#     4   9  17  31  57  86 107 137 187 234 268 312
#
# _framework density 21.913347000000002
#
# number of rings (size 3 to 8) (size 9 to 14) (size 15 to 20)
#    0.000    2.250    1.250    1.500    8.750    0.000 
#    0.000   15.000    0.000    0.000    0.000    0.000 
#    0.000    0.000    0.000    0.000    0.000    0.000 
#
# Total GULP energy -198222.506441 kJ/mol
# GULP energy per Si atom -12388.906653 kJ/mol
# Density = 2.186347 g / cm^3
# Si number density = 21.913347 Si / 1000 Ang^3
#
#
#
# Elastic Constant Matrix: (Units=GPa)
#
#
# Indices 1 2 3 4 5 6 
#
# 1 99.0456 13.0585 20.9162 -0.2748 -20.7213 -23.7427
# 2 13.0585 78.2461 6.9715 6.4524 -0.4303 -24.9979
# 3 20.9162 6.9715 53.9615 -5.8309 -8.3965 -9.3941
# 4 -0.2748 6.4524 -5.8309 20.1515 -4.7252 -9.1098
# 5 -20.7213 -0.4303 -8.3965 -4.7252 13.7163 8.1349
# 6 -23.7427 -24.9979 -9.3941 -9.1098 8.1349 33.9871
#
#
#
# Elastic Compliance Matrix: (Units=1/GPa)
#
#
# Indices 1 2 3 4 5 6 
#
# 1 0.017438 -0.000970 -0.000296 0.009938 0.024733 0.008130
# 2 -0.000970 0.017629 -0.001424 -0.002341 -0.010807 0.013854
# 3 -0.000296 -0.001424 0.023545 0.013188 0.015445 0.005092
# 4 0.009938 -0.002341 0.013188 0.071573 0.036167 0.019393
# 5 0.024733 -0.010807 0.015445 0.036167 0.137558 -0.009632
# 6 0.008130 0.013854 0.005092 0.019393 -0.009632 0.054203
#
#
# Mechanical properties :
#
#
# Convention : Reuss Voigt Hill
#
# Bulk Modulus (GPa) = 18.78605 34.79396 26.79000
# Shear Modulus (GPa) = 14.48983 26.25812 20.37397
#
# Velocity S-wave (km/s) = 2.57423 3.46536 3.05249
# Velocity P-wave (km/s) = 4.17457 5.65014 4.96745
#
# Compressibility (1/GPa) = 0.05323100
#
# Stress axis : x y z
#
# Youngs Moduli (GPa) = 57.34721 56.72595 42.47146
#
# Poissons Ratio (x) = 0.05502 0.01258
# Poissons Ratio (y) = 0.05562 0.06049
# Poissons Ratio (z) = 0.01698 0.08079
#
# Static dielectric constant tensor:
#      x y z
#    x 4.184880 -0.377300 0.007400 
#    y -0.377300 3.616940 0.027130 
#    z 0.007400 0.027130 3.905430 
# 
# 
# High freq. dielectric constant tensor:
#      x y z
#    x 1.863850 -0.025470 -0.020020 
#    y -0.025470 1.833110 0.002750 
#    z -0.020020 0.002750 1.836710 
# 
# From -- ./inp_files/181545.got.cif
#   From: 2010.06.25/outbox.cif.g09.slc.cpg/sg2_91_cif.got.tgz:181545.got - 2010.06.27 13:26:56.
