data_PCOD8003722
_publ_section_title
;
Structure prediction by ZEFSAII (Michael W. Deem and Ramdas Pophale) SiO2 
 PCOD8003722
Probable space group: P -1
;
_chemical_formula_sum "Si O2"
_cell_formula_units_Z 16
_cell_length_a 8.973239
_cell_length_b 9.163440
_cell_length_c 12.003238
_cell_angle_alpha 61.014206
_cell_angle_beta 109.838785
_cell_angle_gamma 102.748372
_cell_volume 810.210710
_symmetry_space_group_name_H-M "P -1"
_symmetry_group_IT_number 2
_symmetry_cell_setting 'triclinic'
loop_
_space_group_symop_operation_xyz
x,y,z
-x,-y,-z
loop_
_atom_site_type_symbol
_atom_site_label
_atom_site_fract_x
_atom_site_fract_y
_atom_site_fract_z
Si Si1 0.329323 0.262248 0.148274
Si Si2 0.683607 0.275306 0.140433
Si Si3 0.352619 0.939579 0.411015
Si Si4 0.264558 0.605213 0.119632
Si Si5 0.966105 0.507180 0.615623
Si Si6 0.094361 0.391454 0.893358
Si Si7 0.881764 0.143675 0.421964
Si Si8 0.623407 0.373923 0.619129
O O1 0.501628 0.276245 0.130675
O O2 0.314349 0.422967 0.163116
O O3 0.294240 0.097289 0.272899
O O4 0.188783 0.243212 0.025968
O O5 0.779202 0.451573 0.118694
O O6 0.765427 0.134768 0.287202
O O7 0.693044 0.252050 0.017085
O O8 0.214650 0.863037 0.484692
O O9 0.401846 0.801148 0.386899
O O10 0.500000 0.000000 0.500000
O O11 0.371428 0.660694 0.233831
O O12 0.074843 0.590141 0.096680
O O13 0.781931 0.477862 0.589922
O O14 0.000000 0.500000 0.500000
O O15 0.058351 0.368233 0.760445
O O16 0.012328 0.684159 0.618157
O O17 0.000000 0.000000 0.500000
O O18 0.500000 0.500000 0.500000
#
# Coordination Sequence:
#
# PCOD8003722 Si02
#       8
#     2   2   2   2   2   2   2   2
#     4  11  21  36  63  90 126 162 204 258 305 363
#     4  10  20  37  60  91 122 159 213 247 302 368
#     4  12  25  42  62  94 129 159 210 257 318 370
#     4  10  21  39  63  90 121 161 214 252 304 367
#     4  10  21  42  61  90 124 159 215 250 298 369
#     4   9  20  34  61  90 119 161 209 248 304 361
#     4  11  25  39  66  93 126 163 209 258 307 367
#     4  11  25  41  65  91 126 166 202 258 316 371
#
# _framework density 19.747948999999998
#
# number of rings (size 3 to 8) (size 9 to 14) (size 15 to 20)
#    0.000    1.500    2.500    3.750    8.750    1.000 
#    0.000    4.375    0.000    0.000    0.000    0.000 
#    0.000    0.000    0.000    0.000    0.000    0.000 
#
# Total GULP energy -198264.553831 kJ/mol
# GULP energy per Si atom -12391.534614 kJ/mol
# Density = 1.970300 g / cm^3
# Si number density = 19.747949 Si / 1000 Ang^3
#
#
#
# Elastic Constant Matrix: (Units=GPa)
#
#
# Indices 1 2 3 4 5 6 
#
# 1 102.0388 28.4987 73.2765 6.7317 12.4122 2.0327
# 2 28.4987 82.3268 59.1491 5.7715 9.0035 -9.0591
# 3 73.2765 59.1491 221.1080 6.8564 10.6173 -17.4932
# 4 6.7317 5.7715 6.8564 34.9688 -2.3653 -0.5088
# 5 12.4122 9.0035 10.6173 -2.3653 43.6686 -1.9013
# 6 2.0327 -9.0591 -17.4932 -0.5088 -1.9013 28.8541
#
#
#
# Elastic Compliance Matrix: (Units=1/GPa)
#
#
# Indices 1 2 3 4 5 6 
#
# 1 0.013932 -0.001781 -0.004294 -0.001801 -0.002836 -0.004362
# 2 -0.001781 0.015748 -0.003244 -0.001707 -0.001916 0.002946
# 3 -0.004294 -0.003244 0.007081 0.000048 0.000327 0.003599
# 4 -0.001801 -0.001707 0.000048 0.029387 0.002457 0.000300
# 5 -0.002836 -0.001916 0.000327 0.002457 0.024217 0.001436
# 6 -0.004362 0.002946 0.003599 0.000300 0.001436 0.038172
#
#
# Mechanical properties :
#
#
# Convention : Reuss Voigt Hill
#
# Bulk Modulus (GPa) = 55.18197 80.81358 67.99778
# Shear Modulus (GPa) = 32.63387 37.80158 35.21772
#
# Velocity S-wave (km/s) = 4.06953 4.37991 4.22757
# Velocity P-wave (km/s) = 7.07709 8.16024 7.63789
#
# Compressibility (1/GPa) = 0.01812186
#
# Stress axis : x y z
#
# Youngs Moduli (GPa) = 71.77804 63.50128 141.22187
#
# Poissons Ratio (x) = 0.11313 0.60635
# Poissons Ratio (y) = 0.12787 0.45816
# Poissons Ratio (z) = 0.30819 0.20602
#
# Static dielectric constant tensor:
#      x y z
#    x 3.519870 -0.198070 0.007270 
#    y -0.198070 2.364180 -0.566680 
#    z 0.007270 -0.566680 3.595260 
# 
# 
# High freq. dielectric constant tensor:
#      x y z
#    x 1.780800 0.009550 0.000700 
#    y 0.009550 1.728640 0.001810 
#    z 0.000700 0.001810 1.806740 
# 
# From -- ./inp_files/256459.got.cif
#   From: 2010.06.25/outbox.cif.g09.slc.cpg/sg2_129_cif.got.tgz:256459.got - 2010.06.27 13:26:56.
