data_PCOD8003353
_publ_section_title
;
Structure prediction by ZEFSAII (Michael W. Deem and Ramdas Pophale) SiO2 
 PCOD8003353
Probable space group: P -1
;
_chemical_formula_sum "Si O2"
_cell_formula_units_Z 16
_cell_length_a 11.355775
_cell_length_b 11.948322
_cell_length_c 14.337004
_cell_angle_alpha 117.339846
_cell_angle_beta 132.067475
_cell_angle_gamma 37.915423
_cell_volume 877.087195
_symmetry_space_group_name_H-M "P -1"
_symmetry_group_IT_number 2
_symmetry_cell_setting 'triclinic'
loop_
_space_group_symop_operation_xyz
x,y,z
-x,-y,-z
loop_
_atom_site_type_symbol
_atom_site_label
_atom_site_fract_x
_atom_site_fract_y
_atom_site_fract_z
Si Si1 0.569356 0.728325 0.924004
Si Si2 0.832996 0.735399 0.408448
Si Si3 0.345629 0.581307 0.205119
Si Si4 0.104187 0.302174 0.784525
Si Si5 0.653502 0.629375 0.401863
Si Si6 0.690258 0.098602 0.514585
Si Si7 0.607952 0.643232 0.711846
Si Si8 0.053803 0.079033 0.774225
O O1 0.654320 0.534026 0.913204
O O2 0.600206 0.742382 0.835133
O O3 0.300753 0.891913 0.873000
O O4 0.718334 0.739741 0.064894
O O5 0.791956 0.741603 0.279474
O O6 0.677409 0.721319 0.371236
O O7 0.101683 0.562476 0.506661
O O8 0.748484 0.918893 0.469238
O O9 0.520416 0.588828 0.268898
O O10 0.423864 0.480708 0.310759
O O11 0.086922 0.786397 0.159464
O O12 0.083648 0.166860 0.744178
O O13 0.854698 0.514694 0.741887
O O14 0.509911 0.768356 0.464669
O O15 0.601827 0.204362 0.409811
O O16 0.923016 0.036804 0.642501
#
# Coordination Sequence:
#
# PCOD8003353 Si02
#       8
#     2   2   2   2   2   2   2   2
#     4  10  20  37  53  82 114 146 178 221 272 328
#     4  11  23  35  58  80 109 153 178 227 269 320
#     4   8  20  35  57  79 109 145 178 225 274 317
#     4  11  21  36  54  83 115 144 186 215 273 327
#     4  10  21  40  55  80 113 140 190 224 269 323
#     4  11  21  37  58  85 113 137 183 225 280 326
#     4   9  20  34  58  82 111 145 168 228 278 322
#     4  10  21  32  57  85 109 146 175 226 275 328
#
# _framework density 18.242201000000001
#
# number of rings (size 3 to 8) (size 9 to 14) (size 15 to 20)
#    0.750    1.250    1.250    2.625    1.750    2.500 
#    0.000    0.625    0.000    3.000    0.000    0.000 
#    0.000    0.000    0.000    0.000    0.000    0.000 
#
# Total GULP energy -198349.248953 kJ/mol
# GULP energy per Si atom -12396.828060 kJ/mol
# Density = 1.820068 g / cm^3
# Si number density = 18.242201 Si / 1000 Ang^3
#
#
#
# Elastic Constant Matrix: (Units=GPa)
#
#
# Indices 1 2 3 4 5 6 
#
# 1 84.2382 35.5277 22.8422 8.4796 16.6668 -1.0142
# 2 35.5277 89.7671 21.0541 1.0851 9.5732 -4.3952
# 3 22.8422 21.0541 38.4259 -2.8863 11.1855 -2.9349
# 4 8.4796 1.0851 -2.8863 20.3614 -6.1099 1.6663
# 5 16.6668 9.5732 11.1855 -6.1099 18.8412 1.9213
# 6 -1.0142 -4.3952 -2.9349 1.6663 1.9213 16.9991
#
#
#
# Elastic Compliance Matrix: (Units=1/GPa)
#
#
# Indices 1 2 3 4 5 6 
#
# 1 0.020107 -0.004588 -0.005329 -0.014230 -0.017154 0.002427
# 2 -0.004588 0.014253 -0.004683 0.000073 -0.000652 0.002670
# 3 -0.005329 -0.004683 0.036616 0.002853 -0.014345 0.006135
# 4 -0.014230 0.000073 0.002853 0.066348 0.033456 -0.010623
# 5 -0.017154 -0.000652 -0.014345 0.033456 0.089688 -0.017085
# 6 0.002427 0.002670 0.006135 -0.010623 -0.017085 0.063693
#
#
# Mechanical properties :
#
#
# Convention : Reuss Voigt Hill
#
# Bulk Modulus (GPa) = 23.93675 41.25326 32.59500
# Shear Modulus (GPa) = 14.97765 20.10749 17.54257
#
# Velocity S-wave (km/s) = 2.86850 3.32362 3.10441
# Velocity P-wave (km/s) = 4.91133 6.11489 5.54586
#
# Compressibility (1/GPa) = 0.04177677
#
# Stress axis : x y z
#
# Youngs Moduli (GPa) = 49.73510 70.15851 27.31011
#
# Poissons Ratio (x) = 0.32186 0.14553
# Poissons Ratio (y) = 0.22817 0.12790
# Poissons Ratio (z) = 0.26503 0.32857
#
# Static dielectric constant tensor:
#      x y z
#    x 3.292320 -0.141820 0.116050 
#    y -0.141820 3.537210 0.063640 
#    z 0.116050 0.063640 3.063590 
# 
# 
# High freq. dielectric constant tensor:
#      x y z
#    x 1.692680 -0.015400 0.017360 
#    y -0.015400 1.723110 0.007020 
#    z 0.017360 0.007020 1.686500 
# 
# From -- ./inp_files/519859.got.cif
#   From: 2010.06.25/outbox.cif.g09.slc.cpg/sg2_260_cif.got.tgz:519859.got - 2010.06.27 13:26:56.
