data_PCOD8003844
_publ_section_title
;
Structure prediction by ZEFSAII (Michael W. Deem and Ramdas Pophale) SiO2 
 PCOD8003844
Probable space group: P -1
;
_chemical_formula_sum "Si O2"
_cell_formula_units_Z 16
_cell_length_a 8.472203
_cell_length_b 28.044018
_cell_length_c 13.751406
_cell_angle_alpha 21.734073
_cell_angle_beta 45.793456
_cell_angle_gamma 39.182652
_cell_volume 760.751298
_symmetry_space_group_name_H-M "P -1"
_symmetry_group_IT_number 2
_symmetry_cell_setting 'triclinic'
loop_
_space_group_symop_operation_xyz
x,y,z
-x,-y,-z
loop_
_atom_site_type_symbol
_atom_site_label
_atom_site_fract_x
_atom_site_fract_y
_atom_site_fract_z
Si Si1 0.100519 0.563098 0.501090
Si Si2 0.058448 0.687130 0.689422
Si Si3 0.433499 0.341000 0.517364
Si Si4 0.880119 0.474352 0.221247
Si Si5 0.250436 0.024103 0.612888
Si Si6 0.976547 0.885908 0.657337
Si Si7 0.337235 0.629392 0.106311
Si Si8 0.584234 0.774998 0.061399
O O1 0.162272 0.581617 0.551000
O O2 0.176349 0.665079 0.208504
O O3 0.246768 0.389249 0.741978
O O4 0.798287 0.635684 0.494076
O O5 0.322407 0.686296 0.597797
O O6 0.023184 0.661498 0.638642
O O7 0.838911 0.842411 0.525131
O O8 0.058915 0.550353 0.006650
O O9 0.334843 0.483187 0.355698
O O10 0.501407 0.216015 0.806802
O O11 0.613732 0.606550 0.049003
O O12 0.037434 0.064365 0.544123
O O13 0.500000 0.000000 0.500000
O O14 0.328346 0.870552 0.926948
O O15 0.739296 0.863964 0.824643
O O16 0.000000 0.000000 0.500000
O O17 0.226199 0.737056 0.858641
#
# Coordination Sequence:
#
# PCOD8003844 Si02
#       8
#     2   2   2   2   2   2   2   2
#     4  11  19  38  67  96 120 156 207 248 306 348
#     4  10  23  42  57  90 125 162 204 242 309 359
#     4  10  20  39  63  89 124 162 198 255 296 359
#     4  10  22  37  59  95 126 160 195 255 305 355
#     4  10  23  41  62  85 115 165 204 244 299 363
#     4  11  22  36  59  94 120 154 201 253 303 348
#     4  10  20  37  61  92 127 154 202 257 299 351
#     4  10  20  39  63  90 124 159 204 247 296 360
#
# _framework density 21.031839999999999
#
# number of rings (size 3 to 8) (size 9 to 14) (size 15 to 20)
#    0.000    1.750    2.500    2.625    5.250    1.000 
#    4.500    0.000    0.000    1.500    0.000    0.000 
#    0.000    0.000    0.000    0.000    0.000    0.000 
#
# Total GULP energy -198212.022483 kJ/mol
# GULP energy per Si atom -12388.251405 kJ/mol
# Density = 2.098397 g / cm^3
# Si number density = 21.031840 Si / 1000 Ang^3
#
#
#
# Elastic Constant Matrix: (Units=GPa)
#
#
# Indices 1 2 3 4 5 6 
#
# 1 101.2368 41.1845 46.6931 -2.5162 27.8274 1.6125
# 2 41.1845 105.5072 29.4860 -12.6852 7.8424 -0.1591
# 3 46.6931 29.4860 92.4171 -5.1850 26.8916 -0.1647
# 4 -2.5162 -12.6852 -5.1850 17.8634 4.5810 3.4131
# 5 27.8274 7.8424 26.8916 4.5810 43.0509 -3.6606
# 6 1.6125 -0.1591 -0.1647 3.4131 -3.6606 18.7580
#
#
#
# Elastic Compliance Matrix: (Units=1/GPa)
#
#
# Indices 1 2 3 4 5 6 
#
# 1 0.015631 -0.004325 -0.004571 0.000044 -0.006698 -0.002736
# 2 -0.004325 0.012492 -0.001528 0.007835 0.000568 -0.000850
# 3 -0.004571 -0.001528 0.016104 0.005245 -0.007547 -0.001906
# 4 0.000044 0.007835 0.005245 0.069402 -0.013404 -0.015135
# 5 -0.006698 0.000568 -0.007547 -0.013404 0.034417 0.009670
# 6 -0.002736 -0.000850 -0.001906 -0.015135 0.009670 0.058163
#
#
# Mechanical properties :
#
#
# Convention : Reuss Voigt Hill
#
# Bulk Modulus (GPa) = 42.77244 59.32090 51.04667
# Shear Modulus (GPa) = 21.29021 28.05431 24.67226
#
# Velocity S-wave (km/s) = 3.18509 3.65622 3.42876
# Velocity P-wave (km/s) = 5.82302 6.78899 6.32448
#
# Compressibility (1/GPa) = 0.02337954
#
# Stress axis : x y z
#
# Youngs Moduli (GPa) = 63.97349 80.05304 62.09536
#
# Poissons Ratio (x) = 0.34625 0.28385
# Poissons Ratio (y) = 0.27670 0.09486
# Poissons Ratio (z) = 0.29243 0.12229
#
# Static dielectric constant tensor:
#      x y z
#    x 3.986470 -0.053590 0.209710 
#    y -0.053590 3.731480 0.148480 
#    z 0.209710 0.148480 3.550460 
# 
# 
# High freq. dielectric constant tensor:
#      x y z
#    x 1.823080 -0.001720 0.013440 
#    y -0.001720 1.806800 0.014920 
#    z 0.013440 0.014920 1.813380 
# 
# From -- ./inp_files/392799.got.cif
#   From: 2010.06.25/outbox.cif.g09.slc.cpg/sg2_197_cif.got.tgz:392799.got - 2010.06.27 13:26:56.
