data_PCOD8003370
_publ_section_title
;
Structure prediction by ZEFSAII (Michael W. Deem and Ramdas Pophale) SiO2 
 PCOD8003370
Probable space group: P -1
;
_chemical_formula_sum "Si O2"
_cell_formula_units_Z 16
_cell_length_a 5.161987
_cell_length_b 18.563892
_cell_length_c 13.746731
_cell_angle_alpha 126.008951
_cell_angle_beta 64.633937
_cell_angle_gamma 103.383575
_cell_volume 962.488756
_symmetry_space_group_name_H-M "P -1"
_symmetry_group_IT_number 2
_symmetry_cell_setting 'triclinic'
loop_
_space_group_symop_operation_xyz
x,y,z
-x,-y,-z
loop_
_atom_site_type_symbol
_atom_site_label
_atom_site_fract_x
_atom_site_fract_y
_atom_site_fract_z
Si Si1 0.906247 0.994229 0.353618
Si Si2 0.174284 0.532712 0.588363
Si Si3 0.066418 0.708576 0.653277
Si Si4 0.888131 0.057754 0.924035
Si Si5 0.683135 0.904339 0.502440
Si Si6 0.986080 0.380012 0.601813
Si Si7 0.539738 0.714427 0.437503
Si Si8 0.252706 0.117388 0.085139
O O1 0.613936 0.041013 0.402480
O O2 0.126451 0.068392 0.413673
O O3 0.854917 0.923552 0.391343
O O4 0.034702 0.938995 0.199071
O O5 0.500000 0.500000 0.500000
O O6 0.140351 0.640510 0.677058
O O7 0.033030 0.487203 0.671310
O O8 0.000000 0.500000 0.500000
O O9 0.366370 0.743751 0.587258
O O10 0.902292 0.660371 0.552361
O O11 0.862229 0.786976 0.786784
O O12 0.857273 0.955504 0.879470
O O13 0.596665 0.115975 0.031311
O O14 0.139519 0.099584 0.980486
O O15 0.622261 0.800240 0.431131
O O16 0.170138 0.340140 0.628668
O O17 0.655876 0.351826 0.648136
#
# Coordination Sequence:
#
# PCOD8003370 Si02
#       8
#     2   2   2   2   2   2   2   2
#     4  10  20  35  48  65  91 119 150 200 241 264
#     4  10  16  29  42  64  95 127 146 176 231 275
#     4   9  20  27  48  64  95 125 154 183 216 281
#     4  10  21  34  45  63  95 120 154 201 221 262
#     4  10  20  31  51  70  85 117 159 187 236 292
#     4   9  18  28  42  67  94 127 137 187 227 271
#     4  10  18  27  44  67  92 116 149 184 218 280
#     4  10  21  31  46  67  87 126 162 182 224 262
#
# _framework density 16.623570999999998
#
# number of rings (size 3 to 8) (size 9 to 14) (size 15 to 20)
#    0.750    1.500    1.250    2.250    3.500    1.000 
#    0.000    0.000    0.000    0.000    0.000    0.000 
#    0.000    6.000    0.000    0.000    0.000    0.000 
#
# Total GULP energy -198278.410127 kJ/mol
# GULP energy per Si atom -12392.400633 kJ/mol
# Density = 1.658574 g / cm^3
# Si number density = 16.623571 Si / 1000 Ang^3
#
#
#
# Elastic Constant Matrix: (Units=GPa)
#
#
# Indices 1 2 3 4 5 6 
#
# 1 100.5763 26.8701 12.1033 -0.6801 -3.5599 -1.4441
# 2 26.8701 98.1463 10.5426 3.9730 -7.4692 -2.6934
# 3 12.1033 10.5426 41.2429 -0.4806 -0.2263 -9.5434
# 4 -0.6801 3.9730 -0.4806 18.8802 -6.3255 -5.2831
# 5 -3.5599 -7.4692 -0.2263 -6.3255 13.4236 2.4194
# 6 -1.4441 -2.6934 -9.5434 -5.2831 2.4194 24.7124
#
#
#
# Elastic Compliance Matrix: (Units=1/GPa)
#
#
# Indices 1 2 3 4 5 6 
#
# 1 0.011051 -0.002646 -0.002671 0.001465 0.002208 -0.000577
# 2 -0.002646 0.011590 -0.002283 -0.000937 0.005357 -0.000498
# 3 -0.002671 -0.002283 0.028308 0.003711 -0.001825 0.011499
# 4 0.001465 -0.000937 0.003711 0.066616 0.029010 0.012818
# 5 0.002208 0.005357 -0.001825 0.029010 0.092210 -0.002818
# 6 -0.000577 -0.000498 0.011499 0.012818 -0.002818 0.047834
#
#
# Mechanical properties :
#
#
# Convention : Reuss Voigt Hill
#
# Bulk Modulus (GPa) = 27.97225 37.66639 32.81932
# Shear Modulus (GPa) = 17.56078 24.09986 20.83032
#
# Velocity S-wave (km/s) = 3.25372 3.81168 3.54370
# Velocity P-wave (km/s) = 5.56588 6.48687 6.04394
#
# Compressibility (1/GPa) = 0.03574971
#
# Stress axis : x y z
#
# Youngs Moduli (GPa) = 90.49193 86.27837 35.32559
#
# Poissons Ratio (x) = 0.22826 0.09436
# Poissons Ratio (y) = 0.23941 0.08065
# Poissons Ratio (z) = 0.24171 0.19698
#
# Static dielectric constant tensor:
#      x y z
#    x 3.298210 -0.022150 -0.003070 
#    y -0.022150 3.430810 -0.012710 
#    z -0.003070 -0.012710 2.583520 
# 
# 
# High freq. dielectric constant tensor:
#      x y z
#    x 1.663590 -0.004210 -0.002420 
#    y -0.004210 1.645580 -0.002010 
#    z -0.002420 -0.002010 1.571310 
# 
# From -- ./inp_files/368704.got.cif
#   From: 2010.06.25/outbox.cif.g09.slc.cpg/sg2_185_cif.got.tgz:368704.got - 2010.06.27 13:26:56.
