data_PCOD8003381
_publ_section_title
;
Structure prediction by ZEFSAII (Michael W. Deem and Ramdas Pophale) SiO2 
 PCOD8003381
Probable space group: P -1
;
_chemical_formula_sum "Si O2"
_cell_formula_units_Z 16
_cell_length_a 24.891906
_cell_length_b 8.761684
_cell_length_c 14.588750
_cell_angle_alpha 145.248063
_cell_angle_beta 151.218665
_cell_angle_gamma 51.365919
_cell_volume 818.316993
_symmetry_space_group_name_H-M "P -1"
_symmetry_group_IT_number 2
_symmetry_cell_setting 'triclinic'
loop_
_space_group_symop_operation_xyz
x,y,z
-x,-y,-z
loop_
_atom_site_type_symbol
_atom_site_label
_atom_site_fract_x
_atom_site_fract_y
_atom_site_fract_z
Si Si1 0.844988 0.578903 0.860883
Si Si2 0.246086 0.929936 0.983273
Si Si3 0.152061 0.334743 0.452546
Si Si4 0.388414 0.220528 0.695888
Si Si5 0.520853 0.631439 0.499024
Si Si6 0.616314 0.083265 0.649523
Si Si7 0.594687 0.163905 0.298415
Si Si8 0.993904 0.739469 0.984910
O O1 0.730327 0.291573 0.528572
O O2 0.900888 0.700929 0.907934
O O3 0.934687 0.479099 0.007086
O O4 0.818525 0.834280 0.001449
O O5 0.169100 0.631573 0.675721
O O6 0.267214 0.863447 0.088592
O O7 0.374296 0.056094 0.185867
O O8 0.275218 0.298401 0.593306
O O9 0.076293 0.340301 0.253383
O O10 0.080556 0.069436 0.279421
O O11 0.377404 0.121759 0.525253
O O12 0.411397 0.002963 0.697115
O O13 0.500000 0.500000 0.000000
O O14 0.500000 0.500000 0.500000
O O15 0.392705 0.637840 0.277097
O O16 0.562447 0.445265 0.399261
O O17 0.500000 0.000000 0.500000
O O18 0.500000 0.000000 0.000000
#
# Coordination Sequence:
#
# PCOD8003381 Si02
#       8
#     2   2   2   2   2   2   2   2
#     4  10  22  46  63  92 126 170 209 263 321 366
#     4  10  23  38  63  88 129 159 214 265 311 377
#     4  11  24  42  64 100 119 167 218 260 320 375
#     4  12  24  38  64  94 131 167 210 259 318 384
#     4  10  20  37  55  86 128 170 204 249 313 375
#     4  10  21  38  58  86 126 173 199 255 310 382
#     4  11  25  37  63  97 129 166 209 259 315 388
#     4  10  23  43  71  85 128 167 216 267 307 380
#
# _framework density 19.552325
#
# number of rings (size 3 to 8) (size 9 to 14) (size 15 to 20)
#    0.000    1.500    2.500    2.250    8.750    1.000 
#    0.000    1.250    0.000    0.000    0.000    0.000 
#    0.000    0.000    0.000    0.000    0.000    0.000 
#
# Total GULP energy -198242.963764 kJ/mol
# GULP energy per Si atom -12390.185235 kJ/mol
# Density = 1.950782 g / cm^3
# Si number density = 19.552325 Si / 1000 Ang^3
#
#
#
# Elastic Constant Matrix: (Units=GPa)
#
#
# Indices 1 2 3 4 5 6 
#
# 1 96.6978 33.3921 61.0555 4.6940 2.4222 14.1462
# 2 33.3921 106.5360 40.1775 6.2373 0.2428 4.4408
# 3 61.0555 40.1775 130.6346 12.1069 0.1418 3.1977
# 4 4.6940 6.2373 12.1069 27.3923 -0.0837 1.1484
# 5 2.4222 0.2428 0.1418 -0.0837 33.1513 2.9050
# 6 14.1462 4.4408 3.1977 1.1484 2.9050 33.6333
#
#
#
# Elastic Compliance Matrix: (Units=1/GPa)
#
#
# Indices 1 2 3 4 5 6 
#
# 1 0.016299 -0.002339 -0.006848 0.001010 -0.000627 -0.005876
# 2 -0.002339 0.011020 -0.002185 -0.001132 0.000117 -0.000235
# 3 -0.006848 -0.002185 0.011812 -0.003639 0.000268 0.002147
# 4 0.001010 -0.001132 -0.003639 0.038252 0.000156 -0.001249
# 5 -0.000627 0.000117 0.000268 0.000156 0.030420 -0.002410
# 6 -0.005876 -0.000235 0.002147 -0.001249 -0.002410 0.032282
#
#
# Mechanical properties :
#
#
# Convention : Reuss Voigt Hill
#
# Bulk Modulus (GPa) = 61.02576 67.01319 64.01948
# Shear Modulus (GPa) = 29.71050 32.11827 30.91438
#
# Velocity S-wave (km/s) = 3.90235 4.05740 3.98063
# Velocity P-wave (km/s) = 7.18218 7.50321 7.34445
#
# Compressibility (1/GPa) = 0.01638652
#
# Stress axis : x y z
#
# Youngs Moduli (GPa) = 61.35323 90.74715 84.66102
#
# Poissons Ratio (x) = 0.21227 0.57972
# Poissons Ratio (y) = 0.14351 0.18501
# Poissons Ratio (z) = 0.42012 0.19831
#
# Static dielectric constant tensor:
#      x y z
#    x 3.532820 0.107750 0.118220 
#    y 0.107750 3.802550 -0.053930 
#    z 0.118220 -0.053930 3.669470 
# 
# 
# High freq. dielectric constant tensor:
#      x y z
#    x 1.764600 0.005220 0.004270 
#    y 0.005220 1.789840 0.000170 
#    z 0.004270 0.000170 1.744980 
# 
# From -- ./inp_files/178714.got.cif
#   From: 2010.06.25/outbox.cif.g09.slc.cpg/sg2_90_cif.got.tgz:178714.got - 2010.06.27 13:26:56.
