data_PCOD8003834
_publ_section_title
;
Structure prediction by ZEFSAII (Michael W. Deem and Ramdas Pophale) SiO2 
 PCOD8003834
Probable space group: P -1
;
_chemical_formula_sum "Si O2"
_cell_formula_units_Z 16
_cell_length_a 17.188263
_cell_length_b 20.861168
_cell_length_c 8.314196
_cell_angle_alpha 149.729019
_cell_angle_beta 139.037224
_cell_angle_gamma 29.552226
_cell_volume 741.114222
_symmetry_space_group_name_H-M "P -1"
_symmetry_group_IT_number 2
_symmetry_cell_setting 'triclinic'
loop_
_space_group_symop_operation_xyz
x,y,z
-x,-y,-z
loop_
_atom_site_type_symbol
_atom_site_label
_atom_site_fract_x
_atom_site_fract_y
_atom_site_fract_z
Si Si1 0.845363 0.649839 0.408199
Si Si2 0.899308 0.700690 0.277130
Si Si3 0.358815 0.452091 0.144216
Si Si4 0.023512 0.080681 0.070554
Si Si5 0.567500 0.624838 0.270118
Si Si6 0.197841 0.321026 0.243743
Si Si7 0.728340 0.257291 0.785566
Si Si8 0.313592 0.761827 0.685306
O O1 0.795321 0.767609 0.426766
O O2 0.782249 0.753554 0.705129
O O3 0.035628 0.515726 0.420647
O O4 0.780683 0.551954 0.069748
O O5 0.004667 0.753483 0.559354
O O6 0.803053 0.775386 0.118728
O O7 0.000000 0.500000 0.000000
O O8 0.291569 0.641095 0.480863
O O9 0.503663 0.320771 0.207030
O O10 0.438884 0.396783 0.975161
O O11 0.903277 0.126360 0.843265
O O12 0.203268 0.942929 0.991257
O O13 0.000000 0.000000 0.000000
O O14 0.654783 0.693720 0.595744
O O15 0.387797 0.760410 0.345293
O O16 0.660020 0.446593 0.118379
O O17 0.744854 0.208741 0.522450
#
# Coordination Sequence:
#
# PCOD8003834 Si02
#       8
#     2   2   2   2   2   2   2   2
#     4   9  18  34  62  90 124 155 209 264 301 379
#     4  10  22  39  62  93 121 165 212 258 311 385
#     4   9  19  37  63  95 123 167 210 260 321 376
#     4  12  26  42  60  93 134 163 209 269 320 376
#     4   9  18  35  63  92 128 155 221 259 308 380
#     4   9  18  34  57  95 119 161 204 262 311 362
#     4  10  20  37  61  91 123 173 203 264 315 382
#     4  10  22  38  61  92 128 166 211 261 320 381
#
# _framework density 21.589116000000001
#
# number of rings (size 3 to 8) (size 9 to 14) (size 15 to 20)
#    0.000    2.250    0.000    2.625    5.250    2.000 
#    2.250    0.625    0.000    2.250    0.000    0.000 
#    0.000    0.000    0.000    0.000    0.000    0.000 
#
# Total GULP energy -198288.065728 kJ/mol
# GULP energy per Si atom -12393.004108 kJ/mol
# Density = 2.153998 g / cm^3
# Si number density = 21.589116 Si / 1000 Ang^3
#
#
#
# Elastic Constant Matrix: (Units=GPa)
#
#
# Indices 1 2 3 4 5 6 
#
# 1 114.0850 28.4715 47.2327 -13.9688 5.1338 16.3516
# 2 28.4715 85.0370 46.0576 -21.6902 -3.4428 6.4240
# 3 47.2327 46.0576 89.6633 -20.5959 5.4656 5.7758
# 4 -13.9688 -21.6902 -20.5959 34.9127 0.9322 -6.6555
# 5 5.1338 -3.4428 5.4656 0.9322 31.6281 -9.9991
# 6 16.3516 6.4240 5.7758 -6.6555 -9.9991 35.1579
#
#
#
# Elastic Compliance Matrix: (Units=1/GPa)
#
#
# Indices 1 2 3 4 5 6 
#
# 1 0.012127 -0.000776 -0.005420 0.000224 -0.002820 -0.005367
# 2 -0.000776 0.017801 -0.007518 0.006317 0.003330 0.000486
# 3 -0.005420 -0.007518 0.019080 0.004642 -0.003136 0.000747
# 4 0.000224 0.006317 0.004642 0.036331 0.000345 0.004954
# 5 -0.002820 0.003330 -0.003136 0.000345 0.036673 0.011713
# 6 -0.005367 0.000486 0.000747 0.004954 0.011713 0.034997
#
#
# Mechanical properties :
#
#
# Convention : Reuss Voigt Hill
#
# Bulk Modulus (GPa) = 46.34383 59.14544 52.74464
# Shear Modulus (GPa) = 26.09200 31.47464 28.78332
#
# Velocity S-wave (km/s) = 3.48022 3.82238 3.65531
# Velocity P-wave (km/s) = 6.13695 6.85100 6.50378
#
# Compressibility (1/GPa) = 0.02157784
#
# Stress axis : x y z
#
# Youngs Moduli (GPa) = 82.46206 56.17697 52.41217
#
# Poissons Ratio (x) = 0.04358 0.28410
# Poissons Ratio (y) = 0.06398 0.39406
# Poissons Ratio (z) = 0.44698 0.42236
#
# Static dielectric constant tensor:
#      x y z
#    x 4.238860 0.312580 -0.177700 
#    y 0.312580 3.870500 -0.360520 
#    z -0.177700 -0.360520 3.808510 
# 
# 
# High freq. dielectric constant tensor:
#      x y z
#    x 1.857350 0.010480 -0.003460 
#    y 0.010480 1.825040 -0.037790 
#    z -0.003460 -0.037790 1.829580 
# 
# From -- ./inp_files/338019.got.cif
#   From: 2010.06.25/outbox.cif.g09.slc.cpg/sg2_170_cif.got.tgz:338019.got - 2010.06.27 13:26:56.
