data_PCOD8003097
_publ_section_title
;
Structure prediction by ZEFSAII (Michael W. Deem and Ramdas Pophale) SiO2 
 PCOD8003097
Probable space group: P -1
;
_chemical_formula_sum "Si O2"
_cell_formula_units_Z 16
_cell_length_a 6.375502
_cell_length_b 18.597043
_cell_length_c 8.437308
_cell_angle_alpha 129.214851
_cell_angle_beta 92.917928
_cell_angle_gamma 83.727495
_cell_volume 770.215616
_symmetry_space_group_name_H-M "P -1"
_symmetry_group_IT_number 2
_symmetry_cell_setting 'triclinic'
loop_
_space_group_symop_operation_xyz
x,y,z
-x,-y,-z
loop_
_atom_site_type_symbol
_atom_site_label
_atom_site_fract_x
_atom_site_fract_y
_atom_site_fract_z
Si Si1 0.417617 0.389900 0.197657
Si Si2 0.733484 0.409136 0.502448
Si Si3 0.411297 0.924064 0.005402
Si Si4 0.343140 0.080962 0.687583
Si Si5 0.917701 0.124980 0.855117
Si Si6 0.135283 0.282987 0.266502
Si Si7 0.556913 0.230653 0.770117
Si Si8 0.525375 0.249596 0.431385
O O1 0.625319 0.413483 0.332181
O O2 0.275591 0.485664 0.282007
O O3 0.288550 0.319118 0.191254
O O4 0.501495 0.337771 0.968416
O O5 0.608253 0.347705 0.530272
O O6 0.975139 0.368968 0.439283
O O7 0.354993 0.834025 0.781648
O O8 0.597702 0.897976 0.099632
O O9 0.199014 0.948111 0.139486
O O10 0.500000 0.000000 0.000000
O O11 0.354847 0.173975 0.715346
O O12 0.096382 0.064006 0.671663
O O13 0.500000 0.000000 0.500000
O O14 0.753270 0.179259 0.803074
O O15 0.012911 0.200816 0.076113
O O16 0.275813 0.250274 0.381534
O O17 0.593037 0.226943 0.580650
#
# Coordination Sequence:
#
# PCOD8003097 Si02
#       8
#     2   2   2   2   2   2   2   2
#     4  10  20  36  62  91 121 162 208 257 301 365
#     4  10  20  37  62  89 121 164 209 250 309 367
#     4  11  23  41  63  92 125 158 207 257 307 371
#     4  11  23  43  64  91 125 158 209 257 306 371
#     4  11  21  42  69  87 121 169 204 253 310 370
#     4  11  18  40  64  90 117 162 212 250 306 367
#     4  11  23  39  61  90 128 161 204 255 311 364
#     4  11  23  39  59  91 127 160 199 263 307 359
#
# _framework density 20.773405
#
# number of rings (size 3 to 8) (size 9 to 14) (size 15 to 20)
#    0.000    1.250    5.000    2.625    0.000    4.000 
#    0.000    0.625    0.000    0.000    0.000    0.000 
#    0.000    0.000    0.000    0.000    0.000    0.000 
#
# Total GULP energy -198274.880759 kJ/mol
# GULP energy per Si atom -12392.180047 kJ/mol
# Density = 2.072612 g / cm^3
# Si number density = 20.773405 Si / 1000 Ang^3
#
#
#
# Elastic Constant Matrix: (Units=GPa)
#
#
# Indices 1 2 3 4 5 6 
#
# 1 121.3234 24.7720 34.9532 -4.7347 -22.4852 1.5283
# 2 24.7720 91.5387 41.0043 -4.9319 -4.2609 7.4589
# 3 34.9532 41.0043 103.1012 -5.2079 -11.4729 -3.4221
# 4 -4.7347 -4.9319 -5.2079 34.3543 -2.3110 2.8218
# 5 -22.4852 -4.2609 -11.4729 -2.3110 35.2047 4.6106
# 6 1.5283 7.4589 -3.4221 2.8218 4.6106 24.5208
#
#
#
# Elastic Compliance Matrix: (Units=1/GPa)
#
#
# Indices 1 2 3 4 5 6 
#
# 1 0.010374 -0.001245 -0.002337 0.001460 0.006058 -0.001901
# 2 -0.001245 0.014129 -0.005298 0.001471 -0.000044 -0.005121
# 3 -0.002337 -0.005298 0.012931 0.000734 0.001715 0.003155
# 4 0.001460 0.001471 0.000734 0.030281 0.003948 -0.004663
# 5 0.006058 -0.000044 0.001715 0.003948 0.034001 -0.006972
# 6 -0.001901 -0.005121 0.003155 -0.004663 -0.006972 0.044746
#
#
# Mechanical properties :
#
#
# Convention : Reuss Voigt Hill
#
# Bulk Modulus (GPa) = 50.82737 57.49139 54.15938
# Shear Modulus (GPa) = 29.27783 33.16487 31.22135
#
# Velocity S-wave (km/s) = 3.75826 3.99997 3.88099
# Velocity P-wave (km/s) = 6.58432 7.00489 6.79786
#
# Compressibility (1/GPa) = 0.01967444
#
# Stress axis : x y z
#
# Youngs Moduli (GPa) = 96.39843 70.77777 77.33312
#
# Poissons Ratio (x) = 0.08811 0.18072
# Poissons Ratio (y) = 0.12000 0.40969
# Poissons Ratio (z) = 0.22528 0.37496
#
# Static dielectric constant tensor:
#      x y z
#    x 3.978740 0.049870 0.024640 
#    y 0.049870 3.694320 0.092230 
#    z 0.024640 0.092230 3.806830 
# 
# 
# High freq. dielectric constant tensor:
#      x y z
#    x 1.818220 0.006000 -0.003270 
#    y 0.006000 1.796890 0.009410 
#    z -0.003270 0.009410 1.814340 
# 
# From -- ./inp_files/46546.got.cif
#   From: 2010.06.25/outbox.cif.g09.slc.cpg/sg2_24_cif.got.tgz:46546.got - 2010.06.27 13:26:56.
