data_PCOD8003089
_publ_section_title
;
Structure prediction by ZEFSAII (Michael W. Deem and Ramdas Pophale) SiO2 
 PCOD8003089
Probable space group: P -1
;
_chemical_formula_sum "Si O2"
_cell_formula_units_Z 16
_cell_length_a 18.851004
_cell_length_b 17.493706
_cell_length_c 9.302172
_cell_angle_alpha 143.663293
_cell_angle_beta 46.212362
_cell_angle_gamma 157.553142
_cell_volume 675.062066
_symmetry_space_group_name_H-M "P -1"
_symmetry_group_IT_number 2
_symmetry_cell_setting 'triclinic'
loop_
_space_group_symop_operation_xyz
x,y,z
-x,-y,-z
loop_
_atom_site_type_symbol
_atom_site_label
_atom_site_fract_x
_atom_site_fract_y
_atom_site_fract_z
Si Si1 0.368312 0.250112 0.725647
Si Si2 0.219658 0.719760 0.991598
Si Si3 0.001057 0.925121 0.599421
Si Si4 0.293994 0.531217 0.489459
Si Si5 0.130557 0.685555 0.767230
Si Si6 0.959498 0.758522 0.104781
Si Si7 0.327702 0.680884 0.357412
Si Si8 0.269675 0.895300 0.472504
O O1 0.222231 0.156664 0.682694
O O2 0.504737 0.313446 0.533151
O O3 0.255328 0.033498 0.673173
O O4 0.500000 0.500000 0.000000
O O5 0.276577 0.634816 0.774004
O O6 0.260007 0.832242 0.951806
O O7 0.340268 0.914419 0.248370
O O8 0.000000 0.500000 0.000000
O O9 0.960604 0.025003 0.757021
O O10 0.872822 0.754168 0.659693
O O11 0.947072 0.766041 0.304691
O O12 0.264079 0.532263 0.365330
O O13 0.237182 0.723402 0.551987
O O14 0.928802 0.385982 0.623971
O O15 0.102105 0.800390 0.929995
O O16 0.751047 0.484020 0.920955
O O17 0.557416 0.945500 0.420444
#
# Coordination Sequence:
#
# PCOD8003089 Si02
#       8
#     2   2   2   2   2   2   2   2
#     4  11  23  39  63  96 123 153 208 258 297 359
#     4   9  17  34  62  92 117 147 199 254 301 354
#     4  11  23  43  63  83 124 167 196 250 304 349
#     4  10  22  40  67  94 116 156 211 254 303 358
#     4  10  20  37  59  86 121 159 198 242 303 368
#     4  11  24  41  59  86 125 164 201 239 298 371
#     4  10  22  38  59  92 119 148 203 254 297 363
#     4  10  20  36  62  90 120 155 193 257 315 340
#
# _framework density 23.701525
#
# number of rings (size 3 to 8) (size 9 to 14) (size 15 to 20)
#    0.000    1.750    0.000    6.375    0.000    9.000 
#    0.000    5.000    0.000    0.000    0.000    0.000 
#    0.000    0.000    0.000    0.000    0.000    0.000 
#
# Total GULP energy -198358.929443 kJ/mol
# GULP energy per Si atom -12397.433090 kJ/mol
# Density = 2.364758 g / cm^3
# Si number density = 23.701525 Si / 1000 Ang^3
#
#
#
# Elastic Constant Matrix: (Units=GPa)
#
#
# Indices 1 2 3 4 5 6 
#
# 1 113.0105 41.0000 47.6675 4.4371 -10.9858 17.1147
# 2 41.0000 69.5628 2.8714 4.1593 -10.1493 3.0426
# 3 47.6675 2.8714 93.0461 11.6547 -0.2109 2.4269
# 4 4.4371 4.1593 11.6547 21.1541 11.3276 3.0520
# 5 -10.9858 -10.1493 -0.2109 11.3276 57.3132 1.3199
# 6 17.1147 3.0426 2.4269 3.0520 1.3199 22.1998
#
#
#
# Elastic Compliance Matrix: (Units=1/GPa)
#
#
# Indices 1 2 3 4 5 6 
#
# 1 0.018090 -0.009847 -0.009190 0.004381 0.001106 -0.012260
# 2 -0.009847 0.020631 0.005190 -0.007232 0.003099 0.005007
# 3 -0.009190 0.005190 0.016327 -0.009438 0.000949 0.005830
# 4 0.004381 -0.007232 -0.009438 0.060856 -0.012296 -0.008990
# 5 0.001106 0.003099 0.000949 -0.012296 0.020664 -0.000919
# 6 -0.012260 0.005007 0.005830 -0.008990 -0.000919 0.054464
#
#
# Mechanical properties :
#
#
# Convention : Reuss Voigt Hill
#
# Bulk Modulus (GPa) = 36.55715 50.96635 43.76175
# Shear Modulus (GPa) = 21.94484 32.40545 27.17514
#
# Velocity S-wave (km/s) = 3.04613 3.70162 3.38976
# Velocity P-wave (km/s) = 5.27535 6.31026 5.81587
#
# Compressibility (1/GPa) = 0.02735443
#
# Stress axis : x y z
#
# Youngs Moduli (GPa) = 55.27992 48.47153 61.24652
#
# Poissons Ratio (x) = 0.47730 0.56286
# Poissons Ratio (y) = 0.54434 -0.31789
# Poissons Ratio (z) = 0.50802 -0.25158
#
# Static dielectric constant tensor:
#      x y z
#    x 4.696830 0.120300 0.104900 
#    y 0.120300 4.111840 -0.133200 
#    z 0.104900 -0.133200 4.574660 
# 
# 
# High freq. dielectric constant tensor:
#      x y z
#    x 1.952010 0.011120 -0.001540 
#    y 0.011120 1.921710 -0.000010 
#    z -0.001540 -0.000010 1.941920 
# 
# From -- ./inp_files/472768.got.cif
#   From: 2010.06.25/outbox.cif.g09.slc.cpg/sg2_237_cif.got.tgz:472768.got - 2010.06.27 13:26:56.
