data_PCOD8003264
_publ_section_title
;
Structure prediction by ZEFSAII (Michael W. Deem and Ramdas Pophale) SiO2 
 PCOD8003264
Probable space group: P -1
;
_chemical_formula_sum "Si O2"
_cell_formula_units_Z 14
_cell_length_a 12.528775
_cell_length_b 6.794333
_cell_length_c 18.217681
_cell_angle_alpha 50.738574
_cell_angle_beta 34.664577
_cell_angle_gamma 42.749402
_cell_volume 597.042549
_symmetry_space_group_name_H-M "P -1"
_symmetry_group_IT_number 2
_symmetry_cell_setting 'triclinic'
loop_
_space_group_symop_operation_xyz
x,y,z
-x,-y,-z
loop_
_atom_site_type_symbol
_atom_site_label
_atom_site_fract_x
_atom_site_fract_y
_atom_site_fract_z
Si Si1 0.089607 0.924555 0.565934
Si Si2 0.757207 0.756278 0.990239
Si Si3 0.214465 0.324739 0.841062
Si Si4 0.272673 0.364667 0.513837
Si Si5 0.285707 0.808667 0.635152
Si Si6 0.673836 0.233945 0.814155
Si Si7 0.618588 0.805670 0.671930
O O1 0.187097 0.129619 0.435310
O O2 0.893171 0.296267 0.456726
O O3 0.838608 0.108671 0.682568
O O4 0.223600 0.749981 0.603274
O O5 0.749468 0.821736 0.065331
O O6 0.552143 0.734927 0.087266
O O7 0.968550 0.447148 0.924191
O O8 0.770422 0.020853 0.879619
O O9 0.241845 0.614157 0.764091
O O10 0.386410 0.092449 0.743100
O O11 0.464051 0.280948 0.483631
O O12 0.363966 0.316551 0.391089
O O13 0.161344 0.159707 0.638686
O O14 0.639352 0.555155 0.775726
#
# Coordination Sequence:
#
# PCOD8003264 Si02
#       7
#     2   2   2   2   2   2   2
#     4  11  22  42  67 104 143 176 213 286 345 415
#     4  10  25  46  72  93 135 191 228 284 328 392
#     4  11  22  46  72  99 134 177 239 283 325 401
#     4  10  22  36  65 109 138 173 218 273 354 403
#     4  10  20  36  65 102 136 172 223 277 331 403
#     4  11  24  46  67 103 141 176 232 274 344 410
#     4  11  25  41  72 106 134 178 224 283 348 406
#
# _framework density 23.448913999999998
#
# number of rings (size 3 to 8) (size 9 to 14) (size 15 to 20)
#    0.000    1.429    2.857    1.714    4.000    1.714 
#    5.143    5.714    0.000    0.000    0.000    0.000 
#    0.000    0.000    0.000    0.000    0.000    0.000 
#
# Total GULP energy -173555.013810 kJ/mol
# GULP energy per Si atom -12396.786701 kJ/mol
# Density = 2.339554 g / cm^3
# Si number density = 23.448914 Si / 1000 Ang^3
#
#
#
# Elastic Constant Matrix: (Units=GPa)
#
#
# Indices 1 2 3 4 5 6 
#
# 1 81.8703 46.6421 45.0737 -0.0924 5.1072 7.3473
# 2 46.6421 147.3376 85.1011 -19.9765 -0.5983 20.5578
# 3 45.0737 85.1011 138.3240 0.7270 -3.6128 8.4603
# 4 -0.0924 -19.9765 0.7270 35.8824 -0.4264 5.6169
# 5 5.1072 -0.5983 -3.6128 -0.4264 17.3865 -2.2896
# 6 7.3473 20.5578 8.4603 5.6169 -2.2896 38.2230
#
#
#
# Elastic Compliance Matrix: (Units=1/GPa)
#
#
# Indices 1 2 3 4 5 6 
#
# 1 0.016431 -0.003450 -0.003333 -0.001778 -0.005767 -0.000649
# 2 -0.003450 0.014292 -0.007319 0.009151 -0.000685 -0.006789
# 3 -0.003333 -0.007319 0.012775 -0.004716 0.003616 0.002659
# 4 -0.001778 0.009151 -0.004716 0.034398 -0.000434 -0.008617
# 5 -0.005767 -0.000685 0.003616 -0.000434 0.060502 0.004365
# 6 -0.000649 -0.006789 0.002659 -0.008617 0.004365 0.030878
#
#
# Mechanical properties :
#
#
# Convention : Reuss Voigt Hill
#
# Bulk Modulus (GPa) = 65.38924 80.12951 72.75938
# Shear Modulus (GPa) = 24.68168 31.01272 27.84720
#
# Velocity S-wave (km/s) = 3.24786 3.64065 3.44985
# Velocity P-wave (km/s) = 6.48160 7.20546 6.85309
#
# Compressibility (1/GPa) = 0.01529303
#
# Stress axis : x y z
#
# Youngs Moduli (GPa) = 60.86030 69.96774 78.27634
#
# Poissons Ratio (x) = 0.24141 0.26090
# Poissons Ratio (y) = 0.20998 0.57294
# Poissons Ratio (z) = 0.20285 0.51213
#
# Static dielectric constant tensor:
#      x y z
#    x 3.969610 -0.094390 -0.131560 
#    y -0.094390 4.605790 -0.221800 
#    z -0.131560 -0.221800 4.363380 
# 
# 
# High freq. dielectric constant tensor:
#      x y z
#    x 1.907560 -0.019020 -0.010030 
#    y -0.019020 1.945300 -0.010670 
#    z -0.010030 -0.010670 1.926300 
# 
# From -- ./inp_files/297673.got.cif
#   From: 2010.06.25/outbox.cif.g09.slc.cpg/sg2_149_cif.got.tgz:297673.got - 2010.06.27 13:26:56.
