data_PCOD8003427
_publ_section_title
;
Structure prediction by ZEFSAII (Michael W. Deem and Ramdas Pophale) SiO2 
 PCOD8003427
Probable space group: P -1
;
_chemical_formula_sum "Si O2"
_cell_formula_units_Z 16
_cell_length_a 17.508483
_cell_length_b 8.071986
_cell_length_c 20.248942
_cell_angle_alpha 61.138456
_cell_angle_beta 19.832206
_cell_angle_gamma 54.524836
_cell_volume 769.678233
_symmetry_space_group_name_H-M "P -1"
_symmetry_group_IT_number 2
_symmetry_cell_setting 'triclinic'
loop_
_space_group_symop_operation_xyz
x,y,z
-x,-y,-z
loop_
_atom_site_type_symbol
_atom_site_label
_atom_site_fract_x
_atom_site_fract_y
_atom_site_fract_z
Si Si1 0.461431 0.488839 0.636489
Si Si2 0.641383 0.273423 0.082308
Si Si3 0.886052 0.451670 0.210748
Si Si4 0.118785 0.759138 0.969675
Si Si5 0.417060 0.125926 0.810072
Si Si6 0.797744 0.278805 0.670231
Si Si7 0.677990 0.262741 0.908734
Si Si8 0.676875 0.959861 0.757482
O O1 0.731985 0.469854 0.399710
O O2 0.261233 0.590004 0.722010
O O3 0.370575 0.636692 0.746279
O O4 0.478099 0.259059 0.679741
O O5 0.815780 0.283875 0.997549
O O6 0.388794 0.482560 0.239166
O O7 0.568976 0.084004 0.195080
O O8 0.789292 0.222526 0.900763
O O9 0.922390 0.664039 0.130441
O O10 0.149962 0.254232 0.037623
O O11 0.000000 0.000000 0.000000
O O12 0.622832 0.074220 0.708923
O O13 0.872470 0.225681 0.697635
O O14 0.045503 0.228306 0.435978
O O15 0.663376 0.130399 0.789178
O O16 0.500000 0.500000 0.000000
O O17 0.524242 0.126728 0.046087
#
# Coordination Sequence:
#
# PCOD8003427 Si02
#       8
#     2   2   2   2   2   2   2   2
#     4  10  21  38  60  83 110 151 189 229 285 334
#     4  10  21  37  57  83 115 150 190 230 283 340
#     4  10  21  38  59  83 113 147 193 234 276 341
#     4  11  21  38  61  87 119 149 183 234 283 331
#     4  10  20  37  57  81 113 150 187 234 283 330
#     4  10  20  38  58  82 114 148 190 239 281 333
#     4   9  20  36  55  79 111 148 185 230 280 329
#     4  10  21  36  59  84 112 149 191 234 283 338
#
# _framework density 20.787907000000001
#
# number of rings (size 3 to 8) (size 9 to 14) (size 15 to 20)
#    0.000    2.000    0.000    4.875    0.000    7.000 
#    0.000   13.750    0.000    0.000    0.000    0.000 
#    0.000    0.000    0.000    0.000    0.000    0.000 
#
# Total GULP energy -198323.205464 kJ/mol
# GULP energy per Si atom -12395.200341 kJ/mol
# Density = 2.074059 g / cm^3
# Si number density = 20.787907 Si / 1000 Ang^3
#
#
#
# Elastic Constant Matrix: (Units=GPa)
#
#
# Indices 1 2 3 4 5 6 
#
# 1 92.1507 16.7349 11.4213 3.0442 4.3024 2.8326
# 2 16.7349 120.6686 41.7300 10.9568 13.3622 3.3639
# 3 11.4213 41.7300 86.5282 -3.8057 10.8142 2.2999
# 4 3.0442 10.9568 -3.8057 21.2363 -6.8043 2.8495
# 5 4.3024 13.3622 10.8142 -6.8043 27.1858 3.7472
# 6 2.8326 3.3639 2.2999 2.8495 3.7472 29.9379
#
#
#
# Elastic Compliance Matrix: (Units=1/GPa)
#
#
# Indices 1 2 3 4 5 6 
#
# 1 0.011269 -0.000933 -0.000934 -0.001635 -0.001284 -0.000573
# 2 -0.000933 0.011616 -0.005158 -0.008741 -0.005799 0.000737
# 3 -0.000934 -0.005158 0.014629 0.004932 -0.001805 -0.000699
# 4 -0.001635 -0.008741 0.004932 0.059619 0.018512 -0.007234
# 5 -0.001284 -0.005799 -0.001805 0.018512 0.046101 -0.006621
# 6 -0.000573 0.000737 -0.000699 -0.007234 -0.006621 0.034945
#
#
# Mechanical properties :
#
#
# Convention : Reuss Voigt Hill
#
# Bulk Modulus (GPa) = 42.61966 48.79111 45.70538
# Shear Modulus (GPa) = 24.99384 30.96941 27.98162
#
# Velocity S-wave (km/s) = 3.47122 3.86395 3.67284
# Velocity P-wave (km/s) = 6.05082 6.59005 6.32618
#
# Compressibility (1/GPa) = 0.02346335
#
# Stress axis : x y z
#
# Youngs Moduli (GPa) = 88.74242 86.09122 68.35821
#
# Poissons Ratio (x) = 0.08035 0.06382
# Poissons Ratio (y) = 0.08283 0.35259
# Poissons Ratio (z) = 0.08285 0.44405
#
# Static dielectric constant tensor:
#      x y z
#    x 4.135420 -0.089720 0.308340 
#    y -0.089720 3.946530 -0.027460 
#    z 0.308340 -0.027460 3.708450 
# 
# 
# High freq. dielectric constant tensor:
#      x y z
#    x 1.818040 0.001780 0.010200 
#    y 0.001780 1.825500 0.004060 
#    z 0.010200 0.004060 1.789740 
# 
# From -- ./inp_files/312956.got.cif
#   From: 2010.06.25/outbox.cif.g09.slc.cpg/sg2_157_cif.got.tgz:312956.got - 2010.06.27 13:26:56.
