data_PCOD8003911
_publ_section_title
;
Structure prediction by ZEFSAII (Michael W. Deem and Ramdas Pophale) SiO2 
 PCOD8003911
Probable space group: P -1
;
_chemical_formula_sum "Si O2"
_cell_formula_units_Z 16
_cell_length_a 5.210768
_cell_length_b 22.244383
_cell_length_c 6.215703
_cell_angle_alpha 88.738684
_cell_angle_beta 71.349066
_cell_angle_gamma 68.630202
_cell_volume 632.038598
_symmetry_space_group_name_H-M "P -1"
_symmetry_group_IT_number 2
_symmetry_cell_setting 'triclinic'
loop_
_space_group_symop_operation_xyz
x,y,z
-x,-y,-z
loop_
_atom_site_type_symbol
_atom_site_label
_atom_site_fract_x
_atom_site_fract_y
_atom_site_fract_z
Si Si1 0.741673 0.051964 0.324529
Si Si2 0.658210 0.871673 0.926035
Si Si3 0.202510 0.654538 0.217680
Si Si4 0.827279 0.456328 0.475620
Si Si5 0.763668 0.756212 0.606011
Si Si6 0.844912 0.914488 0.252600
Si Si7 0.820232 0.650802 0.930745
Si Si8 0.322916 0.839668 0.393724
O O1 0.468293 0.065824 0.558780
O O2 0.875975 0.098880 0.404284
O O3 0.946191 0.975694 0.267354
O O4 0.626751 0.075969 0.112546
O O5 0.853601 0.907551 0.986497
O O6 0.576974 0.843093 0.169413
O O7 0.818400 0.814605 0.714512
O O8 0.170151 0.590892 0.327238
O O9 0.543244 0.641926 0.113570
O O10 0.064521 0.716252 0.406960
O O11 0.027942 0.668819 0.039461
O O12 0.500000 0.500000 0.500000
O O13 0.000000 0.500000 0.500000
O O14 0.985525 0.416218 0.228091
O O15 0.486343 0.779674 0.513854
O O16 0.686557 0.710025 0.796364
O O17 0.063189 0.844135 0.296429
#
# Coordination Sequence:
#
# PCOD8003911 Si02
#       8
#     2   2   2   2   2   2   2   2
#     4   9  20  37  58  88 126 159 209 278 360 447
#     4  10  21  40  57  90 122 165 224 283 359 426
#     4  11  25  48  72 106 147 197 246 287 347 416
#     4  11  24  43  76 118 156 189 236 292 344 409
#     4  10  24  47  62  95 136 181 242 299 348 416
#     4  10  20  37  62  88 121 165 213 281 361 439
#     4  11  25  48  73 104 146 199 240 291 351 408
#     4  10  21  40  58  92 121 166 224 284 356 430
#
# _framework density 25.314909
#
# number of rings (size 3 to 8) (size 9 to 14) (size 15 to 20)
#    0.000    1.750    0.000    3.000    0.000    8.500 
#   29.250    0.000    0.000    0.000    0.000    0.000 
#    0.000    0.000    0.000    0.000    0.000    0.000 
#
# Total GULP energy -198243.508133 kJ/mol
# GULP energy per Si atom -12390.219258 kJ/mol
# Density = 2.525729 g / cm^3
# Si number density = 25.314909 Si / 1000 Ang^3
#
#
#
# Elastic Constant Matrix: (Units=GPa)
#
#
# Indices 1 2 3 4 5 6 
#
# 1 86.9239 27.2191 20.9808 17.7457 23.4274 -22.4794
# 2 27.2191 134.1534 48.9561 8.4415 11.7908 -20.4654
# 3 20.9808 48.9561 123.4105 10.6072 11.6284 -12.7459
# 4 17.7457 8.4415 10.6072 41.1540 -7.2603 11.2237
# 5 23.4274 11.7908 11.6284 -7.2603 43.2349 -0.6521
# 6 -22.4794 -20.4654 -12.7459 11.2237 -0.6521 37.1305
#
#
#
# Elastic Compliance Matrix: (Units=1/GPa)
#
#
# Indices 1 2 3 4 5 6 
#
# 1 0.025755 0.000609 0.001110 -0.020683 -0.017558 0.022253
# 2 0.000609 0.009699 -0.002784 -0.003599 -0.002743 0.005798
# 3 0.001110 -0.002784 0.010059 -0.004089 -0.003178 0.003771
# 4 -0.020683 -0.003599 -0.004089 0.046755 0.020693 -0.029679
# 5 -0.017558 -0.002743 -0.003178 0.020693 0.037437 -0.018830
# 6 0.022253 0.005798 0.003771 -0.029679 -0.018830 0.053536
#
#
# Mechanical properties :
#
#
# Convention : Reuss Voigt Hill
#
# Bulk Modulus (GPa) = 23.05051 59.86662 41.45857
# Shear Modulus (GPa) = 25.02093 40.79267 32.90680
#
# Velocity S-wave (km/s) = 3.14727 4.01859 3.60932
# Velocity P-wave (km/s) = 4.72572 6.72549 5.81225
#
# Compressibility (1/GPa) = 0.04338298
#
# Stress axis : x y z
#
# Youngs Moduli (GPa) = 38.82679 103.10514 99.41208
#
# Poissons Ratio (x) = -0.06275 -0.11039
# Poissons Ratio (y) = -0.02363 0.27679
# Poissons Ratio (z) = -0.04312 0.28707
#
# Static dielectric constant tensor:
#      x y z
#    x 4.402880 0.147980 0.240210 
#    y 0.147980 4.844120 0.089860 
#    z 0.240210 0.089860 5.025900 
# 
# 
# High freq. dielectric constant tensor:
#      x y z
#    x 2.007240 -0.004860 0.002310 
#    y -0.004860 2.002390 -0.002010 
#    z 0.002310 -0.002010 2.045160 
# 
# From -- ./inp_files/13261.got.cif
#   From: 2010.06.25/outbox.cif.g09.slc.cpg/sg2_7_cif.got.tgz:13261.got - 2010.06.27 13:26:56.
