data_PCOD8003272
_publ_section_title
;
Structure prediction by ZEFSAII (Michael W. Deem and Ramdas Pophale) SiO2 
 PCOD8003272
Probable space group: P -1
;
_chemical_formula_sum "Si O2"
_cell_formula_units_Z 14
_cell_length_a 12.141154
_cell_length_b 10.060267
_cell_length_c 11.041559
_cell_angle_alpha 60.026461
_cell_angle_beta 51.204919
_cell_angle_gamma 37.872176
_cell_volume 645.254066
_symmetry_space_group_name_H-M "P -1"
_symmetry_group_IT_number 2
_symmetry_cell_setting 'triclinic'
loop_
_space_group_symop_operation_xyz
x,y,z
-x,-y,-z
loop_
_atom_site_type_symbol
_atom_site_label
_atom_site_fract_x
_atom_site_fract_y
_atom_site_fract_z
Si Si1 0.251883 0.159812 0.444172
Si Si2 0.169980 0.893624 0.599689
Si Si3 0.255537 0.727694 0.354369
Si Si4 0.445241 0.072580 0.865555
Si Si5 0.836955 0.540549 0.445925
Si Si6 0.327175 0.490011 0.823628
Si Si7 0.050990 0.361733 0.912422
O O1 0.306847 0.229138 0.487617
O O2 0.020763 0.357001 0.486779
O O3 0.278557 0.960073 0.552897
O O4 0.372732 0.110813 0.262574
O O5 0.223203 0.854216 0.439080
O O6 0.254744 0.676713 0.698622
O O7 0.928114 0.092042 0.691133
O O8 0.275341 0.533470 0.466712
O O9 0.469071 0.614570 0.199902
O O10 0.380263 0.299987 0.793169
O O11 0.256326 0.117976 0.922948
O O12 0.500000 0.000000 0.000000
O O13 0.912605 0.560009 0.263043
O O14 0.142454 0.600109 0.994322
O O15 0.000000 0.500000 0.000000
#
# Coordination Sequence:
#
# PCOD8003272 Si02
#       7
#     2   2   2   2   2   2   2
#     4  10  21  40  65  93 126 168 210 262 310 386
#     4  10  21  36  61  95 123 160 217 254 318 368
#     4  10  20  36  65  90 124 163 209 266 304 376
#     4  11  23  38  65  94 125 168 214 259 319 376
#     4  10  22  41  64  93 127 166 216 256 316 377
#     4  11  22  37  62  92 125 161 207 265 311 369
#     4  10  22  38  59  90 128 163 210 260 305 378
#
# _framework density 21.696878999999999
#
# number of rings (size 3 to 8) (size 9 to 14) (size 15 to 20)
#    0.000    1.714    1.429    3.857    4.000    0.571 
#    0.000    0.714    0.000    3.429    0.000    0.000 
#    0.000    0.000    0.000    0.000    0.000    0.000 
#
# Total GULP energy -173437.385218 kJ/mol
# GULP energy per Si atom -12388.384658 kJ/mol
# Density = 2.164750 g / cm^3
# Si number density = 21.696879 Si / 1000 Ang^3
#
#
#
# Elastic Constant Matrix: (Units=GPa)
#
#
# Indices 1 2 3 4 5 6 
#
# 1 58.9274 36.2406 31.8549 12.1241 -24.4489 5.0912
# 2 36.2406 103.8272 37.6690 -2.0064 -5.1962 5.0771
# 3 31.8549 37.6690 99.9238 12.3287 -12.4508 6.4336
# 4 12.1241 -2.0064 12.3287 26.3745 -11.2014 2.9107
# 5 -24.4489 -5.1962 -12.4508 -11.2014 39.0134 10.6782
# 6 5.0912 5.0771 6.4336 2.9107 10.6782 39.5989
#
#
#
# Elastic Compliance Matrix: (Units=1/GPa)
#
#
# Indices 1 2 3 4 5 6 
#
# 1 0.035033 -0.009562 -0.003892 -0.005738 0.019866 -0.007581
# 2 -0.009562 0.014102 -0.003450 0.005382 -0.003840 0.000622
# 3 -0.003892 -0.003450 0.013193 -0.004402 0.000311 -0.000961
# 4 -0.005738 0.005382 -0.004402 0.048425 0.011212 -0.005820
# 5 0.019866 -0.003840 0.000311 0.011212 0.045015 -0.015075
# 6 -0.007581 0.000622 -0.000961 -0.005820 -0.015075 0.030797
#
#
# Mechanical properties :
#
#
# Convention : Reuss Voigt Hill
#
# Bulk Modulus (GPa) = 35.06457 52.68972 43.87714
# Shear Modulus (GPa) = 21.75053 31.45829 26.60441
#
# Velocity S-wave (km/s) = 3.16962 3.81189 3.50549
# Velocity P-wave (km/s) = 5.43981 6.61144 6.05403
#
# Compressibility (1/GPa) = 0.02851882
#
# Stress axis : x y z
#
# Youngs Moduli (GPa) = 28.54489 70.91091 75.79853
#
# Poissons Ratio (x) = 0.67805 0.29501
# Poissons Ratio (y) = 0.27294 0.26154
# Poissons Ratio (z) = 0.11110 0.24468
#
# Static dielectric constant tensor:
#      x y z
#    x 4.275510 -0.146290 -0.704150 
#    y -0.146290 4.292780 0.289250 
#    z -0.704150 0.289250 3.980910 
# 
# 
# High freq. dielectric constant tensor:
#      x y z
#    x 1.838630 -0.020480 -0.029420 
#    y -0.020480 1.857050 0.002320 
#    z -0.029420 0.002320 1.832840 
# 
# From -- ./inp_files/419073.got.cif
#   From: 2010.06.25/outbox.cif.g09.slc.cpg/sg2_210_cif.got.tgz:419073.got - 2010.06.27 13:26:56.
