data_PCOD8003547
_publ_section_title
;
Structure prediction by ZEFSAII (Michael W. Deem and Ramdas Pophale) SiO2 
 PCOD8003547
Probable space group: P -1
;
_chemical_formula_sum "Si O2"
_cell_formula_units_Z 16
_cell_length_a 14.340144
_cell_length_b 9.215289
_cell_length_c 13.638492
_cell_angle_alpha 60.800853
_cell_angle_beta 110.266765
_cell_angle_gamma 58.740412
_cell_volume 800.689523
_symmetry_space_group_name_H-M "P -1"
_symmetry_group_IT_number 2
_symmetry_cell_setting 'triclinic'
loop_
_space_group_symop_operation_xyz
x,y,z
-x,-y,-z
loop_
_atom_site_type_symbol
_atom_site_label
_atom_site_fract_x
_atom_site_fract_y
_atom_site_fract_z
Si Si1 0.720883 0.782249 0.918496
Si Si2 0.975327 0.903093 0.771519
Si Si3 0.224426 0.769412 0.022568
Si Si4 0.533615 0.332694 0.976866
Si Si5 0.399168 0.124854 0.821644
Si Si6 0.918288 0.842903 0.978226
Si Si7 0.327110 0.275316 0.280871
Si Si8 0.817800 0.271813 0.407266
O O1 0.675029 0.858350 0.761691
O O2 0.527429 0.026822 0.819138
O O3 0.814859 0.819506 0.975897
O O4 0.860808 0.434959 0.105581
O O5 0.830712 0.141234 0.553744
O O6 0.885151 0.932741 0.821398
O O7 0.057115 0.961286 0.824587
O O8 0.333541 0.770096 0.018941
O O9 0.347059 0.431161 0.189708
O O10 0.156277 0.908210 0.060959
O O11 0.345900 0.558879 0.777275
O O12 0.500000 0.500000 0.000000
O O13 0.631878 0.028498 0.156463
O O14 0.212852 0.494983 0.642444
O O15 0.500000 0.000000 0.000000
O O16 0.135029 0.523696 0.186240
O O17 0.500000 0.000000 0.500000
O O18 0.000000 0.000000 0.500000
#
# Coordination Sequence:
#
# PCOD8003547 Si02
#       8
#     2   2   2   2   2   2   2   2
#     4  10  20  38  60  81 112 154 191 231 285 342
#     4  10  20  38  58  83 117 151 187 234 286 343
#     4  10  21  38  59  83 114 154 188 232 287 340
#     4  11  22  41  62  84 115 152 194 241 289 341
#     4  10  21  38  58  82 112 149 189 236 287 340
#     4  10  20  37  59  84 114 152 190 231 285 341
#     4  10  21  37  56  84 117 149 185 231 282 341
#     4  11  23  39  60  85 114 153 195 240 288 340
#
# _framework density 19.982776000000001
#
# number of rings (size 3 to 8) (size 9 to 14) (size 15 to 20)
#    0.000    2.000    0.000    8.250    0.000    4.000 
#    0.000    5.625    0.000    0.000    0.000    0.000 
#    0.000    0.000    0.000    0.000    0.000    0.000 
#
# Total GULP energy -198310.074306 kJ/mol
# GULP energy per Si atom -12394.379644 kJ/mol
# Density = 1.993729 g / cm^3
# Si number density = 19.982776 Si / 1000 Ang^3
#
#
#
# Elastic Constant Matrix: (Units=GPa)
#
#
# Indices 1 2 3 4 5 6 
#
# 1 130.8988 34.7279 29.8217 -15.3685 3.2210 3.9457
# 2 34.7279 118.4811 41.8466 -14.0536 -3.2636 3.0129
# 3 29.8217 41.8466 109.5538 4.4861 -9.0420 5.5971
# 4 -15.3685 -14.0536 4.4861 31.5342 0.3124 3.0531
# 5 3.2210 -3.2636 -9.0420 0.3124 18.5029 -1.1521
# 6 3.9457 3.0129 5.5971 3.0531 -1.1521 37.6707
#
#
#
# Elastic Compliance Matrix: (Units=1/GPa)
#
#
# Indices 1 2 3 4 5 6 
#
# 1 0.009155 -0.001411 -0.002338 0.004287 -0.003116 -0.000941
# 2 -0.001411 0.010810 -0.003901 0.004734 0.000134 -0.000517
# 3 -0.002338 -0.003901 0.011937 -0.004566 0.005587 -0.000676
# 4 0.004287 0.004734 -0.004566 0.036903 -0.002967 -0.003231
# 5 -0.003116 0.000134 0.005587 -0.002967 0.057484 0.001484
# 6 -0.000941 -0.000517 -0.000676 -0.003231 0.001484 0.027093
#
#
# Mechanical properties :
#
#
# Convention : Reuss Voigt Hill
#
# Bulk Modulus (GPa) = 60.23491 63.52510 61.88000
# Shear Modulus (GPa) = 28.69989 34.37738 31.53864
#
# Velocity S-wave (km/s) = 3.79388 4.15221 3.97708
# Velocity P-wave (km/s) = 7.02853 7.40586 7.21966
#
# Compressibility (1/GPa) = 0.01660167
#
# Stress axis : x y z
#
# Youngs Moduli (GPa) = 109.23162 92.50680 83.77188
#
# Poissons Ratio (x) = 0.13053 0.19583
# Poissons Ratio (y) = 0.15413 0.32683
# Poissons Ratio (z) = 0.25535 0.36091
#
# Static dielectric constant tensor:
#      x y z
#    x 3.742740 0.286300 -0.288340 
#    y 0.286300 4.132440 -0.310340 
#    z -0.288340 -0.310340 3.772960 
# 
# 
# High freq. dielectric constant tensor:
#      x y z
#    x 1.778440 -0.000170 -0.007140 
#    y -0.000170 1.801410 -0.003290 
#    z -0.007140 -0.003290 1.754340 
# 
# From -- ./inp_files/527349.got.cif
#   From: 2010.06.25/outbox.cif.g09.slc.cpg/sg2_264_cif.got.tgz:527349.got - 2010.06.27 13:26:56.
