data_PCOD8003610
_publ_section_title
;
Structure prediction by ZEFSAII (Michael W. Deem and Ramdas Pophale) SiO2 
 PCOD8003610
Probable space group: P -1
;
_chemical_formula_sum "Si O2"
_cell_formula_units_Z 16
_cell_length_a 14.682333
_cell_length_b 9.192536
_cell_length_c 9.469441
_cell_angle_alpha 132.884946
_cell_angle_beta 64.184009
_cell_angle_gamma 96.907076
_cell_volume 812.408128
_symmetry_space_group_name_H-M "P -1"
_symmetry_group_IT_number 2
_symmetry_cell_setting 'triclinic'
loop_
_space_group_symop_operation_xyz
x,y,z
-x,-y,-z
loop_
_atom_site_type_symbol
_atom_site_label
_atom_site_fract_x
_atom_site_fract_y
_atom_site_fract_z
Si Si1 0.716881 0.998604 0.998534
Si Si2 0.484450 0.118862 0.231389
Si Si3 0.087429 0.033181 0.651754
Si Si4 0.395034 0.021004 0.497067
Si Si5 0.145340 0.829675 0.185604
Si Si6 0.797387 0.632217 0.219648
Si Si7 0.713124 0.609105 0.560399
Si Si8 0.240333 0.842294 0.645041
O O1 0.599057 0.133100 0.210332
O O2 0.775736 0.993883 0.105777
O O3 0.760194 0.126684 0.937926
O O4 0.723504 0.772050 0.783197
O O5 0.434024 0.984661 0.285025
O O6 0.402910 0.339096 0.398294
O O7 0.500000 0.000000 0.000000
O O8 0.113708 0.251244 0.793367
O O9 0.963513 0.062895 0.748574
O O10 0.146846 0.919420 0.399168
O O11 0.131467 0.894301 0.666773
O O12 0.312367 0.248218 0.703173
O O13 0.500000 0.000000 0.500000
O O14 0.334913 0.857986 0.485950
O O15 0.163277 0.586668 0.026623
O O16 0.792323 0.609422 0.378097
O O17 0.737211 0.388245 0.468115
#
# Coordination Sequence:
#
# PCOD8003610 Si02
#       8
#     2   2   2   2   2   2   2   2
#     4  11  21  38  62  86 121 159 200 242 292 357
#     4   9  20  37  60  83 122 163 194 235 288 356
#     4  10  24  42  61  90 121 147 204 264 294 352
#     4  10  20  37  59  91 124 152 194 248 291 344
#     4  11  22  41  67  86 113 163 204 243 309 355
#     4  10  20  39  66  86 118 161 199 242 295 368
#     4  10  21  39  59  91 122 157 202 236 290 367
#     4  11  23  38  61  88 122 157 191 254 302 342
#
# _framework density 19.694534000000001
#
# number of rings (size 3 to 8) (size 9 to 14) (size 15 to 20)
#    0.000    1.750    3.750    0.375    1.750    4.000 
#    0.000    3.125    0.000    0.000    0.000    0.000 
#    0.000    0.000    0.000    0.000    0.000    0.000 
#
# Total GULP energy -198309.064153 kJ/mol
# GULP energy per Si atom -12394.316510 kJ/mol
# Density = 1.964971 g / cm^3
# Si number density = 19.694534 Si / 1000 Ang^3
#
#
#
# Elastic Constant Matrix: (Units=GPa)
#
#
# Indices 1 2 3 4 5 6 
#
# 1 68.3441 28.0593 14.0093 5.4124 11.9010 -15.5882
# 2 28.0593 129.2148 30.2713 8.4985 2.7974 -8.2933
# 3 14.0093 30.2713 61.8542 4.7948 10.2622 1.0757
# 4 5.4124 8.4985 4.7948 27.8014 3.2007 1.8117
# 5 11.9010 2.7974 10.2622 3.2007 23.8053 -4.5686
# 6 -15.5882 -8.2933 1.0757 1.8117 -4.5686 32.6856
#
#
#
# Elastic Compliance Matrix: (Units=1/GPa)
#
#
# Indices 1 2 3 4 5 6 
#
# 1 0.019337 -0.003001 -0.001744 -0.002267 -0.006781 0.007696
# 2 -0.003001 0.009589 -0.004356 -0.002031 0.002842 0.001655
# 3 -0.001744 -0.004356 0.020120 -0.000650 -0.007906 -0.003668
# 4 -0.002267 -0.002031 -0.000650 0.037913 -0.004265 -0.004273
# 5 -0.006781 0.002842 -0.007906 -0.004265 0.049999 0.004972
# 6 0.007696 0.001655 -0.003668 -0.004273 0.004972 0.035737
#
#
# Mechanical properties :
#
#
# Convention : Reuss Voigt Hill
#
# Bulk Modulus (GPa) = 32.42108 44.89923 38.66015
# Shear Modulus (GPa) = 24.85336 29.33002 27.09169
#
# Velocity S-wave (km/s) = 3.55624 3.86326 3.71292
# Velocity P-wave (km/s) = 5.77582 6.53812 6.16876
#
# Compressibility (1/GPa) = 0.03084413
#
# Stress axis : x y z
#
# Youngs Moduli (GPa) = 51.71451 104.28089 49.70191
#
# Poissons Ratio (x) = 0.31290 0.08669
# Poissons Ratio (y) = 0.15517 0.21652
# Poissons Ratio (z) = 0.09020 0.45428
#
# Static dielectric constant tensor:
#      x y z
#    x 2.741630 -0.431730 0.242910 
#    y -0.431730 3.557840 -0.073700 
#    z 0.242910 -0.073700 3.550970 
# 
# 
# High freq. dielectric constant tensor:
#      x y z
#    x 1.771790 -0.006180 -0.002590 
#    y -0.006180 1.767100 -0.015620 
#    z -0.002590 -0.015620 1.760500 
# 
# From -- ./inp_files/201076.got.cif
#   From: 2010.06.25/outbox.cif.g09.slc.cpg/sg2_101_cif.got.tgz:201076.got - 2010.06.27 13:26:56.
