data_PCOD8003229
_publ_section_title
;
Structure prediction by ZEFSAII (Michael W. Deem and Ramdas Pophale) SiO2 
 PCOD8003229
Probable space group: P -1
;
_chemical_formula_sum "Si O2"
_cell_formula_units_Z 16
_cell_length_a 10.486806
_cell_length_b 12.249068
_cell_length_c 15.558822
_cell_angle_alpha 28.137438
_cell_angle_beta 51.684731
_cell_angle_gamma 58.522218
_cell_volume 737.874336
_symmetry_space_group_name_H-M "P -1"
_symmetry_group_IT_number 2
_symmetry_cell_setting 'triclinic'
loop_
_space_group_symop_operation_xyz
x,y,z
-x,-y,-z
loop_
_atom_site_type_symbol
_atom_site_label
_atom_site_fract_x
_atom_site_fract_y
_atom_site_fract_z
Si Si1 0.500497 0.846035 0.023524
Si Si2 0.332870 0.368044 0.188660
Si Si3 0.359074 0.837965 0.580990
Si Si4 0.911402 0.882635 0.229357
Si Si5 0.784337 0.612261 0.123936
Si Si6 0.850212 0.308111 0.066724
Si Si7 0.761546 0.890142 0.109543
Si Si8 0.681454 0.608883 0.627257
O O1 0.685080 0.768197 0.988271
O O2 0.386535 0.611579 0.245773
O O3 0.500000 0.000000 0.000000
O O4 0.415402 0.000516 0.879276
O O5 0.288866 0.453012 0.243225
O O6 0.338336 0.091152 0.375055
O O7 0.500000 0.500000 0.000000
O O8 0.200491 0.447366 0.120318
O O9 0.278772 0.655450 0.672640
O O10 0.271354 0.799513 0.736042
O O11 0.550507 0.806754 0.537964
O O12 0.819360 0.794225 0.242414
O O13 0.856804 0.698554 0.453501
O O14 0.854695 0.134110 0.105172
O O15 0.106718 0.902524 0.121429
O O16 0.750698 0.685031 0.185975
O O17 0.972249 0.650146 0.993312
#
# Coordination Sequence:
#
# PCOD8003229 Si02
#       8
#     2   2   2   2   2   2   2   2
#     4   9  19  38  60  83 117 159 206 242 301 362
#     4  12  23  37  62  91 123 163 203 248 305 364
#     4  11  22  40  61  90 128 161 204 249 304 366
#     4  10  20  36  64  91 123 157 197 261 306 359
#     4   9  21  39  63  85 124 166 199 254 305 356
#     4  11  21  39  64  90 127 161 201 255 304 364
#     4   9  19  39  63  90 119 160 204 249 313 359
#     4  11  21  38  60  90 124 157 200 254 309 359
#
# _framework density 21.683909
#
# number of rings (size 3 to 8) (size 9 to 14) (size 15 to 20)
#    0.000    1.750    2.500    2.250    0.000    1.000 
#    0.000    6.875    2.750    0.000    0.000    0.000 
#    0.000    0.000    0.000    0.000    0.000    0.000 
#
# Total GULP energy -198291.602787 kJ/mol
# GULP energy per Si atom -12393.225174 kJ/mol
# Density = 2.163456 g / cm^3
# Si number density = 21.683909 Si / 1000 Ang^3
#
#
#
# Elastic Constant Matrix: (Units=GPa)
#
#
# Indices 1 2 3 4 5 6 
#
# 1 118.3389 43.4986 39.8195 -3.0144 0.2429 -4.6773
# 2 43.4986 77.4106 39.2592 -7.6115 0.5610 9.0201
# 3 39.8195 39.2592 108.6924 3.7671 2.4039 2.3219
# 4 -3.0144 -7.6115 3.7671 37.8501 -0.5626 -0.4939
# 5 0.2429 0.5610 2.4039 -0.5626 26.8671 -4.3037
# 6 -4.6773 9.0201 2.3219 -0.4939 -4.3037 32.5419
#
#
#
# Elastic Compliance Matrix: (Units=1/GPa)
#
#
# Indices 1 2 3 4 5 6 
#
# 1 0.011432 -0.005706 -0.002220 0.000041 0.000774 0.003486
# 2 -0.005706 0.019771 -0.005042 0.003934 -0.000786 -0.005985
# 3 -0.002220 -0.005042 0.011938 -0.002393 -0.000983 0.000060
# 4 0.000041 0.003934 -0.002393 0.027457 0.000640 -0.000412
# 5 0.000774 -0.000786 -0.000983 0.000640 0.038206 0.005462
# 6 0.003486 -0.005985 0.000060 -0.000412 0.005462 0.033601
#
#
# Mechanical properties :
#
#
# Convention : Reuss Voigt Hill
#
# Bulk Modulus (GPa) = 58.12115 61.06628 59.59371
# Shear Modulus (GPa) = 28.72307 31.57612 30.14960
#
# Velocity S-wave (km/s) = 3.64349 3.82016 3.73287
# Velocity P-wave (km/s) = 6.67548 6.90517 6.79129
#
# Compressibility (1/GPa) = 0.01720544
#
# Stress axis : x y z
#
# Youngs Moduli (GPa) = 87.47487 50.57869 83.76440
#
# Poissons Ratio (x) = 0.28858 0.18598
# Poissons Ratio (y) = 0.49909 0.42235
# Poissons Ratio (z) = 0.19422 0.25502
#
# Static dielectric constant tensor:
#      x y z
#    x 4.291820 -0.226850 -0.096040 
#    y -0.226850 4.229240 -0.140060 
#    z -0.096040 -0.140060 3.649430 
# 
# 
# High freq. dielectric constant tensor:
#      x y z
#    x 1.860170 0.000890 -0.011480 
#    y 0.000890 1.862040 -0.014040 
#    z -0.011480 -0.014040 1.821680 
# 
# From -- ./inp_files/518547.got.cif
#   From: 2010.06.25/outbox.cif.g09.slc.cpg/sg2_260_cif.got.tgz:518547.got - 2010.06.27 13:26:56.
