data_PCOD8003760
_publ_section_title
;
Structure prediction by ZEFSAII (Michael W. Deem and Ramdas Pophale) SiO2 
 PCOD8003760
Probable space group: P -1
;
_chemical_formula_sum "Si O2"
_cell_formula_units_Z 14
_cell_length_a 8.131863
_cell_length_b 18.068972
_cell_length_c 14.877464
_cell_angle_alpha 158.439052
_cell_angle_beta 60.973218
_cell_angle_gamma 117.100649
_cell_volume 702.371364
_symmetry_space_group_name_H-M "P -1"
_symmetry_group_IT_number 2
_symmetry_cell_setting 'triclinic'
loop_
_space_group_symop_operation_xyz
x,y,z
-x,-y,-z
loop_
_atom_site_type_symbol
_atom_site_label
_atom_site_fract_x
_atom_site_fract_y
_atom_site_fract_z
Si Si1 0.040380 0.573823 0.215326
Si Si2 0.439840 0.057035 0.306790
Si Si3 0.900608 0.789467 0.764753
Si Si4 0.917289 0.805186 0.346225
Si Si5 0.679851 0.708138 0.560105
Si Si6 0.592632 0.629934 0.793066
Si Si7 0.248772 0.632797 0.402564
O O1 0.209294 0.601623 0.272575
O O2 0.041223 0.749106 0.337641
O O3 0.842313 0.575461 0.321458
O O4 0.073437 0.363629 0.922021
O O5 0.298116 0.156662 0.527296
O O6 0.374222 0.103205 0.274867
O O7 0.645167 0.153187 0.376513
O O8 0.452559 0.817874 0.047467
O O9 0.743762 0.811412 0.752877
O O10 0.793415 0.693322 0.769376
O O11 0.058581 0.638131 0.517562
O O12 0.000000 0.000000 0.000000
O O13 0.000000 0.000000 0.500000
O O14 0.504358 0.552454 0.444188
O O15 0.627469 0.547872 0.792766
#
# Coordination Sequence:
#
# PCOD8003760 Si02
#       7
#     2   2   2   2   2   2   2
#     4   9  20  39  59  83 115 149 185 241 280 334
#     4  10  21  38  58  85 116 149 187 240 281 341
#     4  11  21  40  59  84 117 152 192 241 280 331
#     4  10  20  37  61  85 110 147 195 230 284 344
#     4   9  21  39  59  83 115 154 192 231 285 335
#     4  11  21  38  59  84 116 156 192 229 282 343
#     4  10  22  40  57  83 118 150 189 236 290 330
#
# _framework density 19.932476999999999
#
# number of rings (size 3 to 8) (size 9 to 14) (size 15 to 20)
#    0.000    2.000    1.429    1.714    0.000    3.429 
#   10.286    1.429    0.000    0.000    0.000    0.000 
#    0.000    0.000    0.000    0.000    0.000    0.000 
#
# Total GULP energy -173585.112767 kJ/mol
# GULP energy per Si atom -12398.936626 kJ/mol
# Density = 1.988711 g / cm^3
# Si number density = 19.932477 Si / 1000 Ang^3
#
#
#
# Elastic Constant Matrix: (Units=GPa)
#
#
# Indices 1 2 3 4 5 6 
#
# 1 120.4065 37.9200 48.9353 10.8391 16.8841 -22.1826
# 2 37.9200 79.9465 38.4462 14.8577 12.8458 -8.5484
# 3 48.9353 38.4462 98.9795 14.8672 -1.5300 -20.6234
# 4 10.8391 14.8577 14.8672 34.5090 0.3172 0.0027
# 5 16.8841 12.8458 -1.5300 0.3172 35.1800 -1.3249
# 6 -22.1826 -8.5484 -20.6234 0.0027 -1.3249 33.4715
#
#
#
# Elastic Compliance Matrix: (Units=1/GPa)
#
#
# Indices 1 2 3 4 5 6 
#
# 1 0.012442 -0.002379 -0.004127 -0.001059 -0.005088 0.004894
# 2 -0.002379 0.017872 -0.005254 -0.004632 -0.005589 -0.000471
# 3 -0.004127 -0.005254 0.016015 -0.003386 0.004852 0.005983
# 4 -0.001059 -0.004632 -0.003386 0.032749 0.001610 -0.003910
# 5 -0.005088 -0.005589 0.004852 0.001610 0.033086 -0.000501
# 6 0.004894 -0.000471 0.005983 -0.003910 -0.000501 0.036666
#
#
# Mechanical properties :
#
#
# Convention : Reuss Voigt Hill
#
# Bulk Modulus (GPa) = 43.84469 61.10393 52.47431
# Shear Modulus (GPa) = 27.78482 32.23416 30.00949
#
# Velocity S-wave (km/s) = 3.73761 4.02577 3.88436
# Velocity P-wave (km/s) = 6.37736 7.23402 6.81915
#
# Compressibility (1/GPa) = 0.02280778
#
# Stress axis : x y z
#
# Youngs Moduli (GPa) = 80.37070 55.95268 62.44276
#
# Poissons Ratio (x) = 0.13312 0.25771
# Poissons Ratio (y) = 0.19121 0.32810
# Poissons Ratio (z) = 0.33171 0.29400
#
# Static dielectric constant tensor:
#      x y z
#    x 3.786100 -0.049880 -0.014820 
#    y -0.049880 3.561510 0.139850 
#    z -0.014820 0.139850 3.288740 
# 
# 
# High freq. dielectric constant tensor:
#      x y z
#    x 1.782670 -0.001390 -0.006770 
#    y -0.001390 1.778920 0.002410 
#    z -0.006770 0.002410 1.769880 
# 
# From -- ./inp_files/32887.got.cif
#   From: 2010.06.25/outbox.cif.g09.slc.cpg/sg2_17_cif.got.tgz:32887.got - 2010.06.27 13:26:56.
