data_PCOD8003481
_publ_section_title
;
Structure prediction by ZEFSAII (Michael W. Deem and Ramdas Pophale) SiO2 
 PCOD8003481
Probable space group: P -1
;
_chemical_formula_sum "Si O2"
_cell_formula_units_Z 14
_cell_length_a 6.571007
_cell_length_b 15.261275
_cell_length_c 14.065201
_cell_angle_alpha 149.782756
_cell_angle_beta 80.395312
_cell_angle_gamma 110.923755
_cell_volume 632.195307
_symmetry_space_group_name_H-M "P -1"
_symmetry_group_IT_number 2
_symmetry_cell_setting 'triclinic'
loop_
_space_group_symop_operation_xyz
x,y,z
-x,-y,-z
loop_
_atom_site_type_symbol
_atom_site_label
_atom_site_fract_x
_atom_site_fract_y
_atom_site_fract_z
Si Si1 0.000656 0.197755 0.860385
Si Si2 0.915987 0.564026 0.238389
Si Si3 0.263360 0.271671 0.244618
Si Si4 0.858924 0.097879 0.983321
Si Si5 0.484911 0.619014 0.024607
Si Si6 0.770043 0.462742 0.358120
Si Si7 0.252922 0.851827 0.345652
O O1 0.878396 0.081408 0.663636
O O2 0.261231 0.219196 0.867198
O O3 0.017520 0.412498 0.061371
O O4 0.857470 0.081439 0.853641
O O5 0.919239 0.582437 0.369356
O O6 0.086633 0.767989 0.370437
O O7 0.653243 0.510927 0.176224
O O8 0.505839 0.419194 0.323269
O O9 0.145422 0.394545 0.423411
O O10 0.114505 0.162732 0.063547
O O11 0.296043 0.115399 0.164736
O O12 0.776367 0.256378 0.174954
O O13 0.300512 0.694982 0.138176
O O14 0.500000 0.500000 0.000000
O O15 0.500000 0.000000 0.500000
#
# Coordination Sequence:
#
# PCOD8003481 Si02
#       7
#     2   2   2   2   2   2   2
#     4  10  20  38  60  84 112 157 194 224 289 350
#     4  10  20  37  58  84 115 152 193 232 281 351
#     4  10  21  39  59  89 116 147 198 241 292 352
#     4  10  21  38  62  86 117 153 190 243 294 344
#     4  11  18  36  61  77 108 157 191 224 276 341
#     4  10  21  38  61  85 117 153 191 241 294 344
#     4  11  23  37  53  86 123 146 187 242 285 335
#
# _framework density 22.145054999999999
#
# number of rings (size 3 to 8) (size 9 to 14) (size 15 to 20)
#    0.000    1.714    2.857    2.571    0.000    1.714 
#    2.571    7.143    0.000    0.000    0.000    0.000 
#    0.000    0.000    0.000    0.000    0.000    0.000 
#
# Total GULP energy -173472.930215 kJ/mol
# GULP energy per Si atom -12390.923587 kJ/mol
# Density = 2.209465 g / cm^3
# Si number density = 22.145055 Si / 1000 Ang^3
#
#
#
# Elastic Constant Matrix: (Units=GPa)
#
#
# Indices 1 2 3 4 5 6 
#
# 1 81.4607 24.7880 5.7435 2.0794 14.6469 13.6768
# 2 24.7880 106.3592 31.9084 0.8466 -0.0371 11.7305
# 3 5.7435 31.9084 53.4642 2.9264 1.2716 6.2875
# 4 2.0794 0.8466 2.9264 19.9116 0.2809 -2.1047
# 5 14.6469 -0.0371 1.2716 0.2809 41.7954 5.2553
# 6 13.6768 11.7305 6.2875 -2.1047 5.2553 26.8451
#
#
#
# Elastic Compliance Matrix: (Units=1/GPa)
#
#
# Indices 1 2 3 4 5 6 
#
# 1 0.015016 -0.003206 0.001210 -0.002160 -0.004557 -0.005810
# 2 -0.003206 0.012485 -0.006882 0.000529 0.001654 -0.002493
# 3 0.001210 -0.006882 0.023271 -0.003582 -0.000712 -0.003201
# 4 -0.002160 0.000529 -0.003582 0.051567 -0.000209 0.005792
# 5 -0.004557 0.001654 -0.000712 -0.000209 0.025967 -0.003334
# 6 -0.005810 -0.002493 -0.003201 0.005792 -0.003334 0.043157
#
#
# Mechanical properties :
#
#
# Convention : Reuss Voigt Hill
#
# Bulk Modulus (GPa) = 30.28835 40.68486 35.48660
# Shear Modulus (GPa) = 24.97202 29.63337 27.30270
#
# Velocity S-wave (km/s) = 3.36170 3.66204 3.51508
# Velocity P-wave (km/s) = 5.36423 6.02433 5.70384
#
# Compressibility (1/GPa) = 0.03301600
#
# Stress axis : x y z
#
# Youngs Moduli (GPa) = 66.59511 80.09385 42.97206
#
# Poissons Ratio (x) = 0.25681 -0.05201
# Poissons Ratio (y) = 0.21353 0.29574
# Poissons Ratio (z) = -0.08060 0.55122
#
# Static dielectric constant tensor:
#      x y z
#    x 4.137130 0.029240 0.015070 
#    y 0.029240 3.972050 -0.202630 
#    z 0.015070 -0.202630 3.832910 
# 
# 
# High freq. dielectric constant tensor:
#      x y z
#    x 1.875370 -0.002150 0.002010 
#    y -0.002150 1.870920 -0.008970 
#    z 0.002010 -0.008970 1.849040 
# 
# From -- ./inp_files/38867.got.cif
#   From: 2010.06.25/outbox.cif.g09.slc.cpg/sg2_20_cif.got.tgz:38867.got - 2010.06.27 13:26:56.
