data_PCOD8003787
_publ_section_title
;
Structure prediction by ZEFSAII (Michael W. Deem and Ramdas Pophale) SiO2 
 PCOD8003787
Probable space group: P -1
;
_chemical_formula_sum "Si O2"
_cell_formula_units_Z 14
_cell_length_a 8.988809
_cell_length_b 14.804309
_cell_length_c 9.344821
_cell_angle_alpha 46.358721
_cell_angle_beta 62.752943
_cell_angle_gamma 53.051368
_cell_volume 717.205497
_symmetry_space_group_name_H-M "P -1"
_symmetry_group_IT_number 2
_symmetry_cell_setting 'triclinic'
loop_
_space_group_symop_operation_xyz
x,y,z
-x,-y,-z
loop_
_atom_site_type_symbol
_atom_site_label
_atom_site_fract_x
_atom_site_fract_y
_atom_site_fract_z
Si Si1 0.959024 0.216186 0.926082
Si Si2 0.907028 0.364029 0.065702
Si Si3 0.869230 0.134306 0.500666
Si Si4 0.100828 0.179199 0.598072
Si Si5 0.764278 0.675738 0.837717
Si Si6 0.644392 0.126557 0.110308
Si Si7 0.662955 0.046293 0.884302
O O1 0.988843 0.252717 0.710966
O O2 0.920689 0.344342 0.909656
O O3 0.784844 0.181164 0.051498
O O4 0.138977 0.085976 0.046493
O O5 0.815075 0.271243 0.278487
O O6 0.114453 0.317680 0.087792
O O7 0.772769 0.523715 0.987051
O O8 0.679820 0.124767 0.645971
O O9 0.970934 0.141585 0.593156
O O10 0.000000 0.000000 0.500000
O O11 0.157370 0.290292 0.379369
O O12 0.283501 0.037166 0.710140
O O13 0.554221 0.789628 0.821817
O O14 0.626377 0.148665 0.923167
O O15 0.500000 0.000000 0.000000
#
# Coordination Sequence:
#
# PCOD8003787 Si02
#       7
#     2   2   2   2   2   2   2
#     4  11  20  39  59  86 119 152 184 247 292 338
#     4  10  22  40  61  81 121 153 198 227 291 336
#     4  11  19  37  63  86 113 154 190 238 288 340
#     4  10  20  37  61  87 117 149 191 236 296 330
#     4  10  23  39  60  86 114 158 194 238 270 354
#     4  11  20  37  61  86 119 146 193 239 294 334
#     4  11  21  35  59  93 115 146 192 243 287 338
#
# _framework density 19.520205000000001
#
# number of rings (size 3 to 8) (size 9 to 14) (size 15 to 20)
#    0.000    1.429    4.286    2.143    2.000    1.143 
#    5.143    0.714    3.143    0.000    0.000    0.000 
#    0.000    0.000    0.000    0.000    0.000    0.000 
#
# Total GULP energy -173600.222030 kJ/mol
# GULP energy per Si atom -12400.015859 kJ/mol
# Density = 1.947578 g / cm^3
# Si number density = 19.520205 Si / 1000 Ang^3
#
#
#
# Elastic Constant Matrix: (Units=GPa)
#
#
# Indices 1 2 3 4 5 6 
#
# 1 89.8561 38.9416 39.4372 12.9326 -10.1932 7.9257
# 2 38.9416 73.5367 53.3693 9.4915 -2.6480 19.0281
# 3 39.4372 53.3693 130.5370 10.2430 -14.6176 15.7619
# 4 12.9326 9.4915 10.2430 31.7758 6.3318 4.4867
# 5 -10.1932 -2.6480 -14.6176 6.3318 33.5182 6.6474
# 6 7.9257 19.0281 15.7619 4.4867 6.6474 34.0067
#
#
#
# Elastic Compliance Matrix: (Units=1/GPa)
#
#
# Indices 1 2 3 4 5 6 
#
# 1 0.015797 -0.006857 -0.001107 -0.005009 0.004642 0.000422
# 2 -0.006857 0.024608 -0.007049 -0.000810 -0.001371 -0.008529
# 3 -0.001107 -0.007049 0.011840 -0.001982 0.005043 -0.002010
# 4 -0.005009 -0.000810 -0.001982 0.036290 -0.009218 -0.000447
# 5 0.004642 -0.001371 0.005043 -0.009218 0.036789 -0.008627
# 6 0.000422 -0.008529 -0.002010 -0.000447 -0.008627 0.036757
#
#
# Mechanical properties :
#
#
# Convention : Reuss Voigt Hill
#
# Bulk Modulus (GPa) = 45.00947 61.93622 53.47284
# Shear Modulus (GPa) = 25.06090 30.67224 27.86657
#
# Velocity S-wave (km/s) = 3.58696 3.96827 3.78243
# Velocity P-wave (km/s) = 6.34532 7.26598 6.82120
#
# Compressibility (1/GPa) = 0.02221755
#
# Stress axis : x y z
#
# Youngs Moduli (GPa) = 63.30377 40.63703 84.45918
#
# Poissons Ratio (x) = 0.27867 0.09349
# Poissons Ratio (y) = 0.43410 0.59538
# Poissons Ratio (z) = 0.07007 0.28646
#
# Static dielectric constant tensor:
#      x y z
#    x 3.665560 0.151490 -0.009550 
#    y 0.151490 3.446220 0.211920 
#    z -0.009550 0.211920 3.809000 
# 
# 
# High freq. dielectric constant tensor:
#      x y z
#    x 1.757640 0.015990 -0.002700 
#    y 0.015990 1.745760 0.018980 
#    z -0.002700 0.018980 1.764110 
# 
# From -- ./inp_files/157104.got.cif
#   From: 2010.06.25/outbox.cif.g09.slc.cpg/sg2_79_cif.got.tgz:157104.got - 2010.06.27 13:26:56.
