data_PCOD8003840
_publ_section_title
;
Structure prediction by ZEFSAII (Michael W. Deem and Ramdas Pophale) SiO2 
 PCOD8003840
Probable space group: P -1
;
_chemical_formula_sum "Si O2"
_cell_formula_units_Z 16
_cell_length_a 9.668959
_cell_length_b 12.618147
_cell_length_c 16.878195
_cell_angle_alpha 44.601151
_cell_angle_beta 100.421769
_cell_angle_gamma 134.812176
_cell_volume 784.515600
_symmetry_space_group_name_H-M "P -1"
_symmetry_group_IT_number 2
_symmetry_cell_setting 'triclinic'
loop_
_space_group_symop_operation_xyz
x,y,z
-x,-y,-z
loop_
_atom_site_type_symbol
_atom_site_label
_atom_site_fract_x
_atom_site_fract_y
_atom_site_fract_z
Si Si1 0.925861 0.772792 0.272623
Si Si2 0.809765 0.106301 0.351144
Si Si3 0.496737 0.658665 0.956772
Si Si4 0.351986 0.475393 0.217687
Si Si5 0.173994 0.533643 0.864480
Si Si6 0.424397 0.647474 0.671828
Si Si7 0.295628 0.097039 0.840339
Si Si8 0.516165 0.338287 0.575902
O O1 0.833861 0.621694 0.259789
O O2 0.862793 0.894479 0.202378
O O3 0.788357 0.555860 0.445022
O O4 0.224489 0.017695 0.183897
O O5 0.867541 0.325851 0.211211
O O6 0.065681 0.258163 0.329561
O O7 0.599247 0.924051 0.496092
O O8 0.711481 0.918948 0.367406
O O9 0.313411 0.608887 0.918842
O O10 0.500000 0.500000 0.000000
O O11 0.389492 0.549984 0.091038
O O12 0.401361 0.344142 0.306547
O O13 0.544304 0.744875 0.147332
O O14 0.350927 0.645065 0.750296
O O15 0.897050 0.211695 0.001316
O O16 0.487404 0.231234 0.715243
O O17 0.500000 0.500000 0.500000
#
# Coordination Sequence:
#
# PCOD8003840 Si02
#       8
#     2   2   2   2   2   2   2   2
#     4   9  19  37  61  90 118 159 215 256 292 365
#     4  11  25  41  61  96 127 162 205 258 314 362
#     4  12  22  37  62  95 121 163 208 252 302 368
#     4  11  23  39  65  93 121 161 215 257 294 372
#     4  12  24  39  63  91 133 164 200 258 314 367
#     4  10  21  42  64  89 124 165 208 254 306 366
#     4  10  20  37  61  92 122 164 204 253 314 355
#     4   9  20  38  62  85 123 163 203 252 304 365
#
# _framework density 20.394749000000001
#
# number of rings (size 3 to 8) (size 9 to 14) (size 15 to 20)
#    0.000    1.500    2.500    3.000    1.750    5.500 
#    0.000    3.750    0.000    0.000    0.000    0.000 
#    0.000    0.000    0.000    0.000    0.000    0.000 
#
# Total GULP energy -198429.295897 kJ/mol
# GULP energy per Si atom -12401.830994 kJ/mol
# Density = 2.034833 g / cm^3
# Si number density = 20.394749 Si / 1000 Ang^3
#
#
#
# Elastic Constant Matrix: (Units=GPa)
#
#
# Indices 1 2 3 4 5 6 
#
# 1 47.4337 28.9807 25.7509 -13.5887 7.4069 6.4688
# 2 28.9807 115.9584 52.8955 1.8344 0.7077 -0.5386
# 3 25.7509 52.8955 117.9290 -7.0078 0.5452 -6.4211
# 4 -13.5887 1.8344 -7.0078 41.8593 -3.3921 -6.6592
# 5 7.4069 0.7077 0.5452 -3.3921 27.0722 -0.0615
# 6 6.4688 -0.5386 -6.4211 -6.6592 -0.0615 18.1956
#
#
#
# Elastic Compliance Matrix: (Units=1/GPa)
#
#
# Indices 1 2 3 4 5 6 
#
# 1 0.031946 -0.006153 -0.004284 0.007678 -0.007555 -0.010267
# 2 -0.006153 0.012175 -0.004320 -0.003191 0.001052 -0.000141
# 3 -0.004284 -0.004320 0.011798 0.001873 0.001296 0.006248
# 4 0.007678 -0.003191 0.001873 0.028259 0.001505 0.008184
# 5 -0.007555 0.001052 0.001296 0.001505 0.039149 0.003857
# 6 -0.010267 -0.000141 0.006248 0.008184 0.003857 0.063818
#
#
# Mechanical properties :
#
#
# Convention : Reuss Voigt Hill
#
# Bulk Modulus (GPa) = 37.86903 55.17502 46.52203
# Shear Modulus (GPa) = 22.17676 29.00501 25.59088
#
# Velocity S-wave (km/s) = 3.30112 3.77527 3.54613
# Velocity P-wave (km/s) = 5.75658 6.79086 6.29500
#
# Compressibility (1/GPa) = 0.02640680
#
# Stress axis : x y z
#
# Youngs Moduli (GPa) = 31.30247 82.13218 84.75893
#
# Poissons Ratio (x) = 0.50537 0.36309
# Poissons Ratio (y) = 0.19261 0.36614
# Poissons Ratio (z) = 0.13409 0.35479
#
# Static dielectric constant tensor:
#      x y z
#    x 3.404290 -0.083220 -0.154190 
#    y -0.083220 3.914130 0.154490 
#    z -0.154190 0.154490 4.077140 
# 
# 
# High freq. dielectric constant tensor:
#      x y z
#    x 1.764770 -0.009130 -0.013100 
#    y -0.009130 1.808970 -0.000360 
#    z -0.013100 -0.000360 1.814460 
# 
# From -- ./inp_files/244449.got.cif
#   From: 2010.06.25/outbox.cif.g09.slc.cpg/sg2_123_cif.got.tgz:244449.got - 2010.06.27 13:26:56.
