data_PCOD8003849
_publ_section_title
;
Structure prediction by ZEFSAII (Michael W. Deem and Ramdas Pophale) SiO2 
 PCOD8003849
Probable space group: P -1
;
_chemical_formula_sum "Si O2"
_cell_formula_units_Z 14
_cell_length_a 5.102825
_cell_length_b 10.603373
_cell_length_c 14.305719
_cell_angle_alpha 120.993507
_cell_angle_beta 79.605411
_cell_angle_gamma 91.450936
_cell_volume 650.538775
_symmetry_space_group_name_H-M "P -1"
_symmetry_group_IT_number 2
_symmetry_cell_setting 'triclinic'
loop_
_space_group_symop_operation_xyz
x,y,z
-x,-y,-z
loop_
_atom_site_type_symbol
_atom_site_label
_atom_site_fract_x
_atom_site_fract_y
_atom_site_fract_z
Si Si1 0.019586 0.352815 0.813319
Si Si2 0.974957 0.315624 0.117092
Si Si3 0.310879 0.622260 0.451233
Si Si4 0.848944 0.430059 0.359719
Si Si5 0.476219 0.792528 0.184944
Si Si6 0.848260 0.149290 0.601183
Si Si7 0.470040 0.855214 0.005617
O O1 0.073435 0.520602 0.858111
O O2 0.227659 0.282533 0.848838
O O3 0.722173 0.338778 0.867980
O O4 0.048847 0.259997 0.678232
O O5 0.863609 0.314508 0.229724
O O6 0.811223 0.206063 0.025488
O O7 0.287994 0.265802 0.078030
O O8 0.617906 0.560414 0.409208
O O9 0.206251 0.660793 0.577419
O O10 0.294284 0.770832 0.448281
O O11 0.133338 0.499778 0.372126
O O12 0.373400 0.886951 0.319497
O O13 0.469554 0.893723 0.131179
O O14 0.000000 0.000000 0.500000
O O15 0.500000 0.000000 0.000000
#
# Coordination Sequence:
#
# PCOD8003849 Si02
#       7
#     2   2   2   2   2   2   2
#     4  10  22  41  68  98 128 161 220 264 314 380
#     4  12  23  42  72  94 131 169 214 268 317 373
#     4  10  20  37  61  92 133 159 211 255 314 369
#     4  10  20  38  62  94 123 167 207 264 304 372
#     4  10  23  44  64  94 134 160 223 265 316 380
#     4  10  23  41  65  95 133 170 205 263 322 381
#     4  12  28  45  65  95 129 173 213 263 325 388
#
# _framework density 21.520626
#
# number of rings (size 3 to 8) (size 9 to 14) (size 15 to 20)
#    0.857    0.571    1.429    3.857    0.000    5.143 
#    2.571    0.000    0.000    0.000    0.000    0.000 
#    0.000    0.000    0.000    0.000    0.000    0.000 
#
# Total GULP energy -173572.653458 kJ/mol
# GULP energy per Si atom -12398.046676 kJ/mol
# Density = 2.147164 g / cm^3
# Si number density = 21.520626 Si / 1000 Ang^3
#
#
#
# Elastic Constant Matrix: (Units=GPa)
#
#
# Indices 1 2 3 4 5 6 
#
# 1 92.2471 16.8919 -1.4962 -4.1746 5.8280 -9.6797
# 2 16.8919 134.1694 56.1574 -24.5738 8.6248 -11.2478
# 3 -1.4962 56.1574 76.5686 -24.9387 -9.6219 -12.8151
# 4 -4.1746 -24.5738 -24.9387 40.7298 1.1422 6.0949
# 5 5.8280 8.6248 -9.6219 1.1422 27.3584 -4.9953
# 6 -9.6797 -11.2478 -12.8151 6.0949 -4.9953 27.4095
#
#
#
# Elastic Compliance Matrix: (Units=1/GPa)
#
#
# Indices 1 2 3 4 5 6 
#
# 1 0.011783 -0.002108 0.002827 0.001015 -0.000095 0.004375
# 2 -0.002108 0.012491 -0.009889 0.001770 -0.007403 -0.001985
# 3 0.002827 -0.009889 0.026519 0.008720 0.013270 0.009819
# 4 0.001015 0.001770 0.008720 0.031295 0.000680 -0.001673
# 5 -0.000095 -0.007403 0.013270 0.000680 0.045607 0.011294
# 6 0.004375 -0.001985 0.009819 -0.001673 0.011294 0.044235
#
#
# Mechanical properties :
#
#
# Convention : Reuss Voigt Hill
#
# Bulk Modulus (GPa) = 30.81188 49.56570 40.18879
# Shear Modulus (GPa) = 24.86486 34.52834 29.69660
#
# Velocity S-wave (km/s) = 3.40280 4.00988 3.71875
# Velocity P-wave (km/s) = 5.45776 6.67237 6.09540
#
# Compressibility (1/GPa) = 0.03245501
#
# Stress axis : x y z
#
# Youngs Moduli (GPa) = 84.86543 80.05555 37.70889
#
# Poissons Ratio (x) = 0.16877 -0.10662
# Poissons Ratio (y) = 0.17891 0.37288
# Poissons Ratio (z) = -0.23995 0.79163
#
# Static dielectric constant tensor:
#      x y z
#    x 3.928840 -0.133030 0.010680 
#    y -0.133030 3.656930 -0.406510 
#    z 0.010680 -0.406510 3.963140 
# 
# 
# High freq. dielectric constant tensor:
#      x y z
#    x 1.855670 -0.012040 -0.002810 
#    y -0.012040 1.828230 -0.032040 
#    z -0.002810 -0.032040 1.839820 
# 
# From -- ./inp_files/480723.got.cif
#   From: 2010.06.25/outbox.cif.g09.slc.cpg/sg2_241_cif.got.tgz:480723.got - 2010.06.27 13:26:56.
