data_PCOD8003555
_publ_section_title
;
Structure prediction by ZEFSAII (Michael W. Deem and Ramdas Pophale) SiO2 
 PCOD8003555
Probable space group: P -1
;
_chemical_formula_sum "Si O2"
_cell_formula_units_Z 16
_cell_length_a 17.835320
_cell_length_b 7.743888
_cell_length_c 8.198502
_cell_angle_alpha 57.073596
_cell_angle_beta 73.396876
_cell_angle_gamma 107.726219
_cell_volume 747.351712
_symmetry_space_group_name_H-M "P -1"
_symmetry_group_IT_number 2
_symmetry_cell_setting 'triclinic'
loop_
_space_group_symop_operation_xyz
x,y,z
-x,-y,-z
loop_
_atom_site_type_symbol
_atom_site_label
_atom_site_fract_x
_atom_site_fract_y
_atom_site_fract_z
Si Si1 0.855456 0.580496 0.144240
Si Si2 0.809256 0.217064 0.947051
Si Si3 0.927752 0.107309 0.754159
Si Si4 0.673954 0.199841 0.256176
Si Si5 0.611840 0.437152 0.916751
Si Si6 0.605764 0.886522 0.772417
Si Si7 0.986312 0.477275 0.268585
Si Si8 0.738395 0.381571 0.634007
O O1 0.772099 0.442914 0.135665
O O2 0.919071 0.466379 0.173135
O O3 0.806667 0.567285 0.353969
O O4 0.930319 0.866316 0.892329
O O5 0.825450 0.030094 0.932788
O O6 0.804301 0.397381 0.729725
O O7 0.903031 0.401256 0.910594
O O8 0.710780 0.064606 0.189101
O O9 0.937520 0.196585 0.514546
O O10 0.013264 0.343158 0.682627
O O11 0.620476 0.291042 0.136794
O O12 0.606926 0.012271 0.535502
O O13 0.501862 0.277630 0.010705
O O14 0.644403 0.712724 0.812660
O O15 0.672970 0.465278 0.705679
O O16 0.672064 0.096612 0.755081
#
# Coordination Sequence:
#
# PCOD8003555 Si02
#       8
#     2   2   2   2   2   2   2   2
#     4  11  20  32  56  82 104 147 187 219 272 324
#     4   9  19  36  54  76 110 148 175 226 277 308
#     4   9  18  32  54  72 104 147 181 221 268 314
#     4  10  23  36  54  84 113 137 183 236 270 327
#     4  10  22  39  60  82 112 148 179 224 289 332
#     4  10  22  40  60  82 112 146 179 231 282 331
#     4   9  18  34  53  74 112 143 184 224 266 320
#     4  10  20  37  59  85 111 143 191 227 267 337
#
# _framework density 21.408930999999999
#
# number of rings (size 3 to 8) (size 9 to 14) (size 15 to 20)
#    0.750    1.500    1.250    1.125    3.500    0.500 
#    0.000    0.625    0.000    7.500    0.000    0.000 
#    0.000    0.000    0.000    0.000    0.000    0.000 
#
# Total GULP energy -198255.778397 kJ/mol
# GULP energy per Si atom -12390.986150 kJ/mol
# Density = 2.136020 g / cm^3
# Si number density = 21.408931 Si / 1000 Ang^3
#
#
#
# Elastic Constant Matrix: (Units=GPa)
#
#
# Indices 1 2 3 4 5 6 
#
# 1 101.7240 28.1768 28.1186 -0.4741 -1.0062 -9.7765
# 2 28.1768 46.7162 10.9423 -7.1200 3.5330 -5.2682
# 3 28.1186 10.9423 62.4111 -17.0041 14.4798 -5.0035
# 4 -0.4741 -7.1200 -17.0041 22.4140 -1.3129 -1.2328
# 5 -1.0062 3.5330 14.4798 -1.3129 28.7779 1.3188
# 6 -9.7765 -5.2682 -5.0035 -1.2328 1.3188 26.5129
#
#
#
# Elastic Compliance Matrix: (Units=1/GPa)
#
#
# Indices 1 2 3 4 5 6 
#
# 1 0.014681 -0.008377 -0.008591 -0.008471 0.005411 0.001464
# 2 -0.008377 0.028213 0.003412 0.011289 -0.005139 0.003941
# 3 -0.008591 0.003412 0.029182 0.022449 -0.014598 0.004787
# 4 -0.008471 0.011289 0.022449 0.064825 -0.010335 0.006885
# 5 0.005411 -0.005139 -0.014598 -0.010335 0.042643 -0.004382
# 6 0.001464 0.003941 0.004787 0.006885 -0.004382 0.040482
#
#
# Mechanical properties :
#
#
# Convention : Reuss Voigt Hill
#
# Bulk Modulus (GPa) = 22.24092 38.36963 30.30528
# Shear Modulus (GPa) = 19.07467 25.11519 22.09493
#
# Velocity S-wave (km/s) = 2.98815 3.42880 3.21603
# Velocity P-wave (km/s) = 4.72404 5.79971 5.28929
#
# Compressibility (1/GPa) = 0.04496217
#
# Stress axis : x y z
#
# Youngs Moduli (GPa) = 68.11727 35.44446 34.26758
#
# Poissons Ratio (x) = 0.29693 0.29440
# Poissons Ratio (y) = 0.57064 -0.11691
# Poissons Ratio (z) = 0.58521 -0.12093
#
# Static dielectric constant tensor:
#      x y z
#    x 3.849650 -0.080840 -0.038400 
#    y -0.080840 3.581440 0.226380 
#    z -0.038400 0.226380 3.721370 
# 
# 
# High freq. dielectric constant tensor:
#      x y z
#    x 1.847690 -0.002620 -0.001200 
#    y -0.002620 1.811800 0.016370 
#    z -0.001200 0.016370 1.832350 
# 
# From -- ./inp_files/328412.got.cif
#   From: 2010.06.25/outbox.cif.g09.slc.cpg/sg2_165_cif.got.tgz:328412.got - 2010.06.27 13:26:56.
