data_PCOD8003474
_publ_section_title
;
Structure prediction by ZEFSAII (Michael W. Deem and Ramdas Pophale) SiO2 
 PCOD8003474
Probable space group: P -1
;
_chemical_formula_sum "Si O2"
_cell_formula_units_Z 16
_cell_length_a 19.246433
_cell_length_b 8.225378
_cell_length_c 17.460211
_cell_angle_alpha 115.277590
_cell_angle_beta 22.047417
_cell_angle_gamma 127.610913
_cell_volume 727.104359
_symmetry_space_group_name_H-M "P -1"
_symmetry_group_IT_number 2
_symmetry_cell_setting 'triclinic'
loop_
_space_group_symop_operation_xyz
x,y,z
-x,-y,-z
loop_
_atom_site_type_symbol
_atom_site_label
_atom_site_fract_x
_atom_site_fract_y
_atom_site_fract_z
Si Si1 0.021623 0.887223 0.780183
Si Si2 0.415247 0.869065 0.405729
Si Si3 0.024463 0.518306 0.852532
Si Si4 0.071621 0.808712 0.991061
Si Si5 0.696363 0.346597 0.028430
Si Si6 0.643163 0.753535 0.027200
Si Si7 0.808336 0.063949 0.779331
Si Si8 0.680329 0.762254 0.709058
O O1 0.291737 0.975243 0.518390
O O2 0.854064 0.621524 0.922426
O O3 0.914345 0.900833 0.813102
O O4 0.003447 0.029769 0.892602
O O5 0.479802 0.777771 0.252148
O O6 0.232524 0.650068 0.603522
O O7 0.647722 0.058771 0.256028
O O8 0.006175 0.699291 0.951047
O O9 0.079872 0.396443 0.832393
O O10 0.766034 0.308457 0.033287
O O11 0.421955 0.230407 0.267359
O O12 0.763312 0.247332 0.872944
O O13 0.518886 0.482362 0.094409
O O14 0.654333 0.847695 0.951226
O O15 0.086499 0.207895 0.540569
O O16 0.740249 0.968983 0.743416
#
# Coordination Sequence:
#
# PCOD8003474 Si02
#       8
#     2   2   2   2   2   2   2   2
#     4   9  20  36  57  84 114 147 190 228 274 336
#     4  10  20  37  58  82 117 152 183 230 281 326
#     4  10  21  38  60  83 115 149 187 234 279 332
#     4  10  21  39  58  85 115 147 190 233 276 330
#     4  10  20  37  58  84 115 148 186 231 282 334
#     4  10  21  37  58  85 115 149 189 230 276 334
#     4  11  22  38  60  84 113 148 189 233 280 337
#     4  10  22  39  59  84 114 148 186 233 286 331
#
# _framework density 22.005094
#
# number of rings (size 3 to 8) (size 9 to 14) (size 15 to 20)
#    0.000    2.000    0.000    4.125    0.000    4.000 
#    0.000   12.500    0.000   10.500    0.000    0.000 
#    0.000    0.000    0.000    0.000    0.000    0.000 
#
# Total GULP energy -198329.004078 kJ/mol
# GULP energy per Si atom -12395.562755 kJ/mol
# Density = 2.195501 g / cm^3
# Si number density = 22.005094 Si / 1000 Ang^3
#
#
#
# Elastic Constant Matrix: (Units=GPa)
#
#
# Indices 1 2 3 4 5 6 
#
# 1 70.0801 4.7242 33.5388 0.0261 -17.0302 7.0913
# 2 4.7242 100.7525 19.8394 18.2491 -15.6374 7.1312
# 3 33.5388 19.8394 81.7918 1.9860 -26.7027 1.7563
# 4 0.0261 18.2491 1.9860 27.9908 -9.9292 -4.5696
# 5 -17.0302 -15.6374 -26.7027 -9.9292 34.8492 -7.6884
# 6 7.0913 7.1312 1.7563 -4.5696 -7.6884 30.4395
#
#
#
# Elastic Compliance Matrix: (Units=1/GPa)
#
#
# Indices 1 2 3 4 5 6 
#
# 1 0.018628 0.001151 -0.006519 0.000654 0.004129 -0.003092
# 2 0.001151 0.012341 -0.003005 -0.008318 0.000523 -0.004103
# 3 -0.006519 -0.003005 0.019814 0.006294 0.013648 0.005472
# 4 0.000654 -0.008318 0.006294 0.049470 0.018490 0.013530
# 5 0.004129 0.000523 0.013648 0.018490 0.049639 0.013442
# 6 -0.003092 -0.004103 0.005472 0.013530 0.013442 0.039644
#
#
# Mechanical properties :
#
#
# Convention : Reuss Voigt Hill
#
# Bulk Modulus (GPa) = 29.37956 40.98101 35.18028
# Shear Modulus (GPa) = 22.97520 31.62403 27.29961
#
# Velocity S-wave (km/s) = 3.23474 3.79505 3.52604
# Velocity P-wave (km/s) = 5.22796 6.15362 5.70958
#
# Compressibility (1/GPa) = 0.03403727
#
# Stress axis : x y z
#
# Youngs Moduli (GPa) = 53.68364 81.02918 50.47017
#
# Poissons Ratio (x) = -0.09330 0.32902
# Poissons Ratio (y) = -0.06181 0.15166
# Poissons Ratio (z) = 0.34997 0.24349
#
# Static dielectric constant tensor:
#      x y z
#    x 4.257120 0.070600 -0.343590 
#    y 0.070600 4.005740 0.035800 
#    z -0.343590 0.035800 3.822460 
# 
# 
# High freq. dielectric constant tensor:
#      x y z
#    x 1.864220 0.007200 -0.012990 
#    y 0.007200 1.876700 0.003490 
#    z -0.012990 0.003490 1.847670 
# 
# From -- ./inp_files/577351.got.cif
#   From: 2010.06.25/outbox.cif.g09.slc.cpg/sg2_289_cif.got.tgz:577351.got - 2010.06.27 13:26:56.
