data_PCOD8003175
_publ_section_title
;
Structure prediction by ZEFSAII (Michael W. Deem and Ramdas Pophale) SiO2 
 PCOD8003175
Probable space group: P -1
;
_chemical_formula_sum "Si O2"
_cell_formula_units_Z 16
_cell_length_a 14.392444
_cell_length_b 11.609885
_cell_length_c 9.666396
_cell_angle_alpha 59.536818
_cell_angle_beta 79.516150
_cell_angle_gamma 39.257080
_cell_volume 812.683077
_symmetry_space_group_name_H-M "P -1"
_symmetry_group_IT_number 2
_symmetry_cell_setting 'triclinic'
loop_
_space_group_symop_operation_xyz
x,y,z
-x,-y,-z
loop_
_atom_site_type_symbol
_atom_site_label
_atom_site_fract_x
_atom_site_fract_y
_atom_site_fract_z
Si Si1 0.705296 0.772267 0.016212
Si Si2 0.265637 0.967216 0.157705
Si Si3 0.395985 0.334649 0.697097
Si Si4 0.846189 0.174214 0.839581
Si Si5 0.082599 0.809895 0.488900
Si Si6 0.042152 0.279108 0.274001
Si Si7 0.372186 0.333149 0.395452
Si Si8 0.686844 0.844614 0.665599
O O1 0.587060 0.814790 0.116084
O O2 0.874638 0.508676 0.110732
O O3 0.743521 0.875795 0.008566
O O4 0.627396 0.883300 0.816633
O O5 0.144272 0.088324 0.244313
O O6 0.445050 0.756876 0.298608
O O7 0.231562 0.885679 0.109749
O O8 0.261510 0.588042 0.634587
O O9 0.330064 0.358877 0.551849
O O10 0.919860 0.134130 0.698818
O O11 0.703517 0.437026 0.768627
O O12 0.000000 0.000000 0.000000
O O13 0.987691 0.778003 0.548316
O O14 0.000000 0.000000 0.500000
O O15 0.135845 0.300542 0.290918
O O16 0.293867 0.311226 0.332888
O O17 0.564609 0.091792 0.478821
#
# Coordination Sequence:
#
# PCOD8003175 Si02
#       8
#     2   2   2   2   2   2   2   2
#     4  10  21  36  63  93 120 149 203 244 291 347
#     4  11  20  37  64  86 116 161 193 242 291 353
#     4  10  21  38  60  94 116 149 199 251 288 348
#     4  11  26  40  58  86 124 158 198 243 302 354
#     4  10  21  40  60  85 119 154 197 248 292 347
#     4  10  20  36  63  92 111 158 205 240 286 357
#     4  10  22  38  57  89 120 158 190 248 300 343
#     4  10  20  37  62  87 121 158 193 244 296 355
#
# _framework density 19.687871999999999
#
# number of rings (size 3 to 8) (size 9 to 14) (size 15 to 20)
#    0.000    1.750    3.750    1.875    3.500    3.000 
#    2.250    1.875    0.000    2.250    0.000    0.000 
#    0.000    0.000    0.000    0.000    0.000    0.000 
#
# Total GULP energy -198234.630653 kJ/mol
# GULP energy per Si atom -12389.664416 kJ/mol
# Density = 1.964306 g / cm^3
# Si number density = 19.687872 Si / 1000 Ang^3
#
#
#
# Elastic Constant Matrix: (Units=GPa)
#
#
# Indices 1 2 3 4 5 6 
#
# 1 119.2049 37.5927 43.2018 0.9766 5.7080 18.0473
# 2 37.5927 77.4075 21.8665 -18.9962 -4.1518 22.0802
# 3 43.2018 21.8665 92.8341 -15.9102 -0.7168 8.4142
# 4 0.9766 -18.9962 -15.9102 25.7791 -0.9553 -4.9681
# 5 5.7080 -4.1518 -0.7168 -0.9553 27.4250 6.1064
# 6 18.0473 22.0802 8.4142 -4.9681 6.1064 32.4575
#
#
#
# Elastic Compliance Matrix: (Units=1/GPa)
#
#
# Indices 1 2 3 4 5 6 
#
# 1 0.013315 -0.006787 -0.006130 -0.009813 -0.003862 -0.001973
# 2 -0.006787 0.023652 0.001576 0.016706 0.008225 -0.011715
# 3 -0.006130 0.001576 0.015151 0.010757 0.002372 -0.000391
# 4 -0.009813 0.016706 0.010757 0.058157 0.007131 -0.001137
# 5 -0.003862 0.008225 0.002372 0.007131 0.041210 -0.010724
# 6 -0.001973 -0.011715 -0.000391 -0.001137 -0.010724 0.041821
#
#
# Mechanical properties :
#
#
# Convention : Reuss Voigt Hill
#
# Bulk Modulus (GPa) = 33.97382 54.97429 44.47405
# Shear Modulus (GPa) = 22.14339 29.58467 25.86403
#
# Velocity S-wave (km/s) = 3.35733 3.88065 3.62844
# Velocity P-wave (km/s) = 5.68529 6.93274 6.33977
#
# Compressibility (1/GPa) = 0.02943443
#
# Stress axis : x y z
#
# Youngs Moduli (GPa) = 75.10301 42.27957 66.00266
#
# Poissons Ratio (x) = 0.28696 0.40463
# Poissons Ratio (y) = 0.50973 -0.10400
# Poissons Ratio (z) = 0.46041 -0.06662
#
# Static dielectric constant tensor:
#      x y z
#    x 4.228280 -0.262520 -0.484830 
#    y -0.262520 4.095180 0.069640 
#    z -0.484830 0.069640 4.097610 
# 
# 
# High freq. dielectric constant tensor:
#      x y z
#    x 1.755510 -0.004860 -0.004570 
#    y -0.004860 1.784090 -0.027220 
#    z -0.004570 -0.027220 1.755120 
# 
# From -- ./inp_files/273472.got.cif
#   From: 2010.06.25/outbox.cif.g09.slc.cpg/sg2_137_cif.got.tgz:273472.got - 2010.06.27 13:26:56.
