data_PCOD8003087
_publ_section_title
;
Structure prediction by ZEFSAII (Michael W. Deem and Ramdas Pophale) SiO2 
 PCOD8003087
Probable space group: P -1
;
_chemical_formula_sum "Si O2"
_cell_formula_units_Z 16
_cell_length_a 11.316560
_cell_length_b 9.147288
_cell_length_c 15.361044
_cell_angle_alpha 102.180673
_cell_angle_beta 40.718497
_cell_angle_gamma 127.845758
_cell_volume 712.603379
_symmetry_space_group_name_H-M "P -1"
_symmetry_group_IT_number 2
_symmetry_cell_setting 'triclinic'
loop_
_space_group_symop_operation_xyz
x,y,z
-x,-y,-z
loop_
_atom_site_type_symbol
_atom_site_label
_atom_site_fract_x
_atom_site_fract_y
_atom_site_fract_z
Si Si1 0.024246 0.683945 0.480039
Si Si2 0.024827 0.745332 0.062659
Si Si3 0.708018 0.400324 0.054283
Si Si4 0.920514 0.258987 0.242102
Si Si5 0.311110 0.627426 0.501728
Si Si6 0.171019 0.120378 0.683779
Si Si7 0.882780 0.895385 0.646227
Si Si8 0.433326 0.038082 0.739770
O O1 0.327474 0.904874 0.339002
O O2 0.000000 0.500000 0.500000
O O3 0.899044 0.619722 0.443955
O O4 0.878134 0.710904 0.630824
O O5 0.787658 0.547404 0.111446
O O6 0.924778 0.792431 0.199795
O O7 0.172783 0.694208 0.017247
O O8 0.223055 0.958189 0.919631
O O9 0.401337 0.206963 0.195388
O O10 0.807220 0.531829 0.924852
O O11 0.841091 0.314496 0.374978
O O12 0.935293 0.095431 0.242017
O O13 0.700558 0.154996 0.277853
O O14 0.514116 0.688935 0.468002
O O15 0.476887 0.763182 0.338891
O O16 0.069755 0.074906 0.636885
O O17 0.000000 0.000000 0.500000
#
# Coordination Sequence:
#
# PCOD8003087 Si02
#       8
#     2   2   2   2   2   2   2   2
#     4  10  20  36  62  90 119 155 198 246 292 349
#     4  10  22  41  63  88 122 162 201 245 302 361
#     4  10  24  42  60  88 125 161 198 248 303 358
#     4  10  21  38  62  91 125 160 200 249 299 354
#     4  10  20  36  62  94 124 158 204 249 295 353
#     4  11  23  39  63  90 120 161 205 250 299 359
#     4  12  26  43  62  88 122 158 201 253 310 363
#     4   9  18  35  61  90 124 160 196 244 295 349
#
# _framework density 22.452881999999999
#
# number of rings (size 3 to 8) (size 9 to 14) (size 15 to 20)
#    0.000    1.750    0.000    5.250    0.000   11.500 
#    0.000    1.875    0.000    0.000    0.000    0.000 
#    0.000    0.000    0.000    0.000    0.000    0.000 
#
# Total GULP energy -198326.050449 kJ/mol
# GULP energy per Si atom -12395.378153 kJ/mol
# Density = 2.240178 g / cm^3
# Si number density = 22.452882 Si / 1000 Ang^3
#
#
#
# Elastic Constant Matrix: (Units=GPa)
#
#
# Indices 1 2 3 4 5 6 
#
# 1 115.0244 45.3893 48.5751 -0.4718 -11.4617 25.4451
# 2 45.3893 76.9379 39.5244 30.7928 -5.7928 16.9055
# 3 48.5751 39.5244 88.4501 11.5843 -5.9612 10.9563
# 4 -0.4718 30.7928 11.5843 47.9359 0.3998 -6.5874
# 5 -11.4617 -5.7928 -5.9612 0.3998 36.3650 -5.1166
# 6 25.4451 16.9055 10.9563 -6.5874 -5.1166 42.9291
#
#
#
# Elastic Compliance Matrix: (Units=1/GPa)
#
#
# Indices 1 2 3 4 5 6 
#
# 1 0.014720 -0.007547 -0.004897 0.005694 0.002096 -0.003379
# 2 -0.007547 0.029982 -0.005621 -0.019187 0.000450 -0.008790
# 3 -0.004897 -0.005621 0.016458 -0.000292 0.000391 0.000918
# 4 0.005694 -0.019187 -0.000292 0.034625 -0.000350 0.009527
# 5 0.002096 0.000450 0.000391 -0.000350 0.028557 0.001830
# 6 -0.003379 -0.008790 0.000918 0.009527 0.001830 0.030204
#
#
# Mechanical properties :
#
#
# Convention : Reuss Voigt Hill
#
# Bulk Modulus (GPa) = 39.95301 60.82112 50.38707
# Shear Modulus (GPa) = 25.12320 35.24090 30.18205
#
# Velocity S-wave (km/s) = 3.34867 3.96605 3.67036
# Velocity P-wave (km/s) = 5.72575 6.93685 6.36019
#
# Compressibility (1/GPa) = 0.02502940
#
# Stress axis : x y z
#
# Youngs Moduli (GPa) = 67.93582 33.35372 60.76046
#
# Poissons Ratio (x) = 0.25171 0.29757
# Poissons Ratio (y) = 0.51269 0.34153
# Poissons Ratio (z) = 0.33271 0.18748
#
# Static dielectric constant tensor:
#      x y z
#    x 4.451960 0.456330 -0.182290 
#    y 0.456330 4.394680 -0.079680 
#    z -0.182290 -0.079680 4.062370 
# 
# 
# High freq. dielectric constant tensor:
#      x y z
#    x 1.888170 0.013030 -0.006780 
#    y 0.013030 1.885480 0.001720 
#    z -0.006780 0.001720 1.871720 
# 
# From -- ./inp_files/515859.got.cif
#   From: 2010.06.25/outbox.cif.g09.slc.cpg/sg2_258_cif.got.tgz:515859.got - 2010.06.27 13:26:56.
