data_PCOD8003454
_publ_section_title
;
Structure prediction by ZEFSAII (Michael W. Deem and Ramdas Pophale) SiO2 
 PCOD8003454
Probable space group: P -1
;
_chemical_formula_sum "Si O2"
_cell_formula_units_Z 12
_cell_length_a 11.587510
_cell_length_b 18.498329
_cell_length_c 9.009226
_cell_angle_alpha 148.139726
_cell_angle_beta 141.175488
_cell_angle_gamma 40.107340
_cell_volume 607.229310
_symmetry_space_group_name_H-M "P -1"
_symmetry_group_IT_number 2
_symmetry_cell_setting 'triclinic'
loop_
_space_group_symop_operation_xyz
x,y,z
-x,-y,-z
loop_
_atom_site_type_symbol
_atom_site_label
_atom_site_fract_x
_atom_site_fract_y
_atom_site_fract_z
Si Si1 0.889127 0.320997 0.812011
Si Si2 0.784460 0.396138 0.517739
Si Si3 0.862023 0.638163 0.385229
Si Si4 0.400871 0.852674 0.772359
Si Si5 0.762572 0.829202 0.904595
Si Si6 0.566843 0.702856 0.956650
O O1 0.915851 0.329942 0.677339
O O2 0.708063 0.265183 0.567555
O O3 0.840184 0.480287 0.109998
O O4 0.084588 0.210768 0.878462
O O5 0.681525 0.565055 0.733532
O O6 0.622188 0.318864 0.191987
O O7 0.922832 0.373567 0.475073
O O8 0.833898 0.713111 0.645337
O O9 0.702016 0.732265 0.272789
O O10 0.554761 0.827942 0.751263
O O11 0.501429 0.834704 0.004613
O O12 0.250278 0.013090 0.893813
#
# Coordination Sequence:
#
# PCOD8003454 Si02
#       6
#     2   2   2   2   2   2
#     4  10  20  37  58  77 104 142 179 215 261 316
#     4   9  18  34  58  81 104 137 177 221 262 308
#     4  11  21  33  57  86 106 131 176 231 265 297
#     4  10  22  39  55  73 108 151 177 206 262 326
#     4  11  23  36  53  80 111 141 175 217 265 314
#     4   9  18  35  56  79 106 139 177 214 263 316
#
# _framework density 19.761890999999999
#
# number of rings (size 3 to 8) (size 9 to 14) (size 15 to 20)
#    0.000    2.000    0.000    6.000    0.000    2.667 
#    0.000    3.333    0.000    0.000    0.000    0.000 
#    0.000    0.000    0.000    0.000    0.000    0.000 
#
# Total GULP energy -148838.469353 kJ/mol
# GULP energy per Si atom -12403.205779 kJ/mol
# Density = 1.971691 g / cm^3
# Si number density = 19.761891 Si / 1000 Ang^3
#
#
#
# Elastic Constant Matrix: (Units=GPa)
#
#
# Indices 1 2 3 4 5 6 
#
# 1 71.9606 16.3170 37.6874 8.5868 17.1784 -2.1281
# 2 16.3170 129.4159 19.0933 0.9097 9.3331 7.9926
# 3 37.6874 19.0933 48.4390 2.8640 10.5488 -4.5211
# 4 8.5868 0.9097 2.8640 23.4119 3.4432 8.2685
# 5 17.1784 9.3331 10.5488 3.4432 17.2127 0.8669
# 6 -2.1281 7.9926 -4.5211 8.2685 0.8669 22.4674
#
#
#
# Elastic Compliance Matrix: (Units=1/GPa)
#
#
# Indices 1 2 3 4 5 6 
#
# 1 0.027642 0.000166 -0.017587 -0.006378 -0.015723 0.001974
# 2 0.000166 0.008683 -0.003438 0.002006 -0.002947 -0.004390
# 3 -0.017587 -0.003438 0.037160 0.000059 -0.003730 0.007157
# 4 -0.006378 0.002006 0.000059 0.052875 -0.004298 -0.020599
# 5 -0.015723 -0.002947 -0.003730 -0.004298 0.078664 -0.002645
# 6 0.001974 -0.004390 0.007157 -0.020599 -0.002645 0.055381
#
#
# Mechanical properties :
#
#
# Convention : Reuss Voigt Hill
#
# Bulk Modulus (GPa) = 31.47938 44.00122 37.74030
# Shear Modulus (GPa) = 15.98916 24.39957 20.19437
#
# Velocity S-wave (km/s) = 2.84754 3.51761 3.20016
# Velocity P-wave (km/s) = 5.17448 6.22994 5.72658
#
# Compressibility (1/GPa) = 0.03176683
#
# Stress axis : x y z
#
# Youngs Moduli (GPa) = 36.17664 115.16925 26.91080
#
# Poissons Ratio (x) = -0.01915 0.47328
# Poissons Ratio (y) = -0.00602 0.09253
# Poissons Ratio (z) = 0.63623 0.39601
#
# Static dielectric constant tensor:
#      x y z
#    x 3.461790 0.123620 0.246070 
#    y 0.123620 3.946780 -0.105280 
#    z 0.246070 -0.105280 3.338110 
# 
# 
# High freq. dielectric constant tensor:
#      x y z
#    x 1.766110 0.006030 0.021380 
#    y 0.006030 1.787670 -0.011950 
#    z 0.021380 -0.011950 1.743130 
# 
# From -- ./inp_files/149008.got.cif
#   From: 2010.06.25/outbox.cif.g09.slc.cpg/sg2_75_cif.got.tgz:149008.got - 2010.06.27 13:26:56.
