data_PCOD8003568
_publ_section_title
;
Structure prediction by ZEFSAII (Michael W. Deem and Ramdas Pophale) SiO2 
 PCOD8003568
Probable space group: P -1
;
_chemical_formula_sum "Si O2"
_cell_formula_units_Z 16
_cell_length_a 9.354666
_cell_length_b 12.761209
_cell_length_c 7.375822
_cell_angle_alpha 56.985783
_cell_angle_beta 75.047967
_cell_angle_gamma 73.404855
_cell_volume 701.810647
_symmetry_space_group_name_H-M "P -1"
_symmetry_group_IT_number 2
_symmetry_cell_setting 'triclinic'
loop_
_space_group_symop_operation_xyz
x,y,z
-x,-y,-z
loop_
_atom_site_type_symbol
_atom_site_label
_atom_site_fract_x
_atom_site_fract_y
_atom_site_fract_z
Si Si1 0.526373 0.694941 0.688435
Si Si2 0.156496 0.321327 0.561142
Si Si3 0.399440 0.710798 0.291653
Si Si4 0.592243 0.093884 0.217315
Si Si5 0.388062 0.959440 0.220469
Si Si6 0.139803 0.561723 0.593837
Si Si7 0.385103 0.470766 0.830002
Si Si8 0.150610 0.053533 0.930099
O O1 0.680123 0.724867 0.531532
O O2 0.418354 0.825050 0.669656
O O3 0.442650 0.607256 0.667565
O O4 0.574387 0.603040 0.931266
O O5 0.147866 0.444598 0.568072
O O6 0.114978 0.206319 0.802587
O O7 0.028760 0.358326 0.411229
O O8 0.420966 0.802244 0.377214
O O9 0.248233 0.653747 0.393823
O O10 0.546598 0.606846 0.297321
O O11 0.384862 0.813352 0.041300
O O12 0.436618 0.031677 0.316102
O O13 0.740859 0.986458 0.244036
O O14 0.500000 0.000000 0.000000
O O15 0.220810 0.007198 0.149937
O O16 0.204858 0.507466 0.820165
O O17 0.000000 0.000000 0.000000
#
# Coordination Sequence:
#
# PCOD8003568 Si02
#       8
#     2   2   2   2   2   2   2   2
#     4  10  22  39  57  87 120 154 189 234 292 355
#     4  11  24  37  57  87 121 148 198 238 285 344
#     4   9  16  33  60  85 112 140 200 243 283 328
#     4   9  20  35  59  85 116 153 189 234 290 347
#     4   8  17  31  57  86 108 145 193 236 280 330
#     4  11  23  36  57  90 112 155 194 247 280 333
#     4  10  21  36  60  84 120 156 187 235 296 339
#     4  10  20  37  59  86 114 150 191 244 287 330
#
# _framework density 22.798172999999998
#
# number of rings (size 3 to 8) (size 9 to 14) (size 15 to 20)
#    0.000    2.500    1.250    1.875    7.000    1.000 
#    0.000    1.250    0.000    2.250    0.000    0.000 
#    0.000    0.000    0.000    0.000    0.000    0.000 
#
# Total GULP energy -198253.569368 kJ/mol
# GULP energy per Si atom -12390.848086 kJ/mol
# Density = 2.274628 g / cm^3
# Si number density = 22.798173 Si / 1000 Ang^3
#
#
#
# Elastic Constant Matrix: (Units=GPa)
#
#
# Indices 1 2 3 4 5 6 
#
# 1 160.9801 48.8898 14.3510 -4.6531 5.8441 13.6285
# 2 48.8898 143.6850 37.8021 -12.1016 2.9076 24.5641
# 3 14.3510 37.8021 44.9457 -24.9906 -11.9120 12.3344
# 4 -4.6531 -12.1016 -24.9906 40.1576 6.8800 -4.9183
# 5 5.8441 2.9076 -11.9120 6.8800 29.6059 -5.0453
# 6 13.6285 24.5641 12.3344 -4.9183 -5.0453 34.2343
#
#
#
# Elastic Compliance Matrix: (Units=1/GPa)
#
#
# Indices 1 2 3 4 5 6 
#
# 1 0.007045 -0.001931 -0.000757 -0.000115 -0.001720 -0.001417
# 2 -0.001931 0.010962 -0.010389 -0.003095 -0.004927 -0.004525
# 3 -0.000757 -0.010389 0.050313 0.024989 0.014822 -0.004597
# 4 -0.000115 -0.003095 0.024989 0.039201 0.001111 -0.000941
# 5 -0.001720 -0.004927 0.014822 0.001111 0.041177 0.005108
# 6 -0.001417 -0.004525 -0.004597 -0.000941 0.005108 0.035295
#
#
# Mechanical properties :
#
#
# Convention : Reuss Voigt Hill
#
# Bulk Modulus (GPa) = 23.71476 61.29962 42.50719
# Shear Modulus (GPa) = 22.30139 37.37076 29.83608
#
# Velocity S-wave (km/s) = 3.13103 4.05310 3.62153
# Velocity P-wave (km/s) = 4.84724 6.98926 6.01438
#
# Compressibility (1/GPa) = 0.04216784
#
# Stress axis : x y z
#
# Youngs Moduli (GPa) = 141.94865 91.22128 19.87565
#
# Poissons Ratio (x) = 0.17612 0.01504
# Poissons Ratio (y) = 0.27405 0.20648
# Poissons Ratio (z) = 0.10743 0.94766
#
# Static dielectric constant tensor:
#      x y z
#    x 4.688130 0.789700 0.535080 
#    y 0.789700 5.697630 0.244170 
#    z 0.535080 0.244170 4.627850 
# 
# 
# High freq. dielectric constant tensor:
#      x y z
#    x 1.890750 0.021600 0.020490 
#    y 0.021600 1.911870 -0.037790 
#    z 0.020490 -0.037790 1.918880 
# 
# From -- ./inp_files/174961.got.cif
#   From: 2010.06.25/outbox.cif.g09.slc.cpg/sg2_88_cif.got.tgz:174961.got - 2010.06.27 13:26:56.
