data_PCOD8003038
_publ_section_title
;
Structure prediction by ZEFSAII (Michael W. Deem and Ramdas Pophale) SiO2 
 PCOD8003038
Probable space group: P -1
;
_chemical_formula_sum "Si O2"
_cell_formula_units_Z 16
_cell_length_a 7.098605
_cell_length_b 11.834474
_cell_length_c 10.883270
_cell_angle_alpha 101.255378
_cell_angle_beta 67.207223
_cell_angle_gamma 118.230280
_cell_volume 742.550971
_symmetry_space_group_name_H-M "P -1"
_symmetry_group_IT_number 2
_symmetry_cell_setting 'triclinic'
loop_
_space_group_symop_operation_xyz
x,y,z
-x,-y,-z
loop_
_atom_site_type_symbol
_atom_site_label
_atom_site_fract_x
_atom_site_fract_y
_atom_site_fract_z
Si Si1 0.454959 0.138333 0.162525
Si Si2 0.032167 0.697950 0.890017
Si Si3 0.462666 0.883799 0.134085
Si Si4 0.948366 0.709111 0.187270
Si Si5 0.959450 0.512200 0.309142
Si Si6 0.012063 0.163068 0.297530
Si Si7 0.312935 0.128020 0.684352
Si Si8 0.775111 0.310690 0.509039
O O1 0.698747 0.257066 0.147779
O O2 0.261180 0.175702 0.270009
O O3 0.445997 0.013321 0.207579
O O4 0.403223 0.097351 0.023893
O O5 0.995755 0.801424 0.836267
O O6 0.930699 0.559289 0.820678
O O7 0.901438 0.682480 0.048235
O O8 0.603224 0.849540 0.192146
O O9 0.215018 0.768452 0.158974
O O10 0.850450 0.804276 0.280322
O O11 0.838961 0.577829 0.266478
O O12 0.161418 0.617774 0.361351
O O13 0.773011 0.408203 0.424612
O O14 0.961534 0.259624 0.417664
O O15 0.824178 0.020570 0.344324
O O16 0.526544 0.191962 0.551895
#
# Coordination Sequence:
#
# PCOD8003038 Si02
#       8
#     2   2   2   2   2   2   2   2
#     4  10  20  37  61  96 125 159 192 244 315 367
#     4  10  22  40  65  94 125 155 197 255 304 362
#     4  10  20  36  61  93 133 151 190 254 307 371
#     4  11  22  39  66  94 121 159 200 248 312 367
#     4  10  22  47  62  81 123 167 210 254 290 347
#     4  11  22  40  63  94 125 158 201 246 308 366
#     4  12  22  39  63  94 123 161 198 251 312 356
#     4  10  24  44  63  83 124 166 209 258 284 347
#
# _framework density 21.547343000000001
#
# number of rings (size 3 to 8) (size 9 to 14) (size 15 to 20)
#    0.000    1.500    3.750    1.500    0.000    1.500 
#   11.250    1.875    0.000    0.000    0.000    0.000 
#    0.000    0.000    0.000    0.000    0.000    0.000 
#
# Total GULP energy -198427.729694 kJ/mol
# GULP energy per Si atom -12401.733106 kJ/mol
# Density = 2.149830 g / cm^3
# Si number density = 21.547343 Si / 1000 Ang^3
#
#
#
# Elastic Constant Matrix: (Units=GPa)
#
#
# Indices 1 2 3 4 5 6 
#
# 1 66.5377 32.5324 17.2949 -3.7503 -10.0958 -8.1382
# 2 32.5324 118.6907 46.5327 -2.1882 1.2192 -24.2075
# 3 17.2949 46.5327 77.4175 -4.6831 -0.8080 -6.1245
# 4 -3.7503 -2.1882 -4.6831 37.2026 -6.0596 8.5203
# 5 -10.0958 1.2192 -0.8080 -6.0596 26.8426 -3.0000
# 6 -8.1382 -24.2075 -6.1245 8.5203 -3.0000 26.0217
#
#
#
# Elastic Compliance Matrix: (Units=1/GPa)
#
#
# Indices 1 2 3 4 5 6 
#
# 1 0.019092 -0.004448 -0.001227 0.002441 0.008084 0.001677
# 2 -0.004448 0.014788 -0.007211 -0.003470 -0.002052 0.011568
# 3 -0.001227 -0.007211 0.017389 0.002598 0.000553 -0.003786
# 4 0.002441 -0.003470 0.002598 0.030933 0.006887 -0.011187
# 5 0.008084 -0.002052 0.000553 0.006887 0.042337 0.003376
# 6 0.001677 0.011568 -0.003786 -0.011187 0.003376 0.052877
#
#
# Mechanical properties :
#
#
# Convention : Reuss Voigt Hill
#
# Bulk Modulus (GPa) = 39.22018 50.59621 44.90820
# Shear Modulus (GPa) = 23.61989 29.09909 26.35949
#
# Velocity S-wave (km/s) = 3.31446 3.67886 3.50141
# Velocity P-wave (km/s) = 5.73489 6.44808 6.10191
#
# Compressibility (1/GPa) = 0.02549708
#
# Stress axis : x y z
#
# Youngs Moduli (GPa) = 52.37765 67.62236 57.50857
#
# Poissons Ratio (x) = 0.30079 0.07056
# Poissons Ratio (y) = 0.23298 0.41469
# Poissons Ratio (z) = 0.06426 0.48762
#
# Static dielectric constant tensor:
#      x y z
#    x 3.641200 -0.133110 0.204690 
#    y -0.133110 3.932890 -0.142800 
#    z 0.204690 -0.142800 3.897470 
# 
# 
# High freq. dielectric constant tensor:
#      x y z
#    x 1.826410 -0.011700 0.012670 
#    y -0.011700 1.853930 -0.005550 
#    z 0.012670 -0.005550 1.841960 
# 
# From -- ./inp_files/99927.got.cif
#   From: 2010.06.25/outbox.cif.g09.slc.cpg/sg2_50_cif.got.tgz:99927.got - 2010.06.27 13:26:56.
