data_PCOD8003378
_publ_section_title
;
Structure prediction by ZEFSAII (Michael W. Deem and Ramdas Pophale) SiO2 
 PCOD8003378
Probable space group: P -1
;
_chemical_formula_sum "Si O2"
_cell_formula_units_Z 12
_cell_length_a 12.163188
_cell_length_b 6.523059
_cell_length_c 19.223293
_cell_angle_alpha 91.107131
_cell_angle_beta 148.686918
_cell_angle_gamma 72.903335
_cell_volume 670.061403
_symmetry_space_group_name_H-M "P -1"
_symmetry_group_IT_number 2
_symmetry_cell_setting 'triclinic'
loop_
_space_group_symop_operation_xyz
x,y,z
-x,-y,-z
loop_
_atom_site_type_symbol
_atom_site_label
_atom_site_fract_x
_atom_site_fract_y
_atom_site_fract_z
Si Si1 0.331344 0.949552 0.958590
Si Si2 0.008817 0.774265 0.719232
Si Si3 0.241048 0.408720 0.718049
Si Si4 0.133981 0.540094 0.283835
Si Si5 0.369805 0.697813 0.523885
Si Si6 0.123044 0.739041 0.530789
O O1 0.237436 0.803833 0.862962
O O2 0.486412 0.788809 0.107139
O O3 0.099229 0.200038 0.863886
O O4 0.500000 0.000000 0.000000
O O5 0.959722 0.641849 0.754503
O O6 0.079893 0.619349 0.687028
O O7 0.756171 0.030911 0.571521
O O8 0.272329 0.526368 0.666212
O O9 0.100803 0.269863 0.625773
O O10 0.259021 0.558943 0.422557
O O11 0.333023 0.439384 0.328152
O O12 0.323682 0.699736 0.580931
O O13 0.000000 0.000000 0.500000
#
# Coordination Sequence:
#
# PCOD8003378 Si02
#       6
#     2   2   2   2   2   2
#     4  11  22  35  57  86 115 144 183 235 283 328
#     4  11  19  35  60  86 111 142 185 240 280 319
#     4  11  22  35  56  89 109 144 192 225 278 332
#     4  10  21  35  58  83 116 143 183 238 277 324
#     4  10  20  37  55  85 113 147 188 226 278 327
#     4  11  22  37  58  81 115 151 183 228 271 334
#
# _framework density 17.908805000000001
#
# number of rings (size 3 to 8) (size 9 to 14) (size 15 to 20)
#    0.000    1.333    5.000    2.000    0.000    0.000 
#    0.000    0.833    0.000    2.000    0.000    0.000 
#    0.000    0.000    0.000    0.000    0.000    0.000 
#
# Total GULP energy -148852.349922 kJ/mol
# GULP energy per Si atom -12404.362493 kJ/mol
# Density = 1.786804 g / cm^3
# Si number density = 17.908805 Si / 1000 Ang^3
#
#
#
# Elastic Constant Matrix: (Units=GPa)
#
#
# Indices 1 2 3 4 5 6 
#
# 1 126.3084 53.6306 42.2287 -2.3494 7.9952 -11.9047
# 2 53.6306 118.6999 52.5184 5.6599 10.3278 -1.6575
# 3 42.2287 52.5184 96.0212 -11.5665 5.2216 -8.7340
# 4 -2.3494 5.6599 -11.5665 32.6572 0.7749 4.7543
# 5 7.9952 10.3278 5.2216 0.7749 26.3909 -2.5847
# 6 -11.9047 -1.6575 -8.7340 4.7543 -2.5847 27.5965
#
#
#
# Elastic Compliance Matrix: (Units=1/GPa)
#
#
# Indices 1 2 3 4 5 6 
#
# 1 0.010634 -0.003662 -0.002286 0.000099 -0.000993 0.003534
# 2 -0.003662 0.013261 -0.006215 -0.004362 -0.002945 -0.002275
# 3 -0.002286 -0.006215 0.015789 0.006126 0.000075 0.002589
# 4 0.000099 -0.004362 0.006126 0.034197 -0.000956 -0.004261
# 5 -0.000993 -0.002945 0.000075 -0.000956 0.039682 0.003300
# 6 0.003534 -0.002275 0.002589 -0.004261 0.003300 0.039487
#
#
# Mechanical properties :
#
#
# Convention : Reuss Voigt Hill
#
# Bulk Modulus (GPa) = 65.11587 70.86497 67.99042
# Shear Modulus (GPa) = 27.39788 30.17238 28.78513
#
# Velocity S-wave (km/s) = 3.91558 4.10906 4.01349
# Velocity P-wave (km/s) = 7.54195 7.88469 7.71522
#
# Compressibility (1/GPa) = 0.01535724
#
# Stress axis : x y z
#
# Youngs Moduli (GPa) = 94.03597 75.40649 63.33721
#
# Poissons Ratio (x) = 0.27614 0.14482
# Poissons Ratio (y) = 0.34436 0.39364
# Poissons Ratio (z) = 0.21501 0.46865
#
# Static dielectric constant tensor:
#      x y z
#    x 3.301300 0.097570 0.031280 
#    y 0.097570 3.562320 -0.005820 
#    z 0.031280 -0.005820 3.299850 
# 
# 
# High freq. dielectric constant tensor:
#      x y z
#    x 1.685570 0.009560 0.006370 
#    y 0.009560 1.713370 -0.003320 
#    z 0.006370 -0.003320 1.677960 
# 
# From -- ./inp_files/19792.got.cif
#   From: 2010.06.25/outbox.cif.g09.slc.cpg/sg2_10_cif.got.tgz:19792.got - 2010.06.27 13:26:56.
