data_PCOD8003291
_publ_section_title
;
Structure prediction by ZEFSAII (Michael W. Deem and Ramdas Pophale) SiO2 
 PCOD8003291
Probable space group: P -1
;
_chemical_formula_sum "Si O2"
_cell_formula_units_Z 14
_cell_length_a 7.719227
_cell_length_b 14.368029
_cell_length_c 9.032027
_cell_angle_alpha 139.114934
_cell_angle_beta 105.280467
_cell_angle_gamma 70.322152
_cell_volume 617.327726
_symmetry_space_group_name_H-M "P -1"
_symmetry_group_IT_number 2
_symmetry_cell_setting 'triclinic'
loop_
_space_group_symop_operation_xyz
x,y,z
-x,-y,-z
loop_
_atom_site_type_symbol
_atom_site_label
_atom_site_fract_x
_atom_site_fract_y
_atom_site_fract_z
Si Si1 0.110160 0.384584 0.774084
Si Si2 0.871053 0.359849 0.441199
Si Si3 0.180639 0.302681 0.214163
Si Si4 0.743806 0.173052 0.631476
Si Si5 0.537841 0.311632 0.457028
Si Si6 0.627623 0.447515 0.100664
Si Si7 0.168891 0.153055 0.722890
O O1 0.203713 0.471538 0.780024
O O2 0.245584 0.259157 0.751428
O O3 0.977162 0.308463 0.555757
O O4 0.000000 0.500000 0.000000
O O5 0.822111 0.533877 0.636845
O O6 0.684877 0.298050 0.339623
O O7 0.992701 0.292396 0.246454
O O8 0.364608 0.245950 0.286621
O O9 0.190573 0.199134 0.951268
O O10 0.622108 0.230862 0.529156
O O11 0.957055 0.170225 0.646737
O O12 0.717732 0.011703 0.469901
O O13 0.686894 0.272846 0.887002
O O14 0.469949 0.487905 0.690555
O O15 0.500000 0.500000 0.000000
#
# Coordination Sequence:
#
# PCOD8003291 Si02
#       7
#     2   2   2   2   2   2   2
#     4  12  18  38  67  94 122 170 220 261 318 383
#     4  11  22  40  65  97 131 167 219 272 327 386
#     4  11  24  39  66 100 131 168 219 273 328 385
#     4  10  22  41  65  95 138 171 217 267 329 391
#     4  11  22  42  67  97 131 173 215 275 326 387
#     4  10  20  36  65  96 125 165 221 268 313 381
#     4  11  23  40  67  98 133 175 216 271 326 390
#
# _framework density 22.678393
#
# number of rings (size 3 to 8) (size 9 to 14) (size 15 to 20)
#    0.000    1.143    5.714    1.286    2.000    0.571 
#    0.000    3.571    0.000    0.000    0.000    0.000 
#    0.000    0.000    0.000    0.000    0.000    0.000 
#
# Total GULP energy -173480.358281 kJ/mol
# GULP energy per Si atom -12391.454163 kJ/mol
# Density = 2.262678 g / cm^3
# Si number density = 22.678393 Si / 1000 Ang^3
#
#
#
# Elastic Constant Matrix: (Units=GPa)
#
#
# Indices 1 2 3 4 5 6 
#
# 1 90.8104 20.8475 26.5328 -2.5281 -7.2417 -0.6620
# 2 20.8475 106.4432 65.3947 9.4449 -3.0874 -3.6973
# 3 26.5328 65.3947 118.2861 7.2565 -1.5575 -3.8853
# 4 -2.5281 9.4449 7.2565 38.2117 -3.4631 -0.1655
# 5 -7.2417 -3.0874 -1.5575 -3.4631 23.3881 -7.1403
# 6 -0.6620 -3.6973 -3.8853 -0.1655 -7.1403 27.4512
#
#
#
# Elastic Compliance Matrix: (Units=1/GPa)
#
#
# Indices 1 2 3 4 5 6 
#
# 1 0.012282 -0.001075 -0.002192 0.001867 0.004070 0.000911
# 2 -0.001075 0.014545 -0.007619 -0.002114 0.001112 0.001131
# 3 -0.002192 -0.007619 0.013219 -0.000837 -0.000747 0.000593
# 4 0.001867 -0.002114 -0.000837 0.027397 0.004607 0.001005
# 5 0.004070 0.001112 -0.000747 0.004607 0.048717 0.012842
# 6 0.000911 0.001131 0.000593 0.001005 0.012842 0.040033
#
#
# Mechanical properties :
#
#
# Convention : Reuss Voigt Hill
#
# Bulk Modulus (GPa) = 54.71912 60.12109 57.42010
# Shear Modulus (GPa) = 27.16584 31.32784 29.24684
#
# Velocity S-wave (km/s) = 3.46479 3.72075 3.59504
# Velocity P-wave (km/s) = 6.33932 6.71017 6.52738
#
# Compressibility (1/GPa) = 0.01827515
#
# Stress axis : x y z
#
# Youngs Moduli (GPa) = 81.41796 68.75259 75.65073
#
# Poissons Ratio (x) = 0.07391 0.16581
# Poissons Ratio (y) = 0.08753 0.57635
# Poissons Ratio (z) = 0.17845 0.52380
#
# Static dielectric constant tensor:
#      x y z
#    x 4.095930 -0.306010 0.006470 
#    y -0.306010 4.221960 -0.021520 
#    z 0.006470 -0.021520 4.190080 
# 
# 
# High freq. dielectric constant tensor:
#      x y z
#    x 1.893990 -0.018110 -0.000010 
#    y -0.018110 1.886630 -0.022590 
#    z -0.000010 -0.022590 1.876760 
# 
# From -- ./inp_files/204781.got.cif
#   From: 2010.06.25/outbox.cif.g09.slc.cpg/sg2_103_cif.got.tgz:204781.got - 2010.06.27 13:26:56.
