data_PCOD8003945
_publ_section_title
;
Structure prediction by ZEFSAII (Michael W. Deem and Ramdas Pophale) SiO2 
 PCOD8003945
Probable space group: P -1
;
_chemical_formula_sum "Si O2"
_cell_formula_units_Z 16
_cell_length_a 8.244434
_cell_length_b 9.654623
_cell_length_c 13.672545
_cell_angle_alpha 91.490044
_cell_angle_beta 103.786690
_cell_angle_gamma 132.534603
_cell_volume 751.734198
_symmetry_space_group_name_H-M "P -1"
_symmetry_group_IT_number 2
_symmetry_cell_setting 'triclinic'
loop_
_space_group_symop_operation_xyz
x,y,z
-x,-y,-z
loop_
_atom_site_type_symbol
_atom_site_label
_atom_site_fract_x
_atom_site_fract_y
_atom_site_fract_z
Si Si1 0.857908 0.487663 0.566889
Si Si2 0.601139 0.221282 0.698348
Si Si3 0.398483 0.292218 0.394143
Si Si4 0.310571 0.023684 0.221945
Si Si5 0.086376 0.895965 0.656694
Si Si6 0.269812 0.188698 0.053545
Si Si7 0.588003 0.500809 0.780012
Si Si8 0.804268 0.835270 0.166294
O O1 0.762929 0.314853 0.625563
O O2 0.625006 0.435971 0.498386
O O3 0.000000 0.500000 0.500000
O O4 0.034103 0.700570 0.646250
O O5 0.634972 0.106303 0.768215
O O6 0.684227 0.400468 0.778610
O O7 0.320262 0.064891 0.628566
O O8 0.399999 0.420305 0.321455
O O9 0.148822 0.158015 0.414695
O O10 0.419119 0.159311 0.336301
O O11 0.034149 0.884500 0.173851
O O12 0.408797 0.154133 0.138574
O O13 0.135858 0.977607 0.776817
O O14 0.273781 0.337683 0.112959
O O15 0.363879 0.248284 0.956081
O O16 0.000000 0.000000 0.000000
O O17 0.319120 0.331602 0.773111
#
# Coordination Sequence:
#
# PCOD8003945 Si02
#       8
#     2   2   2   2   2   2   2   2
#     4  12  26  40  63  90 126 164 206 259 313 365
#     4  11  24  41  61  92 129 160 204 257 316 355
#     4  10  21  41  63  87 121 168 212 246 308 360
#     4   9  20  38  59  90 125 158 202 256 307 355
#     4  10  22  42  62  89 124 164 205 259 295 365
#     4   9  18  36  64  88 121 164 207 243 299 370
#     4  10  20  37  62  91 121 160 208 250 295 373
#     4   9  19  37  65  89 119 165 208 248 297 369
#
# _framework density 21.284119
#
# number of rings (size 3 to 8) (size 9 to 14) (size 15 to 20)
#    0.000    2.000    1.250    2.250    1.750    2.500 
#    2.250    5.000    0.000    0.000    0.000    0.000 
#    0.000    0.000    0.000    0.000    0.000    0.000 
#
# Total GULP energy -198224.923023 kJ/mol
# GULP energy per Si atom -12389.057689 kJ/mol
# Density = 2.123568 g / cm^3
# Si number density = 21.284119 Si / 1000 Ang^3
#
#
#
# Elastic Constant Matrix: (Units=GPa)
#
#
# Indices 1 2 3 4 5 6 
#
# 1 95.4954 53.5693 34.9723 -0.9863 -9.5651 -2.9814
# 2 53.5693 120.4322 47.0218 13.7573 -6.3761 -12.1131
# 3 34.9723 47.0218 85.6304 15.9477 -8.2870 -5.1170
# 4 -0.9863 13.7573 15.9477 26.3731 -2.1573 -6.0561
# 5 -9.5651 -6.3761 -8.2870 -2.1573 19.3046 -1.7829
# 6 -2.9814 -12.1131 -5.1170 -6.0561 -1.7829 46.4727
#
#
#
# Elastic Compliance Matrix: (Units=1/GPa)
#
#
# Indices 1 2 3 4 5 6 
#
# 1 0.015822 -0.005989 -0.003903 0.006492 0.004917 0.000059
# 2 -0.005989 0.013161 -0.003915 -0.004304 -0.000595 0.002031
# 3 -0.003903 -0.003915 0.017271 -0.008360 0.003222 -0.000335
# 4 0.006492 -0.004304 -0.008360 0.046840 0.003868 0.004626
# 5 0.004917 -0.000595 0.003222 0.003868 0.056149 0.003173
# 6 0.000059 0.002031 -0.000335 0.004626 0.003173 0.022739
#
#
# Mechanical properties :
#
#
# Convention : Reuss Voigt Hill
#
# Bulk Modulus (GPa) = 53.65148 63.63165 58.64157
# Shear Modulus (GPa) = 24.29432 29.49638 26.89535
#
# Velocity S-wave (km/s) = 3.38217 3.72673 3.55862
# Velocity P-wave (km/s) = 6.36507 6.96270 6.67058
#
# Compressibility (1/GPa) = 0.01863881
#
# Stress axis : x y z
#
# Youngs Moduli (GPa) = 63.20254 75.98342 57.90106
#
# Poissons Ratio (x) = 0.45510 0.22597
# Poissons Ratio (y) = 0.37855 0.22671
# Poissons Ratio (z) = 0.24666 0.29751
#
# Static dielectric constant tensor:
#      x y z
#    x 3.787410 0.187800 -0.409600 
#    y 0.187800 4.184790 -0.104400 
#    z -0.409600 -0.104400 5.264640 
# 
# 
# High freq. dielectric constant tensor:
#      x y z
#    x 1.814710 0.007980 -0.023000 
#    y 0.007980 1.848520 0.014730 
#    z -0.023000 0.014730 1.820480 
# 
# From -- ./inp_files/493004.got.cif
#   From: 2010.06.25/outbox.cif.g09.slc.cpg/sg2_247_cif.got.tgz:493004.got - 2010.06.27 13:26:56.
