data_PCOD8003409
_publ_section_title
;
Structure prediction by ZEFSAII (Michael W. Deem and Ramdas Pophale) SiO2 
 PCOD8003409
Probable space group: P -1
;
_chemical_formula_sum "Si O2"
_cell_formula_units_Z 16
_cell_length_a 10.004641
_cell_length_b 12.882127
_cell_length_c 13.031459
_cell_angle_alpha 120.997739
_cell_angle_beta 34.958872
_cell_angle_gamma 97.883547
_cell_volume 671.925089
_symmetry_space_group_name_H-M "P -1"
_symmetry_group_IT_number 2
_symmetry_cell_setting 'triclinic'
loop_
_space_group_symop_operation_xyz
x,y,z
-x,-y,-z
loop_
_atom_site_type_symbol
_atom_site_label
_atom_site_fract_x
_atom_site_fract_y
_atom_site_fract_z
Si Si1 0.043263 0.666690 0.393911
Si Si2 0.295482 0.459406 0.424055
Si Si3 0.378049 0.225908 0.724974
Si Si4 0.574600 0.528513 0.127009
Si Si5 0.364012 0.081142 0.350738
Si Si6 0.108408 0.093181 0.723374
Si Si7 0.343791 0.766146 0.764751
Si Si8 0.105885 0.223425 0.091917
O O1 0.297465 0.641950 0.289477
O O2 0.871618 0.613782 0.535989
O O3 0.825944 0.842976 0.593713
O O4 0.155589 0.577218 0.169570
O O5 0.529352 0.421543 0.170054
O O6 0.440286 0.405119 0.419107
O O7 0.074083 0.637618 0.649427
O O8 0.386508 0.367311 0.767779
O O9 0.151669 0.220517 0.796317
O O10 0.677939 0.066553 0.438210
O O11 0.283371 0.251721 0.916200
O O12 0.158242 0.077406 0.561786
O O13 0.469481 0.181986 0.375105
O O14 0.657527 0.919377 0.062312
O O15 0.799801 0.148249 0.991353
O O16 0.108739 0.800959 0.846759
#
# Coordination Sequence:
#
# PCOD8003409 Si02
#       8
#     2   2   2   2   2   2   2   2
#     4  10  23  43  58  85 115 149 205 243 274 338
#     4  11  22  37  60  86 116 150 196 237 286 341
#     4   9  19  36  59  86 115 152 187 237 282 347
#     4  11  22  39  66  79 113 160 195 238 291 327
#     4  10  21  37  61  82 119 155 187 238 291 337
#     4   9  19  36  56  86 121 144 186 233 291 343
#     4  10  21  35  57  86 120 153 184 233 289 350
#     4  10  20  37  56  88 121 148 188 235 291 346
#
# _framework density 23.812177999999999
#
# number of rings (size 3 to 8) (size 9 to 14) (size 15 to 20)
#    0.000    2.000    1.250    2.625    3.500    0.000 
#    0.000    5.000    2.750    0.000    0.000    0.000 
#    0.000    0.000    0.000    0.000    0.000    0.000 
#
# Total GULP energy -198296.177522 kJ/mol
# GULP energy per Si atom -12393.511095 kJ/mol
# Density = 2.375798 g / cm^3
# Si number density = 23.812178 Si / 1000 Ang^3
#
#
#
# Elastic Constant Matrix: (Units=GPa)
#
#
# Indices 1 2 3 4 5 6 
#
# 1 20.5117 -10.9147 3.3418 4.6771 -11.3201 -3.4443
# 2 -10.9147 73.9633 18.3570 -4.8614 -0.6146 -9.8603
# 3 3.3418 18.3570 64.0502 5.0523 -10.7788 -1.3464
# 4 4.6771 -4.8614 5.0523 39.1877 -5.2506 -7.3220
# 5 -11.3201 -0.6146 -10.7788 -5.2506 33.1224 6.1239
# 6 -3.4443 -9.8603 -1.3464 -7.3220 6.1239 26.4070
#
#
#
# Elastic Compliance Matrix: (Units=1/GPa)
#
#
# Indices 1 2 3 4 5 6 
#
# 1 0.069098 0.012090 -0.003208 -0.002038 0.021007 0.007926
# 2 0.012090 0.018082 -0.005631 0.003345 0.001574 0.008604
# 3 -0.003208 -0.005631 0.018372 -0.002665 0.004999 -0.003483
# 4 -0.002038 0.003345 -0.002665 0.028273 0.001436 0.008354
# 5 0.021007 0.001574 0.004999 0.001436 0.040244 -0.005352
# 6 0.007926 0.008604 -0.003483 0.008354 -0.005352 0.045495
#
#
# Mechanical properties :
#
#
# Convention : Reuss Voigt Hill
#
# Bulk Modulus (GPa) = 8.92419 20.01038 14.46728
# Shear Modulus (GPa) = 19.96700 29.59282 24.77991
#
# Velocity S-wave (km/s) = 2.89886 3.52910 3.22940
# Velocity P-wave (km/s) = 3.86787 5.00278 4.47148
#
# Compressibility (1/GPa) = 0.11205504
#
# Stress axis : x y z
#
# Youngs Moduli (GPa) = 14.47220 55.30416 54.42955
#
# Poissons Ratio (x) = -0.66863 0.17459
# Poissons Ratio (y) = -0.17497 0.30650
# Poissons Ratio (z) = 0.04642 0.31142
#
# Static dielectric constant tensor:
#      x y z
#    x 3.676730 -0.136120 -0.237590 
#    y -0.136120 4.241400 -0.079130 
#    z -0.237590 -0.079130 4.452140 
# 
# 
# High freq. dielectric constant tensor:
#      x y z
#    x 1.894620 -0.013270 -0.020820 
#    y -0.013270 1.945690 -0.007680 
#    z -0.020820 -0.007680 1.952030 
# 
# From -- ./inp_files/180175.got.cif
#   From: 2010.06.25/outbox.cif.g09.slc.cpg/sg2_91_cif.got.tgz:180175.got - 2010.06.27 13:26:56.
