data_PCOD8003929
_publ_section_title
;
Structure prediction by ZEFSAII (Michael W. Deem and Ramdas Pophale) SiO2 
 PCOD8003929
Probable space group: P -1
;
_chemical_formula_sum "Si O2"
_cell_formula_units_Z 16
_cell_length_a 10.077200
_cell_length_b 18.998267
_cell_length_c 11.890405
_cell_angle_alpha 124.676674
_cell_angle_beta 101.101581
_cell_angle_gamma 33.006147
_cell_volume 787.571929
_symmetry_space_group_name_H-M "P -1"
_symmetry_group_IT_number 2
_symmetry_cell_setting 'triclinic'
loop_
_space_group_symop_operation_xyz
x,y,z
-x,-y,-z
loop_
_atom_site_type_symbol
_atom_site_label
_atom_site_fract_x
_atom_site_fract_y
_atom_site_fract_z
Si Si1 0.812563 0.643654 0.765756
Si Si2 0.584882 0.634448 0.279486
Si Si3 0.605291 0.298308 0.932101
Si Si4 0.781856 0.998826 0.353786
Si Si5 0.821815 0.721969 0.599862
Si Si6 0.787541 0.067918 0.943011
Si Si7 0.153935 0.701528 0.576616
Si Si8 0.760673 0.335714 0.701923
O O1 0.780929 0.719083 0.719085
O O2 0.051536 0.552615 0.808065
O O3 0.927485 0.482602 0.607319
O O4 0.473741 0.833972 0.941069
O O5 0.519046 0.681030 0.178657
O O6 0.506974 0.584299 0.266125
O O7 0.362016 0.826139 0.485687
O O8 0.613335 0.229400 0.974373
O O9 0.948678 0.142577 0.824410
O O10 0.361171 0.512930 0.112963
O O11 0.921219 0.878725 0.381097
O O12 0.516376 0.087789 0.343238
O O13 0.943492 0.748788 0.641668
O O14 0.007545 0.877243 0.737968
O O15 0.000000 0.000000 0.000000
O O16 0.500000 0.500000 0.500000
O O17 0.159889 0.682874 0.427850
#
# Coordination Sequence:
#
# PCOD8003929 Si02
#       8
#     2   2   2   2   2   2   2   2
#     4  10  22  40  62  88 119 155 195 241 294 352
#     4  10  20  37  62  90 122 158 197 242 294 349
#     4  11  22  38  61  88 121 158 199 243 290 348
#     4  10  20  37  62  90 122 158 197 242 294 349
#     4  10  22  40  62  88 119 155 195 241 294 352
#     4  12  25  41  62  87 118 154 196 244 295 352
#     4  12  25  41  62  87 118 154 196 244 295 352
#     4  11  22  38  61  88 121 158 199 243 290 348
#
# _framework density 20.315605999999999
#
# number of rings (size 3 to 8) (size 9 to 14) (size 15 to 20)
#    0.000    1.250    0.000    8.250    0.000    5.500 
#    0.000    0.000    0.000    0.000    0.000    0.000 
#    0.000    0.000    0.000    0.000    0.000    0.000 
#
# Total GULP energy -198516.138392 kJ/mol
# GULP energy per Si atom -12407.258650 kJ/mol
# Density = 2.026937 g / cm^3
# Si number density = 20.315606 Si / 1000 Ang^3
#
#
#
# Elastic Constant Matrix: (Units=GPa)
#
#
# Indices 1 2 3 4 5 6 
#
# 1 104.7232 54.7182 19.7315 -1.1745 -3.9499 -8.9417
# 2 54.7182 111.7135 21.1912 -4.8965 -13.0009 -12.9874
# 3 19.7315 21.1912 77.4005 0.8825 -7.5924 -8.8204
# 4 -1.1745 -4.8965 0.8825 28.8286 5.1668 -3.8106
# 5 -3.9499 -13.0009 -7.5924 5.1668 34.5992 0.9127
# 6 -8.9417 -12.9874 -8.8204 -3.8106 0.9127 38.3270
#
#
#
# Elastic Compliance Matrix: (Units=1/GPa)
#
#
# Indices 1 2 3 4 5 6 
#
# 1 0.013096 -0.006170 -0.001697 -0.000173 -0.001185 0.000585
# 2 -0.006170 0.013042 -0.001353 0.001730 0.003568 0.002755
# 3 -0.001697 -0.001353 0.014237 -0.000881 0.002493 0.002275
# 4 -0.000173 0.001730 -0.000881 0.036459 -0.005115 0.004090
# 5 -0.001185 0.003568 0.002493 -0.005115 0.031412 0.000250
# 6 0.000585 0.002755 0.002275 0.004090 0.000250 0.028086
#
#
# Mechanical properties :
#
#
# Convention : Reuss Voigt Hill
#
# Bulk Modulus (GPa) = 45.59201 53.90212 49.74706
# Shear Modulus (GPa) = 30.84832 33.56406 32.20619
#
# Velocity S-wave (km/s) = 3.90096 4.06905 3.98589
# Velocity P-wave (km/s) = 6.54069 6.97612 6.76191
#
# Compressibility (1/GPa) = 0.02193367
#
# Stress axis : x y z
#
# Youngs Moduli (GPa) = 76.35978 76.67660 70.24042
#
# Poissons Ratio (x) = 0.47310 0.11919
# Poissons Ratio (y) = 0.47115 0.09507
# Poissons Ratio (z) = 0.12957 0.10378
#
# Static dielectric constant tensor:
#      x y z
#    x 3.587720 0.004060 0.073110 
#    y 0.004060 3.824260 -0.016840 
#    z 0.073110 -0.016840 3.730240 
# 
# 
# High freq. dielectric constant tensor:
#      x y z
#    x 1.792950 -0.000060 0.003170 
#    y -0.000060 1.808360 -0.001840 
#    z 0.003170 -0.001840 1.799250 
# 
# From -- ./inp_files/217837.got.cif
#   From: 2010.06.25/outbox.cif.g09.slc.cpg/sg2_109_cif.got.tgz:217837.got - 2010.06.27 13:26:56.
