data_PCOD8003011
_publ_section_title
;
Structure prediction by ZEFSAII (Michael W. Deem and Ramdas Pophale) SiO2 
 PCOD8003011
Probable space group: P -1
;
_chemical_formula_sum "Si O2"
_cell_formula_units_Z 14
_cell_length_a 8.473549
_cell_length_b 11.702869
_cell_length_c 11.235299
_cell_angle_alpha 83.728956
_cell_angle_beta 124.374169
_cell_angle_gamma 128.180843
_cell_volume 671.675384
_symmetry_space_group_name_H-M "P -1"
_symmetry_group_IT_number 2
_symmetry_cell_setting 'triclinic'
loop_
_space_group_symop_operation_xyz
x,y,z
-x,-y,-z
loop_
_atom_site_type_symbol
_atom_site_label
_atom_site_fract_x
_atom_site_fract_y
_atom_site_fract_z
Si Si1 0.281339 0.478685 0.839791
Si Si2 0.034098 0.186561 0.634693
Si Si3 0.090274 0.620100 0.880387
Si Si4 0.582942 0.309010 0.782106
Si Si5 0.289388 0.576157 0.588686
Si Si6 0.074042 0.286724 0.393532
Si Si7 0.648996 0.830446 0.541264
O O1 0.047760 0.297915 0.719922
O O2 0.152990 0.521777 0.862718
O O3 0.413850 0.589091 0.766000
O O4 0.500000 0.500000 0.000000
O O5 0.329462 0.264510 0.734243
O O6 0.920374 0.180809 0.458423
O O7 0.854563 0.014789 0.632721
O O8 0.794432 0.493956 0.817958
O O9 0.119186 0.733241 0.782554
O O10 0.290752 0.725469 0.062178
O O11 0.503341 0.205774 0.642150
O O12 0.284762 0.467810 0.505743
O O13 0.453756 0.746228 0.579925
O O14 0.000000 0.500000 0.500000
O O15 0.208857 0.234082 0.395011
#
# Coordination Sequence:
#
# PCOD8003011 Si02
#       7
#     2   2   2   2   2   2   2
#     4  11  22  40  64  86 120 160 203 245 298 360
#     4  10  23  39  62  88 125 164 190 248 309 361
#     4  11  21  35  63  97 114 151 213 255 285 342
#     4  10  20  36  61  89 124 151 198 254 294 350
#     4  11  21  37  64  91 118 157 208 250 283 357
#     4  10  20  36  62  91 118 156 207 246 286 357
#     4  11  22  41  60  93 124 157 202 240 311 358
#
# _framework density 20.843401
#
# number of rings (size 3 to 8) (size 9 to 14) (size 15 to 20)
#    0.000    1.429    4.286    2.143    4.000    0.000 
#    0.000   11.429    0.000    0.000    0.000    0.000 
#    0.000    0.000    0.000    0.000    0.000    0.000 
#
# Total GULP energy -173554.067155 kJ/mol
# GULP energy per Si atom -12396.719082 kJ/mol
# Density = 2.079596 g / cm^3
# Si number density = 20.843401 Si / 1000 Ang^3
#
#
#
# Elastic Constant Matrix: (Units=GPa)
#
#
# Indices 1 2 3 4 5 6 
#
# 1 76.4922 55.4708 40.8810 -0.4778 0.0929 9.5181
# 2 55.4708 141.7488 57.9106 -5.5393 5.9977 16.3834
# 3 40.8810 57.9106 147.8893 -34.9468 -1.6225 1.5604
# 4 -0.4778 -5.5393 -34.9468 34.8620 -1.2880 -2.3627
# 5 0.0929 5.9977 -1.6225 -1.2880 22.9465 -2.5108
# 6 9.5181 16.3834 1.5604 -2.3627 -2.5108 20.4659
#
#
#
# Elastic Compliance Matrix: (Units=1/GPa)
#
#
# Indices 1 2 3 4 5 6 
#
# 1 0.020280 -0.005660 -0.004667 -0.005643 0.000185 -0.005174
# 2 -0.005660 0.011625 -0.003527 -0.002408 -0.004188 -0.007197
# 3 -0.004667 -0.003527 0.012290 0.012208 0.003135 0.005850
# 4 -0.005643 -0.002408 0.012208 0.041249 0.004813 0.008974
# 5 0.000185 -0.004188 0.003135 0.004813 0.046177 0.009248
# 6 -0.005174 -0.007197 0.005850 0.008974 0.009248 0.058754
#
#
# Mechanical properties :
#
#
# Convention : Reuss Voigt Hill
#
# Bulk Modulus (GPa) = 60.64602 74.96168 67.80385
# Shear Modulus (GPa) = 22.36348 29.77939 26.07144
#
# Velocity S-wave (km/s) = 3.27911 3.78394 3.54054
# Velocity P-wave (km/s) = 6.59515 7.42518 7.02244
#
# Compressibility (1/GPa) = 0.01648913
#
# Stress axis : x y z
#
# Youngs Moduli (GPa) = 49.30927 86.01798 81.36495
#
# Poissons Ratio (x) = 0.48687 0.37969
# Poissons Ratio (y) = 0.27910 0.28695
# Poissons Ratio (z) = 0.23010 0.30336
#
# Static dielectric constant tensor:
#      x y z
#    x 3.780190 0.080650 -0.136580 
#    y 0.080650 3.743380 -0.332590 
#    z -0.136580 -0.332590 4.012750 
# 
# 
# High freq. dielectric constant tensor:
#      x y z
#    x 1.813010 0.002640 -0.005010 
#    y 0.002640 1.791710 -0.027250 
#    z -0.005010 -0.027250 1.814360 
# 
# From -- ./inp_files/205245.got.cif
#   From: 2010.06.25/outbox.cif.g09.slc.cpg/sg2_103_cif.got.tgz:205245.got - 2010.06.27 13:26:56.
