data_PCOD8003812
_publ_section_title
;
Structure prediction by ZEFSAII (Michael W. Deem and Ramdas Pophale) SiO2 
 PCOD8003812
Probable space group: P -1
;
_chemical_formula_sum "Si O2"
_cell_formula_units_Z 14
_cell_length_a 11.573262
_cell_length_b 12.143789
_cell_length_c 8.491050
_cell_angle_alpha 66.286027
_cell_angle_beta 125.622386
_cell_angle_gamma 139.520397
_cell_volume 627.844463
_symmetry_space_group_name_H-M "P -1"
_symmetry_group_IT_number 2
_symmetry_cell_setting 'triclinic'
loop_
_space_group_symop_operation_xyz
x,y,z
-x,-y,-z
loop_
_atom_site_type_symbol
_atom_site_label
_atom_site_fract_x
_atom_site_fract_y
_atom_site_fract_z
Si Si1 0.705410 0.665923 0.635653
Si Si2 0.976801 0.260109 0.797241
Si Si3 0.838089 0.500976 0.924997
Si Si4 0.621695 0.847352 0.308691
Si Si5 0.669634 0.686277 0.958255
Si Si6 0.639164 0.078508 0.413734
Si Si7 0.338963 0.059254 0.051120
O O1 0.500000 0.500000 0.500000
O O2 0.860791 0.645234 0.769592
O O3 0.758943 0.813738 0.485163
O O4 0.663817 0.686732 0.766014
O O5 0.863197 0.242319 0.562110
O O6 0.823571 0.120883 0.888838
O O7 0.116010 0.445517 0.883945
O O8 0.114295 0.233420 0.859803
O O9 0.610981 0.320358 0.823601
O O10 0.000000 0.500000 0.000000
O O11 0.629652 0.941920 0.407014
O O12 0.723521 0.965503 0.166772
O O13 0.641018 0.801399 0.932054
O O14 0.500000 0.500000 0.000000
O O15 0.560118 0.129463 0.196918
O O16 0.500000 0.000000 0.500000
#
# Coordination Sequence:
#
# PCOD8003812 Si02
#       7
#     2   2   2   2   2   2   2
#     4   9  19  36  59  86 118 159 201 247 304 365
#     4  10  22  41  63  92 122 161 209 261 315 367
#     4  10  20  37  61  89 121 159 204 254 304 362
#     4  11  22  41  62  89 127 168 208 251 311 378
#     4  11  22  41  63  89 124 164 207 260 316 375
#     4  10  21  39  63  91 125 166 206 256 312 366
#     4  11  22  39  63  90 124 167 209 259 311 371
#
# _framework density 22.298514999999998
#
# number of rings (size 3 to 8) (size 9 to 14) (size 15 to 20)
#    0.000    1.714    0.000    6.857    0.000    2.286 
#    0.000   17.857    0.000    0.000    0.000    0.000 
#    0.000    0.000    0.000    0.000    0.000    0.000 
#
# Total GULP energy -173470.965812 kJ/mol
# GULP energy per Si atom -12390.783272 kJ/mol
# Density = 2.224776 g / cm^3
# Si number density = 22.298515 Si / 1000 Ang^3
#
#
#
# Elastic Constant Matrix: (Units=GPa)
#
#
# Indices 1 2 3 4 5 6 
#
# 1 92.6814 30.5386 51.3214 -9.4494 20.2193 -28.1305
# 2 30.5386 40.1846 24.3799 17.8023 -1.3182 -13.4324
# 3 51.3214 24.3799 145.5112 2.3168 16.9649 -6.0991
# 4 -9.4494 17.8023 2.3168 42.8422 -0.4676 -3.3411
# 5 20.2193 -1.3182 16.9649 -0.4676 44.5767 -3.8043
# 6 -28.1305 -13.4324 -6.0991 -3.3411 -3.8043 42.4598
#
#
#
# Elastic Compliance Matrix: (Units=1/GPa)
#
#
# Indices 1 2 3 4 5 6 
#
# 1 0.028265 -0.022533 -0.004757 0.016619 -0.010540 0.011278
# 2 -0.022533 0.057081 -0.002581 -0.028280 0.012737 0.001675
# 3 -0.004757 -0.002581 0.009062 -0.000708 -0.001620 -0.002867
# 4 0.016619 -0.028280 -0.000708 0.039058 -0.007321 0.004380
# 5 -0.010540 0.012737 -0.001620 -0.007321 0.028023 -0.001251
# 6 0.011278 0.001675 -0.002867 0.004380 -0.001251 0.031374
#
#
# Mechanical properties :
#
#
# Convention : Reuss Voigt Hill
#
# Bulk Modulus (GPa) = 28.84560 54.53965 41.69263
# Shear Modulus (GPa) = 18.92788 37.45155 28.18971
#
# Velocity S-wave (km/s) = 2.91665 4.10268 3.55941
# Velocity P-wave (km/s) = 4.93018 6.85235 5.96914
#
# Compressibility (1/GPa) = 0.03466733
#
# Stress axis : x y z
#
# Youngs Moduli (GPa) = 35.37935 17.51902 110.34578
#
# Poissons Ratio (x) = 0.39475 0.52489
# Poissons Ratio (y) = 0.79719 0.28480
# Poissons Ratio (z) = 0.16829 0.04522
#
# Static dielectric constant tensor:
#      x y z
#    x 4.103980 -0.217800 0.457910 
#    y -0.217800 3.803460 0.209640 
#    z 0.457910 0.209640 5.279260 
# 
# 
# High freq. dielectric constant tensor:
#      x y z
#    x 1.873470 -0.022480 0.012300 
#    y -0.022480 1.863920 0.014990 
#    z 0.012300 0.014990 1.899770 
# 
# From -- ./inp_files/205278.got.cif
#   From: 2010.06.25/outbox.cif.g09.slc.cpg/sg2_103_cif.got.tgz:205278.got - 2010.06.27 13:26:56.
