data_PCOD8003059
_publ_section_title
;
Structure prediction by ZEFSAII (Michael W. Deem and Ramdas Pophale) SiO2 
 PCOD8003059
Probable space group: P -1
;
_chemical_formula_sum "Si O2"
_cell_formula_units_Z 16
_cell_length_a 19.705095
_cell_length_b 9.692807
_cell_length_c 17.000796
_cell_angle_alpha 113.941130
_cell_angle_beta 159.976077
_cell_angle_gamma 54.038782
_cell_volume 765.074888
_symmetry_space_group_name_H-M "P -1"
_symmetry_group_IT_number 2
_symmetry_cell_setting 'triclinic'
loop_
_space_group_symop_operation_xyz
x,y,z
-x,-y,-z
loop_
_atom_site_type_symbol
_atom_site_label
_atom_site_fract_x
_atom_site_fract_y
_atom_site_fract_z
Si Si1 0.807254 0.464498 0.256724
Si Si2 0.802730 0.313678 0.054990
Si Si3 0.501462 0.660268 0.579982
Si Si4 0.229056 0.262780 0.208917
Si Si5 0.793520 0.392930 0.523238
Si Si6 0.205486 0.762601 0.674292
Si Si7 0.966526 0.626559 0.815347
Si Si8 0.023516 0.101514 0.845254
O O1 0.883855 0.373827 0.231760
O O2 0.849796 0.299932 0.320896
O O3 0.000000 0.500000 0.500000
O O4 0.505246 0.674405 0.980135
O O5 0.995590 0.258412 0.179848
O O6 0.502211 0.497060 0.745721
O O7 0.815682 0.131059 0.048643
O O8 0.500000 0.500000 0.500000
O O9 0.506974 0.787577 0.547392
O O10 0.249220 0.810302 0.392819
O O11 0.753054 0.556134 0.884934
O O12 0.238506 0.221616 0.303339
O O13 0.000000 0.500000 0.000000
O O14 0.183691 0.129613 0.083994
O O15 0.841038 0.325868 0.469521
O O16 0.987572 0.201700 0.746120
O O17 0.850974 0.540722 0.625280
O O18 0.000000 0.000000 0.500000
#
# Coordination Sequence:
#
# PCOD8003059 Si02
#       8
#     2   2   2   2   2   2   2   2
#     4  10  22  45  64  89 134 162 196 262 317 371
#     4  11  26  39  62  96 118 159 206 253 307 360
#     4  11  19  37  63  82 119 165 203 248 303 350
#     4  10  20  36  62  86 116 171 201 242 308 355
#     4  11  22  42  64  86 128 157 199 258 299 365
#     4  10  22  41  67  95 121 164 207 250 315 379
#     4  11  21  39  61  87 120 163 206 243 309 356
#     4  12  22  40  62  88 125 159 206 254 299 359
#
# _framework density 20.912987000000001
#
# number of rings (size 3 to 8) (size 9 to 14) (size 15 to 20)
#    0.000    1.250    6.250    1.500    0.000    2.000 
#    2.250    1.250    0.000    0.000    0.000    0.000 
#    0.000    0.000    0.000    0.000    0.000    0.000 
#
# Total GULP energy -198424.561858 kJ/mol
# GULP energy per Si atom -12401.535116 kJ/mol
# Density = 2.086539 g / cm^3
# Si number density = 20.912987 Si / 1000 Ang^3
#
#
#
# Elastic Constant Matrix: (Units=GPa)
#
#
# Indices 1 2 3 4 5 6 
#
# 1 102.1583 16.3353 33.0701 10.2746 -3.7516 9.1187
# 2 16.3353 100.2190 46.5821 20.3994 -12.4882 2.0309
# 3 33.0701 46.5821 82.2806 25.8016 -8.6423 -5.8018
# 4 10.2746 20.3994 25.8016 41.0561 2.6774 -5.2768
# 5 -3.7516 -12.4882 -8.6423 2.6774 29.0182 4.7174
# 6 9.1187 2.0309 -5.8018 -5.2768 4.7174 30.6478
#
#
#
# Elastic Compliance Matrix: (Units=1/GPa)
#
#
# Indices 1 2 3 4 5 6 
#
# 1 0.011918 0.000938 -0.005270 -0.000855 0.001258 -0.004947
# 2 0.000938 0.014721 -0.007222 -0.003887 0.005333 -0.004112
# 3 -0.005270 -0.007222 0.021531 -0.008248 0.002687 0.004289
# 4 -0.000855 -0.003887 -0.008248 0.032981 -0.008241 0.005897
# 5 0.001258 0.005333 0.002687 -0.008241 0.039740 -0.007755
# 6 -0.004947 -0.004112 0.004289 0.005897 -0.007755 0.037394
#
#
# Mechanical properties :
#
#
# Convention : Reuss Voigt Hill
#
# Bulk Modulus (GPa) = 39.90030 52.95922 46.42976
# Shear Modulus (GPa) = 26.35076 32.72245 29.53660
#
# Velocity S-wave (km/s) = 3.55353 3.95991 3.76221
# Velocity P-wave (km/s) = 5.99644 6.80342 6.41264
#
# Compressibility (1/GPa) = 0.02506247
#
# Stress axis : x y z
#
# Youngs Moduli (GPa) = 83.90406 67.92972 46.44402
#
# Poissons Ratio (x) = -0.06370 0.24475
# Poissons Ratio (y) = -0.07868 0.33542
# Poissons Ratio (z) = 0.44215 0.49059
#
# Static dielectric constant tensor:
#      x y z
#    x 4.410350 0.034850 0.100980 
#    y 0.034850 3.648020 0.044780 
#    z 0.100980 0.044780 4.117350 
# 
# 
# High freq. dielectric constant tensor:
#      x y z
#    x 1.834370 0.003210 -0.001270 
#    y 0.003210 1.811990 0.013490 
#    z -0.001270 0.013490 1.815300 
# 
# From -- ./inp_files/577382.got.cif
#   From: 2010.06.25/outbox.cif.g09.slc.cpg/sg2_289_cif.got.tgz:577382.got - 2010.06.27 13:26:56.
