data_PCOD8003280
_publ_section_title
;
Structure prediction by ZEFSAII (Michael W. Deem and Ramdas Pophale) SiO2 
 PCOD8003280
Probable space group: P -1
;
_chemical_formula_sum "Si O2"
_cell_formula_units_Z 16
_cell_length_a 13.468440
_cell_length_b 14.314497
_cell_length_c 8.812021
_cell_angle_alpha 104.522362
_cell_angle_beta 72.344845
_cell_angle_gamma 42.331788
_cell_volume 733.076625
_symmetry_space_group_name_H-M "P -1"
_symmetry_group_IT_number 2
_symmetry_cell_setting 'triclinic'
loop_
_space_group_symop_operation_xyz
x,y,z
-x,-y,-z
loop_
_atom_site_type_symbol
_atom_site_label
_atom_site_fract_x
_atom_site_fract_y
_atom_site_fract_z
Si Si1 0.288541 0.072586 0.624180
Si Si2 0.695531 0.510582 0.788423
Si Si3 0.105419 0.322189 0.074764
Si Si4 0.198041 0.887462 0.165136
Si Si5 0.440847 0.164959 0.036608
Si Si6 0.920272 0.822099 0.757484
Si Si7 0.678749 0.788559 0.542964
Si Si8 0.975553 0.882455 0.349077
O O1 0.329167 0.089852 0.448183
O O2 0.193789 0.043077 0.638282
O O3 0.506150 0.876304 0.546773
O O4 0.130976 0.281201 0.867275
O O5 0.662143 0.650288 0.897793
O O6 0.847375 0.380116 0.517464
O O7 0.814602 0.357569 0.807915
O O8 0.459349 0.651539 0.927864
O O9 0.344660 0.160714 0.967820
O O10 0.051193 0.258854 0.133743
O O11 0.923331 0.548542 0.295862
O O12 0.060974 0.901080 0.213469
O O13 0.123535 0.027774 0.131196
O O14 0.149126 0.974832 0.387475
O O15 0.365763 0.197484 0.254615
O O16 0.709539 0.950603 0.813623
#
# Coordination Sequence:
#
# PCOD8003280 Si02
#       8
#     2   2   2   2   2   2   2   2
#     4  11  26  39  58  87 131 161 193 243 308 364
#     4  10  20  36  65  93 115 151 203 256 294 348
#     4  12  23  38  60  88 125 163 200 246 295 357
#     4   9  21  38  65  93 114 151 206 257 296 350
#     4  11  22  36  63  91 122 158 208 246 287 355
#     4  10  21  35  60  92 117 152 199 252 297 342
#     4  11  24  39  59  90 124 167 199 240 297 364
#     4  10  21  41  62  90 123 156 197 252 307 354
#
# _framework density 21.825823
#
# number of rings (size 3 to 8) (size 9 to 14) (size 15 to 20)
#    0.000    1.500    2.500    2.250    3.500    5.000 
#    0.000    0.625    0.000    1.500    0.000    0.000 
#    0.000    0.000    0.000    0.000    0.000    0.000 
#
# Total GULP energy -198310.301731 kJ/mol
# GULP energy per Si atom -12394.393858 kJ/mol
# Density = 2.177615 g / cm^3
# Si number density = 21.825823 Si / 1000 Ang^3
#
#
#
# Elastic Constant Matrix: (Units=GPa)
#
#
# Indices 1 2 3 4 5 6 
#
# 1 153.2744 44.5917 33.1113 -8.0524 -22.4012 16.1654
# 2 44.5917 84.7574 14.9639 -4.0309 -9.2697 18.7877
# 3 33.1113 14.9639 91.1024 11.4771 -20.8239 -5.8117
# 4 -8.0524 -4.0309 11.4771 34.3640 0.2213 -4.6738
# 5 -22.4012 -9.2697 -20.8239 0.2213 29.7154 -4.6448
# 6 16.1654 18.7877 -5.8117 -4.6738 -4.6448 30.7243
#
#
#
# Elastic Compliance Matrix: (Units=1/GPa)
#
#
# Indices 1 2 3 4 5 6 
#
# 1 0.008843 -0.003264 -0.002233 0.002112 0.003725 -0.002195
# 2 -0.003264 0.015701 -0.002068 0.000651 -0.000302 -0.008222
# 3 -0.002233 -0.002068 0.015293 -0.005122 0.009360 0.005968
# 4 0.002112 0.000651 -0.005122 0.031677 -0.001704 0.002082
# 5 0.003725 -0.000302 0.009360 -0.001704 0.043935 0.006378
# 6 -0.002195 -0.008222 0.005968 0.002082 0.006378 0.041140
#
#
# Mechanical properties :
#
#
# Convention : Reuss Voigt Hill
#
# Bulk Modulus (GPa) = 40.47301 57.16311 48.81806
# Shear Modulus (GPa) = 27.78488 34.72523 31.25506
#
# Velocity S-wave (km/s) = 3.57182 3.99308 3.78831
# Velocity P-wave (km/s) = 5.96611 6.89254 6.44599
#
# Compressibility (1/GPa) = 0.02470782
#
# Stress axis : x y z
#
# Youngs Moduli (GPa) = 113.08470 63.68989 65.38828
#
# Poissons Ratio (x) = 0.20788 0.14599
# Poissons Ratio (y) = 0.36909 0.13524
# Poissons Ratio (z) = 0.25247 0.13173
#
# Static dielectric constant tensor:
#      x y z
#    x 3.894340 0.358260 -0.294860 
#    y 0.358260 4.100950 0.102860 
#    z -0.294860 0.102860 4.059170 
# 
# 
# High freq. dielectric constant tensor:
#      x y z
#    x 1.837650 0.025140 -0.022310 
#    y 0.025140 1.859190 0.010130 
#    z -0.022310 0.010130 1.870920 
# 
# From -- ./inp_files/315405.got.cif
#   From: 2010.06.25/outbox.cif.g09.slc.cpg/sg2_158_cif.got.tgz:315405.got - 2010.06.27 13:26:56.
