data_PCOD8003431
_publ_section_title
;
Structure prediction by ZEFSAII (Michael W. Deem and Ramdas Pophale) SiO2 
 PCOD8003431
Probable space group: P -1
;
_chemical_formula_sum "Si O2"
_cell_formula_units_Z 16
_cell_length_a 8.758486
_cell_length_b 17.540753
_cell_length_c 9.742279
_cell_angle_alpha 133.569524
_cell_angle_beta 45.894844
_cell_angle_gamma 120.847805
_cell_volume 777.111409
_symmetry_space_group_name_H-M "P -1"
_symmetry_group_IT_number 2
_symmetry_cell_setting 'triclinic'
loop_
_space_group_symop_operation_xyz
x,y,z
-x,-y,-z
loop_
_atom_site_type_symbol
_atom_site_label
_atom_site_fract_x
_atom_site_fract_y
_atom_site_fract_z
Si Si1 0.943780 0.356786 0.449651
Si Si2 0.305170 0.536068 0.472014
Si Si3 0.001269 0.661389 0.304856
Si Si4 0.290777 0.551591 0.803887
Si Si5 0.705555 0.986746 0.053156
Si Si6 0.740820 0.959121 0.475502
Si Si7 0.874840 0.881272 0.576361
Si Si8 0.907612 0.855992 0.989029
O O1 0.730005 0.378874 0.522122
O O2 0.884342 0.318829 0.594217
O O3 0.091038 0.462292 0.509200
O O4 0.076169 0.269654 0.181574
O O5 0.346546 0.592200 0.665079
O O6 0.511783 0.468565 0.242525
O O7 0.847110 0.557121 0.265153
O O8 0.868013 0.759495 0.469770
O O9 0.181058 0.647688 0.061853
O O10 0.489855 0.007279 0.293154
O O11 0.851197 0.094694 0.080921
O O12 0.689086 0.937071 0.847713
O O13 0.823257 0.897627 0.950382
O O14 0.833055 0.890503 0.453399
O O15 0.742243 0.884619 0.248109
O O16 0.890799 0.062862 0.471985
#
# Coordination Sequence:
#
# PCOD8003431 Si02
#       8
#     2   2   2   2   2   2   2   2
#     4  10  20  37  57  82 114 147 179 233 282 330
#     4   9  20  38  58  83 111 142 188 228 277 337
#     4  10  20  37  58  79 115 147 180 232 285 326
#     4   9  20  38  58  82 110 145 184 231 277 334
#     4  10  20  39  57  78 118 147 184 235 278 330
#     4  10  22  37  57  84 113 149 190 230 279 332
#     4  10  21  38  57  85 112 147 191 233 275 333
#     4  10  21  36  57  83 114 148 185 230 280 334
#
# _framework density 20.589068999999999
#
# number of rings (size 3 to 8) (size 9 to 14) (size 15 to 20)
#    0.000    2.250    1.250    0.750    1.750    2.500 
#    4.500    0.000    0.000    0.000    0.000    0.000 
#    0.000    0.000    0.000    0.000    0.000    0.000 
#
# Total GULP energy -198279.907018 kJ/mol
# GULP energy per Si atom -12392.494189 kJ/mol
# Density = 2.054221 g / cm^3
# Si number density = 20.589069 Si / 1000 Ang^3
#
#
#
# Elastic Constant Matrix: (Units=GPa)
#
#
# Indices 1 2 3 4 5 6 
#
# 1 73.9092 14.3797 21.9172 3.5379 -3.7895 -19.7806
# 2 14.3797 43.0826 21.9874 2.5959 7.3192 -19.7681
# 3 21.9172 21.9874 123.2574 -6.4377 -0.2223 1.5830
# 4 3.5379 2.5959 -6.4377 27.2771 -0.1164 -6.1073
# 5 -3.7895 7.3192 -0.2223 -0.1164 30.5280 -6.9648
# 6 -19.7806 -19.7681 1.5830 -6.1073 -6.9648 25.1749
#
#
#
# Elastic Compliance Matrix: (Units=1/GPa)
#
#
# Indices 1 2 3 4 5 6 
#
# 1 0.020041 0.004316 -0.004559 0.000718 0.006290 0.021337
# 2 0.004316 0.044353 -0.009088 0.001770 -0.001291 0.038862
# 3 -0.004559 -0.009088 0.010765 0.001467 -0.000877 -0.011282
# 4 0.000718 0.001770 0.001467 0.039479 0.002600 0.012159
# 5 0.006290 -0.001291 -0.000877 0.002600 0.037255 0.014921
# 6 0.021337 0.038862 -0.011282 0.012159 0.014921 0.094790
#
#
# Mechanical properties :
#
#
# Convention : Reuss Voigt Hill
#
# Bulk Modulus (GPa) = 17.70024 39.64642 28.67333
# Shear Modulus (GPa) = 17.59462 28.72698 23.16080
#
# Velocity S-wave (km/s) = 2.92646 3.73936 3.35760
# Velocity P-wave (km/s) = 4.47599 6.15968 5.38405
#
# Compressibility (1/GPa) = 0.05649642
#
# Stress axis : x y z
#
# Youngs Moduli (GPa) = 49.89812 22.54615 92.89455
#
# Poissons Ratio (x) = -0.09730 0.42347
# Poissons Ratio (y) = -0.21534 0.84427
# Poissons Ratio (z) = 0.22747 0.20491
#
# Static dielectric constant tensor:
#      x y z
#    x 3.833220 -0.258240 0.215220 
#    y -0.258240 3.563360 -0.169530 
#    z 0.215220 -0.169530 3.817870 
# 
# 
# High freq. dielectric constant tensor:
#      x y z
#    x 1.800070 -0.018980 0.010400 
#    y -0.018980 1.785740 -0.002920 
#    z 0.010400 -0.002920 1.812030 
# 
# From -- ./inp_files/208159.got.cif
#   From: 2010.06.25/outbox.cif.g09.slc.cpg/sg2_105_cif.got.tgz:208159.got - 2010.06.27 13:26:56.
