data_PCOD8003314
_publ_section_title
;
Structure prediction by ZEFSAII (Michael W. Deem and Ramdas Pophale) SiO2 
 PCOD8003314
Probable space group: P -1
;
_chemical_formula_sum "Si O2"
_cell_formula_units_Z 16
_cell_length_a 14.099260
_cell_length_b 11.946792
_cell_length_c 17.635022
_cell_angle_alpha 32.501286
_cell_angle_beta 148.490545
_cell_angle_gamma 125.925438
_cell_volume 735.812000
_symmetry_space_group_name_H-M "P -1"
_symmetry_group_IT_number 2
_symmetry_cell_setting 'triclinic'
loop_
_space_group_symop_operation_xyz
x,y,z
-x,-y,-z
loop_
_atom_site_type_symbol
_atom_site_label
_atom_site_fract_x
_atom_site_fract_y
_atom_site_fract_z
Si Si1 0.698776 0.501163 0.033999
Si Si2 0.696183 0.195216 0.329201
Si Si3 0.983873 0.081482 0.820934
Si Si4 0.721556 0.454854 0.654555
Si Si5 0.495526 0.770716 0.596772
Si Si6 0.793791 0.681630 0.717444
Si Si7 0.004091 0.292757 0.570826
Si Si8 0.080739 0.485775 0.375871
O O1 0.710532 0.257102 0.214777
O O2 0.917343 0.494680 0.196838
O O3 0.538204 0.711305 0.858394
O O4 0.624948 0.549998 0.868117
O O5 0.786844 0.334227 0.363818
O O6 0.813587 0.917546 0.582545
O O7 0.739249 0.175475 0.598620
O O8 0.021924 0.259451 0.798451
O O9 0.075697 0.073058 0.803019
O O10 0.111467 0.817904 0.088423
O O11 0.500000 0.500000 0.500000
O O12 0.791438 0.580099 0.692428
O O13 0.715583 0.568845 0.502569
O O14 0.599185 0.713531 0.617108
O O15 0.500000 0.000000 0.500000
O O16 0.000000 0.500000 0.000000
O O17 0.142420 0.275294 0.600888
O O18 0.000000 0.500000 0.500000
#
# Coordination Sequence:
#
# PCOD8003314 Si02
#       8
#     2   2   2   2   2   2   2   2
#     4  10  20  36  66  95 122 152 221 262 303 366
#     4  10  20  37  61  95 128 163 202 265 315 367
#     4  11  22  41  65  91 122 163 216 266 308 373
#     4  12  27  43  58  91 131 170 209 260 325 379
#     4  12  21  38  65  93 120 167 216 258 307 379
#     4  12  25  41  63  92 136 171 207 259 324 379
#     4   9  18  37  64  95 120 151 206 268 308 358
#     4  10  22  40  66  90 120 165 211 259 310 376
#
# _framework density 21.744686000000002
#
# number of rings (size 3 to 8) (size 9 to 14) (size 15 to 20)
#    0.000    1.250    2.500    4.125    1.750    0.000 
#    0.000    7.500    0.000    0.000    0.000    0.000 
#    0.000    0.000    0.000    0.000    0.000    0.000 
#
# Total GULP energy -198242.080502 kJ/mol
# GULP energy per Si atom -12390.130031 kJ/mol
# Density = 2.169519 g / cm^3
# Si number density = 21.744686 Si / 1000 Ang^3
#
#
#
# Elastic Constant Matrix: (Units=GPa)
#
#
# Indices 1 2 3 4 5 6 
#
# 1 176.7843 23.3214 45.1086 -3.0160 -20.8327 14.0589
# 2 23.3214 64.6557 26.7968 -1.4420 -0.8428 10.9496
# 3 45.1086 26.7968 91.0399 -4.9439 -14.1882 14.0296
# 4 -3.0160 -1.4420 -4.9439 28.0214 3.6125 -0.9172
# 5 -20.8327 -0.8428 -14.1882 3.6125 35.3779 0.4044
# 6 14.0589 10.9496 14.0296 -0.9172 0.4044 29.6322
#
#
#
# Elastic Compliance Matrix: (Units=1/GPa)
#
#
# Indices 1 2 3 4 5 6 
#
# 1 0.006917 -0.001194 -0.002318 -0.000191 0.003155 -0.001792
# 2 -0.001194 0.018436 -0.004517 0.000153 -0.002044 -0.004075
# 3 -0.002318 -0.004517 0.014888 0.001437 0.004400 -0.004295
# 4 -0.000191 0.000153 0.001437 0.036364 -0.003252 0.000524
# 5 0.003155 -0.002044 0.004400 -0.003252 0.032211 -0.003365
# 6 -0.001792 -0.004075 -0.004295 0.000524 -0.003365 0.038199
#
#
# Mechanical properties :
#
#
# Convention : Reuss Voigt Hill
#
# Bulk Modulus (GPa) = 41.35268 58.10371 49.72819
# Shear Modulus (GPa) = 29.21683 34.42318 31.82001
#
# Velocity S-wave (km/s) = 3.66953 3.98309 3.82952
# Velocity P-wave (km/s) = 6.08380 6.92331 6.51709
#
# Compressibility (1/GPa) = 0.02418223
#
# Stress axis : x y z
#
# Youngs Moduli (GPa) = 144.57917 54.24108 67.16680
#
# Poissons Ratio (x) = 0.06475 0.15571
# Poissons Ratio (y) = 0.17258 0.30342
# Poissons Ratio (z) = 0.33518 0.24503
#
# Static dielectric constant tensor:
#      x y z
#    x 4.538440 0.279170 -0.501760 
#    y 0.279170 3.998730 0.022260 
#    z -0.501760 0.022260 3.836700 
# 
# 
# High freq. dielectric constant tensor:
#      x y z
#    x 1.875950 0.017050 -0.032480 
#    y 0.017050 1.851780 0.010630 
#    z -0.032480 0.010630 1.827000 
# 
# From -- ./inp_files/573568.got.cif
#   From: 2010.06.25/outbox.cif.g09.slc.cpg/sg2_287_cif.got.tgz:573568.got - 2010.06.27 13:26:56.
