data_PCOD8003798
_publ_section_title
;
Structure prediction by ZEFSAII (Michael W. Deem and Ramdas Pophale) SiO2 
 PCOD8003798
Probable space group: P -1
;
_chemical_formula_sum "Si O2"
_cell_formula_units_Z 16
_cell_length_a 15.388783
_cell_length_b 14.626229
_cell_length_c 11.202514
_cell_angle_alpha 28.951653
_cell_angle_beta 138.168825
_cell_angle_gamma 141.688580
_cell_volume 742.146262
_symmetry_space_group_name_H-M "P -1"
_symmetry_group_IT_number 2
_symmetry_cell_setting 'triclinic'
loop_
_space_group_symop_operation_xyz
x,y,z
-x,-y,-z
loop_
_atom_site_type_symbol
_atom_site_label
_atom_site_fract_x
_atom_site_fract_y
_atom_site_fract_z
Si Si1 0.497341 0.124491 0.475328
Si Si2 0.457194 0.863471 0.231842
Si Si3 0.831385 0.221970 0.052477
Si Si4 0.714897 0.787162 0.541750
Si Si5 0.801155 0.461789 0.384021
Si Si6 0.790001 0.848523 0.811289
Si Si7 0.854641 0.491869 0.996747
Si Si8 0.924534 0.293939 0.508055
O O1 0.492956 0.014171 0.727727
O O2 0.636308 0.339582 0.387521
O O3 0.363279 0.181279 0.259311
O O4 0.500000 0.000000 0.500000
O O5 0.545159 0.718928 0.472018
O O6 0.284601 0.742720 0.193113
O O7 0.500000 0.000000 0.000000
O O8 0.988976 0.318957 0.048113
O O9 0.780512 0.974972 0.299790
O O10 0.835665 0.334224 0.052166
O O11 0.802542 0.866692 0.661674
O O12 0.736648 0.585285 0.750752
O O13 0.857545 0.307921 0.551211
O O14 0.906054 0.555215 0.498610
O O15 0.824464 0.657010 0.101532
O O16 0.909464 0.061273 0.741140
O O17 0.829952 0.353569 0.247647
#
# Coordination Sequence:
#
# PCOD8003798 Si02
#       8
#     2   2   2   2   2   2   2   2
#     4  11  22  40  67  93 129 164 211 258 319 372
#     4   9  21  40  64  90 126 163 204 259 308 371
#     4  10  21  38  60  87 123 158 207 259 312 370
#     4  10  20  37  61  88 118 162 209 257 311 376
#     4  11  23  38  60  90 123 161 210 259 310 376
#     4  11  21  40  62  87 122 167 208 257 316 377
#     4  11  21  36  63  87 120 163 206 258 317 373
#     4  11  22  38  60  89 124 162 208 259 319 372
#
# _framework density 21.559092
#
# number of rings (size 3 to 8) (size 9 to 14) (size 15 to 20)
#    0.000    1.500    3.750    1.875    0.000    0.500 
#    0.000    0.000   13.750    0.000    0.000    0.000 
#    0.000    0.000    0.000    0.000    0.000    0.000 
#
# Total GULP energy -198259.127466 kJ/mol
# GULP energy per Si atom -12391.195467 kJ/mol
# Density = 2.151002 g / cm^3
# Si number density = 21.559092 Si / 1000 Ang^3
#
#
#
# Elastic Constant Matrix: (Units=GPa)
#
#
# Indices 1 2 3 4 5 6 
#
# 1 63.2545 6.8428 9.6456 5.7744 1.7129 -5.8010
# 2 6.8428 79.7637 20.0115 9.2877 -0.5830 1.4035
# 3 9.6456 20.0115 82.2422 6.0890 3.7448 -5.9744
# 4 5.7744 9.2877 6.0890 36.3407 0.9200 0.3943
# 5 1.7129 -0.5830 3.7448 0.9200 28.1573 8.2677
# 6 -5.8010 1.4035 -5.9744 0.3943 8.2677 22.1958
#
#
#
# Elastic Compliance Matrix: (Units=1/GPa)
#
#
# Indices 1 2 3 4 5 6 
#
# 1 0.016816 -0.001017 -0.001086 -0.002226 -0.002315 0.005069
# 2 -0.001017 0.013840 -0.003301 -0.002836 0.001641 -0.002590
# 3 -0.001086 -0.003301 0.013678 -0.001247 -0.003196 0.004819
# 4 -0.002226 -0.002836 -0.001247 0.028826 -0.000373 -0.001111
# 5 -0.002315 0.001641 -0.003196 -0.000373 0.041078 -0.016864
# 6 0.005069 -0.002590 0.004819 -0.001111 -0.016864 0.054141
#
#
# Mechanical properties :
#
#
# Convention : Reuss Voigt Hill
#
# Bulk Modulus (GPa) = 29.82883 33.14004 31.48443
# Shear Modulus (GPa) = 26.26561 29.92277 28.09419
#
# Velocity S-wave (km/s) = 3.49421 3.72955 3.61380
# Velocity P-wave (km/s) = 5.49047 5.82676 5.66111
#
# Compressibility (1/GPa) = 0.03352461
#
# Stress axis : x y z
#
# Youngs Moduli (GPa) = 59.46859 72.25265 73.11123
#
# Poissons Ratio (x) = 0.07348 0.07942
# Poissons Ratio (y) = 0.06048 0.24137
# Poissons Ratio (z) = 0.06460 0.23853
#
# Static dielectric constant tensor:
#      x y z
#    x 3.911850 0.169390 0.108030 
#    y 0.169390 4.167290 0.377970 
#    z 0.108030 0.377970 3.950250 
# 
# 
# High freq. dielectric constant tensor:
#      x y z
#    x 1.842030 0.003630 0.001830 
#    y 0.003630 1.846210 0.021140 
#    z 0.001830 0.021140 1.839530 
# 
# From -- ./inp_files/454412.got.cif
#   From: 2010.06.25/outbox.cif.g09.slc.cpg/sg2_228_cif.got.tgz:454412.got - 2010.06.27 13:26:56.
