data_PCOD8003215
_publ_section_title
;
Structure prediction by ZEFSAII (Michael W. Deem and Ramdas Pophale) SiO2 
 PCOD8003215
Probable space group: P -1
;
_chemical_formula_sum "Si O2"
_cell_formula_units_Z 16
_cell_length_a 8.014800
_cell_length_b 21.428875
_cell_length_c 11.551556
_cell_angle_alpha 31.037039
_cell_angle_beta 86.201746
_cell_angle_gamma 104.998601
_cell_volume 806.116254
_symmetry_space_group_name_H-M "P -1"
_symmetry_group_IT_number 2
_symmetry_cell_setting 'triclinic'
loop_
_space_group_symop_operation_xyz
x,y,z
-x,-y,-z
loop_
_atom_site_type_symbol
_atom_site_label
_atom_site_fract_x
_atom_site_fract_y
_atom_site_fract_z
Si Si1 0.596930 0.914444 0.111775
Si Si2 0.184381 0.450363 0.673337
Si Si3 0.957980 0.818287 0.251852
Si Si4 0.503409 0.614740 0.983834
Si Si5 0.549155 0.666102 0.639069
Si Si6 0.367077 0.237280 0.836188
Si Si7 0.175146 0.176664 0.183017
Si Si8 0.085745 0.446729 0.416175
O O1 0.470801 0.753315 0.441304
O O2 0.579200 0.872331 0.043619
O O3 0.500000 0.000000 0.000000
O O4 0.837850 0.011534 0.995221
O O5 0.436573 0.581725 0.471939
O O6 0.139726 0.437415 0.560028
O O7 0.053798 0.494303 0.678396
O O8 0.105285 0.283976 0.986884
O O9 0.801432 0.752223 0.475097
O O10 0.828985 0.802119 0.169022
O O11 0.041415 0.719809 0.374851
O O12 0.480426 0.653988 0.792977
O O13 0.693547 0.767162 0.794694
O O14 0.561451 0.497623 0.158226
O O15 0.297802 0.557656 0.156874
O O16 0.310535 0.190536 0.045768
O O17 0.000000 0.000000 0.500000
#
# Coordination Sequence:
#
# PCOD8003215 Si02
#       8
#     2   2   2   2   2   2   2   2
#     4  11  23  38  61  90 120 156 200 251 303 355
#     4  11  21  39  63  89 119 157 208 245 294 363
#     4  10  20  36  64  86 115 155 204 249 294 349
#     4  10  21  40  61  88 120 159 201 247 303 354
#     4   9  20  38  63  87 116 158 202 246 293 360
#     4  11  21  40  64  88 118 163 211 244 288 361
#     4  12  25  37  60  91 125 159 199 251 303 360
#     4  10  20  37  64  88 116 158 202 250 297 355
#
# _framework density 19.848254000000001
#
# number of rings (size 3 to 8) (size 9 to 14) (size 15 to 20)
#    0.000    1.500    2.500    4.875    3.500    0.000 
#    2.250    0.625    0.000    7.500    0.000    0.000 
#    0.000    0.000    0.000    0.000    0.000    0.000 
#
# Total GULP energy -198275.327877 kJ/mol
# GULP energy per Si atom -12392.207992 kJ/mol
# Density = 1.980308 g / cm^3
# Si number density = 19.848254 Si / 1000 Ang^3
#
#
#
# Elastic Constant Matrix: (Units=GPa)
#
#
# Indices 1 2 3 4 5 6 
#
# 1 65.3245 33.1940 39.8111 -0.1807 13.3197 -18.3457
# 2 33.1940 108.1672 67.0295 -1.8707 3.5251 -20.2443
# 3 39.8111 67.0295 121.6185 -8.8904 4.2846 -7.4654
# 4 -0.1807 -1.8707 -8.8904 35.4492 -1.5455 -5.4947
# 5 13.3197 3.5251 4.2846 -1.5455 26.6412 -12.3287
# 6 -18.3457 -20.2443 -7.4654 -5.4947 -12.3287 35.9670
#
#
#
# Elastic Compliance Matrix: (Units=1/GPa)
#
#
# Indices 1 2 3 4 5 6 
#
# 1 0.023363 -0.001962 -0.005934 -0.000708 -0.007279 0.006978
# 2 -0.001962 0.016022 -0.007830 0.000225 0.003693 0.007693
# 3 -0.005934 -0.007830 0.014418 0.002539 -0.000053 -0.004071
# 4 -0.000708 0.000225 0.002539 0.030062 0.004660 0.006482
# 5 -0.007279 0.003693 -0.000053 0.004660 0.048175 0.015580
# 6 0.006978 0.007693 -0.004071 0.006482 0.015580 0.041178
#
#
# Mechanical properties :
#
#
# Convention : Reuss Voigt Hill
#
# Bulk Modulus (GPa) = 44.73742 63.90883 54.32313
# Shear Modulus (GPa) = 23.57155 29.94986 26.76070
#
# Velocity S-wave (km/s) = 3.44988 3.88872 3.67586
# Velocity P-wave (km/s) = 6.20141 7.24096 6.74126
#
# Compressibility (1/GPa) = 0.02235265
#
# Stress axis : x y z
#
# Youngs Moduli (GPa) = 42.80278 62.41300 69.35911
#
# Poissons Ratio (x) = 0.12244 0.41155
# Poissons Ratio (y) = 0.08397 0.54307
# Poissons Ratio (z) = 0.25397 0.48869
#
# Static dielectric constant tensor:
#      x y z
#    x 3.428010 -0.201130 0.001850 
#    y -0.201130 4.032570 -0.212660 
#    z 0.001850 -0.212660 3.607320 
# 
# 
# High freq. dielectric constant tensor:
#      x y z
#    x 1.751530 -0.012740 0.002440 
#    y -0.012740 1.800700 -0.016840 
#    z 0.002440 -0.016840 1.765250 
# 
# From -- ./inp_files/405287.got.cif
#   From: 2010.06.25/outbox.cif.g09.slc.cpg/sg2_203_cif.got.tgz:405287.got - 2010.06.27 13:26:56.
