data_PCOD8003612
_publ_section_title
;
Structure prediction by ZEFSAII (Michael W. Deem and Ramdas Pophale) SiO2 
 PCOD8003612
Probable space group: P -1
;
_chemical_formula_sum "Si O2"
_cell_formula_units_Z 12
_cell_length_a 15.383878
_cell_length_b 15.658855
_cell_length_c 6.558808
_cell_angle_alpha 128.283465
_cell_angle_beta 50.388621
_cell_angle_gamma 154.136385
_cell_volume 526.014319
_symmetry_space_group_name_H-M "P -1"
_symmetry_group_IT_number 2
_symmetry_cell_setting 'triclinic'
loop_
_space_group_symop_operation_xyz
x,y,z
-x,-y,-z
loop_
_atom_site_type_symbol
_atom_site_label
_atom_site_fract_x
_atom_site_fract_y
_atom_site_fract_z
Si Si1 0.077367 0.603095 0.824810
Si Si2 0.705776 0.362442 0.747524
Si Si3 0.746769 0.031482 0.007445
Si Si4 0.305987 0.232824 0.464679
Si Si5 0.650851 0.596601 0.730414
Si Si6 0.880722 0.725889 0.940800
O O1 0.241847 0.646837 0.564289
O O2 0.871534 0.443037 0.766055
O O3 0.190708 0.810531 0.973883
O O4 0.000000 0.500000 0.000000
O O5 0.482858 0.145820 0.830653
O O6 0.717551 0.503213 0.929941
O O7 0.776289 0.956515 0.690684
O O8 0.891640 0.131721 0.137927
O O9 0.538222 0.419475 0.486281
O O10 0.300551 0.261347 0.274974
O O11 0.163017 0.197290 0.758482
O O12 0.857188 0.721588 0.722589
O O13 0.500000 0.500000 0.000000
#
# Coordination Sequence:
#
# PCOD8003612 Si02
#       6
#     2   2   2   2   2   2
#     4  10  24  45  66  89 122 163 209 265 321 369
#     4  10  22  43  65  92 126 161 209 261 311 373
#     4  11  22  40  67  95 127 165 210 262 311 371
#     4  10  20  37  59  92 131 165 206 252 303 368
#     4   9  18  35  58  85 125 170 205 245 302 364
#     4  10  22  39  62  93 131 168 202 252 310 369
#
# _framework density 22.813065999999999
#
# number of rings (size 3 to 8) (size 9 to 14) (size 15 to 20)
#    0.000    2.000    0.000    4.000    0.000    5.333 
#    0.000   18.333    0.000    0.000    0.000    0.000 
#    0.000    0.000    0.000    0.000    0.000    0.000 
#
# Total GULP energy -148727.169526 kJ/mol
# GULP energy per Si atom -12393.930794 kJ/mol
# Density = 2.276114 g / cm^3
# Si number density = 22.813066 Si / 1000 Ang^3
#
#
#
# Elastic Constant Matrix: (Units=GPa)
#
#
# Indices 1 2 3 4 5 6 
#
# 1 97.2979 56.6683 67.3271 0.4716 5.2634 -3.1830
# 2 56.6683 155.1974 61.8251 2.3561 -7.9516 -4.2083
# 3 67.3271 61.8251 108.6378 1.0950 1.4440 -18.8980
# 4 0.4716 2.3561 1.0950 30.6972 -3.5320 -2.1322
# 5 5.2634 -7.9516 1.4440 -3.5320 38.5199 -2.5314
# 6 -3.1830 -4.2083 -18.8980 -2.1322 -2.5314 24.2682
#
#
#
# Elastic Compliance Matrix: (Units=1/GPa)
#
#
# Indices 1 2 3 4 5 6 
#
# 1 0.020443 -0.002947 -0.012301 -0.000597 -0.003510 -0.007827
# 2 -0.002947 0.009031 -0.003584 -0.000356 0.002276 -0.001405
# 3 -0.012301 -0.003584 0.021386 0.000852 0.001178 0.014617
# 4 -0.000597 -0.000356 0.000852 0.033222 0.003271 0.003784
# 5 -0.003510 0.002276 0.001178 0.003271 0.027429 0.004000
# 6 -0.007827 -0.001405 0.014617 0.003784 0.004000 0.052068
#
#
# Mechanical properties :
#
#
# Convention : Reuss Voigt Hill
#
# Bulk Modulus (GPa) = 75.78190 81.41934 78.60062
# Shear Modulus (GPa) = 24.31412 30.38456 27.34934
#
# Velocity S-wave (km/s) = 3.26820 3.65347 3.46619
# Velocity P-wave (km/s) = 6.89436 7.31877 7.10973
#
# Compressibility (1/GPa) = 0.01319576
#
# Stress axis : x y z
#
# Youngs Moduli (GPa) = 48.91734 110.72565 46.75863
#
# Poissons Ratio (x) = 0.32633 0.57517
# Poissons Ratio (y) = 0.14417 0.16760
# Poissons Ratio (z) = 0.60172 0.39688
#
# Static dielectric constant tensor:
#      x y z
#    x 4.535020 0.231400 0.202530 
#    y 0.231400 4.114570 0.318290 
#    z 0.202530 0.318290 4.207310 
# 
# 
# High freq. dielectric constant tensor:
#      x y z
#    x 1.900040 0.007150 0.002300 
#    y 0.007150 1.902480 0.011130 
#    z 0.002300 0.011130 1.891640 
# 
# From -- ./inp_files/97316.got.cif
#   From: 2010.06.25/outbox.cif.g09.slc.cpg/sg2_49_cif.got.tgz:97316.got - 2010.06.27 13:26:56.
