data_PCOD8003026
_publ_section_title
;
Structure prediction by ZEFSAII (Michael W. Deem and Ramdas Pophale) SiO2 
 PCOD8003026
Probable space group: P -1
;
_chemical_formula_sum "Si O2"
_cell_formula_units_Z 16
_cell_length_a 13.724739
_cell_length_b 12.359014
_cell_length_c 8.421580
_cell_angle_alpha 143.852585
_cell_angle_beta 117.550184
_cell_angle_gamma 61.304600
_cell_volume 731.372774
_symmetry_space_group_name_H-M "P -1"
_symmetry_group_IT_number 2
_symmetry_cell_setting 'triclinic'
loop_
_space_group_symop_operation_xyz
x,y,z
-x,-y,-z
loop_
_atom_site_type_symbol
_atom_site_label
_atom_site_fract_x
_atom_site_fract_y
_atom_site_fract_z
Si Si1 0.586785 0.673878 0.923923
Si Si2 0.468354 0.631436 0.281193
Si Si3 0.873750 0.171523 0.185355
Si Si4 0.868978 0.518703 0.417299
Si Si5 0.337849 0.001641 0.467447
Si Si6 0.889567 0.823515 0.580284
Si Si7 0.678349 0.725206 0.726271
Si Si8 0.349067 0.884057 0.969768
O O1 0.458687 0.728138 0.826695
O O2 0.600577 0.828306 0.248836
O O3 0.604087 0.469017 0.772030
O O4 0.673530 0.672574 0.844847
O O5 0.389776 0.828185 0.411430
O O6 0.585704 0.650697 0.466788
O O7 0.500000 0.500000 0.000000
O O8 0.849153 0.305972 0.167224
O O9 0.978817 0.219426 0.426232
O O10 0.759359 0.211213 0.249495
O O11 0.896066 0.953288 0.894776
O O12 0.839222 0.638976 0.374695
O O13 0.802281 0.634175 0.649816
O O14 0.000000 0.500000 0.500000
O O15 0.352834 0.957754 0.240618
O O16 0.202986 0.065898 0.480907
O O17 0.656362 0.949221 0.961763
#
# Coordination Sequence:
#
# PCOD8003026 Si02
#       8
#     2   2   2   2   2   2   2   2
#     4  12  25  41  60  91 132 165 199 259 313 370
#     4  12  25  39  61  92 126 165 211 250 305 374
#     4   9  18  33  59  89 117 150 204 256 299 342
#     4  10  20  36  61  92 116 156 206 258 300 361
#     4  11  22  39  62  91 125 161 211 247 310 358
#     4   9  19  35  58  92 116 150 204 262 296 348
#     4  12  24  41  61  94 127 162 203 257 320 365
#     4  11  20  38  64  91 121 164 206 252 301 370
#
# _framework density 21.876669
#
# number of rings (size 3 to 8) (size 9 to 14) (size 15 to 20)
#    0.000    1.250    5.000    2.625    1.750    0.000 
#    0.000    0.000    0.000    3.750    3.250    0.000 
#    0.000    0.000    0.000    0.000    0.000    0.000 
#
# Total GULP energy -198240.091551 kJ/mol
# GULP energy per Si atom -12390.005722 kJ/mol
# Density = 2.182688 g / cm^3
# Si number density = 21.876669 Si / 1000 Ang^3
#
#
#
# Elastic Constant Matrix: (Units=GPa)
#
#
# Indices 1 2 3 4 5 6 
#
# 1 129.5421 42.2514 18.3369 -0.9924 13.8993 -3.1267
# 2 42.2514 101.1498 20.8978 21.9854 9.5627 2.8354
# 3 18.3369 20.8978 32.9699 12.6071 14.7369 5.0314
# 4 -0.9924 21.9854 12.6071 28.5601 8.7699 4.7798
# 5 13.8993 9.5627 14.7369 8.7699 29.3317 4.8670
# 6 -3.1267 2.8354 5.0314 4.7798 4.8670 43.4580
#
#
#
# Elastic Compliance Matrix: (Units=1/GPa)
#
#
# Indices 1 2 3 4 5 6 
#
# 1 0.010214 -0.004575 -0.003849 0.006469 -0.003542 0.001164
# 2 -0.004575 0.014636 -0.003817 -0.010498 0.002447 0.000038
# 3 -0.003849 -0.003817 0.047526 -0.012684 -0.016640 -0.002272
# 4 0.006469 -0.010498 -0.012684 0.051864 -0.008421 -0.002142
# 5 -0.003542 0.002447 -0.016640 -0.008421 0.046308 -0.002748
# 6 0.001164 0.000038 -0.002272 -0.002142 -0.002748 0.023898
#
#
# Mechanical properties :
#
#
# Convention : Reuss Voigt Hill
#
# Bulk Modulus (GPa) = 20.88003 47.40379 34.14191
# Shear Modulus (GPa) = 21.28634 32.41498 26.85066
#
# Velocity S-wave (km/s) = 3.12270 3.85348 3.50718
# Velocity P-wave (km/s) = 4.75046 6.44320 5.66046
#
# Compressibility (1/GPa) = 0.04789266
#
# Stress axis : x y z
#
# Youngs Moduli (GPa) = 97.90227 68.32692 21.04124
#
# Poissons Ratio (x) = 0.31261 0.08098
# Poissons Ratio (y) = 0.44792 0.08032
# Poissons Ratio (z) = 0.37681 0.26083
#
# Static dielectric constant tensor:
#      x y z
#    x 4.362550 -0.185690 0.425660 
#    y -0.185690 4.690850 0.602380 
#    z 0.425660 0.602380 3.888810 
# 
# 
# High freq. dielectric constant tensor:
#      x y z
#    x 1.866240 -0.013920 0.028730 
#    y -0.013920 1.863150 0.038910 
#    z 0.028730 0.038910 1.824650 
# 
# From -- ./inp_files/308847.got.cif
#   From: 2010.06.25/outbox.cif.g09.slc.cpg/sg2_155_cif.got.tgz:308847.got - 2010.06.27 13:26:56.
