data_PCOD8003160
_publ_section_title
;
Structure prediction by ZEFSAII (Michael W. Deem and Ramdas Pophale) SiO2 
 PCOD8003160
Probable space group: P -1
;
_chemical_formula_sum "Si O2"
_cell_formula_units_Z 16
_cell_length_a 13.932467
_cell_length_b 19.005629
_cell_length_c 8.895595
_cell_angle_alpha 42.928720
_cell_angle_beta 135.887989
_cell_angle_gamma 148.998639
_cell_volume 798.424537
_symmetry_space_group_name_H-M "P -1"
_symmetry_group_IT_number 2
_symmetry_cell_setting 'triclinic'
loop_
_space_group_symop_operation_xyz
x,y,z
-x,-y,-z
loop_
_atom_site_type_symbol
_atom_site_label
_atom_site_fract_x
_atom_site_fract_y
_atom_site_fract_z
Si Si1 0.711824 0.073992 0.797868
Si Si2 0.674261 0.630906 0.093265
Si Si3 0.408343 0.077990 0.402442
Si Si4 0.250588 0.116675 0.722176
Si Si5 0.949374 0.605686 0.387768
Si Si6 0.235292 0.593647 0.789597
Si Si7 0.506584 0.398080 0.758196
Si Si8 0.177952 0.098442 0.333379
O O1 0.512069 0.031461 0.661385
O O2 0.888923 0.244821 0.753190
O O3 0.725273 0.028000 0.720436
O O4 0.723246 0.992748 0.064807
O O5 0.813567 0.608308 0.330283
O O6 0.606486 0.647997 0.141956
O O7 0.500000 0.500000 0.000000
O O8 0.800857 0.779834 0.911624
O O9 0.565827 0.240069 0.263613
O O10 0.273337 0.057378 0.408620
O O11 0.416275 0.261110 0.772137
O O12 0.278497 0.159912 0.512232
O O13 0.046015 0.046167 0.669448
O O14 0.811075 0.480490 0.306678
O O15 0.057170 0.576654 0.659570
O O16 0.276562 0.527771 0.067073
O O17 0.500000 0.500000 0.500000
#
# Coordination Sequence:
#
# PCOD8003160 Si02
#       8
#     2   2   2   2   2   2   2   2
#     4  10  20  36  63  89 119 153 204 252 305 360
#     4  12  21  38  63  89 119 161 210 246 306 373
#     4  10  20  38  61  89 117 161 201 250 304 369
#     4  11  24  39  57  90 126 160 201 262 304 353
#     4  10  21  35  63  91 117 161 202 250 296 369
#     4  10  20  39  60  87 124 157 204 248 303 361
#     4  12  25  40  62  90 124 160 204 260 309 363
#     4  11  23  38  59  87 126 160 204 253 303 365
#
# _framework density 20.039465
#
# number of rings (size 3 to 8) (size 9 to 14) (size 15 to 20)
#    0.000    1.250    5.000    0.750    1.750    1.500 
#    0.000    0.625    0.000    1.500    0.000    0.000 
#    0.000    0.000    0.000    0.000    0.000    0.000 
#
# Total GULP energy -198393.227244 kJ/mol
# GULP energy per Si atom -12399.576703 kJ/mol
# Density = 1.999385 g / cm^3
# Si number density = 20.039465 Si / 1000 Ang^3
#
#
#
# Elastic Constant Matrix: (Units=GPa)
#
#
# Indices 1 2 3 4 5 6 
#
# 1 104.6767 8.8042 46.7316 9.3844 19.5791 -3.0255
# 2 8.8042 50.4905 19.9108 5.8954 4.5237 -8.9905
# 3 46.7316 19.9108 151.3188 13.1645 22.2143 2.9379
# 4 9.3844 5.8954 13.1645 28.5816 3.5320 3.8982
# 5 19.5791 4.5237 22.2143 3.5320 36.4353 0.7929
# 6 -3.0255 -8.9905 2.9379 3.8982 0.7929 21.7157
#
#
#
# Elastic Compliance Matrix: (Units=1/GPa)
#
#
# Indices 1 2 3 4 5 6 
#
# 1 0.011976 0.000243 -0.002907 -0.002463 -0.004515 0.002770
# 2 0.000243 0.023523 -0.002786 -0.005025 -0.001107 0.011092
# 3 -0.002907 -0.002786 0.008516 -0.001701 -0.003069 -0.002293
# 4 -0.002463 -0.005025 -0.001701 0.038939 -0.000591 -0.009162
# 5 -0.004515 -0.001107 -0.003069 -0.000591 0.031976 -0.001734
# 6 0.002770 0.011092 -0.002293 -0.009162 -0.001734 0.053046
#
#
# Mechanical properties :
#
#
# Convention : Reuss Voigt Hill
#
# Bulk Modulus (GPa) = 30.19763 50.81993 40.50878
# Shear Modulus (GPa) = 26.32778 32.74914 29.53846
#
# Velocity S-wave (km/s) = 3.62857 4.04695 3.84345
# Velocity P-wave (km/s) = 5.71464 6.87401 6.32096
#
# Compressibility (1/GPa) = 0.03311518
#
# Stress axis : x y z
#
# Youngs Moduli (GPa) = 83.50053 42.51180 117.42451
#
# Poissons Ratio (x) = -0.01035 0.34138
# Poissons Ratio (y) = -0.02033 0.32715
# Poissons Ratio (z) = 0.24276 0.11844
#
# Static dielectric constant tensor:
#      x y z
#    x 3.594020 -0.095620 0.378950 
#    y -0.095620 3.681790 0.171110 
#    z 0.378950 0.171110 4.101830 
# 
# 
# High freq. dielectric constant tensor:
#      x y z
#    x 1.767660 -0.016130 0.032040 
#    y -0.016130 1.786040 0.012100 
#    z 0.032040 0.012100 1.788850 
# 
# From -- ./inp_files/314488.got.cif
#   From: 2010.06.25/outbox.cif.g09.slc.cpg/sg2_158_cif.got.tgz:314488.got - 2010.06.27 13:26:56.
