data_PCOD8003572
_publ_section_title
;
Structure prediction by ZEFSAII (Michael W. Deem and Ramdas Pophale) SiO2 
 PCOD8003572
Probable space group: P -1
;
_chemical_formula_sum "Si O2"
_cell_formula_units_Z 14
_cell_length_a 10.852407
_cell_length_b 20.346732
_cell_length_c 17.404853
_cell_angle_alpha 160.175082
_cell_angle_beta 32.465097
_cell_angle_gamma 135.727642
_cell_volume 632.750108
_symmetry_space_group_name_H-M "P -1"
_symmetry_group_IT_number 2
_symmetry_cell_setting 'triclinic'
loop_
_space_group_symop_operation_xyz
x,y,z
-x,-y,-z
loop_
_atom_site_type_symbol
_atom_site_label
_atom_site_fract_x
_atom_site_fract_y
_atom_site_fract_z
Si Si1 0.707323 0.851298 0.670078
Si Si2 0.907537 0.043324 0.347205
Si Si3 0.315383 0.823354 0.084830
Si Si4 0.634158 0.359037 0.400052
Si Si5 0.765697 0.934815 0.457108
Si Si6 0.923315 0.306282 0.339787
Si Si7 0.309770 0.854517 0.593117
O O1 0.636939 0.654162 0.475263
O O2 0.979395 0.790218 0.500381
O O3 0.689467 0.973415 0.734017
O O4 0.500000 0.000000 0.000000
O O5 0.729048 0.028318 0.492322
O O6 0.143612 0.805323 0.952031
O O7 0.745877 0.136071 0.458029
O O8 0.059355 0.792954 0.168350
O O9 0.341277 0.864627 0.206760
O O10 0.560578 0.607943 0.692538
O O11 0.724527 0.307631 0.382918
O O12 0.607488 0.789586 0.381500
O O13 0.787805 0.310736 0.498230
O O14 0.000000 0.500000 0.500000
O O15 0.174669 0.087071 0.959445
#
# Coordination Sequence:
#
# PCOD8003572 Si02
#       7
#     2   2   2   2   2   2   2
#     4   9  19  35  56  86 113 144 192 235 280 331
#     4   9  20  36  59  87 116 153 191 233 283 340
#     4  10  21  37  59  85 117 150 188 239 281 334
#     4  10  20  37  62  84 109 150 195 235 281 333
#     4  10  20  37  59  86 119 154 187 229 293 345
#     4  10  21  36  60  88 109 144 197 241 281 336
#     4  10  20  38  59  80 116 154 186 234 288 338
#
# _framework density 22.125636
#
# number of rings (size 3 to 8) (size 9 to 14) (size 15 to 20)
#    0.000    2.286    0.000    2.143    0.000    9.714 
#    0.000   17.143    0.000    7.714    0.000    0.000 
#    0.000    0.000    0.000    0.000    0.000    0.000 
#
# Total GULP energy -173483.718656 kJ/mol
# GULP energy per Si atom -12391.694190 kJ/mol
# Density = 2.207528 g / cm^3
# Si number density = 22.125636 Si / 1000 Ang^3
#
#
#
# Elastic Constant Matrix: (Units=GPa)
#
#
# Indices 1 2 3 4 5 6 
#
# 1 121.3691 58.4415 14.9184 -13.9135 14.3417 -3.0059
# 2 58.4415 138.6371 16.1294 -9.9908 14.2856 -1.4328
# 3 14.9184 16.1294 38.4617 3.7615 7.8625 -1.1866
# 4 -13.9135 -9.9908 3.7615 23.9703 -3.0209 3.5908
# 5 14.3417 14.2856 7.8625 -3.0209 22.7881 -8.3476
# 6 -3.0059 -1.4328 -1.1866 3.5908 -8.3476 33.1463
#
#
#
# Elastic Compliance Matrix: (Units=1/GPa)
#
#
# Indices 1 2 3 4 5 6 
#
# 1 0.011350 -0.003763 -0.002641 0.005098 -0.003433 -0.000645
# 2 -0.003763 0.009474 -0.002125 0.001870 -0.002938 -0.000950
# 3 -0.002641 -0.002125 0.030509 -0.008234 -0.008833 -0.000572
# 4 0.005098 0.001870 -0.008234 0.047778 0.003292 -0.004098
# 5 -0.003433 -0.002938 -0.008833 0.003292 0.056141 0.013027
# 6 -0.000645 -0.000950 -0.000572 -0.004098 0.013027 0.033774
#
#
# Mechanical properties :
#
#
# Convention : Reuss Voigt Hill
#
# Bulk Modulus (GPa) = 29.17586 53.04962 41.11274
# Shear Modulus (GPa) = 22.98751 29.91285 26.45018
#
# Velocity S-wave (km/s) = 3.22678 3.68088 3.46128
# Velocity P-wave (km/s) = 5.20556 6.48797 5.88182
#
# Compressibility (1/GPa) = 0.03427491
#
# Stress axis : x y z
#
# Youngs Moduli (GPa) = 88.10602 105.54990 32.77743
#
# Poissons Ratio (x) = 0.39715 0.08657
# Poissons Ratio (y) = 0.33152 0.06966
# Poissons Ratio (z) = 0.23269 0.22432
#
# Static dielectric constant tensor:
#      x y z
#    x 4.295720 0.396690 0.198440 
#    y 0.396690 4.313110 -0.122800 
#    z 0.198440 -0.122800 3.688830 
# 
# 
# High freq. dielectric constant tensor:
#      x y z
#    x 1.887810 0.006850 0.009560 
#    y 0.006850 1.869100 -0.016720 
#    z 0.009560 -0.016720 1.830680 
# 
# From -- ./inp_files/523765.got.cif
#   From: 2010.06.25/outbox.cif.g09.slc.cpg/sg2_262_cif.got.tgz:523765.got - 2010.06.27 13:26:56.
