data_PCOD8003531
_publ_section_title
;
Structure prediction by ZEFSAII (Michael W. Deem and Ramdas Pophale) SiO2 
 PCOD8003531
Probable space group: P -1
;
_chemical_formula_sum "Si O2"
_cell_formula_units_Z 14
_cell_length_a 8.218533
_cell_length_b 21.551099
_cell_length_c 9.576037
_cell_angle_alpha 126.132258
_cell_angle_beta 31.277772
_cell_angle_gamma 129.592248
_cell_volume 674.284171
_symmetry_space_group_name_H-M "P -1"
_symmetry_group_IT_number 2
_symmetry_cell_setting 'triclinic'
loop_
_space_group_symop_operation_xyz
x,y,z
-x,-y,-z
loop_
_atom_site_type_symbol
_atom_site_label
_atom_site_fract_x
_atom_site_fract_y
_atom_site_fract_z
Si Si1 0.384616 0.361300 0.266736
Si Si2 0.364021 0.494786 0.246205
Si Si3 0.937064 0.820533 0.704528
Si Si4 0.632575 0.120107 0.793208
Si Si5 0.111198 0.420715 0.816544
Si Si6 0.702316 0.067538 0.180541
Si Si7 0.950686 0.917269 0.346206
O O1 0.357196 0.410270 0.211673
O O2 0.129027 0.271461 0.320646
O O3 0.283985 0.408185 0.530747
O O4 0.752318 0.352188 0.009310
O O5 0.615635 0.569987 0.249180
O O6 0.000000 0.500000 0.500000
O O7 0.500000 0.500000 0.000000
O O8 0.229631 0.842086 0.406693
O O9 0.008225 0.881938 0.864544
O O10 0.609754 0.835271 0.902907
O O11 0.930884 0.140536 0.713753
O O12 0.454902 0.024280 0.773059
O O13 0.000000 0.500000 0.000000
O O14 0.437641 0.117294 0.448688
O O15 0.829826 0.065361 0.929151
O O16 0.000000 0.000000 0.500000
#
# Coordination Sequence:
#
# PCOD8003531 Si02
#       7
#     2   2   2   2   2   2   2
#     4  11  23  41  59  88 125 159 193 238 302 356
#     4  11  21  38  66  93 114 145 194 241 282 348
#     4  12  24  38  58  87 123 157 197 255 297 344
#     4  11  21  38  60  85 113 160 212 244 290 361
#     4  10  20  40  66  86 116 157 192 228 288 366
#     4  11  21  38  61  85 117 159 205 253 301 345
#     4  10  20  37  59  82 111 149 202 259 299 346
#
# _framework density 20.762761000000001
#
# number of rings (size 3 to 8) (size 9 to 14) (size 15 to 20)
#    0.000    1.143    0.000   11.143    0.000    0.000 
#    0.000    8.571    0.000    0.000    0.000    0.000 
#    0.000    0.000    0.000    0.000    0.000    0.000 
#
# Total GULP energy -173529.945586 kJ/mol
# GULP energy per Si atom -12394.996113 kJ/mol
# Density = 2.071550 g / cm^3
# Si number density = 20.762761 Si / 1000 Ang^3
#
#
#
# Elastic Constant Matrix: (Units=GPa)
#
#
# Indices 1 2 3 4 5 6 
#
# 1 108.6009 43.3528 56.3993 -11.7924 -5.2884 -12.3009
# 2 43.3528 96.9393 40.9829 -15.4718 11.2181 -2.4744
# 3 56.3993 40.9829 137.0214 -19.7845 0.2966 -6.0822
# 4 -11.7924 -15.4718 -19.7845 26.2415 -9.1779 -4.3341
# 5 -5.2884 11.2181 0.2966 -9.1779 44.6541 -3.0025
# 6 -12.3009 -2.4744 -6.0822 -4.3341 -3.0025 16.1426
#
#
#
# Elastic Compliance Matrix: (Units=1/GPa)
#
#
# Indices 1 2 3 4 5 6 
#
# 1 0.014996 -0.004677 -0.003570 0.004860 0.004750 0.011554
# 2 -0.004677 0.014085 -0.001902 0.003211 -0.003549 -0.001919
# 3 -0.003570 -0.001902 0.010322 0.006002 0.001405 0.002750
# 4 0.004860 0.003211 0.006002 0.055019 0.012623 0.023577
# 5 0.004750 -0.003549 0.001405 0.012623 0.027245 0.012062
# 6 0.011554 -0.001919 0.002750 0.023577 0.012062 0.080068
#
#
# Mechanical properties :
#
#
# Convention : Reuss Voigt Hill
#
# Bulk Modulus (GPa) = 52.33464 69.33685 60.83575
# Shear Modulus (GPa) = 21.89131 30.86275 26.37703
#
# Velocity S-wave (km/s) = 3.25061 3.85963 3.56814
# Velocity P-wave (km/s) = 6.27290 7.30271 6.80731
#
# Compressibility (1/GPa) = 0.01910780
#
# Stress axis : x y z
#
# Youngs Moduli (GPa) = 66.68230 70.99536 96.88090
#
# Poissons Ratio (x) = 0.33202 0.34582
# Poissons Ratio (y) = 0.31185 0.18425
# Poissons Ratio (z) = 0.23802 0.13502
#
# Static dielectric constant tensor:
#      x y z
#    x 4.182270 0.171150 -0.364140 
#    y 0.171150 3.604300 -0.247820 
#    z -0.364140 -0.247820 3.950380 
# 
# 
# High freq. dielectric constant tensor:
#      x y z
#    x 1.819500 0.000530 -0.012230 
#    y 0.000530 1.779990 -0.009750 
#    z -0.012230 -0.009750 1.838770 
# 
# From -- ./inp_files/215032.got.cif
#   From: 2010.06.25/outbox.cif.g09.slc.cpg/sg2_108_cif.got.tgz:215032.got - 2010.06.27 13:26:56.
