data_PCOD8003482
_publ_section_title
;
Structure prediction by ZEFSAII (Michael W. Deem and Ramdas Pophale) SiO2 
 PCOD8003482
Probable space group: P -1
;
_chemical_formula_sum "Si O2"
_cell_formula_units_Z 16
_cell_length_a 13.526679
_cell_length_b 11.133562
_cell_length_c 14.002840
_cell_angle_alpha 32.250564
_cell_angle_beta 57.688458
_cell_angle_gamma 78.556628
_cell_volume 786.377255
_symmetry_space_group_name_H-M "P -1"
_symmetry_group_IT_number 2
_symmetry_cell_setting 'triclinic'
loop_
_space_group_symop_operation_xyz
x,y,z
-x,-y,-z
loop_
_atom_site_type_symbol
_atom_site_label
_atom_site_fract_x
_atom_site_fract_y
_atom_site_fract_z
Si Si1 0.330181 0.494066 0.643124
Si Si2 0.632078 0.937671 0.182353
Si Si3 0.924546 0.689214 0.219800
Si Si4 0.838018 0.812747 0.684250
Si Si5 0.841586 0.319773 0.665981
Si Si6 0.923363 0.187483 0.221271
Si Si7 0.819634 0.269880 0.024938
Si Si8 0.808096 0.833881 0.895473
O O1 0.463478 0.805876 0.349688
O O2 0.344251 0.294384 0.701529
O O3 0.176467 0.426487 0.742267
O O4 0.319908 0.426337 0.806508
O O5 0.723431 0.198991 0.890727
O O6 0.681412 0.026614 0.205859
O O7 0.824482 0.522412 0.473755
O O8 0.042948 0.627700 0.180455
O O9 0.000000 0.000000 0.000000
O O10 0.797234 0.512889 0.882295
O O11 0.759665 0.795506 0.835268
O O12 0.813496 0.967582 0.506551
O O13 0.000000 0.000000 0.500000
O O14 0.000000 0.500000 0.500000
O O15 0.821617 0.093053 0.757534
O O16 0.042620 0.127445 0.187055
O O17 0.834304 0.147131 0.199008
O O18 0.000000 0.500000 0.000000
#
# Coordination Sequence:
#
# PCOD8003482 Si02
#       8
#     2   2   2   2   2   2   2   2
#     4  10  21  40  59  83 122 160 197 241 300 370
#     4  10  23  39  57  84 123 161 193 242 312 356
#     4  12  21  34  59  93 115 154 206 244 289 364
#     4  10  21  35  55  92 123 150 196 260 305 343
#     4  11  22  34  58  88 124 151 193 257 302 347
#     4  11  21  33  59  92 116 153 200 254 302 346
#     4  12  21  36  61  92 118 157 202 248 303 347
#     4  10  20  37  58  84 119 160 191 248 310 349
#
# _framework density 20.346468000000002
#
# number of rings (size 3 to 8) (size 9 to 14) (size 15 to 20)
#    0.000    1.250    6.250    2.250    0.000    0.500 
#    0.000    0.625    0.000    0.750    0.000    0.000 
#    0.000    0.000    0.000    0.000    0.000    0.000 
#
# Total GULP energy -198243.417770 kJ/mol
# GULP energy per Si atom -12390.213611 kJ/mol
# Density = 2.030016 g / cm^3
# Si number density = 20.346468 Si / 1000 Ang^3
#
#
#
# Elastic Constant Matrix: (Units=GPa)
#
#
# Indices 1 2 3 4 5 6 
#
# 1 69.3648 32.7622 56.5424 1.4452 4.6275 24.0223
# 2 32.7622 99.2111 50.5732 9.5489 6.1738 27.3029
# 3 56.5424 50.5732 153.4778 19.0468 10.0566 25.0142
# 4 1.4452 9.5489 19.0468 19.8589 4.9051 7.7160
# 5 4.6275 6.1738 10.0566 4.9051 43.4219 3.9190
# 6 24.0223 27.3029 25.0142 7.7160 3.9190 30.6779
#
#
#
# Elastic Compliance Matrix: (Units=1/GPa)
#
#
# Indices 1 2 3 4 5 6 
#
# 1 0.027691 -0.001395 -0.008660 0.013648 -0.000780 -0.016713
# 2 -0.001395 0.014594 -0.002642 -0.000577 -0.000388 -0.009547
# 3 -0.008660 -0.002642 0.011451 -0.009880 -0.000448 0.002338
# 4 0.013648 -0.000577 -0.009880 0.067534 -0.005047 -0.018459
# 5 -0.000780 -0.000388 -0.000448 -0.005047 0.023884 -0.000460
# 6 -0.016713 -0.009547 0.002338 -0.018459 -0.000460 0.056976
#
#
# Mechanical properties :
#
#
# Convention : Reuss Voigt Hill
#
# Bulk Modulus (GPa) = 35.28501 66.86772 51.07636
# Shear Modulus (GPa) = 21.09956 30.93680 26.01818
#
# Velocity S-wave (km/s) = 3.22376 3.90359 3.57985
# Velocity P-wave (km/s) = 5.58897 7.29748 6.49961
#
# Compressibility (1/GPa) = 0.02834065
#
# Stress axis : x y z
#
# Youngs Moduli (GPa) = 36.11311 68.52136 87.32717
#
# Poissons Ratio (x) = 0.09560 0.75630
# Poissons Ratio (y) = 0.05039 0.23071
# Poissons Ratio (z) = 0.31276 0.18103
#
# Static dielectric constant tensor:
#      x y z
#    x 3.791800 0.437880 0.434950 
#    y 0.437880 3.995000 0.500280 
#    z 0.434950 0.500280 4.201810 
# 
# 
# High freq. dielectric constant tensor:
#      x y z
#    x 1.759480 0.023090 0.021460 
#    y 0.023090 1.798320 0.003510 
#    z 0.021460 0.003510 1.798050 
# 
# From -- ./inp_files/530873.got.cif
#   From: 2010.06.25/outbox.cif.g09.slc.cpg/sg2_266_cif.got.tgz:530873.got - 2010.06.27 13:26:56.
