data_PCOD8003190
_publ_section_title
;
Structure prediction by ZEFSAII (Michael W. Deem and Ramdas Pophale) SiO2 
 PCOD8003190
Probable space group: P -1
;
_chemical_formula_sum "Si O2"
_cell_formula_units_Z 16
_cell_length_a 8.559409
_cell_length_b 13.921616
_cell_length_c 19.569040
_cell_angle_alpha 134.762704
_cell_angle_beta 147.732694
_cell_angle_gamma 34.970437
_cell_volume 713.041027
_symmetry_space_group_name_H-M "P -1"
_symmetry_group_IT_number 2
_symmetry_cell_setting 'triclinic'
loop_
_space_group_symop_operation_xyz
x,y,z
-x,-y,-z
loop_
_atom_site_type_symbol
_atom_site_label
_atom_site_fract_x
_atom_site_fract_y
_atom_site_fract_z
Si Si1 0.750740 0.372761 0.147937
Si Si2 0.685952 0.870843 0.878152
Si Si3 0.771445 0.753032 0.607747
Si Si4 0.685290 0.376802 0.632366
Si Si5 0.244766 0.127261 0.600582
Si Si6 0.658198 0.251522 0.861430
Si Si7 0.190661 0.759463 0.639376
Si Si8 0.641306 0.763235 0.111889
O O1 0.504545 0.564687 0.132064
O O2 0.053893 0.270657 0.151478
O O3 0.938037 0.352097 0.278494
O O4 0.485127 0.314647 0.028774
O O5 0.371900 0.852447 0.772739
O O6 0.523574 0.048427 0.873528
O O7 0.908503 0.848135 0.018309
O O8 0.617601 0.650944 0.475252
O O9 0.962992 0.772270 0.625466
O O10 0.444059 0.937490 0.606358
O O11 0.494654 0.567320 0.633992
O O12 0.929765 0.255602 0.600259
O O13 0.923657 0.340431 0.770805
O O14 0.548377 0.163142 0.723679
O O15 0.079887 0.141592 0.473368
O O16 0.504722 0.248272 0.875779
#
# Coordination Sequence:
#
# PCOD8003190 Si02
#       8
#     2   2   2   2   2   2   2   2
#     4  11  20  38  63  91 123 162 205 253 302 364
#     4  11  20  38  63  91 123 162 205 253 302 364
#     4  12  25  41  61  93 129 163 201 253 311 364
#     4  11  22  41  64  90 120 163 210 252 299 363
#     4  11  22  41  64  90 120 163 210 252 299 363
#     4  10  20  36  63  94 119 154 207 260 301 353
#     4  12  25  41  61  93 129 163 201 253 311 364
#     4  10  20  36  63  94 119 154 207 260 301 353
#
# _framework density 22.439101000000001
#
# number of rings (size 3 to 8) (size 9 to 14) (size 15 to 20)
#    0.000    1.000    0.000   11.250    0.000    0.000 
#    0.000    6.250    0.000    0.000    0.000    0.000 
#    0.000    0.000    0.000    0.000    0.000    0.000 
#
# Total GULP energy -198433.447709 kJ/mol
# GULP energy per Si atom -12402.090482 kJ/mol
# Density = 2.238803 g / cm^3
# Si number density = 22.439101 Si / 1000 Ang^3
#
#
#
# Elastic Constant Matrix: (Units=GPa)
#
#
# Indices 1 2 3 4 5 6 
#
# 1 53.9755 11.9221 27.2878 -7.1554 15.7416 12.9375
# 2 11.9221 149.2628 47.6371 -4.0368 11.4810 28.4238
# 3 27.2878 47.6371 208.8773 -2.9578 30.1816 22.8579
# 4 -7.1554 -4.0368 -2.9578 41.7431 15.4184 2.2785
# 5 15.7416 11.4810 30.1816 15.4184 20.0663 9.5211
# 6 12.9375 28.4238 22.8579 2.2785 9.5211 26.9241
#
#
#
# Elastic Compliance Matrix: (Units=1/GPa)
#
#
# Indices 1 2 3 4 5 6 
#
# 1 0.036560 0.001911 0.003363 0.026250 -0.052031 -0.006262
# 2 0.001911 0.008763 -0.000762 0.002899 -0.003557 -0.008510
# 3 0.003363 -0.000762 0.007563 0.008274 -0.019432 -0.001061
# 4 0.026250 0.002899 0.008274 0.058958 -0.080341 0.000723
# 5 -0.052031 -0.003557 -0.019432 -0.080341 0.190994 -0.015489
# 6 -0.006262 -0.008510 -0.001061 0.000723 -0.015489 0.055451
#
#
# Mechanical properties :
#
#
# Convention : Reuss Voigt Hill
#
# Bulk Modulus (GPa) = 16.15251 65.08997 40.62124
# Shear Modulus (GPa) = 13.51714 39.43128 26.47421
#
# Velocity S-wave (km/s) = 2.45703 4.19651 3.43858
# Velocity P-wave (km/s) = 3.90683 7.24923 5.82300
#
# Compressibility (1/GPa) = 0.06190987
#
# Stress axis : x y z
#
# Youngs Moduli (GPa) = 27.35242 114.12183 132.22335
#
# Poissons Ratio (x) = -0.21809 -0.44468
# Poissons Ratio (y) = -0.05227 0.10074
# Poissons Ratio (z) = -0.09199 0.08695
#
# Static dielectric constant tensor:
#      x y z
#    x 3.659810 0.121520 0.215190 
#    y 0.121520 4.198120 -0.007470 
#    z 0.215190 -0.007470 5.174850 
# 
# 
# High freq. dielectric constant tensor:
#      x y z
#    x 1.841040 0.013960 0.009180 
#    y 0.013960 1.900790 -0.001980 
#    z 0.009180 -0.001980 1.917510 
# 
# From -- ./inp_files/223697.got.cif
#   From: 2010.06.25/outbox.cif.g09.slc.cpg/sg2_112_cif.got.tgz:223697.got - 2010.06.27 13:26:56.
