data_PCOD8003014
_publ_section_title
;
Structure prediction by ZEFSAII (Michael W. Deem and Ramdas Pophale) SiO2 
 PCOD8003014
Probable space group: P -1
;
_chemical_formula_sum "Si O2"
_cell_formula_units_Z 16
_cell_length_a 14.881652
_cell_length_b 23.385634
_cell_length_c 6.588714
_cell_angle_alpha 89.139251
_cell_angle_beta 89.861262
_cell_angle_gamma 20.210170
_cell_volume 791.603065
_symmetry_space_group_name_H-M "P -1"
_symmetry_group_IT_number 2
_symmetry_cell_setting 'triclinic'
loop_
_space_group_symop_operation_xyz
x,y,z
-x,-y,-z
loop_
_atom_site_type_symbol
_atom_site_label
_atom_site_fract_x
_atom_site_fract_y
_atom_site_fract_z
Si Si1 0.117922 0.309229 0.629455
Si Si2 0.152941 0.189095 0.951513
Si Si3 0.422360 0.481137 0.023187
Si Si4 0.676230 0.146589 0.071130
Si Si5 0.755922 0.683142 0.042344
Si Si6 0.542988 0.631430 0.634070
Si Si7 0.765043 0.193127 0.773212
Si Si8 0.396738 0.124913 0.234699
O O1 0.114316 0.267500 0.812990
O O2 0.206042 0.317098 0.726696
O O3 0.336439 0.162900 0.470986
O O4 0.820513 0.482996 0.535683
O O5 0.880987 0.331760 0.035501
O O6 0.297114 0.053531 0.822960
O O7 0.319013 0.108171 0.153243
O O8 0.458197 0.429387 0.246182
O O9 0.500000 0.500000 0.000000
O O10 0.572796 0.354228 0.862995
O O11 0.512644 0.283720 0.216538
O O12 0.510765 0.192248 0.987536
O O13 0.746239 0.141567 0.873197
O O14 0.934262 0.967407 0.190460
O O15 0.765177 0.728101 0.875630
O O16 0.000000 0.500000 0.000000
O O17 0.313243 0.765127 0.463742
#
# Coordination Sequence:
#
# PCOD8003014 Si02
#       8
#     2   2   2   2   2   2   2   2
#     4  10  20  36  61  90 117 154 197 236 298 357
#     4   9  20  39  59  85 118 152 195 245 293 350
#     4  10  22  38  61  86 121 153 193 246 297 350
#     4  10  22  40  59  86 120 157 198 247 289 348
#     4  11  23  37  57  89 125 153 192 243 296 347
#     4  10  20  38  63  88 116 155 201 241 291 359
#     4  10  22  39  64  83 115 162 201 238 295 347
#     4  10  21  36  61  85 118 158 192 241 294 349
#
# _framework density 20.212150999999999
#
# number of rings (size 3 to 8) (size 9 to 14) (size 15 to 20)
#    0.000    2.000    1.250    1.500    5.250    2.000 
#    0.000    0.000    0.000    0.000    0.000    0.000 
#    0.000    0.000    0.000    0.000    0.000    0.000 
#
# Total GULP energy -198292.543100 kJ/mol
# GULP energy per Si atom -12393.283944 kJ/mol
# Density = 2.016615 g / cm^3
# Si number density = 20.212151 Si / 1000 Ang^3
#
#
#
# Elastic Constant Matrix: (Units=GPa)
#
#
# Indices 1 2 3 4 5 6 
#
# 1 104.7614 42.3815 41.1060 1.5596 12.1616 -12.3409
# 2 42.3815 127.0531 22.6358 9.4079 14.4089 -10.7707
# 3 41.1060 22.6358 76.2646 2.5872 19.1245 -7.4164
# 4 1.5596 9.4079 2.5872 37.5453 0.9787 7.8286
# 5 12.1616 14.4089 19.1245 0.9787 20.2832 -2.9368
# 6 -12.3409 -10.7707 -7.4164 7.8286 -2.9368 25.8496
#
#
#
# Elastic Compliance Matrix: (Units=1/GPa)
#
#
# Indices 1 2 3 4 5 6 
#
# 1 0.013614 -0.003191 -0.006154 -0.000077 0.000413 0.003474
# 2 -0.003191 0.009890 0.000411 -0.002877 -0.004923 0.003027
# 3 -0.006154 0.000411 0.020409 -0.001200 -0.015544 0.001687
# 4 -0.000077 -0.002877 -0.001200 0.029628 0.000268 -0.010522
# 5 0.000413 -0.004923 -0.015544 0.000268 0.067376 0.001260
# 6 0.003474 0.003027 0.001687 -0.010522 0.001260 0.045419
#
#
# Mechanical properties :
#
#
# Convention : Reuss Voigt Hill
#
# Bulk Modulus (GPa) = 38.39453 57.81398 48.10426
# Shear Modulus (GPa) = 23.48674 30.19934 26.84304
#
# Velocity S-wave (km/s) = 3.41253 3.86958 3.64822
# Velocity P-wave (km/s) = 5.87913 6.97356 6.44960
#
# Compressibility (1/GPa) = 0.02604538
#
# Stress axis : x y z
#
# Youngs Moduli (GPa) = 73.45631 101.11254 48.99680
#
# Poissons Ratio (x) = 0.32270 0.30150
# Poissons Ratio (y) = 0.23443 -0.02015
# Poissons Ratio (z) = 0.45201 -0.04157
#
# Static dielectric constant tensor:
#      x y z
#    x 3.711850 -0.217180 0.174690 
#    y -0.217180 4.400640 -0.145150 
#    z 0.174690 -0.145150 3.550370 
# 
# 
# High freq. dielectric constant tensor:
#      x y z
#    x 1.773130 0.002210 0.006030 
#    y 0.002210 1.810940 0.002550 
#    z 0.006030 0.002550 1.777330 
# 
# From -- ./inp_files/70832.got.cif
#   From: 2010.06.25/outbox.cif.g09.slc.cpg/sg2_36_cif.got.tgz:70832.got - 2010.06.27 13:26:56.
