data_PCOD8003159
_publ_section_title
;
Structure prediction by ZEFSAII (Michael W. Deem and Ramdas Pophale) SiO2 
 PCOD8003159
Probable space group: P -1
;
_chemical_formula_sum "Si O2"
_cell_formula_units_Z 16
_cell_length_a 8.968960
_cell_length_b 11.179360
_cell_length_c 24.316433
_cell_angle_alpha 31.744229
_cell_angle_beta 133.997998
_cell_angle_gamma 141.019550
_cell_volume 802.776703
_symmetry_space_group_name_H-M "P -1"
_symmetry_group_IT_number 2
_symmetry_cell_setting 'triclinic'
loop_
_space_group_symop_operation_xyz
x,y,z
-x,-y,-z
loop_
_atom_site_type_symbol
_atom_site_label
_atom_site_fract_x
_atom_site_fract_y
_atom_site_fract_z
Si Si1 0.749167 0.733760 0.543448
Si Si2 0.603702 0.827711 0.121626
Si Si3 0.262990 0.769405 0.785906
Si Si4 0.389047 0.755980 0.369118
Si Si5 0.131239 0.074671 0.159717
Si Si6 0.259682 0.545829 0.242414
Si Si7 0.316510 0.069381 0.096210
Si Si8 0.587843 0.545392 0.122432
O O1 0.520089 0.764474 0.456675
O O2 0.763417 0.533123 0.582084
O O3 0.698755 0.628981 0.634029
O O4 0.000000 0.000000 0.500000
O O5 0.462108 0.666825 0.201203
O O6 0.616443 0.625005 0.162003
O O7 0.873209 0.013655 0.138342
O O8 0.500000 0.000000 0.000000
O O9 0.411629 0.745477 0.884401
O O10 0.283386 0.621541 0.794249
O O11 0.986633 0.643676 0.778920
O O12 0.394436 0.075745 0.684402
O O13 0.217312 0.881101 0.284010
O O14 0.132212 0.055083 0.101046
O O15 0.306351 0.371311 0.106856
O O16 0.248584 0.774452 0.182828
O O17 0.288286 0.193633 0.984744
#
# Coordination Sequence:
#
# PCOD8003159 Si02
#       8
#     2   2   2   2   2   2   2   2
#     4  11  20  37  66  96 117 145 196 261 309 344
#     4  12  27  38  54  88 133 168 196 232 303 368
#     4  10  20  36  63  89 115 151 206 252 294 346
#     4   9  20  38  64  95 112 145 202 258 302 345
#     4  10  22  41  61  86 120 162 201 253 293 354
#     4  12  23  37  57  92 125 155 194 249 300 356
#     4  10  20  37  61  86 116 155 212 251 287 345
#     4  10  22  38  60  84 118 168 205 241 295 353
#
# _framework density 19.930823
#
# number of rings (size 3 to 8) (size 9 to 14) (size 15 to 20)
#    0.000    1.750    5.000    2.250    3.500    2.500 
#    0.000    0.625    0.000    5.250    0.000    0.000 
#    0.000    0.000    0.000    0.000    0.000    0.000 
#
# Total GULP energy -198335.245840 kJ/mol
# GULP energy per Si atom -12395.952865 kJ/mol
# Density = 1.988546 g / cm^3
# Si number density = 19.930823 Si / 1000 Ang^3
#
#
#
# Elastic Constant Matrix: (Units=GPa)
#
#
# Indices 1 2 3 4 5 6 
#
# 1 50.4488 29.6301 23.2749 -3.7420 -17.2197 23.3843
# 2 29.6301 88.7539 28.4070 -9.7335 -6.1913 19.4239
# 3 23.2749 28.4070 107.2972 -0.2275 -11.9420 14.6640
# 4 -3.7420 -9.7335 -0.2275 32.1661 0.5776 3.0946
# 5 -17.2197 -6.1913 -11.9420 0.5776 32.7952 -0.8665
# 6 23.3843 19.4239 14.6640 3.0946 -0.8665 41.5755
#
#
#
# Elastic Compliance Matrix: (Units=1/GPa)
#
#
# Indices 1 2 3 4 5 6 
#
# 1 0.039985 -0.006876 -0.002295 0.003995 0.018305 -0.018384
# 2 -0.006876 0.015249 -0.002352 0.004095 -0.001733 -0.002769
# 3 -0.002295 -0.002352 0.010876 -0.000814 0.002291 -0.001338
# 4 0.003995 0.004095 -0.000814 0.033362 0.001820 -0.006318
# 5 0.018305 -0.001733 0.002291 0.001820 0.040325 -0.009589
# 6 -0.018384 -0.002769 -0.001338 -0.006318 -0.009589 0.036428
#
#
# Mechanical properties :
#
#
# Convention : Reuss Voigt Hill
#
# Bulk Modulus (GPa) = 23.22029 45.45822 34.33925
# Shear Modulus (GPa) = 23.40532 32.31990 27.86261
#
# Velocity S-wave (km/s) = 3.43056 4.03128 3.74299
# Velocity P-wave (km/s) = 5.23139 6.67277 5.99555
#
# Compressibility (1/GPa) = 0.04306578
#
# Stress axis : x y z
#
# Youngs Moduli (GPa) = 25.00947 65.57612 91.94188
#
# Poissons Ratio (x) = 0.45090 0.21100
# Poissons Ratio (y) = 0.17197 0.21621
# Poissons Ratio (z) = 0.05739 0.15421
#
# Static dielectric constant tensor:
#      x y z
#    x 3.243850 0.039280 0.006240 
#    y 0.039280 3.906350 -0.030610 
#    z 0.006240 -0.030610 3.694080 
# 
# 
# High freq. dielectric constant tensor:
#      x y z
#    x 1.730640 0.005810 0.000250 
#    y 0.005810 1.802750 -0.005560 
#    z 0.000250 -0.005560 1.776490 
# 
# From -- ./inp_files/273248.got.cif
#   From: 2010.06.25/outbox.cif.g09.slc.cpg/sg2_137_cif.got.tgz:273248.got - 2010.06.27 13:26:56.
