data_PCOD8003867
_publ_section_title
;
Structure prediction by ZEFSAII (Michael W. Deem and Ramdas Pophale) SiO2 
 PCOD8003867
Probable space group: P -1
;
_chemical_formula_sum "Si O2"
_cell_formula_units_Z 16
_cell_length_a 14.754718
_cell_length_b 8.995314
_cell_length_c 8.474323
_cell_angle_alpha 95.086854
_cell_angle_beta 137.765406
_cell_angle_gamma 106.373291
_cell_volume 643.634444
_symmetry_space_group_name_H-M "P -1"
_symmetry_group_IT_number 2
_symmetry_cell_setting 'triclinic'
loop_
_space_group_symop_operation_xyz
x,y,z
-x,-y,-z
loop_
_atom_site_type_symbol
_atom_site_label
_atom_site_fract_x
_atom_site_fract_y
_atom_site_fract_z
Si Si1 0.758733 0.918231 0.422628
Si Si2 0.239870 0.346280 0.370190
Si Si3 0.419521 0.910866 0.640586
Si Si4 0.706160 0.197309 0.871163
Si Si5 0.276864 0.525251 0.882662
Si Si6 0.955632 0.535309 0.673672
Si Si7 0.071165 0.274057 0.828220
Si Si8 0.482239 0.652941 0.868330
O O1 0.798391 0.827504 0.604815
O O2 0.636032 0.972503 0.330880
O O3 0.670016 0.781269 0.150172
O O4 0.923575 0.080461 0.592517
O O5 0.146053 0.432967 0.327820
O O6 0.427518 0.501699 0.648147
O O7 0.185622 0.286275 0.117416
O O8 0.310341 0.821659 0.339973
O O9 0.406486 0.769589 0.735508
O O10 0.599160 0.020622 0.815731
O O11 0.652318 0.331416 0.873150
O O12 0.890223 0.276094 0.150384
O O13 0.145801 0.547634 0.622991
O O14 0.182526 0.332911 0.822184
O O15 0.410419 0.549283 0.934147
O O16 0.006783 0.403704 0.794955
#
# Coordination Sequence:
#
# PCOD8003867 Si02
#       8
#     2   2   2   2   2   2   2   2
#     4  12  24  40  67  95 130 160 212 260 315 369
#     4  11  24  43  63  91 131 171 203 253 321 380
#     4  11  23  37  68  95 124 160 213 261 310 360
#     4  10  20  37  61  98 126 153 209 265 306 359
#     4  10  21  38  64  95 126 156 209 263 313 363
#     4  10  21  38  67  90 125 160 213 253 311 368
#     4  11  22  39  68  93 120 167 217 260 303 365
#     4  11  23  42  68  92 127 169 211 252 315 376
#
# _framework density 24.858832
#
# number of rings (size 3 to 8) (size 9 to 14) (size 15 to 20)
#    0.000    1.250    1.250    6.750    3.500    0.000 
#    0.000    3.125   13.750    0.000    0.000    0.000 
#    0.000    0.000    0.000    0.000    0.000    0.000 
#
# Total GULP energy -198319.380427 kJ/mol
# GULP energy per Si atom -12394.961277 kJ/mol
# Density = 2.480225 g / cm^3
# Si number density = 24.858832 Si / 1000 Ang^3
#
#
#
# Elastic Constant Matrix: (Units=GPa)
#
#
# Indices 1 2 3 4 5 6 
#
# 1 57.5486 23.1923 17.0348 5.7573 -4.6972 10.0854
# 2 23.1923 127.9261 38.4002 7.1203 7.7321 26.0393
# 3 17.0348 38.4002 119.3348 30.3839 -0.4952 22.1583
# 4 5.7573 7.1203 30.3839 47.8550 2.1334 6.8372
# 5 -4.6972 7.7321 -0.4952 2.1334 14.9563 -2.0580
# 6 10.0854 26.0393 22.1583 6.8372 -2.0580 34.9810
#
#
#
# Elastic Compliance Matrix: (Units=1/GPa)
#
#
# Indices 1 2 3 4 5 6 
#
# 1 0.020162 -0.003351 -0.001074 -0.001327 0.007955 -0.001911
# 2 -0.003351 0.010780 -0.002206 0.001462 -0.007788 -0.006405
# 3 -0.001074 -0.002206 0.011641 -0.006420 0.001543 -0.004077
# 4 -0.001327 0.001462 -0.006420 0.025424 -0.005275 -0.001919
# 5 0.007955 -0.007788 0.001543 -0.005275 0.075289 0.007987
# 6 -0.001911 -0.006405 -0.004077 -0.001919 0.007987 0.037333
#
#
# Mechanical properties :
#
#
# Convention : Reuss Voigt Hill
#
# Bulk Modulus (GPa) = 34.10536 51.34046 42.72291
# Shear Modulus (GPa) = 24.55039 34.63728 29.59383
#
# Velocity S-wave (km/s) = 3.14601 3.73682 3.45407
# Velocity P-wave (km/s) = 5.19094 6.27025 5.75595
#
# Compressibility (1/GPa) = 0.02932090
#
# Stress axis : x y z
#
# Youngs Moduli (GPa) = 49.59847 92.76733 85.90478
#
# Poissons Ratio (x) = 0.31085 0.09228
# Poissons Ratio (y) = 0.16620 0.18948
# Poissons Ratio (z) = 0.05328 0.20462
#
# Static dielectric constant tensor:
#      x y z
#    x 4.135960 0.187870 0.061860 
#    y 0.187870 4.506400 0.203000 
#    z 0.061860 0.203000 4.868210 
# 
# 
# High freq. dielectric constant tensor:
#      x y z
#    x 1.967250 0.008150 0.003670 
#    y 0.008150 1.994210 0.010550 
#    z 0.003670 0.010550 2.008760 
# 
# From -- ./inp_files/328974.got.cif
#   From: 2010.06.25/outbox.cif.g09.slc.cpg/sg2_165_cif.got.tgz:328974.got - 2010.06.27 13:26:56.
