data_PCOD8003262
_publ_section_title
;
Structure prediction by ZEFSAII (Michael W. Deem and Ramdas Pophale) SiO2 
 PCOD8003262
Probable space group: P -1
;
_chemical_formula_sum "Si O2"
_cell_formula_units_Z 16
_cell_length_a 11.804458
_cell_length_b 8.926215
_cell_length_c 9.931420
_cell_angle_alpha 129.404072
_cell_angle_beta 109.156047
_cell_angle_gamma 83.964854
_cell_volume 756.151066
_symmetry_space_group_name_H-M "P -1"
_symmetry_group_IT_number 2
_symmetry_cell_setting 'triclinic'
loop_
_space_group_symop_operation_xyz
x,y,z
-x,-y,-z
loop_
_atom_site_type_symbol
_atom_site_label
_atom_site_fract_x
_atom_site_fract_y
_atom_site_fract_z
Si Si1 0.139231 0.485192 0.528248
Si Si2 0.526252 0.705094 0.056600
Si Si3 0.750471 0.601605 0.982299
Si Si4 0.797763 0.355397 0.634815
Si Si5 0.993303 0.847898 0.292188
Si Si6 0.373569 0.995683 0.521846
Si Si7 0.167692 0.042326 0.262907
Si Si8 0.259510 0.705652 0.957938
O O1 0.195913 0.630475 0.515619
O O2 0.156490 0.268677 0.358224
O O3 0.200974 0.557845 0.735182
O O4 0.000000 0.500000 0.500000
O O5 0.620706 0.680360 0.959382
O O6 0.610836 0.846801 0.266928
O O7 0.500000 0.500000 0.000000
O O8 0.399629 0.777729 0.008158
O O9 0.742271 0.407413 0.964085
O O10 0.853571 0.762877 0.174148
O O11 0.783831 0.558799 0.817801
O O12 0.924305 0.311736 0.721240
O O13 0.678326 0.208380 0.544885
O O14 0.042359 0.947485 0.228559
O O15 0.000000 0.000000 0.500000
O O16 0.279109 0.055253 0.413821
O O17 0.500000 0.000000 0.500000
O O18 0.194136 0.901796 0.065866
#
# Coordination Sequence:
#
# PCOD8003262 Si02
#       8
#     2   2   2   2   2   2   2   2
#     4  12  28  46  64  96 146 181 218 277 343 401
#     4  10  20  36  65 100 126 165 217 277 331 389
#     4  11  20  39  68  97 130 167 227 287 328 397
#     4  11  24  41  62 101 131 173 223 277 335 397
#     4  11  21  38  67  97 126 166 230 288 334 389
#     4  11  19  41  72  99 130 166 227 280 329 397
#     4  11  23  42  69  98 129 183 222 273 339 402
#     4  11  22  44  68  95 132 179 227 270 337 403
#
# _framework density 21.159793000000001
#
# number of rings (size 3 to 8) (size 9 to 14) (size 15 to 20)
#    0.000    1.000    3.750    6.375    1.750    0.500 
#    4.500    3.125    0.000    0.000    0.000    0.000 
#    0.000    0.000    0.000    0.000    0.000    0.000 
#
# Total GULP energy -198280.520418 kJ/mol
# GULP energy per Si atom -12392.532526 kJ/mol
# Density = 2.111163 g / cm^3
# Si number density = 21.159793 Si / 1000 Ang^3
#
#
#
# Elastic Constant Matrix: (Units=GPa)
#
#
# Indices 1 2 3 4 5 6 
#
# 1 167.2367 33.2878 44.2985 11.5106 -9.2609 9.1028
# 2 33.2878 65.9038 17.9730 4.6700 -3.7616 10.5075
# 3 44.2985 17.9730 119.5913 14.1183 -14.6246 -1.8100
# 4 11.5106 4.6700 14.1183 33.5851 0.6509 -7.2154
# 5 -9.2609 -3.7616 -14.6246 0.6509 40.6410 3.3547
# 6 9.1028 10.5075 -1.8100 -7.2154 3.3547 18.2177
#
#
#
# Elastic Compliance Matrix: (Units=1/GPa)
#
#
# Indices 1 2 3 4 5 6 
#
# 1 0.007399 -0.002400 -0.002055 -0.002122 0.001052 -0.003551
# 2 -0.002400 0.019025 -0.001497 -0.003744 0.001702 -0.011719
# 3 -0.002055 -0.001497 0.010103 -0.003158 0.002989 0.001093
# 4 -0.002122 -0.003744 -0.003158 0.036301 -0.004036 0.018027
# 5 0.001052 0.001702 0.002989 -0.004036 0.026782 -0.007741
# 6 -0.003551 -0.011719 0.001093 0.018027 -0.007741 0.072099
#
#
# Mechanical properties :
#
#
# Convention : Reuss Voigt Hill
#
# Bulk Modulus (GPa) = 40.61343 60.42782 50.52063
# Shear Modulus (GPa) = 26.06589 35.63361 30.84975
#
# Velocity S-wave (km/s) = 3.51359 4.10814 3.82244
# Velocity P-wave (km/s) = 5.97460 7.14998 6.58855
#
# Compressibility (1/GPa) = 0.02462240
#
# Stress axis : x y z
#
# Youngs Moduli (GPa) = 135.15117 52.56146 98.98289
#
# Poissons Ratio (x) = 0.12617 0.20338
# Poissons Ratio (y) = 0.32443 0.14820
# Poissons Ratio (z) = 0.27769 0.07870
#
# Static dielectric constant tensor:
#      x y z
#    x 4.095920 0.033870 -0.124250 
#    y 0.033870 3.563260 0.196460 
#    z -0.124250 0.196460 3.976130 
# 
# 
# High freq. dielectric constant tensor:
#      x y z
#    x 1.855110 0.005120 -0.009850 
#    y 0.005120 1.788370 0.021140 
#    z -0.009850 0.021140 1.843020 
# 
# From -- ./inp_files/187887.got.cif
#   From: 2010.06.25/outbox.cif.g09.slc.cpg/sg2_94_cif.got.tgz:187887.got - 2010.06.27 13:26:56.
