data_PCOD8003197
_publ_section_title
;
Structure prediction by ZEFSAII (Michael W. Deem and Ramdas Pophale) SiO2 
 PCOD8003197
Probable space group: P -1
;
_chemical_formula_sum "Si O2"
_cell_formula_units_Z 16
_cell_length_a 11.480069
_cell_length_b 19.815970
_cell_length_c 7.984847
_cell_angle_alpha 53.071864
_cell_angle_beta 128.237576
_cell_angle_gamma 150.305621
_cell_volume 697.394677
_symmetry_space_group_name_H-M "P -1"
_symmetry_group_IT_number 2
_symmetry_cell_setting 'triclinic'
loop_
_space_group_symop_operation_xyz
x,y,z
-x,-y,-z
loop_
_atom_site_type_symbol
_atom_site_label
_atom_site_fract_x
_atom_site_fract_y
_atom_site_fract_z
Si Si1 0.704498 0.614564 0.651618
Si Si2 0.817004 0.525149 0.123759
Si Si3 0.765235 0.577156 0.337840
Si Si4 0.270813 0.252897 0.000648
Si Si5 0.625545 0.873024 0.854067
Si Si6 0.923503 0.072100 0.513440
Si Si7 0.852158 0.002718 0.199377
Si Si8 0.932611 0.418223 0.224785
O O1 0.500000 0.500000 0.500000
O O2 0.527520 0.571486 0.706421
O O3 0.913047 0.771676 0.543661
O O4 0.843752 0.594757 0.877066
O O5 0.899540 0.612136 0.233304
O O6 0.539160 0.375622 0.126777
O O7 0.965995 0.504850 0.269878
O O8 0.885271 0.577925 0.594234
O O9 0.808869 0.696166 0.236752
O O10 0.249129 0.164395 0.981855
O O11 0.106297 0.162864 0.149646
O O12 0.338189 0.739637 0.779564
O O13 0.740977 0.979289 0.645966
O O14 0.674313 0.940173 0.976125
O O15 0.112390 0.081711 0.634810
O O16 0.764316 0.002457 0.300443
O O17 0.000000 0.500000 0.000000
#
# Coordination Sequence:
#
# PCOD8003197 Si02
#       8
#     2   2   2   2   2   2   2   2
#     4  11  23  36  68 103 131 164 211 273 321 379
#     4  10  21  39  62  95 124 167 214 264 323 381
#     4  11  22  38  65  91 128 168 209 270 321 382
#     4   9  18  36  64  95 126 155 214 265 323 375
#     4  10  23  41  65  91 129 170 210 269 320 385
#     4  10  21  37  63  99 129 164 218 256 332 379
#     4  10  20  36  63  95 130 167 206 272 315 385
#     4  11  25  45  60  88 129 173 219 261 329 392
#
# _framework density 22.942532
#
# number of rings (size 3 to 8) (size 9 to 14) (size 15 to 20)
#    0.000    1.750    0.000    5.625   10.500    1.000 
#    2.250    0.625    0.000    1.500    0.000    0.000 
#    0.000    0.000    0.000    0.000    0.000    0.000 
#
# Total GULP energy -198246.759112 kJ/mol
# GULP energy per Si atom -12390.422445 kJ/mol
# Density = 2.289031 g / cm^3
# Si number density = 22.942532 Si / 1000 Ang^3
#
#
#
# Elastic Constant Matrix: (Units=GPa)
#
#
# Indices 1 2 3 4 5 6 
#
# 1 45.1094 21.3707 19.1043 1.0538 -11.4218 -7.9574
# 2 21.3707 108.9202 35.1277 -29.8968 -8.3423 -2.3864
# 3 19.1043 35.1277 99.8361 -14.1595 -4.7525 -5.0667
# 4 1.0538 -29.8968 -14.1595 34.5473 -7.4754 -8.2762
# 5 -11.4218 -8.3423 -4.7525 -7.4754 50.4589 8.4977
# 6 -7.9574 -2.3864 -5.0667 -8.2762 8.4977 28.2477
#
#
#
# Elastic Compliance Matrix: (Units=1/GPa)
#
#
# Indices 1 2 3 4 5 6 
#
# 1 0.028115 -0.005356 -0.003865 -0.005302 0.003634 0.004128
# 2 -0.005356 0.014789 -0.002046 0.013279 0.002589 0.002485
# 3 -0.003865 -0.002046 0.012127 0.003829 0.000162 0.001987
# 4 -0.005302 0.013279 0.003829 0.046395 0.006201 0.012043
# 5 0.003634 0.002589 0.000162 0.006201 0.022629 -0.003719
# 6 0.004128 0.002485 0.001987 0.012043 -0.003719 0.041777
#
#
# Mechanical properties :
#
#
# Convention : Reuss Voigt Hill
#
# Bulk Modulus (GPa) = 30.77183 45.00789 37.88986
# Shear Modulus (GPa) = 25.10048 34.53500 29.81774
#
# Velocity S-wave (km/s) = 3.31124 3.88401 3.60901
# Velocity P-wave (km/s) = 5.29725 6.30668 5.82388
#
# Compressibility (1/GPa) = 0.03249725
#
# Stress axis : x y z
#
# Youngs Moduli (GPa) = 35.56851 67.61608 82.45776
#
# Poissons Ratio (x) = 0.36217 0.31868
# Poissons Ratio (y) = 0.19052 0.16871
# Poissons Ratio (z) = 0.13746 0.13835
#
# Static dielectric constant tensor:
#      x y z
#    x 4.526120 -0.132210 -0.263150 
#    y -0.132210 4.022180 -0.245280 
#    z -0.263150 -0.245280 4.134830 
# 
# 
# High freq. dielectric constant tensor:
#      x y z
#    x 1.899030 -0.017060 -0.026230 
#    y -0.017060 1.891030 -0.018970 
#    z -0.026230 -0.018970 1.906030 
# 
# From -- ./inp_files/282935.got.cif
#   From: 2010.06.25/outbox.cif.g09.slc.cpg/sg2_142_cif.got.tgz:282935.got - 2010.06.27 13:26:56.
