data_PCOD8003112
_publ_section_title
;
Structure prediction by ZEFSAII (Michael W. Deem and Ramdas Pophale) SiO2 
 PCOD8003112
Probable space group: P -1
;
_chemical_formula_sum "Si O2"
_cell_formula_units_Z 16
_cell_length_a 13.856672
_cell_length_b 12.914529
_cell_length_c 11.077518
_cell_angle_alpha 52.518449
_cell_angle_beta 77.104928
_cell_angle_gamma 36.037066
_cell_volume 756.537198
_symmetry_space_group_name_H-M "P -1"
_symmetry_group_IT_number 2
_symmetry_cell_setting 'triclinic'
loop_
_space_group_symop_operation_xyz
x,y,z
-x,-y,-z
loop_
_atom_site_type_symbol
_atom_site_label
_atom_site_fract_x
_atom_site_fract_y
_atom_site_fract_z
Si Si1 0.735804 0.097465 0.608894
Si Si2 0.119717 0.941775 0.170845
Si Si3 0.423489 0.278866 0.055383
Si Si4 0.678093 0.517477 0.811491
Si Si5 0.059460 0.538231 0.858859
Si Si6 0.324235 0.442000 0.485382
Si Si7 0.495440 0.535538 0.193940
Si Si8 0.682722 0.801349 0.181771
O O1 0.874000 0.981489 0.763735
O O2 0.539323 0.249009 0.606592
O O3 0.669237 0.299996 0.408160
O O4 0.867813 0.848853 0.666322
O O5 0.157395 0.746331 0.330079
O O6 0.287796 0.803000 0.130983
O O7 0.904060 0.207490 0.983881
O O8 0.394647 0.300565 0.192480
O O9 0.633296 0.973040 0.169675
O O10 0.243208 0.415048 0.941111
O O11 0.424524 0.431434 0.921634
O O12 0.660990 0.614190 0.620587
O O13 0.535741 0.552363 0.823599
O O14 0.121126 0.396826 0.815607
O O15 0.000000 0.500000 0.000000
O O16 0.269871 0.383457 0.625560
O O17 0.500000 0.000000 0.000000
#
# Coordination Sequence:
#
# PCOD8003112 Si02
#       8
#     2   2   2   2   2   2   2   2
#     4  10  20  36  62  94 122 164 207 256 311 360
#     4  10  20  36  66  92 128 163 205 252 314 361
#     4  11  23  39  64  89 126 172 205 251 312 374
#     4  10  21  42  63  95 128 167 200 252 313 372
#     4  11  24  40  61  90 126 160 211 261 312 361
#     4  10  21  40  63  92 129 161 205 256 306 372
#     4  10  22  36  63  95 130 160 205 258 308 365
#     4  10  24  39  61  90 123 163 207 259 310 358
#
# _framework density 21.148993999999998
#
# number of rings (size 3 to 8) (size 9 to 14) (size 15 to 20)
#    0.000    2.000    1.250    4.875    8.750    2.000 
#    0.000    2.500    0.000    6.750    0.000    0.000 
#    0.000    0.000    0.000    0.000    0.000    0.000 
#
# Total GULP energy -198353.541633 kJ/mol
# GULP energy per Si atom -12397.096352 kJ/mol
# Density = 2.110086 g / cm^3
# Si number density = 21.148994 Si / 1000 Ang^3
#
#
#
# Elastic Constant Matrix: (Units=GPa)
#
#
# Indices 1 2 3 4 5 6 
#
# 1 49.7359 30.0447 32.4594 4.8936 -2.0110 -1.6381
# 2 30.0447 127.9579 36.6626 7.6524 -21.2989 19.6981
# 3 32.4594 36.6626 75.0323 16.7449 -6.8656 -8.8878
# 4 4.8936 7.6524 16.7449 25.1091 -1.1394 -6.1143
# 5 -2.0110 -21.2989 -6.8656 -1.1394 29.5622 5.5532
# 6 -1.6381 19.6981 -8.8878 -6.1143 5.5532 36.0446
#
#
#
# Elastic Compliance Matrix: (Units=1/GPa)
#
#
# Indices 1 2 3 4 5 6 
#
# 1 0.030326 -0.005291 -0.011495 0.003838 -0.004801 0.002826
# 2 -0.005291 0.013876 -0.004248 -0.002547 0.010607 -0.010937
# 3 -0.011495 -0.004248 0.023456 -0.010702 0.000112 0.005750
# 4 0.003838 -0.002547 -0.010702 0.048714 -0.003638 0.007751
# 5 -0.004801 0.010607 0.000112 -0.003638 0.043529 -0.013311
# 6 0.002826 -0.010937 0.005750 0.007751 -0.013311 0.038632
#
#
# Mechanical properties :
#
#
# Convention : Reuss Voigt Hill
#
# Bulk Modulus (GPa) = 39.07763 50.11772 44.59767
# Shear Modulus (GPa) = 20.06979 28.38047 24.22513
#
# Velocity S-wave (km/s) = 3.08388 3.66721 3.38812
# Velocity P-wave (km/s) = 5.58550 6.45602 6.03647
#
# Compressibility (1/GPa) = 0.02559009
#
# Stress axis : x y z
#
# Youngs Moduli (GPa) = 32.97543 72.06622 42.63316
#
# Poissons Ratio (x) = 0.38128 0.49007
# Poissons Ratio (y) = 0.17446 0.18111
# Poissons Ratio (z) = 0.37906 0.30614
#
# Static dielectric constant tensor:
#      x y z
#    x 3.681780 0.280820 0.012730 
#    y 0.280820 4.206760 -0.069710 
#    z 0.012730 -0.069710 3.739920 
# 
# 
# High freq. dielectric constant tensor:
#      x y z
#    x 1.809390 0.014200 -0.001080 
#    y 0.014200 1.837400 -0.001210 
#    z -0.001080 -0.001210 1.823200 
# 
# From -- ./inp_files/321063.got.cif
#   From: 2010.06.25/outbox.cif.g09.slc.cpg/sg2_161_cif.got.tgz:321063.got - 2010.06.27 13:26:56.
