data_PCOD8003203
_publ_section_title
;
Structure prediction by ZEFSAII (Michael W. Deem and Ramdas Pophale) SiO2 
 PCOD8003203
Probable space group: P -1
;
_chemical_formula_sum "Si O2"
_cell_formula_units_Z 16
_cell_length_a 12.519430
_cell_length_b 12.026534
_cell_length_c 8.204560
_cell_angle_alpha 143.255621
_cell_angle_beta 114.433855
_cell_angle_gamma 79.070915
_cell_volume 649.616053
_symmetry_space_group_name_H-M "P -1"
_symmetry_group_IT_number 2
_symmetry_cell_setting 'triclinic'
loop_
_space_group_symop_operation_xyz
x,y,z
-x,-y,-z
loop_
_atom_site_type_symbol
_atom_site_label
_atom_site_fract_x
_atom_site_fract_y
_atom_site_fract_z
Si Si1 0.812372 0.984522 0.890198
Si Si2 0.808114 0.302218 0.610497
Si Si3 0.972130 0.748883 0.820841
Si Si4 0.664424 0.684117 0.220544
Si Si5 0.404877 0.713424 0.156681
Si Si6 0.033008 0.466343 0.748313
Si Si7 0.358794 0.041631 0.725077
Si Si8 0.627855 0.206262 0.130438
O O1 0.898711 0.911237 0.988678
O O2 0.775977 0.805799 0.535479
O O3 0.700130 0.039386 0.971181
O O4 0.888225 0.161088 0.037599
O O5 0.751011 0.085741 0.387764
O O6 0.699402 0.350105 0.487593
O O7 0.923939 0.299721 0.565102
O O8 0.856171 0.461202 0.968386
O O9 0.914699 0.602047 0.463998
O O10 0.973926 0.641810 0.868393
O O11 0.545036 0.720923 0.271890
O O12 0.675724 0.767514 0.140404
O O13 0.665664 0.459810 0.972056
O O14 0.380976 0.913350 0.434090
O O15 0.364787 0.679668 0.901985
O O16 0.487907 0.111259 0.983610
#
# Coordination Sequence:
#
# PCOD8003203 Si02
#       8
#     2   2   2   2   2   2   2   2
#     4  11  20  36  64  96 120 156 209 274 318 356
#     4  11  24  38  65  90 131 174 201 250 326 394
#     4  10  23  39  67  90 117 161 225 275 306 356
#     4  10  20  36  63  97 123 158 213 270 306 356
#     4  10  21  36  66  96 124 161 216 264 304 367
#     4  10  23  44  62  92 120 167 221 263 312 371
#     4  11  21  41  64  95 131 171 206 255 316 382
#     4  11  21  41  64  96 130 167 204 260 321 377
#
# _framework density 24.629933000000001
#
# number of rings (size 3 to 8) (size 9 to 14) (size 15 to 20)
#    0.000    1.500    3.750    1.875    3.500    0.000 
#    0.000    1.875    0.000    3.750    0.000    0.000 
#    0.000    0.000    0.000    0.000    0.000    0.000 
#
# Total GULP energy -198267.024180 kJ/mol
# GULP energy per Si atom -12391.689011 kJ/mol
# Density = 2.457387 g / cm^3
# Si number density = 24.629933 Si / 1000 Ang^3
#
#
#
# Elastic Constant Matrix: (Units=GPa)
#
#
# Indices 1 2 3 4 5 6 
#
# 1 64.6061 27.7574 11.6482 3.4061 29.4294 5.7641
# 2 27.7574 130.8909 47.0347 4.9366 24.6028 14.2008
# 3 11.6482 47.0347 114.0923 -16.3048 33.2856 3.9818
# 4 3.4061 4.9366 -16.3048 43.7283 0.8572 -1.0087
# 5 29.4294 24.6028 33.2856 0.8572 32.7661 2.1898
# 6 5.7641 14.2008 3.9818 -1.0087 2.1898 26.1281
#
#
#
# Elastic Compliance Matrix: (Units=1/GPa)
#
#
# Indices 1 2 3 4 5 6 
#
# 1 0.030775 -0.002806 0.008175 0.001543 -0.033637 -0.003631
# 2 -0.002806 0.010401 -0.003932 -0.002506 -0.000932 -0.004453
# 3 0.008175 -0.003932 0.016786 0.006486 -0.021601 -0.000164
# 4 0.001543 -0.002506 0.006486 0.025621 -0.006870 0.001598
# 5 -0.033637 -0.000932 -0.021601 -0.006870 0.083288 0.003973
# 6 -0.003631 -0.004453 -0.000164 0.001598 0.003973 0.041248
#
#
# Mechanical properties :
#
#
# Convention : Reuss Voigt Hill
#
# Bulk Modulus (GPa) = 16.43767 53.60776 35.02272
# Shear Modulus (GPa) = 22.17083 35.40111 28.78597
#
# Velocity S-wave (km/s) = 3.00352 3.79531 3.42239
# Velocity P-wave (km/s) = 4.32626 6.40456 5.46511
#
# Compressibility (1/GPa) = 0.06083586
#
# Stress axis : x y z
#
# Youngs Moduli (GPa) = 32.49428 96.14674 59.57474
#
# Poissons Ratio (x) = 0.26976 -0.48704
# Poissons Ratio (y) = 0.09117 0.23426
# Poissons Ratio (z) = -0.26565 0.37807
#
# Static dielectric constant tensor:
#      x y z
#    x 4.090440 0.004710 0.378500 
#    y 0.004710 4.575270 -0.081570 
#    z 0.378500 -0.081570 4.521610 
# 
# 
# High freq. dielectric constant tensor:
#      x y z
#    x 1.961880 -0.002290 0.033720 
#    y -0.002290 1.981590 -0.005160 
#    z 0.033720 -0.005160 1.972450 
# 
# From -- ./inp_files/306048.got.cif
#   From: 2010.06.25/outbox.cif.g09.slc.cpg/sg2_154_cif.got.tgz:306048.got - 2010.06.27 13:26:56.
