data_PCOD8003770
_publ_section_title
;
Structure prediction by ZEFSAII (Michael W. Deem and Ramdas Pophale) SiO2 
 PCOD8003770
Probable space group: P -1
;
_chemical_formula_sum "Si O2"
_cell_formula_units_Z 16
_cell_length_a 11.950306
_cell_length_b 14.591900
_cell_length_c 13.689854
_cell_angle_alpha 138.280847
_cell_angle_beta 148.012802
_cell_angle_gamma 55.164450
_cell_volume 828.489548
_symmetry_space_group_name_H-M "P -1"
_symmetry_group_IT_number 2
_symmetry_cell_setting 'triclinic'
loop_
_space_group_symop_operation_xyz
x,y,z
-x,-y,-z
loop_
_atom_site_type_symbol
_atom_site_label
_atom_site_fract_x
_atom_site_fract_y
_atom_site_fract_z
Si Si1 0.931430 0.053321 0.239667
Si Si2 0.600879 0.882913 0.428337
Si Si3 0.019571 0.644749 0.418815
Si Si4 0.931143 0.092868 0.605727
Si Si5 0.484412 0.907408 0.148421
Si Si6 0.099723 0.402615 0.922942
Si Si7 0.657584 0.584407 0.258801
Si Si8 0.442882 0.611119 0.788365
O O1 0.952659 0.187387 0.434094
O O2 0.146080 0.059383 0.341298
O O3 0.729343 0.039975 0.006502
O O4 0.923244 0.921511 0.201554
O O5 0.471067 0.857446 0.210466
O O6 0.579811 0.731338 0.344238
O O7 0.500000 0.000000 0.500000
O O8 0.251237 0.600998 0.561741
O O9 0.916207 0.570496 0.184611
O O10 0.887458 0.604476 0.389607
O O11 0.967652 0.251909 0.728885
O O12 0.677815 0.038394 0.390379
O O13 0.000000 0.000000 0.500000
O O14 0.522138 0.770774 0.008891
O O15 0.354903 0.428667 0.151361
O O16 0.000000 0.500000 0.000000
O O17 0.653104 0.495538 0.282663
O O18 0.500000 0.500000 0.000000
#
# Coordination Sequence:
#
# PCOD8003770 Si02
#       8
#     2   2   2   2   2   2   2   2
#     4   9  20  37  61  87 111 149 199 239 280 337
#     4  10  21  37  57  86 123 150 185 236 290 346
#     4  10  21  39  61  90 116 150 201 244 283 350
#     4  11  20  38  61  83 109 149 198 232 280 343
#     4  10  20  37  61  86 114 149 195 244 281 334
#     4  12  25  40  58  86 125 158 188 241 299 345
#     4  11  19  38  66  85 112 155 198 238 291 341
#     4  11  21  38  63  89 116 152 199 245 289 343
#
# _framework density 19.312253999999999
#
# number of rings (size 3 to 8) (size 9 to 14) (size 15 to 20)
#    0.000    1.500    5.000    1.125    0.000    4.500 
#    0.000    1.250    0.000    0.000    0.000    0.000 
#    0.000    0.000    0.000    0.000    0.000    0.000 
#
# Total GULP energy -198273.222323 kJ/mol
# GULP energy per Si atom -12392.076395 kJ/mol
# Density = 1.926830 g / cm^3
# Si number density = 19.312254 Si / 1000 Ang^3
#
#
#
# Elastic Constant Matrix: (Units=GPa)
#
#
# Indices 1 2 3 4 5 6 
#
# 1 75.4833 54.9527 28.4179 -1.7116 9.2093 -16.5987
# 2 54.9527 105.3950 50.7772 -6.1354 11.9364 -13.9678
# 3 28.4179 50.7772 78.1870 -16.9466 11.6727 -8.1074
# 4 -1.7116 -6.1354 -16.9466 42.0140 -0.2493 5.7075
# 5 9.2093 11.9364 11.6727 -0.2493 20.4218 3.3326
# 6 -16.5987 -13.9678 -8.1074 5.7075 3.3326 38.4264
#
#
#
# Elastic Compliance Matrix: (Units=1/GPa)
#
#
# Indices 1 2 3 4 5 6 
#
# 1 0.023112 -0.010403 -0.000549 -0.001753 -0.005158 0.006794
# 2 -0.010403 0.019376 -0.008686 -0.001253 -0.001858 0.001064
# 3 -0.000549 -0.008686 0.021270 0.007163 -0.006847 0.000623
# 4 -0.001753 -0.001253 0.007163 0.026909 -0.001663 -0.003554
# 5 -0.005158 -0.001858 -0.006847 -0.001663 0.057759 -0.009110
# 6 0.006794 0.001064 0.000623 -0.003554 -0.009110 0.030794
#
#
# Mechanical properties :
#
#
# Convention : Reuss Voigt Hill
#
# Bulk Modulus (GPa) = 40.84992 58.59566 49.72279
# Shear Modulus (GPa) = 22.05968 28.50026 25.27997
#
# Velocity S-wave (km/s) = 3.38341 3.84573 3.62195
# Velocity P-wave (km/s) = 6.03834 7.08001 6.57982
#
# Compressibility (1/GPa) = 0.02447985
#
# Stress axis : x y z
#
# Youngs Moduli (GPa) = 43.26747 51.61153 47.01487
#
# Poissons Ratio (x) = 0.53693 0.02583
# Poissons Ratio (y) = 0.45013 0.40837
# Poissons Ratio (z) = 0.02378 0.44829
#
# Static dielectric constant tensor:
#      x y z
#    x 2.836790 0.265730 -0.541760 
#    y 0.265730 3.307880 0.109950 
#    z -0.541760 0.109950 2.543750 
# 
# 
# High freq. dielectric constant tensor:
#      x y z
#    x 1.738350 0.010290 0.014600 
#    y 0.010290 1.756650 -0.011450 
#    z 0.014600 -0.011450 1.747140 
# 
# From -- ./inp_files/338063.got.cif
#   From: 2010.06.25/outbox.cif.g09.slc.cpg/sg2_170_cif.got.tgz:338063.got - 2010.06.27 13:26:56.
