data_PCOD8003668
_publ_section_title
;
Structure prediction by ZEFSAII (Michael W. Deem and Ramdas Pophale) SiO2 
 PCOD8003668
Probable space group: P -1
;
_chemical_formula_sum "Si O2"
_cell_formula_units_Z 16
_cell_length_a 9.024280
_cell_length_b 16.833268
_cell_length_c 9.242699
_cell_angle_alpha 93.900413
_cell_angle_beta 102.773229
_cell_angle_gamma 36.347151
_cell_volume 796.702057
_symmetry_space_group_name_H-M "P -1"
_symmetry_group_IT_number 2
_symmetry_cell_setting 'triclinic'
loop_
_space_group_symop_operation_xyz
x,y,z
-x,-y,-z
loop_
_atom_site_type_symbol
_atom_site_label
_atom_site_fract_x
_atom_site_fract_y
_atom_site_fract_z
Si Si1 0.594997 0.543496 0.706740
Si Si2 0.129347 0.687546 0.442829
Si Si3 0.218260 0.078498 0.081384
Si Si4 0.698701 0.962241 0.230144
Si Si5 0.023694 0.416335 0.600964
Si Si6 0.300494 0.746851 0.896429
Si Si7 0.600043 0.172362 0.821086
Si Si8 0.938138 0.022109 0.321211
O O1 0.319732 0.659898 0.576648
O O2 0.725745 0.400669 0.688564
O O3 0.534566 0.591248 0.866820
O O4 0.798040 0.523852 0.687664
O O5 0.882699 0.846650 0.377040
O O6 0.036450 0.644180 0.495971
O O7 0.927684 0.214061 0.093648
O O8 0.404705 0.058065 0.210614
O O9 0.309086 0.948192 0.100654
O O10 0.221377 0.103761 0.918692
O O11 0.719723 0.047887 0.252870
O O12 0.309123 0.289751 0.714968
O O13 0.000000 0.500000 0.500000
O O14 0.397572 0.760613 0.048814
O O15 0.191089 0.842662 0.747930
O O16 0.798012 0.111340 0.727163
O O17 0.000000 0.000000 0.500000
#
# Coordination Sequence:
#
# PCOD8003668 Si02
#       8
#     2   2   2   2   2   2   2   2
#     4   9  21  40  60  83 120 158 199 246 297 343
#     4   9  20  40  61  81 118 159 196 251 296 349
#     4  10  20  37  60  87 118 158 196 244 300 358
#     4  11  19  37  63  87 117 157 202 242 301 349
#     4  10  22  38  63  86 112 160 205 246 294 351
#     4  11  21  40  59  90 125 159 200 242 300 364
#     4  11  21  41  60  86 126 157 201 247 298 360
#     4  11  23  36  62  94 121 159 196 246 303 358
#
# _framework density 20.082789999999999
#
# number of rings (size 3 to 8) (size 9 to 14) (size 15 to 20)
#    0.750    1.000    3.750    1.500    3.500    0.500 
#    2.250    2.500    0.000    0.000    0.000    0.000 
#    0.000    0.000    0.000    0.000    0.000    0.000 
#
# Total GULP energy -198263.948335 kJ/mol
# GULP energy per Si atom -12391.496771 kJ/mol
# Density = 2.003708 g / cm^3
# Si number density = 20.082790 Si / 1000 Ang^3
#
#
#
# Elastic Constant Matrix: (Units=GPa)
#
#
# Indices 1 2 3 4 5 6 
#
# 1 104.3533 20.5470 8.8748 7.4862 15.0914 -21.1158
# 2 20.5470 41.9107 12.0806 10.1352 5.5876 -13.5536
# 3 8.8748 12.0806 58.1143 15.5800 7.5571 -8.6124
# 4 7.4862 10.1352 15.5800 36.6611 0.0239 -1.7221
# 5 15.0914 5.5876 7.5571 0.0239 31.6798 -8.6613
# 6 -21.1158 -13.5536 -8.6124 -1.7221 -8.6613 24.6094
#
#
#
# Elastic Compliance Matrix: (Units=1/GPa)
#
#
# Indices 1 2 3 4 5 6 
#
# 1 0.012291 -0.002818 0.000778 -0.001685 -0.003365 0.007964
# 2 -0.002818 0.032031 -0.002401 -0.006604 0.000085 0.013950
# 3 0.000778 -0.002401 0.020967 -0.008176 -0.003620 0.004837
# 4 -0.001685 -0.006604 -0.008176 0.032697 0.002597 -0.004743
# 5 -0.003365 0.000085 -0.003620 0.002597 0.036450 0.008903
# 6 0.007964 0.013950 0.004837 -0.004743 0.008903 0.059645
#
#
# Mechanical properties :
#
#
# Convention : Reuss Voigt Hill
#
# Bulk Modulus (GPa) = 17.72837 31.93146 24.82992
# Shear Modulus (GPa) = 22.54634 29.44846 25.99740
#
# Velocity S-wave (km/s) = 3.35426 3.83345 3.60184
# Velocity P-wave (km/s) = 4.88347 5.96056 5.44869
#
# Compressibility (1/GPa) = 0.05640677
#
# Stress axis : x y z
#
# Youngs Moduli (GPa) = 81.36333 31.21951 47.69325
#
# Poissons Ratio (x) = 0.08799 -0.03713
# Poissons Ratio (y) = 0.22931 0.11453
# Poissons Ratio (z) = -0.06334 0.07497
#
# Static dielectric constant tensor:
#      x y z
#    x 3.844680 -0.211910 0.129820 
#    y -0.211910 3.496240 -0.027920 
#    z 0.129820 -0.027920 3.539300 
# 
# 
# High freq. dielectric constant tensor:
#      x y z
#    x 1.794690 -0.012080 0.014320 
#    y -0.012080 1.764690 -0.003980 
#    z 0.014320 -0.003980 1.768490 
# 
# From -- ./inp_files/217881.got.cif
#   From: 2010.06.25/outbox.cif.g09.slc.cpg/sg2_109_cif.got.tgz:217881.got - 2010.06.27 13:26:56.
