data_PCOD8003096
_publ_section_title
;
Structure prediction by ZEFSAII (Michael W. Deem and Ramdas Pophale) SiO2 
 PCOD8003096
Probable space group: P -1
;
_chemical_formula_sum "Si O2"
_cell_formula_units_Z 16
_cell_length_a 16.746476
_cell_length_b 16.765491
_cell_length_c 12.469309
_cell_angle_alpha 127.543384
_cell_angle_beta 34.618819
_cell_angle_gamma 154.059226
_cell_volume 740.055064
_symmetry_space_group_name_H-M "P -1"
_symmetry_group_IT_number 2
_symmetry_cell_setting 'triclinic'
loop_
_space_group_symop_operation_xyz
x,y,z
-x,-y,-z
loop_
_atom_site_type_symbol
_atom_site_label
_atom_site_fract_x
_atom_site_fract_y
_atom_site_fract_z
Si Si1 0.160442 0.768137 0.733723
Si Si2 0.228749 0.274886 0.341392
Si Si3 0.531856 0.268468 0.022540
Si Si4 0.020698 0.090392 0.191966
Si Si5 0.555396 0.949046 0.629476
Si Si6 0.721399 0.252822 0.628114
Si Si7 0.163524 0.235338 0.925216
Si Si8 0.413577 0.056847 0.171925
O O1 0.262692 0.797869 0.763052
O O2 0.381525 0.864548 0.469685
O O3 0.842538 0.517778 0.855498
O O4 0.100945 0.849965 0.861158
O O5 0.514711 0.518741 0.264866
O O6 0.942140 0.145502 0.606549
O O7 0.268865 0.183884 0.259434
O O8 0.198184 0.251533 0.227128
O O9 0.472521 0.159447 0.893528
O O10 0.572811 0.231951 0.056485
O O11 0.715073 0.958534 0.400650
O O12 0.935667 0.920262 0.168217
O O13 0.215425 0.225634 0.980323
O O14 0.780564 0.189887 0.584323
O O15 0.464232 0.850533 0.766844
O O16 0.000000 0.500000 0.500000
O O17 0.500000 0.000000 0.000000
#
# Coordination Sequence:
#
# PCOD8003096 Si02
#       8
#     2   2   2   2   2   2   2   2
#     4  10  22  38  62  92 126 157 205 251 303 372
#     4  10  23  41  62  86 121 163 208 253 302 368
#     4  10  22  41  63  88 119 168 208 246 306 362
#     4  10  22  36  59  92 128 159 199 252 311 364
#     4  11  22  39  59  93 127 157 202 255 303 362
#     4  10  20  36  62  91 121 161 202 247 302 368
#     4  10  21  39  59  91 126 164 199 248 311 368
#     4  11  23  41  64  87 120 163 209 253 302 363
#
# _framework density 21.620011999999999
#
# number of rings (size 3 to 8) (size 9 to 14) (size 15 to 20)
#    0.000    1.750    2.500    1.125    1.750    2.500 
#    2.250    1.250    0.000    8.250    0.000    0.000 
#    0.000    0.000    0.000    0.000    0.000    0.000 
#
# Total GULP energy -198256.497564 kJ/mol
# GULP energy per Si atom -12391.031098 kJ/mol
# Density = 2.157080 g / cm^3
# Si number density = 21.620012 Si / 1000 Ang^3
#
#
#
# Elastic Constant Matrix: (Units=GPa)
#
#
# Indices 1 2 3 4 5 6 
#
# 1 105.4863 26.1730 35.9057 13.1050 -10.6442 -11.5330
# 2 26.1730 89.0041 43.0864 26.0792 -11.8468 -13.6120
# 3 35.9057 43.0864 114.2739 26.4971 -15.9612 -12.1841
# 4 13.1050 26.0792 26.4971 22.6651 -3.8744 -8.6531
# 5 -10.6442 -11.8468 -15.9612 -3.8744 39.2749 5.4450
# 6 -11.5330 -13.6120 -12.1841 -8.6531 5.4450 33.9728
#
#
#
# Elastic Compliance Matrix: (Units=1/GPa)
#
#
# Indices 1 2 3 4 5 6 
#
# 1 0.011085 -0.001312 -0.002318 -0.001252 0.001282 0.001882
# 2 -0.001312 0.018022 -0.002035 -0.016644 0.002415 0.001419
# 3 -0.002318 -0.002035 0.013301 -0.011434 0.003068 -0.000236
# 4 -0.001252 -0.016644 -0.011434 0.080545 -0.003429 0.009871
# 5 0.001282 0.002415 0.003068 -0.003429 0.027839 -0.002832
# 6 0.001882 0.001419 -0.000236 0.009871 -0.002832 0.033526
#
#
# Mechanical properties :
#
#
# Convention : Reuss Voigt Hill
#
# Bulk Modulus (GPa) = 32.17776 57.67716 44.92746
# Shear Modulus (GPa) = 24.27094 32.75584 28.51339
#
# Velocity S-wave (km/s) = 3.35418 3.89661 3.63553
# Velocity P-wave (km/s) = 5.46958 6.85422 6.20067
#
# Compressibility (1/GPa) = 0.03107736
#
# Stress axis : x y z
#
# Youngs Moduli (GPa) = 90.21016 55.48852 75.18161
#
# Poissons Ratio (x) = 0.07282 0.17430
# Poissons Ratio (y) = 0.11838 0.15297
# Poissons Ratio (z) = 0.20914 0.11290
#
# Static dielectric constant tensor:
#      x y z
#    x 4.049620 -0.227200 0.044320 
#    y -0.227200 4.026450 0.314660 
#    z 0.044320 0.314660 4.029820 
# 
# 
# High freq. dielectric constant tensor:
#      x y z
#    x 1.848610 -0.014400 -0.005190 
#    y -0.014400 1.849240 0.019980 
#    z -0.005190 0.019980 1.844370 
# 
# From -- ./inp_files/282316.got.cif
#   From: 2010.06.25/outbox.cif.g09.slc.cpg/sg2_142_cif.got.tgz:282316.got - 2010.06.27 13:26:56.
