data_PCOD8003775
_publ_section_title
;
Structure prediction by ZEFSAII (Michael W. Deem and Ramdas Pophale) SiO2 
 PCOD8003775
Probable space group: P -1
;
_chemical_formula_sum "Si O2"
_cell_formula_units_Z 14
_cell_length_a 9.932323
_cell_length_b 9.436542
_cell_length_c 12.020766
_cell_angle_alpha 58.263657
_cell_angle_beta 123.407851
_cell_angle_gamma 135.258392
_cell_volume 644.345457
_symmetry_space_group_name_H-M "P -1"
_symmetry_group_IT_number 2
_symmetry_cell_setting 'triclinic'
loop_
_space_group_symop_operation_xyz
x,y,z
-x,-y,-z
loop_
_atom_site_type_symbol
_atom_site_label
_atom_site_fract_x
_atom_site_fract_y
_atom_site_fract_z
Si Si1 0.456405 0.387736 0.747030
Si Si2 0.149401 0.890946 0.188188
Si Si3 0.786798 0.324672 0.861394
Si Si4 0.223640 0.089714 0.588980
Si Si5 0.084524 0.789075 0.831081
Si Si6 0.295770 0.288834 0.950128
Si Si7 0.260479 0.149140 0.337628
O O1 0.613354 0.337821 0.816964
O O2 0.321377 0.308203 0.606713
O O3 0.325736 0.256421 0.848388
O O4 0.552612 0.627201 0.713370
O O5 0.247509 0.779671 0.232587
O O6 0.907872 0.725118 0.130550
O O7 0.212748 0.960419 0.316604
O O8 0.250160 0.102026 0.079938
O O9 0.987601 0.555861 0.846266
O O10 0.806837 0.181345 0.015010
O O11 0.320811 0.117792 0.500576
O O12 0.238945 0.938778 0.741204
O O13 0.000000 0.000000 0.500000
O O14 0.929763 0.845120 0.753674
O O15 0.500000 0.500000 0.000000
#
# Coordination Sequence:
#
# PCOD8003775 Si02
#       7
#     2   2   2   2   2   2   2
#     4  11  22  39  62  94 118 159 212 251 304 373
#     4  11  22  39  59  90 130 161 197 258 308 357
#     4  10  22  37  62  91 127 157 196 255 318 364
#     4  10  20  37  61  86 116 163 213 254 292 356
#     4   9  19  36  58  87 120 161 199 246 309 362
#     4  11  22  36  61  91 124 162 206 249 302 364
#     4  10  20  38  61  86 120 162 209 251 293 359
#
# _framework density 21.727474999999998
#
# number of rings (size 3 to 8) (size 9 to 14) (size 15 to 20)
#    0.000    1.714    1.429    4.714    4.000    2.286 
#    0.000    1.429    0.000    0.000    0.000    0.000 
#    0.000    0.000    0.000    0.000    0.000    0.000 
#
# Total GULP energy -173482.266558 kJ/mol
# GULP energy per Si atom -12391.590468 kJ/mol
# Density = 2.167802 g / cm^3
# Si number density = 21.727475 Si / 1000 Ang^3
#
#
#
# Elastic Constant Matrix: (Units=GPa)
#
#
# Indices 1 2 3 4 5 6 
#
# 1 77.3148 34.2931 27.8299 -2.4408 -26.7791 -10.2269
# 2 34.2931 108.4218 33.7652 16.3436 -11.2607 2.0255
# 3 27.8299 33.7652 81.8770 9.9687 -28.1236 -6.9613
# 4 -2.4408 16.3436 9.9687 34.9449 -2.6974 -7.2487
# 5 -26.7791 -11.2607 -28.1236 -2.6974 34.0299 5.5052
# 6 -10.2269 2.0255 -6.9613 -7.2487 5.5052 41.2181
#
#
#
# Elastic Compliance Matrix: (Units=1/GPa)
#
#
# Indices 1 2 3 4 5 6 
#
# 1 0.021760 -0.006430 -0.000116 0.006711 0.014636 0.004921
# 2 -0.006430 0.013170 -0.004160 -0.006471 -0.004080 -0.003538
# 3 -0.000116 -0.004160 0.019140 -0.002203 0.013989 0.001152
# 4 0.006711 -0.006471 -0.002203 0.034474 0.002872 0.007290
# 5 0.014636 -0.004080 0.013989 0.002872 0.051367 -0.000161
# 6 0.004921 -0.003538 0.001152 0.007290 -0.000161 0.027154
#
#
# Mechanical properties :
#
#
# Convention : Reuss Voigt Hill
#
# Bulk Modulus (GPa) = 30.62082 51.04332 40.83207
# Shear Modulus (GPa) = 25.07978 33.48694 29.28336
#
# Velocity S-wave (km/s) = 3.40117 3.93010 3.67516
# Velocity P-wave (km/s) = 5.43578 6.64363 6.06982
#
# Compressibility (1/GPa) = 0.03265752
#
# Stress axis : x y z
#
# Youngs Moduli (GPa) = 45.95614 75.92845 52.24725
#
# Poissons Ratio (x) = 0.48820 0.00606
# Poissons Ratio (y) = 0.29549 0.21737
# Poissons Ratio (z) = 0.00533 0.31589
#
# Static dielectric constant tensor:
#      x y z
#    x 3.923990 0.140090 -0.649070 
#    y 0.140090 4.378660 0.247430 
#    z -0.649070 0.247430 4.540550 
# 
# 
# High freq. dielectric constant tensor:
#      x y z
#    x 1.833140 0.009840 -0.031030 
#    y 0.009840 1.870800 0.012680 
#    z -0.031030 0.012680 1.838780 
# 
# From -- ./inp_files/381501.got.cif
#   From: 2010.06.25/outbox.cif.g09.slc.cpg/sg2_191_cif.got.tgz:381501.got - 2010.06.27 13:26:56.
