data_PCOD8003918
_publ_section_title
;
Structure prediction by ZEFSAII (Michael W. Deem and Ramdas Pophale) SiO2 
 PCOD8003918
Probable space group: P -1
;
_chemical_formula_sum "Si O2"
_cell_formula_units_Z 16
_cell_length_a 10.074469
_cell_length_b 9.709392
_cell_length_c 10.072204
_cell_angle_alpha 60.915482
_cell_angle_beta 103.353243
_cell_angle_gamma 123.966948
_cell_volume 712.954216
_symmetry_space_group_name_H-M "P -1"
_symmetry_group_IT_number 2
_symmetry_cell_setting 'triclinic'
loop_
_space_group_symop_operation_xyz
x,y,z
-x,-y,-z
loop_
_atom_site_type_symbol
_atom_site_label
_atom_site_fract_x
_atom_site_fract_y
_atom_site_fract_z
Si Si1 0.017793 0.523270 0.706478
Si Si2 0.705383 0.416857 0.784624
Si Si3 0.128971 0.800647 0.383441
Si Si4 0.838439 0.906850 0.922538
Si Si5 0.558380 0.154710 0.633633
Si Si6 0.520608 0.587658 0.608456
Si Si7 0.691079 0.501608 0.153888
Si Si8 0.496913 0.177035 0.080382
O O1 0.033364 0.693180 0.543262
O O2 0.187384 0.572230 0.780639
O O3 0.894753 0.497092 0.808529
O O4 0.951105 0.335041 0.696776
O O5 0.659480 0.333887 0.665565
O O6 0.665767 0.579743 0.715364
O O7 0.600878 0.249573 0.938458
O O8 0.313354 0.858447 0.422479
O O9 0.122775 0.984831 0.261594
O O10 0.694527 0.926072 0.945994
O O11 0.774330 0.690022 0.999074
O O12 0.000000 0.000000 0.000000
O O13 0.445176 0.202809 0.496512
O O14 0.456974 0.964721 0.780161
O O15 0.500000 0.500000 0.500000
O O16 0.364200 0.473855 0.723176
O O17 0.537640 0.345266 0.110857
#
# Coordination Sequence:
#
# PCOD8003918 Si02
#       8
#     2   2   2   2   2   2   2   2
#     4  10  20  37  62  89 124 169 207 256 313 367
#     4  10  21  38  63  89 133 163 211 262 313 374
#     4   9  18  35  60  89 117 157 217 258 293 370
#     4  11  22  38  62  95 122 162 216 262 305 378
#     4   9  19  38  61  90 116 165 220 259 304 376
#     4  10  21  38  61  94 122 167 211 264 312 373
#     4  12  23  41  65  93 131 168 212 258 324 379
#     4  11  24  40  63  96 130 168 207 265 322 374
#
# _framework density 22.441834
#
# number of rings (size 3 to 8) (size 9 to 14) (size 15 to 20)
#    0.000    1.750    3.750    0.750    1.750    1.000 
#    0.000    0.000    0.000    1.500    0.000    0.000 
#    0.000    0.000    0.000    0.000    0.000    0.000 
#
# Total GULP energy -198234.071728 kJ/mol
# GULP energy per Si atom -12389.629483 kJ/mol
# Density = 2.239076 g / cm^3
# Si number density = 22.441834 Si / 1000 Ang^3
#
#
#
# Elastic Constant Matrix: (Units=GPa)
#
#
# Indices 1 2 3 4 5 6 
#
# 1 126.6715 26.5993 54.2599 -18.7904 -0.2190 13.8737
# 2 26.5993 47.1207 26.8383 -16.9181 7.2733 1.0348
# 3 54.2599 26.8383 131.8442 -44.4005 10.0853 -3.3215
# 4 -18.7904 -16.9181 -44.4005 26.3717 -14.1993 1.5167
# 5 -0.2190 7.2733 10.0853 -14.1993 40.1603 -10.6542
# 6 13.8737 1.0348 -3.3215 1.5167 -10.6542 20.7697
#
#
#
# Elastic Compliance Matrix: (Units=1/GPa)
#
#
# Indices 1 2 3 4 5 6 
#
# 1 0.011436 -0.004409 -0.005121 -0.003569 -0.001425 -0.008709
# 2 -0.004409 0.029506 0.003102 0.022008 0.002004 0.001392
# 3 -0.005121 0.003102 0.022407 0.041406 0.010925 0.009430
# 4 -0.003569 0.022008 0.041406 0.139568 0.039746 0.018106
# 5 -0.001425 0.002004 0.010925 0.039746 0.041391 0.020929
# 6 -0.008709 0.001392 0.009430 0.018106 0.020929 0.064817
#
#
# Mechanical properties :
#
#
# Convention : Reuss Voigt Hill
#
# Bulk Modulus (GPa) = 19.80498 57.89237 38.84867
# Shear Modulus (GPa) = 14.75745 30.65627 22.70686
#
# Velocity S-wave (km/s) = 2.56713 3.70000 3.18435
# Velocity P-wave (km/s) = 4.19893 6.64123 5.55594
#
# Compressibility (1/GPa) = 0.05049235
#
# Stress axis : x y z
#
# Youngs Moduli (GPa) = 87.44473 33.89116 44.62926
#
# Poissons Ratio (x) = 0.14942 0.22855
# Poissons Ratio (y) = 0.38552 -0.13842
# Poissons Ratio (z) = 0.44781 -0.10511
#
# Static dielectric constant tensor:
#      x y z
#    x 4.345620 0.063270 0.296150 
#    y 0.063270 3.589190 -0.274260 
#    z 0.296150 -0.274260 4.316920 
# 
# 
# High freq. dielectric constant tensor:
#      x y z
#    x 1.881010 0.006400 0.018110 
#    y 0.006400 1.835470 -0.023680 
#    z 0.018110 -0.023680 1.900330 
# 
# From -- ./inp_files/392117.got.cif
#   From: 2010.06.25/outbox.cif.g09.slc.cpg/sg2_197_cif.got.tgz:392117.got - 2010.06.27 13:26:56.
