data_PCOD8003169
_publ_section_title
;
Structure prediction by ZEFSAII (Michael W. Deem and Ramdas Pophale) SiO2 
 PCOD8003169
Probable space group: P -1
;
_chemical_formula_sum "Si O2"
_cell_formula_units_Z 16
_cell_length_a 8.578869
_cell_length_b 12.342445
_cell_length_c 18.267159
_cell_angle_alpha 137.754498
_cell_angle_beta 148.384463
_cell_angle_gamma 54.671019
_cell_volume 674.182993
_symmetry_space_group_name_H-M "P -1"
_symmetry_group_IT_number 2
_symmetry_cell_setting 'triclinic'
loop_
_space_group_symop_operation_xyz
x,y,z
-x,-y,-z
loop_
_atom_site_type_symbol
_atom_site_label
_atom_site_fract_x
_atom_site_fract_y
_atom_site_fract_z
Si Si1 0.179735 0.376408 0.551446
Si Si2 0.378564 0.849648 0.736050
Si Si3 0.795825 0.849337 0.028744
Si Si4 0.204870 0.644140 0.995818
Si Si5 0.287161 0.435871 0.050633
Si Si6 0.767191 0.641825 0.697851
Si Si7 0.339517 0.041661 0.680428
Si Si8 0.757518 0.841278 0.658821
O O1 0.417362 0.467482 0.746703
O O2 0.354861 0.278090 0.513268
O O3 0.000000 0.500000 0.500000
O O4 0.947796 0.257152 0.448128
O O5 0.633444 0.762625 0.758193
O O6 0.365248 0.008308 0.760780
O O7 0.495157 0.887705 0.884996
O O8 0.969014 0.728327 0.990742
O O9 0.717382 0.756627 0.028899
O O10 0.997305 0.021016 0.209813
O O11 0.289692 0.480387 0.987154
O O12 0.511309 0.771844 0.176103
O O13 0.051139 0.586871 0.827370
O O14 0.000000 0.500000 0.000000
O O15 0.500000 0.500000 0.500000
O O16 0.900562 0.734998 0.724541
O O17 0.492251 0.918979 0.628852
O O18 0.000000 0.000000 0.500000
#
# Coordination Sequence:
#
# PCOD8003169 Si02
#       8
#     2   2   2   2   2   2   2   2
#     4  12  23  40  66  99 130 170 219 269 322 391
#     4  10  20  36  63  90 127 169 213 264 328 379
#     4   9  18  38  59  95 125 172 208 269 322 386
#     4   9  19  36  64  92 124 173 219 256 335 391
#     4  10  21  38  63  88 130 180 209 261 336 379
#     4  10  20  37  67  93 125 166 219 272 325 388
#     4  10  20  40  64  92 131 175 215 270 329 386
#     4  10  23  38  67  99 126 163 225 267 322 387
#
# _framework density 23.732430000000001
#
# number of rings (size 3 to 8) (size 9 to 14) (size 15 to 20)
#    0.000    2.000    1.250    2.250    3.500    3.500 
#    0.000   10.000    5.500    4.500    0.000    0.000 
#    0.000    0.000    0.000    0.000    0.000    0.000 
#
# Total GULP energy -198309.391842 kJ/mol
# GULP energy per Si atom -12394.336990 kJ/mol
# Density = 2.367841 g / cm^3
# Si number density = 23.732430 Si / 1000 Ang^3
#
#
#
# Elastic Constant Matrix: (Units=GPa)
#
#
# Indices 1 2 3 4 5 6 
#
# 1 59.3842 47.8344 25.1766 0.1125 6.7282 34.0370
# 2 47.8344 139.2871 64.7670 -9.6940 -0.1509 59.4615
# 3 25.1766 64.7670 150.9951 -15.8971 10.0388 30.3263
# 4 0.1125 -9.6940 -15.8971 36.8306 2.6814 1.6918
# 5 6.7282 -0.1509 10.0388 2.6814 36.7264 2.6770
# 6 34.0370 59.4615 30.3263 1.6918 2.6770 46.5476
#
#
#
# Elastic Compliance Matrix: (Units=1/GPa)
#
#
# Indices 1 2 3 4 5 6 
#
# 1 0.029857 -0.002226 0.000091 0.000531 -0.004170 -0.018827
# 2 -0.002226 0.018164 -0.003172 0.004147 0.002490 -0.019803
# 3 0.000091 -0.003172 0.008828 0.003241 -0.002553 -0.001738
# 4 0.000531 0.004147 0.003241 0.030227 -0.002535 -0.008750
# 5 -0.004170 0.002490 -0.002553 -0.002535 0.028888 -0.000038
# 6 -0.018827 -0.019803 -0.001738 -0.008750 -0.000038 0.061999
#
#
# Mechanical properties :
#
#
# Convention : Reuss Voigt Hill
#
# Bulk Modulus (GPa) = 21.62868 69.46915 45.54892
# Shear Modulus (GPa) = 24.51136 38.14682 31.32909
#
# Velocity S-wave (km/s) = 3.21724 4.01355 3.63725
# Velocity P-wave (km/s) = 4.78896 7.12836 6.07238
#
# Compressibility (1/GPa) = 0.04623490
#
# Stress axis : x y z
#
# Youngs Moduli (GPa) = 33.49353 55.05459 113.27785
#
# Poissons Ratio (x) = 0.12256 -0.01031
# Poissons Ratio (y) = 0.07456 0.35927
# Poissons Ratio (z) = -0.00305 0.17461
#
# Static dielectric constant tensor:
#      x y z
#    x 4.374250 0.514540 -0.099830 
#    y 0.514540 4.707650 -0.080370 
#    z -0.099830 -0.080370 3.997480 
# 
# 
# High freq. dielectric constant tensor:
#      x y z
#    x 1.941980 0.018160 0.008290 
#    y 0.018160 1.943670 -0.002460 
#    z 0.008290 -0.002460 1.935320 
# 
# From -- ./inp_files/333718.got.cif
#   From: 2010.06.25/outbox.cif.g09.slc.cpg/sg2_167_cif.got.tgz:333718.got - 2010.06.27 13:26:56.
