data_PCOD8003467
_publ_section_title
;
Structure prediction by ZEFSAII (Michael W. Deem and Ramdas Pophale) SiO2 
 PCOD8003467
Probable space group: P -1
;
_chemical_formula_sum "Si O2"
_cell_formula_units_Z 16
_cell_length_a 14.676799
_cell_length_b 14.679898
_cell_length_c 15.401547
_cell_angle_alpha 153.203851
_cell_angle_beta 32.951084
_cell_angle_gamma 139.790297
_cell_volume 812.230272
_symmetry_space_group_name_H-M "P -1"
_symmetry_group_IT_number 2
_symmetry_cell_setting 'triclinic'
loop_
_space_group_symop_operation_xyz
x,y,z
-x,-y,-z
loop_
_atom_site_type_symbol
_atom_site_label
_atom_site_fract_x
_atom_site_fract_y
_atom_site_fract_z
Si Si1 0.312979 0.467093 0.509129
Si Si2 0.692318 0.482352 0.812197
Si Si3 0.951224 0.827821 0.961421
Si Si4 0.004489 0.219840 0.586213
Si Si5 0.920288 0.155005 0.405084
Si Si6 0.544213 0.201984 0.214739
Si Si7 0.803983 0.508238 0.553418
Si Si8 0.748432 0.086528 0.804151
O O1 0.421408 0.317485 0.348823
O O2 0.389477 0.690808 0.659949
O O3 0.330806 0.433584 0.362856
O O4 0.113073 0.431332 0.662115
O O5 0.751642 0.277521 0.635594
O O6 0.711615 0.452179 0.668189
O O7 0.500000 0.500000 0.000000
O O8 0.788874 0.687303 0.943776
O O9 0.912177 0.938950 0.178486
O O10 0.105955 0.683609 0.721966
O O11 0.000000 0.000000 0.000000
O O12 0.953403 0.114840 0.446136
O O13 0.835602 0.247177 0.802109
O O14 0.125018 0.088323 0.434683
O O15 0.066186 0.301566 0.369545
O O16 0.435879 0.998356 0.156215
O O17 0.714461 0.178182 0.003752
#
# Coordination Sequence:
#
# PCOD8003467 Si02
#       8
#     2   2   2   2   2   2   2   2
#     4   9  19  34  53  76 105 142 177 213 266 318
#     4  11  23  38  55  83 118 139 177 233 276 320
#     4  11  19  38  63  79 103 151 187 220 270 326
#     4   9  19  34  54  78 106 136 177 226 258 308
#     4  10  20  38  59  81 109 147 187 221 269 329
#     4   9  18  34  53  75 109 142 171 214 269 321
#     4  10  20  37  58  82 110 145 187 225 263 329
#     4   9  18  34  53  78 107 137 176 220 263 313
#
# _framework density 19.698847000000001
#
# number of rings (size 3 to 8) (size 9 to 14) (size 15 to 20)
#    0.000    2.250    2.500    0.750    1.750    2.000 
#    2.250    0.000    0.000    0.000    0.000    0.000 
#    0.000    0.000    0.000    0.000    0.000    0.000 
#
# Total GULP energy -198236.829029 kJ/mol
# GULP energy per Si atom -12389.801814 kJ/mol
# Density = 1.965401 g / cm^3
# Si number density = 19.698847 Si / 1000 Ang^3
#
#
#
# Elastic Constant Matrix: (Units=GPa)
#
#
# Indices 1 2 3 4 5 6 
#
# 1 85.8751 29.8838 24.9042 -3.6379 8.1908 17.2456
# 2 29.8838 70.2445 35.4376 -8.6317 3.1384 8.2285
# 3 24.9042 35.4376 85.3281 -8.1368 5.4393 19.6028
# 4 -3.6379 -8.6317 -8.1368 33.9497 6.7635 6.0781
# 5 8.1908 3.1384 5.4393 6.7635 11.9034 2.9989
# 6 17.2456 8.2285 19.6028 6.0781 2.9989 22.6687
#
#
#
# Elastic Compliance Matrix: (Units=1/GPa)
#
#
# Indices 1 2 3 4 5 6 
#
# 1 0.016695 -0.005227 0.001123 0.004909 -0.010463 -0.011707
# 2 -0.005227 0.020097 -0.007035 0.002578 -0.000491 0.002139
# 3 0.001123 -0.007035 0.019131 0.007300 -0.007836 -0.015764
# 4 0.004909 0.002578 0.007300 0.040871 -0.025954 -0.018509
# 5 -0.010463 -0.000491 -0.007836 -0.025954 0.107747 0.007619
# 6 -0.011707 0.002139 -0.015764 -0.018509 0.007619 0.069830
#
#
# Mechanical properties :
#
#
# Convention : Reuss Voigt Hill
#
# Bulk Modulus (GPa) = 29.72260 46.87765 38.30013
# Shear Modulus (GPa) = 16.24091 23.78584 20.01338
#
# Velocity S-wave (km/s) = 2.87446 3.47864 3.19088
# Velocity P-wave (km/s) = 5.11253 6.32324 5.74984
#
# Compressibility (1/GPa) = 0.03364443
#
# Stress axis : x y z
#
# Youngs Moduli (GPa) = 59.89807 49.75878 52.27161
#
# Poissons Ratio (x) = 0.26008 -0.05868
# Poissons Ratio (y) = 0.31307 0.36773
# Poissons Ratio (z) = -0.06724 0.35006
#
# Static dielectric constant tensor:
#      x y z
#    x 3.637630 0.101200 0.052270 
#    y 0.101200 3.823190 -0.031470 
#    z 0.052270 -0.031470 3.556300 
# 
# 
# High freq. dielectric constant tensor:
#      x y z
#    x 1.770680 0.003510 0.005570 
#    y 0.003510 1.756730 -0.001190 
#    z 0.005570 -0.001190 1.751420 
# 
# From -- ./inp_files/299639.got.cif
#   From: 2010.06.25/outbox.cif.g09.slc.cpg/sg2_150_cif.got.tgz:299639.got - 2010.06.27 13:26:56.
