data_PCOD8003674
_publ_section_title
;
Structure prediction by ZEFSAII (Michael W. Deem and Ramdas Pophale) SiO2 
 PCOD8003674
Probable space group: P -1
;
_chemical_formula_sum "Si O2"
_cell_formula_units_Z 16
_cell_length_a 11.666376
_cell_length_b 17.409345
_cell_length_c 9.180272
_cell_angle_alpha 55.061325
_cell_angle_beta 55.897693
_cell_angle_gamma 33.297650
_cell_volume 825.081233
_symmetry_space_group_name_H-M "P -1"
_symmetry_group_IT_number 2
_symmetry_cell_setting 'triclinic'
loop_
_space_group_symop_operation_xyz
x,y,z
-x,-y,-z
loop_
_atom_site_type_symbol
_atom_site_label
_atom_site_fract_x
_atom_site_fract_y
_atom_site_fract_z
Si Si1 0.289250 0.866530 0.666573
Si Si2 0.802012 0.462944 0.121063
Si Si3 0.285902 0.196218 0.065426
Si Si4 0.591222 0.401022 0.183126
Si Si5 0.371729 0.943607 0.255685
Si Si6 0.502764 0.225941 0.085784
Si Si7 0.195240 0.886961 0.253870
Si Si8 0.545898 0.574766 0.454086
O O1 0.290411 0.752998 0.788230
O O2 0.404467 0.854434 0.460673
O O3 0.417327 0.841818 0.738444
O O4 0.045095 0.025889 0.674399
O O5 0.751049 0.386048 0.176083
O O6 0.737990 0.514974 0.281316
O O7 0.049633 0.357305 0.047448
O O8 0.676486 0.602183 0.961187
O O9 0.410454 0.180808 0.125329
O O10 0.279597 0.088990 0.220034
O O11 0.399177 0.159634 0.870803
O O12 0.407017 0.463740 0.363899
O O13 0.500000 0.500000 0.000000
O O14 0.206289 0.984468 0.213057
O O15 0.706517 0.162409 0.923706
O O16 0.336134 0.746665 0.406993
O O17 0.500000 0.500000 0.500000
#
# Coordination Sequence:
#
# PCOD8003674 Si02
#       8
#     2   2   2   2   2   2   2   2
#     4  12  22  36  60  87 121 151 182 244 302 332
#     4  10  20  39  63  82 113 157 193 233 285 346
#     4  10  22  41  61  81 108 160 204 229 279 337
#     4  11  21  37  58  90 123 141 181 244 298 339
#     4  10  22  38  61  84 115 145 200 246 269 343
#     4  10  22  39  55  85 122 151 191 241 278 342
#     4  10  20  37  60  88 114 151 190 234 293 345
#     4   9  20  34  58  88 116 144 189 231 280 351
#
# _framework density 19.392029999999998
#
# number of rings (size 3 to 8) (size 9 to 14) (size 15 to 20)
#    0.000    1.750    2.500    1.875    3.500    0.500 
#    0.000    1.875    0.000    0.000    0.000    0.000 
#    0.000    0.000    0.000    0.000    0.000    0.000 
#
# Total GULP energy -198342.851112 kJ/mol
# GULP energy per Si atom -12396.428195 kJ/mol
# Density = 1.934789 g / cm^3
# Si number density = 19.392030 Si / 1000 Ang^3
#
#
#
# Elastic Constant Matrix: (Units=GPa)
#
#
# Indices 1 2 3 4 5 6 
#
# 1 86.2431 46.0145 32.9407 -1.0202 4.6985 3.2074
# 2 46.0145 108.8679 52.1251 3.1641 -0.9502 -3.4699
# 3 32.9407 52.1251 114.0750 -6.5124 17.7921 -16.7497
# 4 -1.0202 3.1641 -6.5124 21.3214 5.6474 -8.8307
# 5 4.6985 -0.9502 17.7921 5.6474 30.7625 -2.9458
# 6 3.2074 -3.4699 -16.7497 -8.8307 -2.9458 32.4690
#
#
#
# Elastic Compliance Matrix: (Units=1/GPa)
#
#
# Indices 1 2 3 4 5 6 
#
# 1 0.015690 -0.005713 -0.002175 -0.000061 -0.001634 -0.003447
# 2 -0.005713 0.015264 -0.007263 -0.007796 0.006682 -0.003065
# 3 -0.002175 -0.007263 0.016786 0.013484 -0.011045 0.010763
# 4 -0.000061 -0.007796 0.013484 0.066279 -0.018042 0.022518
# 5 -0.001634 0.006682 -0.011045 -0.018042 0.042097 -0.005910
# 6 -0.003447 -0.003065 0.010763 0.022518 -0.005910 0.041952
#
#
# Mechanical properties :
#
#
# Convention : Reuss Voigt Hill
#
# Bulk Modulus (GPa) = 57.34158 63.48297 60.41228
# Shear Modulus (GPa) = 21.35077 28.78430 25.06753
#
# Velocity S-wave (km/s) = 3.32174 3.85689 3.59928
# Velocity P-wave (km/s) = 6.65927 7.25547 6.96375
#
# Compressibility (1/GPa) = 0.01743935
#
# Stress axis : x y z
#
# Youngs Moduli (GPa) = 63.73311 65.51153 59.57407
#
# Poissons Ratio (x) = 0.37424 0.12960
# Poissons Ratio (y) = 0.36408 0.43267
# Poissons Ratio (z) = 0.13865 0.47579
#
# Static dielectric constant tensor:
#      x y z
#    x 3.442220 0.274610 0.001030 
#    y 0.274610 3.573540 0.225070 
#    z 0.001030 0.225070 3.828060 
# 
# 
# High freq. dielectric constant tensor:
#      x y z
#    x 1.743020 0.025520 -0.003500 
#    y 0.025520 1.751960 0.005160 
#    z -0.003500 0.005160 1.755810 
# 
# From -- ./inp_files/202110.got.cif
#   From: 2010.06.25/outbox.cif.g09.slc.cpg/sg2_102_cif.got.tgz:202110.got - 2010.06.27 13:26:56.
