data_PCOD8003619
_publ_section_title
;
Structure prediction by ZEFSAII (Michael W. Deem and Ramdas Pophale) SiO2 
 PCOD8003619
Probable space group: P -1
;
_chemical_formula_sum "Si O2"
_cell_formula_units_Z 16
_cell_length_a 15.231742
_cell_length_b 9.542457
_cell_length_c 11.731202
_cell_angle_alpha 104.848970
_cell_angle_beta 48.011329
_cell_angle_gamma 66.308059
_cell_volume 738.432406
_symmetry_space_group_name_H-M "P -1"
_symmetry_group_IT_number 2
_symmetry_cell_setting 'triclinic'
loop_
_space_group_symop_operation_xyz
x,y,z
-x,-y,-z
loop_
_atom_site_type_symbol
_atom_site_label
_atom_site_fract_x
_atom_site_fract_y
_atom_site_fract_z
Si Si1 0.253799 0.533938 0.582901
Si Si2 0.629868 0.723228 0.927989
Si Si3 0.747170 0.138503 0.425164
Si Si4 0.986007 0.007439 0.380133
Si Si5 0.424989 0.908697 0.923043
Si Si6 0.316389 0.486402 0.926505
Si Si7 0.935508 0.397237 0.017966
Si Si8 0.965653 0.345391 0.405512
O O1 0.213204 0.745979 0.648051
O O2 0.481175 0.278045 0.298909
O O3 0.214980 0.518420 0.740525
O O4 0.122861 0.551336 0.622810
O O5 0.501863 0.770471 0.949191
O O6 0.845406 0.553086 0.650233
O O7 0.652782 0.598430 0.989827
O O8 0.513576 0.982384 0.119154
O O9 0.520372 0.317807 0.652075
O O10 0.818908 0.068066 0.481275
O O11 0.870725 0.892409 0.203524
O O12 0.197251 0.754491 0.092727
O O13 0.000000 0.000000 0.500000
O O14 0.913622 0.232098 0.451963
O O15 0.194125 0.140876 0.165313
O O16 0.185773 0.497461 0.973037
O O17 0.000000 0.500000 0.000000
#
# Coordination Sequence:
#
# PCOD8003619 Si02
#       8
#     2   2   2   2   2   2   2   2
#     4  10  23  44  64  93 124 163 220 255 309 381
#     4  10  22  37  55  95 130 162 209 254 310 384
#     4  10  24  43  66  93 125 172 208 260 319 371
#     4  10  20  37  59  96 127 161 205 252 306 379
#     4  10  22  37  61  90 125 170 209 252 311 379
#     4  11  24  40  65  95 130 166 211 258 322 366
#     4  11  27  45  66  94 124 164 217 271 316 369
#     4  10  20  38  63  88 127 171 200 252 318 364
#
# _framework density 21.667521000000001
#
# number of rings (size 3 to 8) (size 9 to 14) (size 15 to 20)
#    0.000    1.750    1.250    1.500    5.250    2.500 
#    0.000    0.000    0.000    0.000    0.000    0.000 
#    0.000    0.000    0.000    0.000    0.000    0.000 
#
# Total GULP energy -198261.992568 kJ/mol
# GULP energy per Si atom -12391.374535 kJ/mol
# Density = 2.161820 g / cm^3
# Si number density = 21.667521 Si / 1000 Ang^3
#
#
#
# Elastic Constant Matrix: (Units=GPa)
#
#
# Indices 1 2 3 4 5 6 
#
# 1 67.0340 24.1871 39.7960 2.3990 0.5413 5.2222
# 2 24.1871 70.8075 30.5666 8.7167 7.0374 1.7862
# 3 39.7960 30.5666 121.3062 19.8353 2.0594 14.3119
# 4 2.3990 8.7167 19.8353 34.7104 1.3923 3.0782
# 5 0.5413 7.0374 2.0594 1.3923 35.1028 1.9421
# 6 5.2222 1.7862 14.3119 3.0782 1.9421 23.7639
#
#
#
# Elastic Compliance Matrix: (Units=1/GPa)
#
#
# Indices 1 2 3 4 5 6 
#
# 1 0.020042 -0.004810 -0.005774 0.003179 0.000926 -0.001053
# 2 -0.004810 0.017474 -0.002563 -0.002628 -0.003279 0.001896
# 3 -0.005774 -0.002563 0.012304 -0.005537 0.000392 -0.005263
# 4 0.003179 -0.002628 -0.005537 0.032550 -0.000414 -0.001349
# 5 0.000926 -0.003279 0.000392 -0.000414 0.029264 -0.002531
# 6 -0.001053 0.001896 -0.005263 -0.001349 -0.002531 0.045721
#
#
# Mechanical properties :
#
#
# Convention : Reuss Voigt Hill
#
# Bulk Modulus (GPa) = 42.51013 49.80525 46.15769
# Shear Modulus (GPa) = 26.11065 29.68861 27.89963
#
# Velocity S-wave (km/s) = 3.47516 3.70562 3.59224
# Velocity P-wave (km/s) = 5.98032 6.43000 6.20923
#
# Compressibility (1/GPa) = 0.02352381
#
# Stress axis : x y z
#
# Youngs Moduli (GPa) = 49.89454 57.22757 81.27749
#
# Poissons Ratio (x) = 0.27529 0.46932
# Poissons Ratio (y) = 0.24001 0.20834
# Poissons Ratio (z) = 0.28811 0.14669
#
# Static dielectric constant tensor:
#      x y z
#    x 3.819840 0.190960 0.159960 
#    y 0.190960 3.630820 0.443750 
#    z 0.159960 0.443750 4.028610 
# 
# 
# High freq. dielectric constant tensor:
#      x y z
#    x 1.849470 -0.007110 0.005230 
#    y -0.007110 1.838690 0.026110 
#    z 0.005230 0.026110 1.858840 
# 
# From -- ./inp_files/70889.got.cif
#   From: 2010.06.25/outbox.cif.g09.slc.cpg/sg2_36_cif.got.tgz:70889.got - 2010.06.27 13:26:56.
