data_PCOD8003462
_publ_section_title
;
Structure prediction by ZEFSAII (Michael W. Deem and Ramdas Pophale) SiO2 
 PCOD8003462
Probable space group: P -1
;
_chemical_formula_sum "Si O2"
_cell_formula_units_Z 16
_cell_length_a 8.259081
_cell_length_b 8.399540
_cell_length_c 16.998118
_cell_angle_alpha 88.016535
_cell_angle_beta 85.859358
_cell_angle_gamma 35.856801
_cell_volume 688.350739
_symmetry_space_group_name_H-M "P -1"
_symmetry_group_IT_number 2
_symmetry_cell_setting 'triclinic'
loop_
_space_group_symop_operation_xyz
x,y,z
-x,-y,-z
loop_
_atom_site_type_symbol
_atom_site_label
_atom_site_fract_x
_atom_site_fract_y
_atom_site_fract_z
Si Si1 0.391518 0.443851 0.772036
Si Si2 0.967535 0.686571 0.044310
Si Si3 0.197508 0.198989 0.476877
Si Si4 0.713090 0.352002 0.065871
Si Si5 0.603650 0.610737 0.704348
Si Si6 0.086261 0.072113 0.616735
Si Si7 0.495659 0.791408 0.866941
Si Si8 0.132547 0.092135 0.319782
O O1 0.369752 0.450493 0.867815
O O2 0.520386 0.510089 0.745964
O O3 0.097827 0.657197 0.735409
O O4 0.592714 0.146178 0.738152
O O5 0.214467 0.491802 0.101769
O O6 0.001763 0.810040 0.980753
O O7 0.663552 0.932461 0.092272
O O8 0.000000 0.500000 0.000000
O O9 0.193457 0.173500 0.383760
O O10 0.000000 0.500000 0.500000
O O11 0.088259 0.124501 0.524825
O O12 0.500000 0.000000 0.500000
O O13 0.737774 0.163712 0.113798
O O14 0.500000 0.500000 0.000000
O O15 0.916282 0.342756 0.666634
O O16 0.565276 0.769873 0.773403
O O17 0.404982 0.819808 0.636949
O O18 0.952306 0.005417 0.632966
#
# Coordination Sequence:
#
# PCOD8003462 Si02
#       8
#     2   2   2   2   2   2   2   2
#     4   9  19  35  60  89 115 145 193 245 288 334
#     4  11  22  36  53  80 115 151 190 234 282 339
#     4  12  25  41  60  87 121 155 191 237 288 343
#     4   9  20  37  61  87 114 153 196 238 286 343
#     4   9  18  34  60  88 109 139 191 243 282 331
#     4  10  20  38  62  86 111 147 191 233 280 340
#     4  10  20  37  58  80 110 148 189 236 286 338
#     4  10  21  40  62  85 115 152 194 240 286 342
#
# _framework density 23.243963999999998
#
# number of rings (size 3 to 8) (size 9 to 14) (size 15 to 20)
#    0.000    2.000    0.000    3.375    0.000    8.000 
#    0.000   12.500    0.000    0.000    0.000    0.000 
#    0.000    0.000    0.000    0.000    0.000    0.000 
#
# Total GULP energy -198308.370294 kJ/mol
# GULP energy per Si atom -12394.273143 kJ/mol
# Density = 2.319106 g / cm^3
# Si number density = 23.243964 Si / 1000 Ang^3
#
#
#
# Elastic Constant Matrix: (Units=GPa)
#
#
# Indices 1 2 3 4 5 6 
#
# 1 30.3383 8.7942 14.4123 -2.9250 17.3991 -4.3847
# 2 8.7942 142.2064 40.8570 19.3520 15.5701 -18.0524
# 3 14.4123 40.8570 141.2624 16.5062 33.5409 -8.6733
# 4 -2.9250 19.3520 16.5062 37.7576 5.8471 4.7089
# 5 17.3991 15.5701 33.5409 5.8471 29.1197 4.0474
# 6 -4.3847 -18.0524 -8.6733 4.7089 4.0474 24.2945
#
#
#
# Elastic Compliance Matrix: (Units=1/GPa)
#
#
# Indices 1 2 3 4 5 6 
#
# 1 0.060690 0.001719 0.005022 0.006346 -0.047110 0.020642
# 2 0.001719 0.009505 -0.000383 -0.004787 -0.005980 0.009161
# 3 0.005022 -0.000383 0.011415 -0.002850 -0.016484 0.007996
# 4 0.006346 -0.004787 -0.002850 0.032309 -0.003163 -0.009165
# 5 -0.047110 -0.005980 -0.016484 -0.003163 0.089923 -0.033199
# 6 0.020642 0.009161 0.007996 -0.009165 -0.033199 0.061856
#
#
# Mechanical properties :
#
#
# Convention : Reuss Voigt Hill
#
# Bulk Modulus (GPa) = 10.60136 49.10379 29.85257
# Shear Modulus (GPa) = 17.57943 34.88392 26.23168
#
# Velocity S-wave (km/s) = 2.75308 3.87818 3.36302
# Velocity P-wave (km/s) = 3.83102 6.42067 5.28686
#
# Compressibility (1/GPa) = 0.09432752
#
# Stress axis : x y z
#
# Youngs Moduli (GPa) = 16.47705 105.20945 87.60412
#
# Poissons Ratio (x) = -0.18083 -0.43999
# Poissons Ratio (y) = -0.02832 0.03352
# Poissons Ratio (z) = -0.08276 0.04025
#
# Static dielectric constant tensor:
#      x y z
#    x 4.056030 -0.086860 -0.146810 
#    y -0.086860 4.333250 0.196410 
#    z -0.146810 0.196410 4.571010 
# 
# 
# High freq. dielectric constant tensor:
#      x y z
#    x 1.895750 -0.001370 -0.001820 
#    y -0.001370 1.917220 0.012960 
#    z -0.001820 0.012960 1.931480 
# 
# From -- ./inp_files/52510.got.cif
#   From: 2010.06.25/outbox.cif.g09.slc.cpg/sg2_27_cif.got.tgz:52510.got - 2010.06.27 13:26:56.
