data_PCOD8003227
_publ_section_title
;
Structure prediction by ZEFSAII (Michael W. Deem and Ramdas Pophale) SiO2 
 PCOD8003227
Probable space group: P -1
;
_chemical_formula_sum "Si O2"
_cell_formula_units_Z 16
_cell_length_a 12.406046
_cell_length_b 21.070030
_cell_length_c 17.179771
_cell_angle_alpha 148.589824
_cell_angle_beta 139.537915
_cell_angle_gamma 21.275919
_cell_volume 835.018770
_symmetry_space_group_name_H-M "P -1"
_symmetry_group_IT_number 2
_symmetry_cell_setting 'triclinic'
loop_
_space_group_symop_operation_xyz
x,y,z
-x,-y,-z
loop_
_atom_site_type_symbol
_atom_site_label
_atom_site_fract_x
_atom_site_fract_y
_atom_site_fract_z
Si Si1 0.257466 0.036006 0.334693
Si Si2 0.338078 0.796677 0.562883
Si Si3 0.697657 0.074730 0.488272
Si Si4 0.280079 0.374805 0.124659
Si Si5 0.346343 0.178392 0.812620
Si Si6 0.399978 0.587382 0.624118
Si Si7 0.723031 0.694813 0.355556
Si Si8 0.369644 0.211247 0.167854
O O1 0.200209 0.209366 0.513816
O O2 0.944151 0.155554 0.294724
O O3 0.357559 0.983981 0.246007
O O4 0.489272 0.814543 0.282069
O O5 0.397550 0.793192 0.502345
O O6 0.586998 0.544272 0.456922
O O7 0.396873 0.877176 0.733831
O O8 0.006345 0.945221 0.554221
O O9 0.436573 0.242407 0.585094
O O10 0.747220 0.904279 0.313208
O O11 0.397603 0.439776 0.246392
O O12 0.376086 0.283712 0.168642
O O13 0.922129 0.589182 0.137793
O O14 0.426592 0.190407 0.951619
O O15 0.500000 0.500000 0.500000
O O16 0.022738 0.427347 0.234695
O O17 0.500000 0.000000 0.000000
#
# Coordination Sequence:
#
# PCOD8003227 Si02
#       8
#     2   2   2   2   2   2   2   2
#     4  10  20  36  64  91 120 152 205 256 295 350
#     4  11  22  39  60  93 119 159 202 248 305 360
#     4  10  22  39  63  88 121 158 201 251 304 357
#     4  11  22  38  62  89 121 160 201 247 302 358
#     4  10  21  39  61  89 120 160 201 247 303 357
#     4  12  21  37  65  92 120 154 204 256 295 355
#     4  10  20  38  62  91 117 158 203 250 301 354
#     4  12  24  41  61  89 125 160 202 247 304 367
#
# _framework density 19.161245999999998
#
# number of rings (size 3 to 8) (size 9 to 14) (size 15 to 20)
#    0.000    1.250    5.000    1.500    1.750    1.000 
#    2.250    0.625    0.000    0.000    0.000    0.000 
#    0.000    0.000    0.000    0.000    0.000    0.000 
#
# Total GULP energy -198383.337932 kJ/mol
# GULP energy per Si atom -12398.958621 kJ/mol
# Density = 1.911763 g / cm^3
# Si number density = 19.161246 Si / 1000 Ang^3
#
#
#
# Elastic Constant Matrix: (Units=GPa)
#
#
# Indices 1 2 3 4 5 6 
#
# 1 97.2555 38.3127 35.0702 0.0475 -8.8683 0.9788
# 2 38.3127 103.2572 48.1590 -5.9913 -14.1307 -7.2212
# 3 35.0702 48.1590 112.1921 -1.0144 -5.8558 -10.9781
# 4 0.0475 -5.9913 -1.0144 33.0894 1.6803 0.5777
# 5 -8.8683 -14.1307 -5.8558 1.6803 25.7004 3.3339
# 6 0.9788 -7.2212 -10.9781 0.5777 3.3339 29.6104
#
#
#
# Elastic Compliance Matrix: (Units=1/GPa)
#
#
# Indices 1 2 3 4 5 6 
#
# 1 0.012829 -0.003417 -0.002674 -0.000793 0.002314 -0.002494
# 2 -0.003417 0.013979 -0.004524 0.002113 0.005180 0.001220
# 3 -0.002674 -0.004524 0.011977 -0.000454 -0.001113 0.003560
# 4 -0.000793 0.002113 -0.000454 0.030654 -0.001208 -0.000089
# 5 0.002314 0.005180 -0.001113 -0.001208 0.042905 -0.004033
# 6 -0.002494 0.001220 0.003560 -0.000089 -0.004033 0.035928
#
#
# Mechanical properties :
#
#
# Convention : Reuss Voigt Hill
#
# Bulk Modulus (GPa) = 56.95923 61.75428 59.35675
# Shear Modulus (GPa) = 28.51410 30.42425 29.46918
#
# Velocity S-wave (km/s) = 3.86179 3.98905 3.92593
# Velocity P-wave (km/s) = 7.04808 7.31542 7.18299
#
# Compressibility (1/GPa) = 0.01755642
#
# Stress axis : x y z
#
# Youngs Moduli (GPa) = 77.94911 71.53661 83.49280
#
# Poissons Ratio (x) = 0.24441 0.22326
# Poissons Ratio (y) = 0.26632 0.37769
# Poissons Ratio (z) = 0.20844 0.32360
#
# Static dielectric constant tensor:
#      x y z
#    x 3.465770 0.057170 -0.036410 
#    y 0.057170 3.595110 -0.032960 
#    z -0.036410 -0.032960 3.482750 
# 
# 
# High freq. dielectric constant tensor:
#      x y z
#    x 1.746940 0.004020 -0.007750 
#    y 0.004020 1.751430 -0.004640 
#    z -0.007750 -0.004640 1.728750 
# 
# From -- ./inp_files/256777.got.cif
#   From: 2010.06.25/outbox.cif.g09.slc.cpg/sg2_129_cif.got.tgz:256777.got - 2010.06.27 13:26:56.
