data_PCOD8003374
_publ_section_title
;
Structure prediction by ZEFSAII (Michael W. Deem and Ramdas Pophale) SiO2 
 PCOD8003374
Probable space group: P -1
;
_chemical_formula_sum "Si O2"
_cell_formula_units_Z 16
_cell_length_a 6.410261
_cell_length_b 21.605788
_cell_length_c 17.187336
_cell_angle_alpha 157.314011
_cell_angle_beta 83.230315
_cell_angle_gamma 84.265242
_cell_volume 764.462113
_symmetry_space_group_name_H-M "P -1"
_symmetry_group_IT_number 2
_symmetry_cell_setting 'triclinic'
loop_
_space_group_symop_operation_xyz
x,y,z
-x,-y,-z
loop_
_atom_site_type_symbol
_atom_site_label
_atom_site_fract_x
_atom_site_fract_y
_atom_site_fract_z
Si Si1 0.380717 0.108074 0.875688
Si Si2 0.316106 0.468333 0.020930
Si Si3 0.453167 0.473596 0.786157
Si Si4 0.656893 0.219059 0.102813
Si Si5 0.190250 0.901420 0.745589
Si Si6 0.251409 0.272714 0.665364
Si Si7 0.161432 0.577552 0.768357
Si Si8 0.508907 0.806784 0.761962
O O1 0.305336 0.018348 0.843191
O O2 0.559703 0.949666 0.620756
O O3 0.524161 0.196564 0.008952
O O4 0.136368 0.283356 0.047904
O O5 0.295424 0.301260 0.787847
O O6 0.500000 0.500000 0.000000
O O7 0.445513 0.414946 0.039271
O O8 0.036046 0.662293 0.260644
O O9 0.705162 0.290757 0.529952
O O10 0.300936 0.409788 0.770673
O O11 0.274123 0.599970 0.869842
O O12 0.738324 0.361765 0.238944
O O13 0.481406 0.292958 0.272390
O O14 0.894112 0.013914 0.880125
O O15 0.263462 0.858760 0.783740
O O16 0.250231 0.356962 0.489422
O O17 0.500000 0.000000 0.000000
#
# Coordination Sequence:
#
# PCOD8003374 Si02
#       8
#     2   2   2   2   2   2   2   2
#     4  10  20  37  55  81 116 155 187 230 287 340
#     4   9  17  32  58  93 114 141 188 236 277 325
#     4   9  18  35  56  81 115 150 190 233 274 337
#     4  11  21  37  58  81 113 155 189 237 296 332
#     4   9  19  36  56  83 109 145 199 240 274 339
#     4   9  18  33  60  86 115 146 189 232 278 333
#     4  10  24  39  54  83 120 149 194 235 283 347
#     4  11  21  40  59  83 111 150 196 248 286 329
#
# _framework density 20.929749999999999
#
# number of rings (size 3 to 8) (size 9 to 14) (size 15 to 20)
#    0.000    2.250    1.250    1.500    0.000    2.500 
#    6.750    0.625    0.000    7.500    0.000    0.000 
#    0.000    0.000    0.000    0.000    0.000    0.000 
#
# Total GULP energy -198305.902505 kJ/mol
# GULP energy per Si atom -12394.118907 kJ/mol
# Density = 2.088211 g / cm^3
# Si number density = 20.929750 Si / 1000 Ang^3
#
#
#
# Elastic Constant Matrix: (Units=GPa)
#
#
# Indices 1 2 3 4 5 6 
#
# 1 100.5812 34.5733 57.0217 -9.0399 -14.4487 -31.8294
# 2 34.5733 87.5404 52.3354 -11.6195 1.9419 -29.5512
# 3 57.0217 52.3354 119.2066 -13.0226 -18.8124 -29.8652
# 4 -9.0399 -11.6195 -13.0226 29.6279 -7.3490 1.8317
# 5 -14.4487 1.9419 -18.8124 -7.3490 28.8041 0.9257
# 6 -31.8294 -29.5512 -29.8652 1.8317 0.9257 37.5857
#
#
#
# Elastic Compliance Matrix: (Units=1/GPa)
#
#
# Indices 1 2 3 4 5 6 
#
# 1 0.016953 -0.000469 -0.003637 0.004453 0.006952 0.010710
# 2 -0.000469 0.019080 -0.006278 0.002684 -0.005246 0.009614
# 3 -0.003637 -0.006278 0.016317 0.005966 0.010637 0.004396
# 4 0.004453 0.002684 0.005966 0.042374 0.016499 0.008151
# 5 0.006952 -0.005246 0.010637 0.016499 0.049451 0.008193
# 6 0.010710 0.009614 0.004396 0.008151 0.008193 0.046129
#
#
# Mechanical properties :
#
#
# Convention : Reuss Voigt Hill
#
# Bulk Modulus (GPa) = 31.66411 66.13210 48.89810
# Shear Modulus (GPa) = 22.56313 30.09673 26.32993
#
# Velocity S-wave (km/s) = 3.28692 3.79620 3.55070
# Velocity P-wave (km/s) = 5.43753 7.13306 6.34221
#
# Compressibility (1/GPa) = 0.03158150
#
# Stress axis : x y z
#
# Youngs Moduli (GPa) = 58.98510 52.41041 61.28719
#
# Poissons Ratio (x) = 0.02459 0.22288
# Poissons Ratio (y) = 0.02767 0.38479
# Poissons Ratio (z) = 0.21451 0.32906
#
# Static dielectric constant tensor:
#      x y z
#    x 3.707370 -0.254960 -0.073780 
#    y -0.254960 3.862240 -0.307340 
#    z -0.073780 -0.307340 3.828180 
# 
# 
# High freq. dielectric constant tensor:
#      x y z
#    x 1.816060 -0.017130 -0.008760 
#    y -0.017130 1.808710 -0.022430 
#    z -0.008760 -0.022430 1.813910 
# 
# From -- ./inp_files/39215.got.cif
#   From: 2010.06.25/outbox.cif.g09.slc.cpg/sg2_20_cif.got.tgz:39215.got - 2010.06.27 13:26:56.
