data_PCOD8003349
_publ_section_title
;
Structure prediction by ZEFSAII (Michael W. Deem and Ramdas Pophale) SiO2 
 PCOD8003349
Probable space group: P -1
;
_chemical_formula_sum "Si O2"
_cell_formula_units_Z 16
_cell_length_a 18.518044
_cell_length_b 5.127481
_cell_length_c 10.730238
_cell_angle_alpha 88.606357
_cell_angle_beta 121.598039
_cell_angle_gamma 110.258730
_cell_volume 798.223244
_symmetry_space_group_name_H-M "P -1"
_symmetry_group_IT_number 2
_symmetry_cell_setting 'triclinic'
loop_
_space_group_symop_operation_xyz
x,y,z
-x,-y,-z
loop_
_atom_site_type_symbol
_atom_site_label
_atom_site_fract_x
_atom_site_fract_y
_atom_site_fract_z
Si Si1 0.059716 0.879322 0.921156
Si Si2 0.452596 0.812040 0.245881
Si Si3 0.218322 0.930857 0.912606
Si Si4 0.701371 0.113809 0.752740
Si Si5 0.365012 0.209508 0.542426
Si Si6 0.622798 0.275899 0.307203
Si Si7 0.311223 0.542495 0.908612
Si Si8 0.113693 0.437405 0.113881
O O1 0.108771 0.855340 0.835651
O O2 0.946969 0.728942 0.818123
O O3 0.087534 0.704036 0.054159
O O4 0.093202 0.209747 0.985435
O O5 0.392737 0.842469 0.307401
O O6 0.522786 0.677425 0.363869
O O7 0.512465 0.118206 0.233337
O O8 0.387239 0.614694 0.083547
O O9 0.235458 0.674389 0.866267
O O10 0.259754 0.204427 0.859488
O O11 0.265287 0.993305 0.091148
O O12 0.776472 0.415582 0.765939
O O13 0.680582 0.868884 0.633827
O O14 0.335032 0.443650 0.573753
O O15 0.327225 0.929525 0.600253
O O16 0.638268 0.346137 0.175980
#
# Coordination Sequence:
#
# PCOD8003349 Si02
#       8
#     2   2   2   2   2   2   2   2
#     4   9  16  32  47  80 103 131 162 196 267 297
#     4   9  22  34  54  74 102 137 170 223 249 297
#     4  10  21  32  56  79 105 131 163 219 254 313
#     4  10  20  37  50  82 105 139 169 199 263 310
#     4  10  23  35  52  72 105 143 170 212 246 308
#     4  10  23  37  51  73  98 144 176 218 250 287
#     4  11  21  36  54  76 100 134 180 215 258 289
#     4   9  18  29  52  71 110 134 157 204 242 326
#
# _framework density 20.044519000000001
#
# number of rings (size 3 to 8) (size 9 to 14) (size 15 to 20)
#    0.750    1.500    0.000    3.750    3.500    5.000 
#    0.000    0.000    0.000    0.000    0.000    5.250 
#    0.000    0.000    0.000    0.000    0.000    0.000 
#
# Total GULP energy -198243.009078 kJ/mol
# GULP energy per Si atom -12390.188067 kJ/mol
# Density = 1.999890 g / cm^3
# Si number density = 20.044519 Si / 1000 Ang^3
#
#
#
# Elastic Constant Matrix: (Units=GPa)
#
#
# Indices 1 2 3 4 5 6 
#
# 1 98.3306 28.0778 25.3371 15.6100 3.5250 21.5379
# 2 28.0778 73.7289 5.7107 18.1792 5.0677 1.3360
# 3 25.3371 5.7107 38.0423 9.8763 -13.7811 8.1132
# 4 15.6100 18.1792 9.8763 18.3631 -4.6456 -2.1314
# 5 3.5250 5.0677 -13.7811 -4.6456 13.8821 8.4379
# 6 21.5379 1.3360 8.1132 -2.1314 8.4379 35.0218
#
#
#
# Elastic Compliance Matrix: (Units=1/GPa)
#
#
# Indices 1 2 3 4 5 6 
#
# 1 0.017910 -0.001109 -0.016842 -0.011215 -0.023318 -0.002135
# 2 -0.001109 0.021983 -0.008315 -0.022574 -0.027875 0.007112
# 3 -0.016842 -0.008315 0.092059 -0.000517 0.123040 -0.040328
# 4 -0.011215 -0.022574 -0.000517 0.097386 0.040740 0.003989
# 5 -0.023318 -0.027875 0.123040 0.040740 0.269890 -0.075646
# 6 -0.002135 0.007112 -0.040328 0.003989 -0.075646 0.057406
#
#
# Mechanical properties :
#
#
# Convention : Reuss Voigt Hill
#
# Bulk Modulus (GPa) = 12.59161 36.48368 24.53765
# Shear Modulus (GPa) = 7.86607 23.51849 15.69228
#
# Velocity S-wave (km/s) = 1.98313 3.42908 2.80102
# Velocity P-wave (km/s) = 3.39694 5.82400 4.76750
#
# Compressibility (1/GPa) = 0.07941795
#
# Stress axis : x y z
#
# Youngs Moduli (GPa) = 55.83356 45.49015 10.86259
#
# Poissons Ratio (x) = 0.05047 0.18295
# Poissons Ratio (y) = 0.06194 0.09033
# Poissons Ratio (z) = 0.94037 0.37827
#
# Static dielectric constant tensor:
#      x y z
#    x 4.063690 0.226620 0.072550 
#    y 0.226620 3.629080 0.268530 
#    z 0.072550 0.268530 3.181240 
# 
# 
# High freq. dielectric constant tensor:
#      x y z
#    x 1.790080 0.004590 -0.008490 
#    y 0.004590 1.786760 0.025850 
#    z -0.008490 0.025850 1.723890 
# 
# From -- ./inp_files/468172.got.cif
#   From: 2010.06.25/outbox.cif.g09.slc.cpg/sg2_235_cif.got.tgz:468172.got - 2010.06.27 13:26:56.
