data_PCOD8003412
_publ_section_title
;
Structure prediction by ZEFSAII (Michael W. Deem and Ramdas Pophale) SiO2 
 PCOD8003412
Probable space group: P -1
;
_chemical_formula_sum "Si O2"
_cell_formula_units_Z 16
_cell_length_a 20.942314
_cell_length_b 14.584415
_cell_length_c 8.744925
_cell_angle_alpha 56.803647
_cell_angle_beta 57.392626
_cell_angle_gamma 19.635991
_cell_volume 748.517471
_symmetry_space_group_name_H-M "P -1"
_symmetry_group_IT_number 2
_symmetry_cell_setting 'triclinic'
loop_
_space_group_symop_operation_xyz
x,y,z
-x,-y,-z
loop_
_atom_site_type_symbol
_atom_site_label
_atom_site_fract_x
_atom_site_fract_y
_atom_site_fract_z
Si Si1 0.945363 0.472401 0.488375
Si Si2 0.653276 0.141232 0.562897
Si Si3 0.275796 0.621231 0.163098
Si Si4 0.353183 0.402035 0.562370
Si Si5 0.264979 0.435365 0.149528
Si Si6 0.372495 0.135428 0.680713
Si Si7 0.412500 0.541117 0.768832
Si Si8 0.881171 0.225945 0.213406
O O1 0.836251 0.538998 0.685920
O O2 0.811809 0.680925 0.323804
O O3 0.000000 0.500000 0.500000
O O4 0.124302 0.175904 0.450850
O O5 0.539455 0.182325 0.624042
O O6 0.599870 0.243445 0.713808
O O7 0.590021 0.324667 0.366034
O O8 0.390389 0.412354 0.343340
O O9 0.186333 0.640845 0.163303
O O10 0.415666 0.506802 0.976967
O O11 0.106388 0.921296 0.172758
O O12 0.317953 0.318991 0.671747
O O13 0.165072 0.703129 0.610975
O O14 0.497817 0.115775 0.150301
O O15 0.204462 0.546919 0.954022
O O16 0.500000 0.000000 0.500000
O O17 0.223012 0.742707 0.750339
#
# Coordination Sequence:
#
# PCOD8003412 Si02
#       8
#     2   2   2   2   2   2   2   2
#     4  11  21  35  65  86 117 153 196 237 299 356
#     4  10  20  37  56  89 121 159 189 236 295 353
#     4  11  19  36  62  88 117 155 197 243 287 347
#     4  11  22  36  61  88 122 150 196 246 289 350
#     4  10  20  38  64  85 117 152 201 243 284 351
#     4  10  20  38  59  89 109 156 194 244 289 337
#     4   9  20  35  58  83 120 158 193 233 291 346
#     4  10  21  36  60  93 113 155 199 242 294 342
#
# _framework density 21.375588
#
# number of rings (size 3 to 8) (size 9 to 14) (size 15 to 20)
#    0.000    1.750    2.500    4.875    0.000    1.000 
#    2.250    1.250    0.000    7.500    0.000    0.000 
#    0.000    0.000    0.000    0.000    0.000    0.000 
#
# Total GULP energy -198304.704706 kJ/mol
# GULP energy per Si atom -12394.044044 kJ/mol
# Density = 2.132694 g / cm^3
# Si number density = 21.375588 Si / 1000 Ang^3
#
#
#
# Elastic Constant Matrix: (Units=GPa)
#
#
# Indices 1 2 3 4 5 6 
#
# 1 92.4563 31.7608 10.0692 3.0895 -5.1008 3.4476
# 2 31.7608 116.3497 23.1311 2.1492 4.3811 6.4619
# 3 10.0692 23.1311 84.1772 10.9238 0.0428 9.6289
# 4 3.0895 2.1492 10.9238 29.2806 5.5281 1.4472
# 5 -5.1008 4.3811 0.0428 5.5281 25.2276 5.2472
# 6 3.4476 6.4619 9.6289 1.4472 5.2472 24.6189
#
#
#
# Elastic Compliance Matrix: (Units=1/GPa)
#
#
# Indices 1 2 3 4 5 6 
#
# 1 0.012301 -0.003352 -0.000173 -0.001619 0.003731 -0.001475
# 2 -0.003352 0.010109 -0.002421 0.001024 -0.002494 -0.000766
# 3 -0.000173 -0.002421 0.013807 -0.005187 0.002533 -0.004975
# 4 -0.001619 0.001024 -0.005187 0.037824 -0.009141 0.001712
# 5 0.003731 -0.002494 0.002533 -0.009141 0.044882 -0.009887
# 6 -0.001475 -0.000766 -0.004975 0.001712 -0.009887 0.044980
#
#
# Mechanical properties :
#
#
# Convention : Reuss Voigt Hill
#
# Bulk Modulus (GPa) = 41.11186 46.98948 44.05067
# Shear Modulus (GPa) = 27.18826 31.02690 29.10758
#
# Velocity S-wave (km/s) = 3.57028 3.81400 3.69415
# Velocity P-wave (km/s) = 6.02252 6.43630 6.23285
#
# Compressibility (1/GPa) = 0.02432388
#
# Stress axis : x y z
#
# Youngs Moduli (GPa) = 81.29223 98.92528 72.42886
#
# Poissons Ratio (x) = 0.33161 0.01256
# Poissons Ratio (y) = 0.27250 0.17533
# Poissons Ratio (z) = 0.01410 0.23948
#
# Static dielectric constant tensor:
#      x y z
#    x 4.001640 0.201930 -0.128620 
#    y 0.201930 4.344870 -0.235720 
#    z -0.128620 -0.235720 4.289140 
# 
# 
# High freq. dielectric constant tensor:
#      x y z
#    x 1.826310 0.016030 0.004030 
#    y 0.016030 1.832640 0.005340 
#    z 0.004030 0.005340 1.828590 
# 
# From -- ./inp_files/347172.got.cif
#   From: 2010.06.25/outbox.cif.g09.slc.cpg/sg2_174_cif.got.tgz:347172.got - 2010.06.27 13:26:56.
