data_PCOD8003341
_publ_section_title
;
Structure prediction by ZEFSAII (Michael W. Deem and Ramdas Pophale) SiO2 
 PCOD8003341
Probable space group: P -1
;
_chemical_formula_sum "Si O2"
_cell_formula_units_Z 16
_cell_length_a 17.035517
_cell_length_b 23.606927
_cell_length_c 11.340803
_cell_angle_alpha 150.572450
_cell_angle_beta 28.932356
_cell_angle_gamma 161.920435
_cell_volume 661.224437
_symmetry_space_group_name_H-M "P -1"
_symmetry_group_IT_number 2
_symmetry_cell_setting 'triclinic'
loop_
_space_group_symop_operation_xyz
x,y,z
-x,-y,-z
loop_
_atom_site_type_symbol
_atom_site_label
_atom_site_fract_x
_atom_site_fract_y
_atom_site_fract_z
Si Si1 0.900603 0.388048 0.192851
Si Si2 0.498275 0.293746 0.957561
Si Si3 0.229302 0.299106 0.937771
Si Si4 0.166221 0.909343 0.261299
Si Si5 0.612514 0.612776 0.374430
Si Si6 0.567658 0.800192 0.396424
Si Si7 0.650992 0.988188 0.205356
Si Si8 0.437185 0.762347 0.846912
O O1 0.731338 0.380202 0.483850
O O2 0.838315 0.371481 0.104868
O O3 0.206996 0.580299 0.164910
O O4 0.805638 0.206951 0.024828
O O5 0.436280 0.225612 0.782031
O O6 0.308144 0.108099 0.950519
O O7 0.450875 0.404058 0.240524
O O8 0.245333 0.326086 0.826808
O O9 0.227267 0.166650 0.742688
O O10 0.500000 0.500000 0.000000
O O11 0.950242 0.200432 0.166374
O O12 0.855816 0.767431 0.425038
O O13 0.306401 0.004976 0.379215
O O14 0.315167 0.074746 0.270377
O O15 0.428361 0.621546 0.639437
O O16 0.500000 0.000000 0.500000
O O17 0.471894 0.862019 0.096416
#
# Coordination Sequence:
#
# PCOD8003341 Si02
#       8
#     2   2   2   2   2   2   2   2
#     4  10  23  39  72 107 143 188 248 300 352 416
#     4  11  27  44  64 110 153 192 222 296 377 433
#     4  12  24  45  75 109 134 191 245 301 349 424
#     4  10  20  36  69 109 137 182 247 306 347 405
#     4  11  21  44  76 104 137 182 256 302 342 420
#     4  11  21  38  73 103 144 181 248 294 351 419
#     4  12  31  46  70 105 160 190 229 296 382 434
#     4  11  21  42  74 103 141 192 249 295 351 426
#
# _framework density 24.197533
#
# number of rings (size 3 to 8) (size 9 to 14) (size 15 to 20)
#    0.000    1.000    5.000    3.000    5.250    1.500 
#    0.000    0.000    0.000    0.000    0.000    0.000 
#    0.000    0.000    0.000    0.000    0.000    0.000 
#
# Total GULP energy -198318.410901 kJ/mol
# GULP energy per Si atom -12394.900681 kJ/mol
# Density = 2.414246 g / cm^3
# Si number density = 24.197533 Si / 1000 Ang^3
#
#
#
# Elastic Constant Matrix: (Units=GPa)
#
#
# Indices 1 2 3 4 5 6 
#
# 1 102.7984 15.9793 19.8793 13.8380 1.3869 3.6663
# 2 15.9793 70.7914 20.4352 13.3269 2.9200 2.3930
# 3 19.8793 20.4352 70.3535 1.9940 1.0743 0.3920
# 4 13.8380 13.3269 1.9940 27.7403 6.9211 -4.6809
# 5 1.3869 2.9200 1.0743 6.9211 44.9259 7.7039
# 6 3.6663 2.3930 0.3920 -4.6809 7.7039 27.9236
#
#
#
# Elastic Compliance Matrix: (Units=1/GPa)
#
#
# Indices 1 2 3 4 5 6 
#
# 1 0.011235 -0.000567 -0.002846 -0.005859 0.001120 -0.002678
# 2 -0.000567 0.017223 -0.004601 -0.008361 0.000804 -0.002960
# 3 -0.002846 -0.004601 0.016278 0.002821 -0.000641 0.001189
# 4 -0.005859 -0.008361 0.002821 0.046892 -0.008568 0.011671
# 5 0.001120 0.000804 -0.000641 -0.008568 0.024971 -0.008532
# 6 -0.002678 -0.002960 0.001189 0.011671 -0.008532 0.040711
#
#
# Mechanical properties :
#
#
# Convention : Reuss Voigt Hill
#
# Bulk Modulus (GPa) = 34.83443 39.61455 37.22449
# Shear Modulus (GPa) = 27.33609 32.62792 29.98200
#
# Velocity S-wave (km/s) = 3.36476 3.67604 3.52384
# Velocity P-wave (km/s) = 5.43347 5.86724 5.65452
#
# Compressibility (1/GPa) = 0.02870723
#
# Stress axis : x y z
#
# Youngs Moduli (GPa) = 89.00441 58.06143 61.43318
#
# Poissons Ratio (x) = 0.03293 0.17484
# Poissons Ratio (y) = 0.05049 0.28267
# Poissons Ratio (z) = 0.25331 0.26716
#
# Static dielectric constant tensor:
#      x y z
#    x 6.269740 1.229210 -1.351460 
#    y 1.229210 5.028460 -0.600800 
#    z -1.351460 -0.600800 5.400880 
# 
# 
# High freq. dielectric constant tensor:
#      x y z
#    x 1.969140 0.012230 -0.001260 
#    y 0.012230 1.947400 0.016120 
#    z -0.001260 0.016120 1.959700 
# 
# From -- ./inp_files/467376.got.cif
#   From: 2010.06.25/outbox.cif.g09.slc.cpg/sg2_234_cif.got.tgz:467376.got - 2010.06.27 13:26:56.
