data_PCOD8003067
_publ_section_title
;
Structure prediction by ZEFSAII (Michael W. Deem and Ramdas Pophale) SiO2 
 PCOD8003067
Probable space group: P -1
;
_chemical_formula_sum "Si O2"
_cell_formula_units_Z 16
_cell_length_a 24.023243
_cell_length_b 9.855490
_cell_length_c 8.864964
_cell_angle_alpha 92.948901
_cell_angle_beta 130.721314
_cell_angle_gamma 128.919763
_cell_volume 770.916843
_symmetry_space_group_name_H-M "P -1"
_symmetry_group_IT_number 2
_symmetry_cell_setting 'triclinic'
loop_
_space_group_symop_operation_xyz
x,y,z
-x,-y,-z
loop_
_atom_site_type_symbol
_atom_site_label
_atom_site_fract_x
_atom_site_fract_y
_atom_site_fract_z
Si Si1 0.121784 0.788896 0.815465
Si Si2 0.124866 0.178367 0.602883
Si Si3 0.059583 0.327360 0.312480
Si Si4 0.551246 0.369826 0.684592
Si Si5 0.728732 0.161059 0.686860
Si Si6 0.015372 0.772357 0.162048
Si Si7 0.586398 0.721756 0.834787
Si Si8 0.237139 0.878796 0.575422
O O1 0.000000 0.500000 0.500000
O O2 0.059719 0.829819 0.775138
O O3 0.179724 0.803019 0.061149
O O4 0.251615 0.038366 0.943706
O O5 0.142891 0.329501 0.523681
O O6 0.091991 0.994336 0.431075
O O7 0.282764 0.418295 0.982838
O O8 0.000000 0.000000 0.500000
O O9 0.173896 0.638759 0.523401
O O10 0.982526 0.170289 0.004343
O O11 0.514753 0.455744 0.706913
O O12 0.522075 0.350116 0.453524
O O13 0.428984 0.063201 0.517209
O O14 0.689386 0.034798 0.449075
O O15 0.838610 0.469366 0.880982
O O16 0.100801 0.766272 0.316738
O O17 0.617394 0.833801 0.059176
#
# Coordination Sequence:
#
# PCOD8003067 Si02
#       8
#     2   2   2   2   2   2   2   2
#     4  11  18  32  64  97 118 159 203 262 298 359
#     4  12  27  43  63  89 129 170 208 253 315 376
#     4  11  22  37  63  97 126 159 211 254 311 365
#     4  10  23  41  56  93 128 161 204 262 307 369
#     4  10  21  37  66  94 122 155 209 261 309 358
#     4  11  21  43  64  94 126 163 213 255 303 373
#     4  10  20  36  62  87 131 154 210 253 315 346
#     4  11  19  39  68  99 120 162 210 258 306 370
#
# _framework density 20.754508999999999
#
# number of rings (size 3 to 8) (size 9 to 14) (size 15 to 20)
#    0.000    1.250    5.000    1.875    1.750    0.500 
#    0.000    6.250    0.000    0.000    0.000    0.000 
#    0.000    0.000    0.000    0.000    0.000    0.000 
#
# Total GULP energy -198338.916349 kJ/mol
# GULP energy per Si atom -12396.182272 kJ/mol
# Density = 2.070727 g / cm^3
# Si number density = 20.754509 Si / 1000 Ang^3
#
#
#
# Elastic Constant Matrix: (Units=GPa)
#
#
# Indices 1 2 3 4 5 6 
#
# 1 43.4799 13.3026 23.6757 -5.3979 2.3110 -0.5529
# 2 13.3026 86.2559 31.6141 -13.6244 9.3812 -0.7377
# 3 23.6757 31.6141 135.4082 -12.0121 0.9914 4.1341
# 4 -5.3979 -13.6244 -12.0121 28.0711 2.3861 -2.5804
# 5 2.3110 9.3812 0.9914 2.3861 33.8609 0.2007
# 6 -0.5529 -0.7377 4.1341 -2.5804 0.2007 19.6764
#
#
#
# Elastic Compliance Matrix: (Units=1/GPa)
#
#
# Indices 1 2 3 4 5 6 
#
# 1 0.026173 -0.002024 -0.003915 0.002656 -0.001309 0.001844
# 2 -0.002024 0.014220 -0.002461 0.005981 -0.004162 0.001820
# 3 -0.003915 -0.002461 0.008840 0.001615 0.000587 -0.001854
# 4 0.002656 0.005981 0.001615 0.040625 -0.004780 0.005336
# 5 -0.001309 -0.004162 0.000587 -0.004780 0.031102 -0.001260
# 6 0.001844 0.001820 -0.001854 0.005336 -0.001260 0.052044
#
#
# Mechanical properties :
#
#
# Convention : Reuss Voigt Hill
#
# Bulk Modulus (GPa) = 30.83192 44.70320 37.76756
# Shear Modulus (GPa) = 24.92339 29.42513 27.17426
#
# Velocity S-wave (km/s) = 3.46911 3.76941 3.62238
# Velocity P-wave (km/s) = 5.56184 6.36635 5.97765
#
# Compressibility (1/GPa) = 0.03243392
#
# Stress axis : x y z
#
# Youngs Moduli (GPa) = 38.20760 70.32186 113.12662
#
# Poissons Ratio (x) = 0.14233 0.44287
# Poissons Ratio (y) = 0.07733 0.27837
# Poissons Ratio (z) = 0.14957 0.17304
#
# Static dielectric constant tensor:
#      x y z
#    x 3.645280 0.166210 -0.265140 
#    y 0.166210 3.932830 0.036690 
#    z -0.265140 0.036690 3.949560 
# 
# 
# High freq. dielectric constant tensor:
#      x y z
#    x 1.787480 0.014060 -0.022420 
#    y 0.014060 1.815470 -0.004560 
#    z -0.022420 -0.004560 1.819860 
# 
# From -- ./inp_files/343696.got.cif
#   From: 2010.06.25/outbox.cif.g09.slc.cpg/sg2_172_cif.got.tgz:343696.got - 2010.06.27 13:26:56.
