data_PCOD8003206
_publ_section_title
;
Structure prediction by ZEFSAII (Michael W. Deem and Ramdas Pophale) SiO2 
 PCOD8003206
Probable space group: P -1
;
_chemical_formula_sum "Si O2"
_cell_formula_units_Z 16
_cell_length_a 21.772186
_cell_length_b 10.817630
_cell_length_c 9.041708
_cell_angle_alpha 102.664468
_cell_angle_beta 39.160560
_cell_angle_gamma 132.720048
_cell_volume 741.144809
_symmetry_space_group_name_H-M "P -1"
_symmetry_group_IT_number 2
_symmetry_cell_setting 'triclinic'
loop_
_space_group_symop_operation_xyz
x,y,z
-x,-y,-z
loop_
_atom_site_type_symbol
_atom_site_label
_atom_site_fract_x
_atom_site_fract_y
_atom_site_fract_z
Si Si1 0.431809 0.925991 0.272179
Si Si2 0.119767 0.934887 0.209111
Si Si3 0.418837 0.156488 0.891443
Si Si4 0.569597 0.335736 0.117564
Si Si5 0.792487 0.669778 0.303624
Si Si6 0.362667 0.267806 0.279658
Si Si7 0.841236 0.539661 0.425789
Si Si8 0.142017 0.230945 0.121701
O O1 0.228063 0.667586 0.570444
O O2 0.464963 0.102656 0.318637
O O3 0.537657 0.943973 0.185717
O O4 0.500000 0.000000 0.000000
O O5 0.003371 0.706762 0.277132
O O6 0.023527 0.888836 0.519301
O O7 0.287745 0.035708 0.968126
O O8 0.163619 0.103170 0.070071
O O9 0.321209 0.105839 0.206442
O O10 0.592454 0.416757 0.595316
O O11 0.433289 0.294835 0.312606
O O12 0.679256 0.424388 0.787161
O O13 0.686629 0.515600 0.075646
O O14 0.802267 0.822154 0.396116
O O15 0.893145 0.685864 0.231217
O O16 0.883703 0.765214 0.000665
O O17 0.500000 0.500000 0.000000
#
# Coordination Sequence:
#
# PCOD8003206 Si02
#       8
#     2   2   2   2   2   2   2   2
#     4   9  16  34  59  83 103 147 203 227 262 330
#     4  10  22  36  55  81 124 148 173 232 297 333
#     4  10  19  34  57  84 110 144 193 238 270 322
#     4  10  17  33  57  83 111 146 189 232 272 326
#     4  10  20  34  59  82 111 148 194 228 270 338
#     4  10  16  28  54  84 111 136 182 229 274 314
#     4   9  18  35  54  77 112 151 182 222 280 334
#     4  10  22  36  54  85 120 147 181 226 291 344
#
# _framework density 21.588225000000001
#
# number of rings (size 3 to 8) (size 9 to 14) (size 15 to 20)
#    0.000    2.250    5.000    1.500    3.500    2.500 
#    0.000    8.125    0.000    0.000    0.000   12.250 
#    0.000    0.000    0.000    0.000    0.000    0.000 
#
# Total GULP energy -198285.636130 kJ/mol
# GULP energy per Si atom -12392.852258 kJ/mol
# Density = 2.153909 g / cm^3
# Si number density = 21.588225 Si / 1000 Ang^3
#
#
#
# Elastic Constant Matrix: (Units=GPa)
#
#
# Indices 1 2 3 4 5 6 
#
# 1 116.2237 26.8064 28.5500 -13.6179 3.8675 -3.1670
# 2 26.8064 87.0619 20.7829 -24.6636 4.3730 -9.5810
# 3 28.5500 20.7829 34.1365 -5.7144 13.0048 7.0816
# 4 -13.6179 -24.6636 -5.7144 23.2403 11.6937 3.1143
# 5 3.8675 4.3730 13.0048 11.6937 31.7412 -4.6647
# 6 -3.1670 -9.5810 7.0816 3.1143 -4.6647 32.7233
#
#
#
# Elastic Compliance Matrix: (Units=1/GPa)
#
#
# Indices 1 2 3 4 5 6 
#
# 1 0.011628 -0.000083 -0.011350 0.001849 0.003126 0.003827
# 2 -0.000083 0.020686 -0.005780 0.024492 -0.008952 0.003692
# 3 -0.011350 -0.005780 0.066635 0.026372 -0.038543 -0.025215
# 4 0.001849 0.024492 0.026372 0.107147 -0.056316 -0.016582
# 5 0.003126 -0.008952 -0.038543 -0.056316 0.072079 0.021657
# 6 0.003827 0.003692 -0.025215 -0.016582 0.021657 0.042133
#
#
# Mechanical properties :
#
#
# Convention : Reuss Voigt Hill
#
# Bulk Modulus (GPa) = 15.49831 43.30009 29.39920
# Shear Modulus (GPa) = 13.28932 28.29312 20.79122
#
# Velocity S-wave (km/s) = 2.48378 3.62412 3.10672
# Velocity P-wave (km/s) = 3.92686 6.13296 5.14944
#
# Compressibility (1/GPa) = 0.06452317
#
# Stress axis : x y z
#
# Youngs Moduli (GPa) = 85.99735 48.34234 15.00710
#
# Poissons Ratio (x) = 0.00401 0.17033
# Poissons Ratio (y) = 0.00713 0.08674
# Poissons Ratio (z) = 0.97607 0.27942
#
# Static dielectric constant tensor:
#      x y z
#    x 3.839140 -0.152500 0.105480 
#    y -0.152500 4.500070 -0.219950 
#    z 0.105480 -0.219950 3.608970 
# 
# 
# High freq. dielectric constant tensor:
#      x y z
#    x 1.847650 0.009290 0.009360 
#    y 0.009290 1.837710 -0.018680 
#    z 0.009360 -0.018680 1.814330 
# 
# From -- ./inp_files/281252.got.cif
#   From: 2010.06.25/outbox.cif.g09.slc.cpg/sg2_141_cif.got.tgz:281252.got - 2010.06.27 13:26:56.
