data_PCOD8003802
_publ_section_title
;
Structure prediction by ZEFSAII (Michael W. Deem and Ramdas Pophale) SiO2 
 PCOD8003802
Probable space group: P -1
;
_chemical_formula_sum "Si O2"
_cell_formula_units_Z 16
_cell_length_a 14.709529
_cell_length_b 15.855386
_cell_length_c 9.797344
_cell_angle_alpha 34.304958
_cell_angle_beta 45.558872
_cell_angle_gamma 39.330949
_cell_volume 804.134780
_symmetry_space_group_name_H-M "P -1"
_symmetry_group_IT_number 2
_symmetry_cell_setting 'triclinic'
loop_
_space_group_symop_operation_xyz
x,y,z
-x,-y,-z
loop_
_atom_site_type_symbol
_atom_site_label
_atom_site_fract_x
_atom_site_fract_y
_atom_site_fract_z
Si Si1 0.605601 0.883541 0.861290
Si Si2 0.691322 0.821553 0.149287
Si Si3 0.526901 0.355365 0.770296
Si Si4 0.562239 0.592402 0.911101
Si Si5 0.208584 0.979314 0.038308
Si Si6 0.144837 0.498839 0.406394
Si Si7 0.921869 0.134043 0.018385
Si Si8 0.313317 0.951860 0.667616
O O1 0.480636 0.078151 0.767516
O O2 0.695642 0.896290 0.620858
O O3 0.710071 0.804253 0.988900
O O4 0.543956 0.758575 0.051578
O O5 0.778058 0.633265 0.374797
O O6 0.756240 0.937615 0.982127
O O7 0.500000 0.500000 0.500000
O O8 0.701376 0.227379 0.771979
O O9 0.459835 0.453676 0.850319
O O10 0.732539 0.535978 0.790237
O O11 0.478094 0.798803 0.711610
O O12 0.500000 0.500000 0.000000
O O13 0.250292 0.031311 0.777517
O O14 0.033862 0.059482 0.127625
O O15 0.097661 0.687769 0.256577
O O16 0.000000 0.500000 0.500000
O O17 0.770538 0.136945 0.202552
O O18 0.000000 0.000000 0.000000
#
# Coordination Sequence:
#
# PCOD8003802 Si02
#       8
#     2   2   2   2   2   2   2   2
#     4  10  22  37  59  88 124 158 200 257 316 366
#     4  10  21  36  60  88 119 157 202 252 312 367
#     4  10  24  40  61  90 125 163 208 263 322 373
#     4  11  23  37  64  95 121 162 219 262 306 371
#     4   9  20  38  61  87 119 162 208 251 312 371
#     4  12  23  38  65  96 129 164 212 270 311 373
#     4  10  21  37  59  91 123 163 205 257 319 367
#     4  10  20  37  61  88 122 159 208 257 307 376
#
# _framework density 19.897162999999999
#
# number of rings (size 3 to 8) (size 9 to 14) (size 15 to 20)
#    0.000    1.750    3.750    0.000    3.500    2.500 
#    0.000    1.875    0.000    4.500    0.000    0.000 
#    0.000    0.000    0.000    0.000    0.000    0.000 
#
# Total GULP energy -198278.782759 kJ/mol
# GULP energy per Si atom -12392.423922 kJ/mol
# Density = 1.985188 g / cm^3
# Si number density = 19.897163 Si / 1000 Ang^3
#
#
#
# Elastic Constant Matrix: (Units=GPa)
#
#
# Indices 1 2 3 4 5 6 
#
# 1 119.0005 37.4743 50.3816 0.8406 8.7335 -4.5675
# 2 37.4743 80.1455 36.8395 -11.4870 4.6960 -4.7468
# 3 50.3816 36.8395 137.5406 -13.0297 16.4146 -2.8825
# 4 0.8406 -11.4870 -13.0297 27.8680 0.7536 4.5878
# 5 8.7335 4.6960 16.4146 0.7536 39.6533 0.6612
# 6 -4.5675 -4.7468 -2.8825 4.5878 0.6612 37.0290
#
#
#
# Elastic Compliance Matrix: (Units=1/GPa)
#
#
# Indices 1 2 3 4 5 6 
#
# 1 0.011206 -0.004187 -0.003247 -0.003742 -0.000575 0.001067
# 2 -0.004187 0.016346 -0.002267 0.005694 -0.000195 0.000701
# 3 -0.003247 -0.002267 0.009803 0.003890 -0.003143 -0.000354
# 4 -0.003742 0.005694 0.003890 0.040956 -0.002164 -0.004464
# 5 -0.000575 -0.000195 -0.003143 -0.002164 0.026719 -0.000550
# 6 0.001067 0.000701 -0.000354 -0.004464 -0.000550 0.027763
#
#
# Mechanical properties :
#
#
# Convention : Reuss Voigt Hill
#
# Bulk Modulus (GPa) = 55.69870 65.11972 60.40921
# Shear Modulus (GPa) = 31.60967 35.04280 33.32623
#
# Velocity S-wave (km/s) = 3.99011 4.20121 4.09702
# Velocity P-wave (km/s) = 7.02012 7.50552 7.26687
#
# Compressibility (1/GPa) = 0.01795374
#
# Stress axis : x y z
#
# Youngs Moduli (GPa) = 89.23817 61.17683 102.00574
#
# Poissons Ratio (x) = 0.25613 0.33121
# Poissons Ratio (y) = 0.37361 0.23127
# Poissons Ratio (z) = 0.28975 0.13870
#
# Static dielectric constant tensor:
#      x y z
#    x 2.218180 0.806900 -0.183250 
#    y 0.806900 3.186050 -0.006580 
#    z -0.183250 -0.006580 3.519100 
# 
# 
# High freq. dielectric constant tensor:
#      x y z
#    x 1.788190 -0.002000 -0.000110 
#    y -0.002000 1.769800 -0.015750 
#    z -0.000110 -0.015750 1.753430 
# 
# From -- ./inp_files/312308.got.cif
#   From: 2010.06.25/outbox.cif.g09.slc.cpg/sg2_157_cif.got.tgz:312308.got - 2010.06.27 13:26:56.
