data_PCOD8003521
_publ_section_title
;
Structure prediction by ZEFSAII (Michael W. Deem and Ramdas Pophale) SiO2 
 PCOD8003521
Probable space group: P -1
;
_chemical_formula_sum "Si O2"
_cell_formula_units_Z 16
_cell_length_a 9.309660
_cell_length_b 12.035989
_cell_length_c 12.383632
_cell_angle_alpha 47.445026
_cell_angle_beta 110.264630
_cell_angle_gamma 130.460356
_cell_volume 767.037390
_symmetry_space_group_name_H-M "P -1"
_symmetry_group_IT_number 2
_symmetry_cell_setting 'triclinic'
loop_
_space_group_symop_operation_xyz
x,y,z
-x,-y,-z
loop_
_atom_site_type_symbol
_atom_site_label
_atom_site_fract_x
_atom_site_fract_y
_atom_site_fract_z
Si Si1 0.357044 0.855460 0.652758
Si Si2 0.114567 0.088229 0.325100
Si Si3 0.544793 0.344363 0.309124
Si Si4 0.055595 0.269479 0.360494
Si Si5 0.710692 0.751982 0.135153
Si Si6 0.566771 0.394059 0.655778
Si Si7 0.370718 0.807203 0.375274
Si Si8 0.126019 0.948683 0.193027
O O1 0.383806 0.689383 0.762954
O O2 0.132445 0.746631 0.650076
O O3 0.500000 0.000000 0.500000
O O4 0.434940 0.977619 0.702187
O O5 0.319883 0.175463 0.376469
O O6 0.061972 0.226790 0.262095
O O7 0.123372 0.067819 0.212637
O O8 0.952229 0.884348 0.466223
O O9 0.585319 0.545266 0.184436
O O10 0.656641 0.332513 0.445818
O O11 0.246131 0.468015 0.313922
O O12 0.605978 0.752668 0.213530
O O13 0.730446 0.899768 0.958764
O O14 0.915802 0.805492 0.184428
O O15 0.500000 0.500000 0.500000
O O16 0.614195 0.274550 0.677643
O O17 0.193660 0.820336 0.326317
#
# Coordination Sequence:
#
# PCOD8003521 Si02
#       8
#     2   2   2   2   2   2   2   2
#     4  10  20  37  58  94 129 155 201 264 315 365
#     4  11  20  39  65  92 129 166 210 263 324 369
#     4  11  20  41  65  96 126 159 217 269 301 379
#     4  11  22  35  62 100 128 159 209 271 316 367
#     4  11  26  45  62  93 134 169 216 260 317 391
#     4  12  24  40  64  98 131 165 215 268 318 374
#     4  11  22  40  66  97 123 168 210 264 323 368
#     4  11  26  44  65  91 129 179 209 257 329 384
#
# _framework density 20.859480999999999
#
# number of rings (size 3 to 8) (size 9 to 14) (size 15 to 20)
#    0.000    1.000    6.250    1.500    5.250    1.500 
#    0.000    0.000    0.000    1.500    0.000    0.000 
#    0.000    0.000    0.000    0.000    0.000    0.000 
#
# Total GULP energy -198288.032400 kJ/mol
# GULP energy per Si atom -12393.002025 kJ/mol
# Density = 2.081200 g / cm^3
# Si number density = 20.859481 Si / 1000 Ang^3
#
#
#
# Elastic Constant Matrix: (Units=GPa)
#
#
# Indices 1 2 3 4 5 6 
#
# 1 100.2420 24.7731 15.7861 -1.3180 -16.6564 -14.0504
# 2 24.7731 86.6960 16.7617 -0.2512 -11.9161 -22.8747
# 3 15.7861 16.7617 61.7348 -2.0713 -19.1518 1.4148
# 4 -1.3180 -0.2512 -2.0713 19.9417 -1.2813 -5.9289
# 5 -16.6564 -11.9161 -19.1518 -1.2813 29.4250 7.3976
# 6 -14.0504 -22.8747 1.4148 -5.9289 7.3976 45.1797
#
#
#
# Elastic Compliance Matrix: (Units=1/GPa)
#
#
# Indices 1 2 3 4 5 6 
#
# 1 0.011717 -0.001939 -0.000997 0.001583 0.004733 0.002126
# 2 -0.001939 0.014726 -0.003275 0.001875 0.001048 0.007030
# 3 -0.000997 -0.003275 0.021678 0.001630 0.013455 -0.004636
# 4 0.001583 0.001875 0.001630 0.052971 0.003051 0.007842
# 5 0.004733 0.001048 0.013455 0.003051 0.047433 -0.005785
# 6 0.002126 0.007030 -0.004636 0.007842 -0.005785 0.028476
#
#
# Mechanical properties :
#
#
# Convention : Reuss Voigt Hill
#
# Bulk Modulus (GPa) = 28.01307 40.36830 34.19068
# Shear Modulus (GPa) = 24.83551 31.66607 28.25079
#
# Velocity S-wave (km/s) = 3.45427 3.90046 3.68413
# Velocity P-wave (km/s) = 5.41921 6.29915 5.87568
#
# Compressibility (1/GPa) = 0.03569763
#
# Stress axis : x y z
#
# Youngs Moduli (GPa) = 85.34335 67.90558 46.13029
#
# Poissons Ratio (x) = 0.13170 0.04599
# Poissons Ratio (y) = 0.16551 0.15110
# Poissons Ratio (z) = 0.08509 0.22242
#
# Static dielectric constant tensor:
#      x y z
#    x 4.010050 -0.254650 -0.181100 
#    y -0.254650 4.113550 0.072750 
#    z -0.181100 0.072750 3.351100 
# 
# 
# High freq. dielectric constant tensor:
#      x y z
#    x 1.831050 -0.006710 -0.016090 
#    y -0.006710 1.833510 0.003850 
#    z -0.016090 0.003850 1.760410 
# 
# From -- ./inp_files/392374.got.cif
#   From: 2010.06.25/outbox.cif.g09.slc.cpg/sg2_197_cif.got.tgz:392374.got - 2010.06.27 13:26:56.
