data_PCOD8003989
_publ_section_title
;
Structure prediction by ZEFSAII (Michael W. Deem and Ramdas Pophale) SiO2 
 PCOD8003989
Probable space group: P -1
;
_chemical_formula_sum "Si O2"
_cell_formula_units_Z 16
_cell_length_a 8.726922
_cell_length_b 15.457859
_cell_length_c 9.550309
_cell_angle_alpha 45.747685
_cell_angle_beta 116.721748
_cell_angle_gamma 113.766170
_cell_volume 816.189299
_symmetry_space_group_name_H-M "P -1"
_symmetry_group_IT_number 2
_symmetry_cell_setting 'triclinic'
loop_
_space_group_symop_operation_xyz
x,y,z
-x,-y,-z
loop_
_atom_site_type_symbol
_atom_site_label
_atom_site_fract_x
_atom_site_fract_y
_atom_site_fract_z
Si Si1 0.456745 0.396802 0.804859
Si Si2 0.634195 0.645921 0.487623
Si Si3 0.067598 0.347464 0.787447
Si Si4 0.371423 0.198142 0.436873
Si Si5 0.660491 0.280419 0.253387
Si Si6 0.965129 0.853375 0.790466
Si Si7 0.001376 0.588542 0.615856
Si Si8 0.765454 0.054347 0.415301
O O1 0.514086 0.539175 0.640429
O O2 0.440464 0.328576 0.724865
O O3 0.273774 0.381987 0.824540
O O4 0.593839 0.340662 0.019527
O O5 0.626602 0.767647 0.437231
O O6 0.826531 0.610730 0.595812
O O7 0.978817 0.345277 0.601581
O O8 0.995242 0.443949 0.752139
O O9 0.012092 0.211720 0.978884
O O10 0.527462 0.278704 0.328692
O O11 0.190059 0.230008 0.262487
O O12 0.377690 0.052380 0.587145
O O13 0.677834 0.139862 0.386989
O O14 0.841029 0.358119 0.281126
O O15 0.142871 0.863302 0.765638
O O16 0.910343 0.989518 0.633675
#
# Coordination Sequence:
#
# PCOD8003989 Si02
#       8
#     2   2   2   2   2   2   2   2
#     4  10  22  38  61  84 124 149 191 236 297 348
#     4  10  22  40  57  88 117 158 187 240 291 343
#     4  10  20  42  57  88 117 159 186 240 294 338
#     4  10  20  37  63  79 117 152 192 237 284 341
#     4  12  22  37  61  91 113 153 193 242 290 343
#     4   9  19  37  64  79 115 156 190 240 283 341
#     4  10  24  35  61  88 123 144 198 239 285 355
#     4   9  21  37  59  87 114 152 199 242 276 344
#
# _framework density 19.603294999999999
#
# number of rings (size 3 to 8) (size 9 to 14) (size 15 to 20)
#    0.750    1.250    1.250    1.875    3.500    2.500 
#    0.000    1.250    2.750    0.000    0.000    0.000 
#    0.000    0.000    0.000    0.000    0.000    0.000 
#
# Total GULP energy -198361.051489 kJ/mol
# GULP energy per Si atom -12397.565718 kJ/mol
# Density = 1.955868 g / cm^3
# Si number density = 19.603295 Si / 1000 Ang^3
#
#
#
# Elastic Constant Matrix: (Units=GPa)
#
#
# Indices 1 2 3 4 5 6 
#
# 1 70.8488 24.6615 39.2675 7.8490 -12.0820 2.3235
# 2 24.6615 75.8135 30.5383 15.4598 4.9558 -15.4358
# 3 39.2675 30.5383 113.1884 5.7057 -4.0521 1.6708
# 4 7.8490 15.4598 5.7057 25.4490 8.4123 1.8251
# 5 -12.0820 4.9558 -4.0521 8.4123 29.3396 -0.3715
# 6 2.3235 -15.4358 1.6708 1.8251 -0.3715 35.1645
#
#
#
# Elastic Compliance Matrix: (Units=1/GPa)
#
#
# Indices 1 2 3 4 5 6 
#
# 1 0.021287 -0.004884 -0.005367 -0.005635 0.010429 -0.002893
# 2 -0.004884 0.020449 -0.003582 -0.009829 -0.003016 0.009947
# 3 -0.005367 -0.003582 0.011598 0.001516 -0.000462 -0.001852
# 4 -0.005635 -0.009829 0.001516 0.052291 -0.015531 -0.006893
# 5 0.010429 -0.003016 -0.000462 -0.015531 0.043268 -0.000728
# 6 -0.002893 0.009947 -0.001852 -0.006893 -0.000728 0.033433
#
#
# Mechanical properties :
#
#
# Convention : Reuss Voigt Hill
#
# Bulk Modulus (GPa) = 38.96097 49.86503 44.41300
# Shear Modulus (GPa) = 22.87831 29.01618 25.94725
#
# Velocity S-wave (km/s) = 3.41994 3.85147 3.64210
# Velocity P-wave (km/s) = 5.95924 6.72835 6.35544
#
# Compressibility (1/GPa) = 0.02566671
#
# Stress axis : x y z
#
# Youngs Moduli (GPa) = 46.97740 48.90278 86.22514
#
# Poissons Ratio (x) = 0.23885 0.46277
# Poissons Ratio (y) = 0.22945 0.30885
# Poissons Ratio (z) = 0.25213 0.17517
#
# Static dielectric constant tensor:
#      x y z
#    x 3.536090 0.017250 -0.017170 
#    y 0.017250 3.384010 0.045040 
#    z -0.017170 0.045040 3.415040 
# 
# 
# High freq. dielectric constant tensor:
#      x y z
#    x 1.772760 0.000310 -0.009480 
#    y 0.000310 1.748820 -0.000260 
#    z -0.009480 -0.000260 1.748960 
# 
# From -- ./inp_files/205774.got.cif
#   From: 2010.06.25/outbox.cif.g09.slc.cpg/sg2_103_cif.got.tgz:205774.got - 2010.06.27 13:26:56.
