data_PCOD8003237
_publ_section_title
;
Structure prediction by ZEFSAII (Michael W. Deem and Ramdas Pophale) SiO2 
 PCOD8003237
Probable space group: P -1
;
_chemical_formula_sum "Si O2"
_cell_formula_units_Z 16
_cell_length_a 9.137118
_cell_length_b 9.559902
_cell_length_c 13.511052
_cell_angle_alpha 63.111757
_cell_angle_beta 67.445199
_cell_angle_gamma 44.657920
_cell_volume 736.231039
_symmetry_space_group_name_H-M "P -1"
_symmetry_group_IT_number 2
_symmetry_cell_setting 'triclinic'
loop_
_space_group_symop_operation_xyz
x,y,z
-x,-y,-z
loop_
_atom_site_type_symbol
_atom_site_label
_atom_site_fract_x
_atom_site_fract_y
_atom_site_fract_z
Si Si1 0.313151 0.833397 0.403734
Si Si2 0.143640 0.755247 0.646239
Si Si3 0.525408 0.976599 0.387820
Si Si4 0.129542 0.186822 0.780679
Si Si5 0.209143 0.457629 0.981811
Si Si6 0.754490 0.219282 0.172137
Si Si7 0.643154 0.683206 0.216256
Si Si8 0.683938 0.615516 0.802543
O O1 0.276919 0.708393 0.526138
O O2 0.428857 0.740881 0.296436
O O3 0.481873 0.828051 0.417867
O O4 0.097589 0.061373 0.370813
O O5 0.209406 0.814923 0.706897
O O6 0.167426 0.555167 0.725269
O O7 0.362125 0.197129 0.305473
O O8 0.500000 0.000000 0.500000
O O9 0.768598 0.857454 0.340222
O O10 0.290006 0.183047 0.811242
O O11 0.894475 0.397254 0.779345
O O12 0.141584 0.989461 0.852873
O O13 0.152714 0.679438 0.927925
O O14 0.378341 0.307516 0.900358
O O15 0.300415 0.346909 0.098628
O O16 0.000000 0.500000 0.000000
O O17 0.504964 0.383589 0.165932
#
# Coordination Sequence:
#
# PCOD8003237 Si02
#       8
#     2   2   2   2   2   2   2   2
#     4  10  20  36  64  92 124 167 217 256 320 377
#     4  10  21  39  62  92 130 168 205 267 318 379
#     4  10  22  40  62  96 131 164 211 270 319 384
#     4  10  21  40  65  95 124 167 215 262 319 389
#     4  11  23  43  68  92 129 176 213 269 321 374
#     4  10  24  41  64  94 134 163 214 267 318 383
#     4  10  21  40  62  92 126 165 215 265 314 380
#     4  11  22  42  67  90 131 171 211 264 329 374
#
# _framework density 21.732308
#
# number of rings (size 3 to 8) (size 9 to 14) (size 15 to 20)
#    0.000    1.750    1.250    3.000    1.750    3.000 
#    0.000   16.875    0.000    0.000    0.000    0.000 
#    0.000    0.000    0.000    0.000    0.000    0.000 
#
# Total GULP energy -198236.107455 kJ/mol
# GULP energy per Si atom -12389.756716 kJ/mol
# Density = 2.168284 g / cm^3
# Si number density = 21.732308 Si / 1000 Ang^3
#
#
#
# Elastic Constant Matrix: (Units=GPa)
#
#
# Indices 1 2 3 4 5 6 
#
# 1 76.6808 20.3819 29.6798 -0.9891 -11.3988 9.1369
# 2 20.3819 102.8447 47.8447 18.0484 -7.0235 7.3257
# 3 29.6798 47.8447 143.5901 12.0941 10.6346 3.2480
# 4 -0.9891 18.0484 12.0941 28.8588 4.5076 -7.9598
# 5 -11.3988 -7.0235 10.6346 4.5076 27.7868 0.7969
# 6 9.1369 7.3257 3.2480 -7.9598 0.7969 42.6074
#
#
#
# Elastic Compliance Matrix: (Units=1/GPa)
#
#
# Indices 1 2 3 4 5 6 
#
# 1 0.016209 -0.000872 -0.003614 0.000541 0.007813 -0.003095
# 2 -0.000872 0.014140 -0.004148 -0.009172 0.006400 -0.003761
# 3 -0.003614 -0.004148 0.009561 -0.000352 -0.006156 0.000809
# 4 0.000541 -0.009172 -0.000352 0.044809 -0.009518 0.010037
# 5 0.007813 0.006400 -0.006156 -0.009518 0.044852 -0.004924
# 6 -0.003095 -0.003761 0.000809 0.010037 -0.004924 0.026686
#
#
# Mechanical properties :
#
#
# Convention : Reuss Voigt Hill
#
# Bulk Modulus (GPa) = 44.16483 57.65872 50.91177
# Shear Modulus (GPa) = 27.61332 34.86457 31.23894
#
# Velocity S-wave (km/s) = 3.56843 4.00968 3.79548
# Velocity P-wave (km/s) = 6.11102 6.93006 6.53339
#
# Compressibility (1/GPa) = 0.02264245
#
# Stress axis : x y z
#
# Youngs Moduli (GPa) = 61.69445 70.71941 104.59595
#
# Poissons Ratio (x) = 0.06166 0.37801
# Poissons Ratio (y) = 0.05379 0.43384
# Poissons Ratio (z) = 0.22297 0.29333
#
# Static dielectric constant tensor:
#      x y z
#    x 4.062020 0.103650 -0.012470 
#    y 0.103650 3.866590 0.132230 
#    z -0.012470 0.132230 4.183560 
# 
# 
# High freq. dielectric constant tensor:
#      x y z
#    x 1.853030 0.009220 -0.011910 
#    y 0.009220 1.848220 0.011020 
#    z -0.011910 0.011020 1.859680 
# 
# From -- ./inp_files/492484.got.cif
#   From: 2010.06.25/outbox.cif.g09.slc.cpg/sg2_247_cif.got.tgz:492484.got - 2010.06.27 13:26:56.
