data_PCOD8003407
_publ_section_title
;
Structure prediction by ZEFSAII (Michael W. Deem and Ramdas Pophale) SiO2 
 PCOD8003407
Probable space group: P -1
;
_chemical_formula_sum "Si O2"
_cell_formula_units_Z 16
_cell_length_a 13.199667
_cell_length_b 13.881442
_cell_length_c 15.397780
_cell_angle_alpha 51.940498
_cell_angle_beta 52.425112
_cell_angle_gamma 21.572949
_cell_volume 810.273647
_symmetry_space_group_name_H-M "P -1"
_symmetry_group_IT_number 2
_symmetry_cell_setting 'triclinic'
loop_
_space_group_symop_operation_xyz
x,y,z
-x,-y,-z
loop_
_atom_site_type_symbol
_atom_site_label
_atom_site_fract_x
_atom_site_fract_y
_atom_site_fract_z
Si Si1 0.053168 0.408807 0.336695
Si Si2 0.623913 0.588534 0.419876
Si Si3 0.967799 0.064877 0.751035
Si Si4 0.531810 0.847875 0.462659
Si Si5 0.803677 0.170826 0.591435
Si Si6 0.887396 0.991540 0.000081
Si Si7 0.593858 0.598398 0.704078
Si Si8 0.700417 0.561321 0.865207
O O1 0.907643 0.425294 0.344717
O O2 0.820714 0.663474 0.381372
O O3 0.174054 0.408600 0.209556
O O4 0.291233 0.152871 0.417931
O O5 0.441850 0.815466 0.461176
O O6 0.680184 0.410305 0.532423
O O7 0.442102 0.721075 0.354258
O O8 0.949618 0.017279 0.691995
O O9 0.813284 0.327897 0.687124
O O10 0.289911 0.798510 0.754713
O O11 0.824212 0.100065 0.877956
O O12 0.574057 0.751214 0.588434
O O13 0.000000 0.000000 0.500000
O O14 0.111073 0.693375 0.038528
O O15 0.605903 0.174129 0.083028
O O16 0.000000 0.000000 0.000000
O O17 0.706011 0.514998 0.788579
#
# Coordination Sequence:
#
# PCOD8003407 Si02
#       8
#     2   2   2   2   2   2   2   2
#     4  10  22  38  58  87 123 170 198 247 293 364
#     4   9  20  36  58  89 124 152 194 242 297 378
#     4  12  24  37  62  89 128 155 198 262 307 349
#     4  10  20  37  56  87 129 156 197 240 299 367
#     4  11  21  37  63  96 120 159 196 246 318 373
#     4  12  23  43  61  89 119 162 215 260 296 348
#     4  12  21  37  59  90 125 162 197 249 302 367
#     4  12  24  40  64  86 120 170 211 246 302 353
#
# _framework density 19.746414999999999
#
# number of rings (size 3 to 8) (size 9 to 14) (size 15 to 20)
#    0.750    0.250    3.750    4.875    1.750    1.000 
#    0.000    0.000    0.000    1.500    0.000    0.000 
#    0.000    0.000    0.000    0.000    0.000    0.000 
#
# Total GULP energy -198346.140447 kJ/mol
# GULP energy per Si atom -12396.633778 kJ/mol
# Density = 1.970147 g / cm^3
# Si number density = 19.746415 Si / 1000 Ang^3
#
#
#
# Elastic Constant Matrix: (Units=GPa)
#
#
# Indices 1 2 3 4 5 6 
#
# 1 67.8131 27.5528 44.7730 6.2803 6.6152 -10.9754
# 2 27.5528 92.5466 12.5427 -3.3765 -4.8369 -13.4584
# 3 44.7730 12.5427 97.3632 2.8918 -3.8109 -10.2695
# 4 6.2803 -3.3765 2.8918 35.7954 -0.7986 -4.3770
# 5 6.6152 -4.8369 -3.8109 -0.7986 29.4299 8.1480
# 6 -10.9754 -13.4584 -10.2695 -4.3770 8.1480 25.1673
#
#
#
# Elastic Compliance Matrix: (Units=1/GPa)
#
#
# Indices 1 2 3 4 5 6 
#
# 1 0.027244 -0.006306 -0.011314 -0.003885 -0.010568 0.006638
# 2 -0.006306 0.013386 0.001694 0.002872 0.002598 0.004758
# 3 -0.011314 0.001694 0.015508 0.001118 0.004580 0.001012
# 4 -0.003885 0.002872 0.001118 0.029446 0.000866 0.005138
# 5 -0.010568 0.002598 0.004580 0.000866 0.041445 -0.014618
# 6 0.006638 0.004758 0.001012 0.005138 -0.014618 0.051212
#
#
# Mechanical properties :
#
#
# Convention : Reuss Voigt Hill
#
# Bulk Modulus (GPa) = 41.17833 47.49556 44.33695
# Shear Modulus (GPa) = 22.91589 29.60215 26.25902
#
# Velocity S-wave (km/s) = 3.41032 3.87604 3.65062
# Velocity P-wave (km/s) = 6.03373 6.64354 6.34596
#
# Compressibility (1/GPa) = 0.02428462
#
# Stress axis : x y z
#
# Youngs Moduli (GPa) = 36.70575 74.70633 64.48226
#
# Poissons Ratio (x) = 0.47113 0.72955
# Poissons Ratio (y) = 0.23148 -0.10922
# Poissons Ratio (z) = 0.41529 -0.12654
#
# Static dielectric constant tensor:
#      x y z
#    x 3.617480 -0.129980 -0.059490 
#    y -0.129980 3.653440 -0.042540 
#    z -0.059490 -0.042540 3.490380 
# 
# 
# High freq. dielectric constant tensor:
#      x y z
#    x 1.754140 -0.011560 -0.007630 
#    y -0.011560 1.783740 -0.002470 
#    z -0.007630 -0.002470 1.748640 
# 
# From -- ./inp_files/534328.got.cif
#   From: 2010.06.25/outbox.cif.g09.slc.cpg/sg2_268_cif.got.tgz:534328.got - 2010.06.27 13:26:56.
