data_PCOD8003683
_publ_section_title
;
Structure prediction by ZEFSAII (Michael W. Deem and Ramdas Pophale) SiO2 
 PCOD8003683
Probable space group: P -1
;
_chemical_formula_sum "Si O2"
_cell_formula_units_Z 14
_cell_length_a 7.876628
_cell_length_b 6.942844
_cell_length_c 20.523515
_cell_angle_alpha 82.028557
_cell_angle_beta 48.914106
_cell_angle_gamma 113.514778
_cell_volume 631.869896
_symmetry_space_group_name_H-M "P -1"
_symmetry_group_IT_number 2
_symmetry_cell_setting 'triclinic'
loop_
_space_group_symop_operation_xyz
x,y,z
-x,-y,-z
loop_
_atom_site_type_symbol
_atom_site_label
_atom_site_fract_x
_atom_site_fract_y
_atom_site_fract_z
Si Si1 0.336768 0.989123 0.304771
Si Si2 0.347471 0.588218 0.257884
Si Si3 0.248224 0.485314 0.888195
Si Si4 0.802949 0.326623 0.841311
Si Si5 0.152337 0.986296 0.597735
Si Si6 0.380677 0.740858 0.968362
Si Si7 0.412245 0.835891 0.631005
O O1 0.346958 0.768395 0.296894
O O2 0.037127 0.920334 0.353288
O O3 0.632841 0.247007 0.186281
O O4 0.346263 0.003419 0.380066
O O5 0.647960 0.629620 0.180419
O O6 0.339667 0.634853 0.182159
O O7 0.067856 0.299415 0.364265
O O8 0.388313 0.564363 0.923443
O O9 0.890335 0.275174 0.989077
O O10 0.160870 0.542458 0.733494
O O11 0.689237 0.038239 0.877998
O O12 0.698558 0.369033 0.933135
O O13 0.429006 0.174875 0.470433
O O14 0.273965 0.968318 0.637094
#
# Coordination Sequence:
#
# PCOD8003683 Si02
#       7
#     2   2   2   2   2   2   2
#     4  11  20  41  64  91 125 166 195 260 308 361
#     4  10  22  39  61  90 123 156 206 253 306 366
#     4  10  21  39  61  88 121 160 208 255 297 373
#     4  10  20  37  60  88 121 159 202 252 303 370
#     4   9  22  41  64  92 126 156 208 256 297 377
#     4  10  20  38  61  87 120 161 208 251 307 359
#     4  10  20  41  65  92 125 162 204 250 314 361
#
# _framework density 22.156459999999999
#
# number of rings (size 3 to 8) (size 9 to 14) (size 15 to 20)
#    0.000    2.000    2.857    0.429    0.000    1.714 
#    2.571    7.857    0.000    0.000    0.000    0.000 
#    0.000    0.000    0.000    0.000    0.000    0.000 
#
# Total GULP energy -173461.006967 kJ/mol
# GULP energy per Si atom -12390.071926 kJ/mol
# Density = 2.210603 g / cm^3
# Si number density = 22.156460 Si / 1000 Ang^3
#
#
#
# Elastic Constant Matrix: (Units=GPa)
#
#
# Indices 1 2 3 4 5 6 
#
# 1 70.8237 8.4838 15.9074 2.8188 0.5303 10.6693
# 2 8.4838 79.0783 27.9293 4.8596 -6.1426 -4.6708
# 3 15.9074 27.9293 110.9394 -11.6726 2.7762 -1.2457
# 4 2.8188 4.8596 -11.6726 20.0935 -0.0816 1.8547
# 5 0.5303 -6.1426 2.7762 -0.0816 32.6530 10.9049
# 6 10.6693 -4.6708 -1.2457 1.8547 10.9049 24.1635
#
#
#
# Elastic Compliance Matrix: (Units=1/GPa)
#
#
# Indices 1 2 3 4 5 6 
#
# 1 0.016155 -0.000976 -0.002514 -0.002705 0.002567 -0.008403
# 2 -0.000976 0.014989 -0.004318 -0.006220 0.002344 0.002525
# 3 -0.002514 -0.004318 0.011357 0.007874 -0.002123 0.001215
# 4 -0.002705 -0.006220 0.007874 0.056571 -0.000397 -0.003765
# 5 0.002567 0.002344 -0.002123 -0.000397 0.037040 -0.017476
# 6 -0.008403 0.002525 0.001215 -0.003765 -0.017476 0.053821
#
#
# Mechanical properties :
#
#
# Convention : Reuss Voigt Hill
#
# Bulk Modulus (GPa) = 37.19608 40.60917 38.90263
# Shear Modulus (GPa) = 23.30875 29.28338 26.29606
#
# Velocity S-wave (km/s) = 3.24698 3.63941 3.44878
# Velocity P-wave (km/s) = 5.55712 6.00238 5.78404
#
# Compressibility (1/GPa) = 0.02688455
#
# Stress axis : x y z
#
# Youngs Moduli (GPa) = 61.89898 66.71524 88.05332
#
# Poissons Ratio (x) = 0.06511 0.22136
# Poissons Ratio (y) = 0.06041 0.38025
# Poissons Ratio (z) = 0.15561 0.28810
#
# Static dielectric constant tensor:
#      x y z
#    x 4.012470 0.113210 0.086140 
#    y 0.113210 3.829800 -0.087400 
#    z 0.086140 -0.087400 4.071280 
# 
# 
# High freq. dielectric constant tensor:
#      x y z
#    x 1.864670 0.010050 0.007610 
#    y 0.010050 1.839040 -0.004790 
#    z 0.007610 -0.004790 1.883740 
# 
# From -- ./inp_files/342455.got.cif
#   From: 2010.06.25/outbox.cif.g09.slc.cpg/sg2_172_cif.got.tgz:342455.got - 2010.06.27 13:26:56.
