data_PCOD8003446
_publ_section_title
;
Structure prediction by ZEFSAII (Michael W. Deem and Ramdas Pophale) SiO2 
 PCOD8003446
Probable space group: P -1
;
_chemical_formula_sum "Si O2"
_cell_formula_units_Z 14
_cell_length_a 9.374020
_cell_length_b 13.324516
_cell_length_c 11.861303
_cell_angle_alpha 61.251190
_cell_angle_beta 118.653318
_cell_angle_gamma 66.643874
_cell_volume 660.412766
_symmetry_space_group_name_H-M "P -1"
_symmetry_group_IT_number 2
_symmetry_cell_setting 'triclinic'
loop_
_space_group_symop_operation_xyz
x,y,z
-x,-y,-z
loop_
_atom_site_type_symbol
_atom_site_label
_atom_site_fract_x
_atom_site_fract_y
_atom_site_fract_z
Si Si1 0.757488 0.947659 0.744026
Si Si2 0.112480 0.310241 0.623644
Si Si3 0.316003 0.087845 0.022822
Si Si4 0.402000 0.845935 0.816577
Si Si5 0.280023 0.674427 0.948931
Si Si6 0.137353 0.713094 0.629989
Si Si7 0.312608 0.269747 0.237915
O O1 0.780613 0.931740 0.896606
O O2 0.723463 0.841100 0.742818
O O3 0.055983 0.823966 0.881045
O O4 0.492425 0.175375 0.474559
O O5 0.000000 0.500000 0.500000
O O6 0.978209 0.334969 0.446967
O O7 0.447210 0.124468 0.833129
O O8 0.065664 0.255156 0.746670
O O9 0.421978 0.154054 0.059890
O O10 0.440381 0.701328 0.966709
O O11 0.498556 0.778125 0.760110
O O12 0.069490 0.061767 0.588777
O O13 0.138917 0.694348 0.776546
O O14 0.546801 0.442081 0.212983
O O15 0.000000 0.500000 0.000000
#
# Coordination Sequence:
#
# PCOD8003446 Si02
#       7
#     2   2   2   2   2   2   2
#     4  10  22  38  53  89 126 149 190 252 295 353
#     4  10  20  39  64  84 109 159 210 246 281 345
#     4   9  21  39  62  86 117 152 199 251 294 337
#     4  10  20  37  57  87 118 153 194 236 292 361
#     4  11  22  35  61  89 124 155 189 236 308 358
#     4  10  22  35  58  87 119 153 200 241 284 359
#     4  10  22  33  55  83 121 157 191 234 297 348
#
# _framework density 21.198862999999999
#
# number of rings (size 3 to 8) (size 9 to 14) (size 15 to 20)
#    0.000    2.000    1.429    1.286    6.000    2.286 
#    0.000    0.714    0.000   12.000    0.000    0.000 
#    0.000    0.000    0.000    0.000    0.000    0.000 
#
# Total GULP energy -173458.969978 kJ/mol
# GULP energy per Si atom -12389.926427 kJ/mol
# Density = 2.115061 g / cm^3
# Si number density = 21.198863 Si / 1000 Ang^3
#
#
#
# Elastic Constant Matrix: (Units=GPa)
#
#
# Indices 1 2 3 4 5 6 
#
# 1 91.0417 28.8431 33.6672 -3.4512 -10.7483 -21.5180
# 2 28.8431 98.3361 42.4255 -7.9114 -8.4085 -11.6846
# 3 33.6672 42.4255 111.5246 -17.0841 3.5278 -21.6612
# 4 -3.4512 -7.9114 -17.0841 29.8029 -7.2186 3.3840
# 5 -10.7483 -8.4085 3.5278 -7.2186 27.1591 0.8109
# 6 -21.5180 -11.6846 -21.6612 3.3840 0.8109 29.5672
#
#
#
# Elastic Compliance Matrix: (Units=1/GPa)
#
#
# Indices 1 2 3 4 5 6 
#
# 1 0.015087 -0.001937 -0.002332 0.000284 0.005501 0.008323
# 2 -0.001937 0.013104 -0.004178 0.001862 0.004317 0.000376
# 3 -0.002332 -0.004178 0.013233 0.004857 -0.002819 0.005868
# 4 0.000284 0.001862 0.004857 0.039456 0.010554 -0.000305
# 5 0.005501 0.004317 -0.002819 0.010554 0.043468 0.001244
# 6 0.008323 0.000376 0.005868 -0.000305 0.001244 0.044327
#
#
# Mechanical properties :
#
#
# Convention : Reuss Voigt Hill
#
# Bulk Modulus (GPa) = 40.76708 56.75268 48.75988
# Shear Modulus (GPa) = 25.80711 30.37028 28.08869
#
# Velocity S-wave (km/s) = 3.49288 3.78913 3.64402
# Velocity P-wave (km/s) = 5.96150 6.78034 6.38406
#
# Compressibility (1/GPa) = 0.02452959
#
# Stress axis : x y z
#
# Youngs Moduli (GPa) = 66.28101 76.31470 75.56890
#
# Poissons Ratio (x) = 0.14783 0.17620
# Poissons Ratio (y) = 0.12840 0.31575
# Poissons Ratio (z) = 0.15454 0.31887
#
# Static dielectric constant tensor:
#      x y z
#    x 3.759770 -0.356990 0.130560 
#    y -0.356990 3.916160 -0.136050 
#    z 0.130560 -0.136050 4.490600 
# 
# 
# High freq. dielectric constant tensor:
#      x y z
#    x 1.796030 -0.010430 -0.002990 
#    y -0.010430 1.823620 -0.014180 
#    z -0.002990 -0.014180 1.846100 
# 
# From -- ./inp_files/398608.got.cif
#   From: 2010.06.25/outbox.cif.g09.slc.cpg/sg2_200_cif.got.tgz:398608.got - 2010.06.27 13:26:56.
