data_PCOD8003856
_publ_section_title
;
Structure prediction by ZEFSAII (Michael W. Deem and Ramdas Pophale) SiO2 
 PCOD8003856
Probable space group: P -1
;
_chemical_formula_sum "Si O2"
_cell_formula_units_Z 16
_cell_length_a 10.470261
_cell_length_b 8.718936
_cell_length_c 11.808219
_cell_angle_alpha 69.131154
_cell_angle_beta 73.309550
_cell_angle_gamma 119.428790
_cell_volume 722.045948
_symmetry_space_group_name_H-M "P -1"
_symmetry_group_IT_number 2
_symmetry_cell_setting 'triclinic'
loop_
_space_group_symop_operation_xyz
x,y,z
-x,-y,-z
loop_
_atom_site_type_symbol
_atom_site_label
_atom_site_fract_x
_atom_site_fract_y
_atom_site_fract_z
Si Si1 0.936693 0.963761 0.255380
Si Si2 0.810497 0.911887 0.533692
Si Si3 0.666080 0.152240 0.500666
Si Si4 0.767383 0.275024 0.911320
Si Si5 0.345591 0.258844 0.153715
Si Si6 0.871301 0.609787 0.213537
Si Si7 0.583865 0.063031 0.798593
Si Si8 0.084573 0.396918 0.034568
O O1 0.797525 0.831771 0.430233
O O2 0.865092 0.780954 0.228351
O O3 0.148483 0.124540 0.187184
O O4 0.924119 0.137912 0.164410
O O5 0.664044 0.726062 0.709789
O O6 0.794775 0.098032 0.483027
O O7 0.000000 0.000000 0.500000
O O8 0.773702 0.397706 0.370071
O O9 0.601580 0.141281 0.646262
O O10 0.500000 0.000000 0.500000
O O11 0.726979 0.271617 0.789081
O O12 0.926316 0.277819 0.881718
O O13 0.800759 0.479029 0.911965
O O14 0.608875 0.049534 0.074055
O O15 0.393535 0.112935 0.150911
O O16 0.500000 0.500000 0.000000
O O17 0.793673 0.558266 0.117358
O O18 0.000000 0.500000 0.000000
#
# Coordination Sequence:
#
# PCOD8003856 Si02
#       8
#     2   2   2   2   2   2   2   2
#     4  11  21  41  61  98 129 168 226 278 331 409
#     4   9  21  42  66  95 132 177 225 271 333 410
#     4  11  24  44  69  96 137 179 225 279 341 408
#     4  10  20  39  63  93 127 171 226 271 331 397
#     4  10  20  37  61  93 133 172 215 278 337 390
#     4  11  23  41  65  98 131 175 225 283 340 402
#     4  10  21  39  61  97 133 168 224 278 332 396
#     4  10  21  37  63  89 121 171 219 266 331 395
#
# _framework density 22.159253
#
# number of rings (size 3 to 8) (size 9 to 14) (size 15 to 20)
#    0.000    1.750    1.250    3.375    0.000    3.500 
#   11.250    0.625    0.000    0.000    0.000    0.000 
#    0.000    0.000    0.000    0.000    0.000    0.000 
#
# Total GULP energy -198227.530729 kJ/mol
# GULP energy per Si atom -12389.220671 kJ/mol
# Density = 2.210882 g / cm^3
# Si number density = 22.159253 Si / 1000 Ang^3
#
#
#
# Elastic Constant Matrix: (Units=GPa)
#
#
# Indices 1 2 3 4 5 6 
#
# 1 67.4004 37.4506 34.4949 -4.7150 3.7339 -1.1632
# 2 37.4506 175.2360 89.0712 27.8128 18.5300 -3.0277
# 3 34.4949 89.0712 171.9679 24.1439 14.0120 -2.3607
# 4 -4.7150 27.8128 24.1439 46.5472 1.3971 9.2042
# 5 3.7339 18.5300 14.0120 1.3971 32.4082 1.0929
# 6 -1.1632 -3.0277 -2.3607 9.2042 1.0929 22.8114
#
#
#
# Elastic Compliance Matrix: (Units=1/GPa)
#
#
# Indices 1 2 3 4 5 6 
#
# 1 0.018609 -0.003641 -0.002788 0.005925 0.000964 -0.002260
# 2 -0.003641 0.009196 -0.003052 -0.004730 -0.003409 0.002791
# 3 -0.002788 -0.003052 0.008552 -0.003183 -0.001551 0.001696
# 4 0.005925 -0.004730 -0.003183 0.028947 0.002570 -0.012458
# 5 0.000964 -0.003409 -0.001551 0.002570 0.033362 -0.003199
# 6 -0.002260 0.002791 0.001696 -0.012458 -0.003199 0.049448
#
#
# Mechanical properties :
#
#
# Convention : Reuss Voigt Hill
#
# Bulk Modulus (GPa) = 57.49481 81.84865 69.67173
# Shear Modulus (GPa) = 28.92259 37.25920 33.09090
#
# Velocity S-wave (km/s) = 3.61670 4.10497 3.86854
# Velocity P-wave (km/s) = 6.59114 7.71262 7.17383
#
# Compressibility (1/GPa) = 0.01739287
#
# Stress axis : x y z
#
# Youngs Moduli (GPa) = 53.73773 108.74748 116.93261
#
# Poissons Ratio (x) = 0.39596 0.32603
# Poissons Ratio (y) = 0.19567 0.35693
# Poissons Ratio (z) = 0.14983 0.33195
#
# Static dielectric constant tensor:
#      x y z
#    x 4.073600 0.172290 0.055080 
#    y 0.172290 4.722630 0.753420 
#    z 0.055080 0.753420 4.872520 
# 
# 
# High freq. dielectric constant tensor:
#      x y z
#    x 1.860930 -0.006110 0.003470 
#    y -0.006110 1.867780 0.025450 
#    z 0.003470 0.025450 1.884920 
# 
# From -- ./inp_files/416858.got.cif
#   From: 2010.06.25/outbox.cif.g09.slc.cpg/sg2_209_cif.got.tgz:416858.got - 2010.06.27 13:26:56.
