data_PCOD8003278
_publ_section_title
;
Structure prediction by ZEFSAII (Michael W. Deem and Ramdas Pophale) SiO2 
 PCOD8003278
Probable space group: P -1
;
_chemical_formula_sum "Si O2"
_cell_formula_units_Z 16
_cell_length_a 18.961426
_cell_length_b 13.967528
_cell_length_c 11.541075
_cell_angle_alpha 36.549436
_cell_angle_beta 153.198219
_cell_angle_gamma 144.746081
_cell_volume 762.258248
_symmetry_space_group_name_H-M "P -1"
_symmetry_group_IT_number 2
_symmetry_cell_setting 'triclinic'
loop_
_space_group_symop_operation_xyz
x,y,z
-x,-y,-z
loop_
_atom_site_type_symbol
_atom_site_label
_atom_site_fract_x
_atom_site_fract_y
_atom_site_fract_z
Si Si1 0.727786 0.547963 0.186511
Si Si2 0.967887 0.298273 0.156016
Si Si3 0.070876 0.688508 0.667423
Si Si4 0.757595 0.565301 0.738179
Si Si5 0.599413 0.070877 0.754556
Si Si6 0.407849 0.875553 0.882277
Si Si7 0.408245 0.497619 0.218129
Si Si8 0.457575 0.230153 0.203499
O O1 0.618770 0.351935 0.249972
O O2 0.921592 0.581648 0.465697
O O3 0.702496 0.572840 0.989692
O O4 0.676336 0.680103 0.060580
O O5 0.998901 0.243539 0.386424
O O6 0.104641 0.276599 0.286038
O O7 0.779642 0.183664 0.958353
O O8 0.000000 0.500000 0.000000
O O9 0.208084 0.834298 0.648991
O O10 0.165204 0.575059 0.975573
O O11 0.591376 0.481363 0.493822
O O12 0.696384 0.625489 0.709873
O O13 0.519288 0.192921 0.454667
O O14 0.467432 0.974062 0.753869
O O15 0.630554 0.941040 0.834148
O O16 0.443104 0.698426 0.102302
O O17 0.500000 0.000000 0.000000
#
# Coordination Sequence:
#
# PCOD8003278 Si02
#       8
#     2   2   2   2   2   2   2   2
#     4  11  23  42  67  95 129 162 220 265 311 380
#     4  10  20  36  65  92 121 161 213 258 306 370
#     4  10  22  38  63  96 123 165 210 258 320 370
#     4   9  21  38  62  96 121 156 214 259 313 371
#     4  11  22  43  64  94 129 173 211 261 325 378
#     4  11  22  41  62  90 131 170 207 260 322 385
#     4  10  22  40  65  95 124 167 212 261 319 373
#     4  10  24  40  66  93 129 170 213 262 322 377
#
# _framework density 20.990261
#
# number of rings (size 3 to 8) (size 9 to 14) (size 15 to 20)
#    0.000    1.750    2.500    1.500    7.000    3.000 
#    6.750    1.875    0.000    0.000    0.000    0.000 
#    0.000    0.000    0.000    0.000    0.000    0.000 
#
# Total GULP energy -198292.661336 kJ/mol
# GULP energy per Si atom -12393.291333 kJ/mol
# Density = 2.094249 g / cm^3
# Si number density = 20.990261 Si / 1000 Ang^3
#
#
#
# Elastic Constant Matrix: (Units=GPa)
#
#
# Indices 1 2 3 4 5 6 
#
# 1 129.4581 30.3250 47.9710 19.3823 -13.5531 37.9985
# 2 30.3250 67.1140 36.4541 25.9069 4.1674 7.0292
# 3 47.9710 36.4541 119.0126 29.5185 -13.0004 6.3609
# 4 19.3823 25.9069 29.5185 32.9530 -2.2015 0.2946
# 5 -13.5531 4.1674 -13.0004 -2.2015 33.8011 4.9270
# 6 37.9985 7.0292 6.3609 0.2946 4.9270 41.6214
#
#
#
# Elastic Compliance Matrix: (Units=1/GPa)
#
#
# Indices 1 2 3 4 5 6 
#
# 1 0.014419 -0.002849 -0.002692 -0.003260 0.006788 -0.013052
# 2 -0.002849 0.024041 -0.003241 -0.014741 -0.006297 -0.000114
# 3 -0.002692 -0.003241 0.012537 -0.006866 0.003591 0.000712
# 4 -0.003260 -0.014741 -0.006866 0.049963 0.000230 0.006134
# 5 0.006788 -0.006297 0.003591 0.000230 0.035928 -0.009937
# 6 -0.013052 -0.000114 0.000712 0.006134 -0.009937 0.036985
#
#
# Mechanical properties :
#
#
# Convention : Reuss Voigt Hill
#
# Bulk Modulus (GPa) = 29.91013 60.56499 45.23756
# Shear Modulus (GPa) = 24.68143 35.06408 29.87275
#
# Velocity S-wave (km/s) = 3.43279 4.09160 3.77659
# Velocity P-wave (km/s) = 5.47654 7.15808 6.37301
#
# Compressibility (1/GPa) = 0.03343349
#
# Stress axis : x y z
#
# Youngs Moduli (GPa) = 69.35327 41.59565 79.76203
#
# Poissons Ratio (x) = 0.11852 0.21469
# Poissons Ratio (y) = 0.19761 0.25850
# Poissons Ratio (z) = 0.18667 0.13481
#
# Static dielectric constant tensor:
#      x y z
#    x 5.787830 0.965920 0.135350 
#    y 0.965920 4.036970 0.135040 
#    z 0.135350 0.135040 3.722230 
# 
# 
# High freq. dielectric constant tensor:
#      x y z
#    x 1.845790 0.013060 -0.010430 
#    y 0.013060 1.799040 0.011870 
#    z -0.010430 0.011870 1.814420 
# 
# From -- ./inp_files/471709.got.cif
#   From: 2010.06.25/outbox.cif.g09.slc.cpg/sg2_236_cif.got.tgz:471709.got - 2010.06.27 13:26:56.
