data_PCOD8003098
_publ_section_title
;
Structure prediction by ZEFSAII (Michael W. Deem and Ramdas Pophale) SiO2 
 PCOD8003098
Probable space group: P -1
;
_chemical_formula_sum "Si O2"
_cell_formula_units_Z 16
_cell_length_a 9.548646
_cell_length_b 10.260766
_cell_length_c 23.539261
_cell_angle_alpha 24.683393
_cell_angle_beta 124.006232
_cell_angle_gamma 123.778915
_cell_volume 790.750765
_symmetry_space_group_name_H-M "P -1"
_symmetry_group_IT_number 2
_symmetry_cell_setting 'triclinic'
loop_
_space_group_symop_operation_xyz
x,y,z
-x,-y,-z
loop_
_atom_site_type_symbol
_atom_site_label
_atom_site_fract_x
_atom_site_fract_y
_atom_site_fract_z
Si Si1 0.262827 0.236058 0.594569
Si Si2 0.414610 0.794729 0.611584
Si Si3 0.655470 0.194844 0.126759
Si Si4 0.441784 0.911533 0.359953
Si Si5 0.300632 0.125043 0.135292
Si Si6 0.512347 0.126470 0.889108
Si Si7 0.134786 0.762488 0.140186
Si Si8 0.945133 0.970769 0.563072
O O1 0.350433 0.582338 0.494155
O O2 0.381778 0.105270 0.625969
O O3 0.237592 0.052461 0.721720
O O4 0.074789 0.204577 0.538122
O O5 0.419812 0.433239 0.741680
O O6 0.500000 0.000000 0.500000
O O7 0.514592 0.857963 0.668617
O O8 0.227779 0.884331 0.533850
O O9 0.493207 0.182659 0.135211
O O10 0.598619 0.125816 0.076479
O O11 0.770076 0.539122 0.018607
O O12 0.302305 0.028445 0.239925
O O13 0.193799 0.851461 0.182680
O O14 0.708670 0.183413 0.890139
O O15 0.500000 0.000000 0.000000
O O16 0.062479 0.390761 0.272335
O O17 0.000000 0.000000 0.000000
O O18 0.000000 0.000000 0.500000
#
# Coordination Sequence:
#
# PCOD8003098 Si02
#       8
#     2   2   2   2   2   2   2   2
#     4  10  20  36  63  91 121 158 216 269 307 361
#     4  12  24  42  64  93 137 173 206 258 327 392
#     4   9  18  35  59  87 117 158 209 256 306 370
#     4  10  20  36  62  91 122 164 210 260 315 374
#     4   9  18  34  60  88 117 155 210 262 305 361
#     4  11  24  42  65  93 129 175 213 251 324 398
#     4  11  24  41  66  95 128 164 215 274 316 368
#     4  12  24  40  66 100 129 165 218 269 316 372
#
# _framework density 20.233934999999999
#
# number of rings (size 3 to 8) (size 9 to 14) (size 15 to 20)
#    0.000    1.500    2.500    3.000    5.250    2.000 
#    0.000    2.500    0.000    2.250    0.000    0.000 
#    0.000    0.000    0.000    0.000    0.000    0.000 
#
# Total GULP energy -198304.376704 kJ/mol
# GULP energy per Si atom -12394.023544 kJ/mol
# Density = 2.018788 g / cm^3
# Si number density = 20.233935 Si / 1000 Ang^3
#
#
#
# Elastic Constant Matrix: (Units=GPa)
#
#
# Indices 1 2 3 4 5 6 
#
# 1 90.1811 27.1968 39.2495 8.8665 6.2212 0.0045
# 2 27.1968 83.1494 15.3927 10.9510 -5.5521 2.4605
# 3 39.2495 15.3927 114.4334 10.9513 8.0447 -6.7292
# 4 8.8665 10.9510 10.9513 41.9675 -5.1737 0.7680
# 5 6.2212 -5.5521 8.0447 -5.1737 29.0204 6.6893
# 6 0.0045 2.4605 -6.7292 0.7680 6.6893 23.1163
#
#
#
# Elastic Compliance Matrix: (Units=1/GPa)
#
#
# Indices 1 2 3 4 5 6 
#
# 1 0.014392 -0.003988 -0.004055 -0.001314 -0.002993 0.000151
# 2 -0.003988 0.014104 -0.000781 -0.002083 0.004051 -0.002831
# 3 -0.004055 -0.000781 0.010987 -0.002353 -0.003771 0.004452
# 4 -0.001314 -0.002083 -0.002353 0.026043 0.005876 -0.003029
# 5 -0.002993 0.004051 -0.003771 0.005876 0.041108 -0.013619
# 6 0.000151 -0.002831 0.004452 -0.003029 -0.013619 0.048898
#
#
# Mechanical properties :
#
#
# Convention : Reuss Voigt Hill
#
# Bulk Modulus (GPa) = 45.79924 50.16022 47.97973
# Shear Modulus (GPa) = 27.70728 32.54917 30.12823
#
# Velocity S-wave (km/s) = 3.70448 4.01514 3.86294
# Velocity P-wave (km/s) = 6.40169 6.80728 6.60760
#
# Compressibility (1/GPa) = 0.02183442
#
# Stress axis : x y z
#
# Youngs Moduli (GPa) = 69.48336 70.90097 91.01966
#
# Poissons Ratio (x) = 0.28276 0.36907
# Poissons Ratio (y) = 0.27710 0.07111
# Poissons Ratio (z) = 0.28174 0.05539
#
# Static dielectric constant tensor:
#      x y z
#    x 3.376420 -0.114330 -0.142680 
#    y -0.114330 3.527850 -0.149040 
#    z -0.142680 -0.149040 3.893430 
# 
# 
# High freq. dielectric constant tensor:
#      x y z
#    x 1.757580 -0.003080 -0.008690 
#    y -0.003080 1.801180 0.004730 
#    z -0.008690 0.004730 1.808240 
# 
# From -- ./inp_files/333632.got.cif
#   From: 2010.06.25/outbox.cif.g09.slc.cpg/sg2_167_cif.got.tgz:333632.got - 2010.06.27 13:26:56.
