data_PCOD8003476
_publ_section_title
;
Structure prediction by ZEFSAII (Michael W. Deem and Ramdas Pophale) SiO2 
 PCOD8003476
Probable space group: P -1
;
_chemical_formula_sum "Si O2"
_cell_formula_units_Z 16
_cell_length_a 9.377950
_cell_length_b 14.546699
_cell_length_c 14.359865
_cell_angle_alpha 151.296924
_cell_angle_beta 116.171215
_cell_angle_gamma 64.675423
_cell_volume 840.563929
_symmetry_space_group_name_H-M "P -1"
_symmetry_group_IT_number 2
_symmetry_cell_setting 'triclinic'
loop_
_space_group_symop_operation_xyz
x,y,z
-x,-y,-z
loop_
_atom_site_type_symbol
_atom_site_label
_atom_site_fract_x
_atom_site_fract_y
_atom_site_fract_z
Si Si1 0.188991 0.963331 0.871125
Si Si2 0.087478 0.074588 0.474393
Si Si3 0.843779 0.356331 0.554365
Si Si4 0.683326 0.712107 0.921599
Si Si5 0.679599 0.205030 0.056087
Si Si6 0.823020 0.955606 0.726115
Si Si7 0.921630 0.718347 0.165179
Si Si8 0.098894 0.463662 0.589001
O O1 0.241203 0.758714 0.653503
O O2 0.233511 0.937712 0.969260
O O3 0.999912 0.020851 0.855844
O O4 0.286059 0.129539 0.005544
O O5 0.207483 0.047940 0.397285
O O6 0.159547 0.202338 0.690362
O O7 0.920875 0.193576 0.502246
O O8 0.057723 0.860667 0.309365
O O9 0.716891 0.500389 0.699174
O O10 0.980586 0.476466 0.655602
O O11 0.500985 0.734462 0.917343
O O12 0.789104 0.735322 0.063096
O O13 0.768802 0.392681 0.234250
O O14 0.689030 0.096876 0.863303
O O15 0.808140 0.746238 0.577597
O O16 0.000000 0.500000 0.000000
O O17 0.000000 0.500000 0.500000
#
# Coordination Sequence:
#
# PCOD8003476 Si02
#       8
#     2   2   2   2   2   2   2   2
#     4  10  21  39  57  84 119 161 197 228 283 348
#     4   9  20  38  62  89 104 145 205 242 283 336
#     4  10  20  37  61  82 118 153 197 243 275 346
#     4  12  24  36  57  92 122 150 191 245 301 343
#     4  12  24  36  56  90 126 158 186 238 296 339
#     4  10  21  38  63  82 115 155 201 239 274 349
#     4  11  20  37  65  89 110 147 195 247 293 345
#     4  10  20  37  58  83 111 160 207 228 271 345
#
# _framework density 19.034839000000002
#
# number of rings (size 3 to 8) (size 9 to 14) (size 15 to 20)
#    0.000    1.750    6.250    1.500    1.750    1.500 
#    0.000    0.625    0.000    5.250    0.000    0.000 
#    0.000    0.000    0.000    0.000    0.000    0.000 
#
# Total GULP energy -198369.407377 kJ/mol
# GULP energy per Si atom -12398.087961 kJ/mol
# Density = 1.899152 g / cm^3
# Si number density = 19.034839 Si / 1000 Ang^3
#
#
#
# Elastic Constant Matrix: (Units=GPa)
#
#
# Indices 1 2 3 4 5 6 
#
# 1 81.0735 22.7512 45.9713 17.8792 -21.8826 9.2887
# 2 22.7512 64.0693 33.1149 9.0892 3.5214 21.2908
# 3 45.9713 33.1149 113.2874 12.7247 -18.6910 16.9621
# 4 17.8792 9.0892 12.7247 34.2513 8.0397 1.5252
# 5 -21.8826 3.5214 -18.6910 8.0397 28.2188 1.1972
# 6 9.2887 21.2908 16.9621 1.5252 1.1972 21.6372
#
#
#
# Elastic Compliance Matrix: (Units=1/GPa)
#
#
# Indices 1 2 3 4 5 6 
#
# 1 0.025887 -0.005621 -0.002465 -0.016576 0.024027 -0.003810
# 2 -0.005621 0.027026 -0.004264 0.000565 -0.009854 -0.020332
# 3 -0.002465 -0.004264 0.014087 -0.004795 0.009571 -0.005981
# 4 -0.016576 0.000565 -0.004795 0.046037 -0.029587 0.008711
# 5 0.024027 -0.009854 0.009571 -0.029587 0.070490 -0.009936
# 6 -0.003810 -0.020332 -0.005981 0.008711 -0.009936 0.072484
#
#
# Mechanical properties :
#
#
# Convention : Reuss Voigt Hill
#
# Bulk Modulus (GPa) = 23.64090 51.34499 37.49295
# Shear Modulus (GPa) = 16.95997 27.26097 22.11047
#
# Velocity S-wave (km/s) = 2.98819 3.78850 3.41189
# Velocity P-wave (km/s) = 4.93483 6.79483 5.93811
#
# Compressibility (1/GPa) = 0.04229958
#
# Stress axis : x y z
#
# Youngs Moduli (GPa) = 38.62935 37.00117 70.98708
#
# Poissons Ratio (x) = 0.20800 0.17499
# Poissons Ratio (y) = 0.21715 0.30268
# Poissons Ratio (z) = 0.09523 0.15777
#
# Static dielectric constant tensor:
#      x y z
#    x 3.233870 0.328850 -0.129870 
#    y 0.328850 3.579730 -0.058320 
#    z -0.129870 -0.058320 3.709400 
# 
# 
# High freq. dielectric constant tensor:
#      x y z
#    x 1.705640 0.030020 -0.010920 
#    y 0.030020 1.739070 0.004450 
#    z -0.010920 0.004450 1.756450 
# 
# From -- ./inp_files/267300.got.cif
#   From: 2010.06.25/outbox.cif.g09.slc.cpg/sg2_134_cif.got.tgz:267300.got - 2010.06.27 13:26:56.
