data_PCOD8003505
_publ_section_title
;
Structure prediction by ZEFSAII (Michael W. Deem and Ramdas Pophale) SiO2 
 PCOD8003505
Probable space group: P -1
;
_chemical_formula_sum "Si O2"
_cell_formula_units_Z 16
_cell_length_a 8.872603
_cell_length_b 9.236781
_cell_length_c 19.687897
_cell_angle_alpha 31.269376
_cell_angle_beta 64.552375
_cell_angle_gamma 65.108785
_cell_volume 751.287749
_symmetry_space_group_name_H-M "P -1"
_symmetry_group_IT_number 2
_symmetry_cell_setting 'triclinic'
loop_
_space_group_symop_operation_xyz
x,y,z
-x,-y,-z
loop_
_atom_site_type_symbol
_atom_site_label
_atom_site_fract_x
_atom_site_fract_y
_atom_site_fract_z
Si Si1 0.725244 0.557343 0.494830
Si Si2 0.159559 0.366836 0.344174
Si Si3 0.824802 0.142578 0.256736
Si Si4 0.855396 0.138487 0.748060
Si Si5 0.643252 0.568907 0.356638
Si Si6 0.896879 0.220775 0.357380
Si Si7 0.488080 0.046821 0.881544
Si Si8 0.498406 0.467913 0.829423
O O1 0.835581 0.297908 0.614609
O O2 0.757024 0.576712 0.399429
O O3 0.530806 0.542882 0.548672
O O4 0.770592 0.839361 0.407761
O O5 0.112420 0.648686 0.283333
O O6 0.357277 0.339074 0.297454
O O7 0.056217 0.368627 0.293234
O O8 0.096119 0.113019 0.500512
O O9 0.887121 0.290137 0.252311
O O10 0.659809 0.339117 0.183785
O O11 0.982542 0.098071 0.191668
O O12 0.689495 0.992455 0.854212
O O13 0.730570 0.344382 0.378500
O O14 0.607922 0.871297 0.203829
O O15 0.441974 0.302258 0.840794
O O16 0.428739 0.759486 0.036769
#
# Coordination Sequence:
#
# PCOD8003505 Si02
#       8
#     2   2   2   2   2   2   2   2
#     4  10  21  34  58  88 124 154 184 238 303 350
#     4  10  22  38  59  88 122 153 187 240 294 345
#     4  12  22  35  60  90 119 152 194 236 294 349
#     4  10  21  37  59  87 122 153 187 237 298 346
#     4  10  20  37  58  88 118 154 196 239 289 345
#     4  11  22  34  60  90 123 147 193 241 292 343
#     4   9  20  41  63  81 114 158 199 242 283 339
#     4  10  21  40  64  84 111 157 205 237 282 342
#
# _framework density 21.296766999999999
#
# number of rings (size 3 to 8) (size 9 to 14) (size 15 to 20)
#    0.000    1.750    2.500    1.875    3.500    1.500 
#    2.250    1.250    2.750    0.000    0.000    0.000 
#    0.000    0.000    0.000    0.000    0.000    0.000 
#
# Total GULP energy -198310.868000 kJ/mol
# GULP energy per Si atom -12394.429250 kJ/mol
# Density = 2.124829 g / cm^3
# Si number density = 21.296767 Si / 1000 Ang^3
#
#
#
# Elastic Constant Matrix: (Units=GPa)
#
#
# Indices 1 2 3 4 5 6 
#
# 1 67.5476 33.1182 17.6760 -3.0447 -0.0747 5.3379
# 2 33.1182 112.3491 14.0221 -3.8562 4.8204 -11.9971
# 3 17.6760 14.0221 47.6641 5.2768 -2.0376 2.5744
# 4 -3.0447 -3.8562 5.2768 17.9547 2.9343 5.7864
# 5 -0.0747 4.8204 -2.0376 2.9343 16.9937 0.7645
# 6 5.3379 -11.9971 2.5744 5.7864 0.7645 43.1794
#
#
#
# Elastic Compliance Matrix: (Units=1/GPa)
#
#
# Indices 1 2 3 4 5 6 
#
# 1 0.019552 -0.005285 -0.006048 0.005302 0.000135 -0.004238
# 2 -0.005285 0.011319 -0.001908 0.001515 -0.003894 0.003778
# 3 -0.006048 -0.001908 0.025076 -0.009628 0.005187 -0.000079
# 4 0.005302 0.001515 -0.009628 0.064362 -0.012311 -0.008068
# 5 0.000135 -0.003894 0.005187 -0.012311 0.062738 -0.000869
# 6 -0.004238 0.003778 -0.000079 -0.008068 -0.000869 0.025834
#
#
# Mechanical properties :
#
#
# Convention : Reuss Voigt Hill
#
# Bulk Modulus (GPa) = 33.93888 39.68817 36.81352
# Shear Modulus (GPa) = 20.39262 26.47518 23.43390
#
# Velocity S-wave (km/s) = 3.09778 3.52967 3.32075
# Velocity P-wave (km/s) = 5.36337 5.94034 5.65921
#
# Compressibility (1/GPa) = 0.02946473
#
# Stress axis : x y z
#
# Youngs Moduli (GPa) = 51.14460 88.34337 39.87811
#
# Poissons Ratio (x) = 0.46691 0.24120
# Poissons Ratio (y) = 0.27031 0.07610
# Poissons Ratio (z) = 0.30934 0.16859
#
# Static dielectric constant tensor:
#      x y z
#    x 3.996970 0.049900 0.093270 
#    y 0.049900 3.879020 0.127900 
#    z 0.093270 0.127900 3.578870 
# 
# 
# High freq. dielectric constant tensor:
#      x y z
#    x 1.838120 -0.008410 0.000880 
#    y -0.008410 1.835970 0.004290 
#    z 0.000880 0.004290 1.802700 
# 
# From -- ./inp_files/346209.got.cif
#   From: 2010.06.25/outbox.cif.g09.slc.cpg/sg2_174_cif.got.tgz:346209.got - 2010.06.27 13:26:56.
