data_PCOD8003344
_publ_section_title
;
Structure prediction by ZEFSAII (Michael W. Deem and Ramdas Pophale) SiO2 
 PCOD8003344
Probable space group: P -1
;
_chemical_formula_sum "Si O2"
_cell_formula_units_Z 16
_cell_length_a 10.693688
_cell_length_b 15.447359
_cell_length_c 9.861919
_cell_angle_alpha 57.898881
_cell_angle_beta 113.197939
_cell_angle_gamma 62.893927
_cell_volume 659.868099
_symmetry_space_group_name_H-M "P -1"
_symmetry_group_IT_number 2
_symmetry_cell_setting 'triclinic'
loop_
_space_group_symop_operation_xyz
x,y,z
-x,-y,-z
loop_
_atom_site_type_symbol
_atom_site_label
_atom_site_fract_x
_atom_site_fract_y
_atom_site_fract_z
Si Si1 0.740593 0.628224 0.617290
Si Si2 0.666086 0.248742 0.770645
Si Si3 0.734079 0.209833 0.136959
Si Si4 0.611494 0.957847 0.937327
Si Si5 0.270014 0.391104 0.061535
Si Si6 0.172756 0.680700 0.732482
Si Si7 0.392174 0.916813 0.736588
Si Si8 0.943527 0.184009 0.725003
O O1 0.628410 0.609273 0.488285
O O2 0.564592 0.841542 0.368832
O O3 0.032248 0.475651 0.829239
O O4 0.742514 0.582070 0.807595
O O5 0.712567 0.312835 0.630033
O O6 0.745638 0.238871 0.961661
O O7 0.848352 0.038482 0.980618
O O8 0.632205 0.373182 0.046253
O O9 0.552554 0.225348 0.040750
O O10 0.000000 0.000000 0.500000
O O11 0.603181 0.863328 0.919724
O O12 0.500000 0.000000 0.000000
O O13 0.913454 0.799146 0.203991
O O14 0.271392 0.502741 0.901663
O O15 0.536853 0.159410 0.325535
O O16 0.154087 0.753170 0.523057
O O17 0.898476 0.853646 0.555442
#
# Coordination Sequence:
#
# PCOD8003344 Si02
#       8
#     2   2   2   2   2   2   2   2
#     4  10  23  44  64  96 146 171 222 293 326 403
#     4  10  20  39  66 100 137 178 223 279 344 396
#     4  10  21  39  67 102 135 172 229 281 328 408
#     4  11  19  40  70  96 132 174 222 279 336 394
#     4  11  25  44  67 102 134 181 227 277 341 400
#     4  11  22  44  70  98 137 174 229 281 333 403
#     4  11  22  40  72  97 126 180 224 276 338 397
#     4  10  20  36  70 101 130 182 221 275 345 399
#
# _framework density 24.24727
#
# number of rings (size 3 to 8) (size 9 to 14) (size 15 to 20)
#    0.000    1.500    5.000    0.750    1.750    4.000 
#    4.500    6.250    0.000    0.000    0.000    0.000 
#    0.000    0.000    0.000    0.000    0.000    0.000 
#
# Total GULP energy -198259.555770 kJ/mol
# GULP energy per Si atom -12391.222236 kJ/mol
# Density = 2.419208 g / cm^3
# Si number density = 24.247270 Si / 1000 Ang^3
#
#
#
# Elastic Constant Matrix: (Units=GPa)
#
#
# Indices 1 2 3 4 5 6 
#
# 1 159.6137 42.6299 44.3044 24.3389 9.6739 11.8309
# 2 42.6299 63.5827 37.5376 23.5033 -0.6909 14.0803
# 3 44.3044 37.5376 78.7968 18.3411 9.9253 0.3323
# 4 24.3389 23.5033 18.3411 37.7463 4.7823 1.7238
# 5 9.6739 -0.6909 9.9253 4.7823 27.6711 4.1907
# 6 11.8309 14.0803 0.3323 1.7238 4.1907 30.8492
#
#
#
# Elastic Compliance Matrix: (Units=1/GPa)
#
#
# Indices 1 2 3 4 5 6 
#
# 1 0.008279 -0.002991 -0.002579 -0.001968 -0.001481 -0.001471
# 2 -0.002991 0.033454 -0.012405 -0.013585 0.010906 -0.014711
# 3 -0.002579 -0.012405 0.021077 -0.000174 -0.008079 0.007531
# 4 -0.001968 -0.013585 -0.000174 0.036907 -0.006849 0.005825
# 5 -0.001481 0.010906 -0.008079 -0.006849 0.042481 -0.009711
# 6 -0.001471 -0.014711 0.007531 0.005825 -0.009711 0.040607
#
#
# Mechanical properties :
#
#
# Convention : Reuss Voigt Hill
#
# Bulk Modulus (GPa) = 37.23058 61.21522 49.22290
# Shear Modulus (GPa) = 21.95786 31.08807 26.52297
#
# Velocity S-wave (km/s) = 3.01255 3.58456 3.31093
# Velocity P-wave (km/s) = 5.24295 6.51408 5.91277
#
# Compressibility (1/GPa) = 0.02685964
#
# Stress axis : x y z
#
# Youngs Moduli (GPa) = 120.79209 29.89148 47.44464
#
# Poissons Ratio (x) = 0.08940 0.12237
# Poissons Ratio (y) = 0.36126 0.58856
# Poissons Ratio (z) = 0.31155 0.37081
#
# Static dielectric constant tensor:
#      x y z
#    x 6.535710 1.483380 -0.126780 
#    y 1.483380 5.424040 -0.202920 
#    z -0.126780 -0.202920 4.333180 
# 
# 
# High freq. dielectric constant tensor:
#      x y z
#    x 1.984450 0.007220 0.007750 
#    y 0.007220 1.953680 0.008880 
#    z 0.007750 0.008880 1.942690 
# 
# From -- ./inp_files/272673.got.cif
#   From: 2010.06.25/outbox.cif.g09.slc.cpg/sg2_137_cif.got.tgz:272673.got - 2010.06.27 13:26:56.
