data_PCOD8003792
_publ_section_title
;
Structure prediction by ZEFSAII (Michael W. Deem and Ramdas Pophale) SiO2 
 PCOD8003792
Probable space group: P -1
;
_chemical_formula_sum "Si O2"
_cell_formula_units_Z 16
_cell_length_a 23.303417
_cell_length_b 13.832546
_cell_length_c 9.523517
_cell_angle_alpha 132.288775
_cell_angle_beta 47.695558
_cell_angle_gamma 159.596011
_cell_volume 780.962783
_symmetry_space_group_name_H-M "P -1"
_symmetry_group_IT_number 2
_symmetry_cell_setting 'triclinic'
loop_
_space_group_symop_operation_xyz
x,y,z
-x,-y,-z
loop_
_atom_site_type_symbol
_atom_site_label
_atom_site_fract_x
_atom_site_fract_y
_atom_site_fract_z
Si Si1 0.122968 0.511872 0.824347
Si Si2 0.403196 0.744597 0.490815
Si Si3 0.240250 0.073279 0.804684
Si Si4 0.608302 0.285038 0.046495
Si Si5 0.406383 0.096849 0.410820
Si Si6 0.134905 0.522510 0.143408
Si Si7 0.766793 0.046714 0.997489
Si Si8 0.417043 0.593119 0.057738
O O1 0.223401 0.531752 0.632710
O O2 0.922353 0.198798 0.820208
O O3 0.146457 0.580335 0.017496
O O4 0.187493 0.731650 0.843295
O O5 0.375915 0.582033 0.271608
O O6 0.500000 0.000000 0.500000
O O7 0.518143 0.871703 0.553762
O O8 0.361758 0.177953 0.601708
O O9 0.274548 0.279080 0.938395
O O10 0.051722 0.758486 0.765952
O O11 0.279108 0.082271 0.904573
O O12 0.549045 0.318569 0.272020
O O13 0.798965 0.528075 0.996397
O O14 0.580099 0.276887 0.922143
O O15 0.500000 0.000000 0.000000
O O16 0.239954 0.777529 0.316066
O O17 0.594994 0.783557 0.936005
#
# Coordination Sequence:
#
# PCOD8003792 Si02
#       8
#     2   2   2   2   2   2   2   2
#     4  10  20  37  62  95 119 155 208 258 302 354
#     4  12  21  36  64  97 116 154 210 254 302 362
#     4  11  24  40  58  90 129 167 198 253 311 368
#     4  10  21  39  63  89 117 160 205 259 301 360
#     4  11  21  37  65  89 119 162 211 251 296 366
#     4  10  21  39  63  90 123 158 210 256 302 354
#     4  10  20  37  61  87 126 159 195 252 309 360
#     4  12  24  40  63  90 129 162 201 253 315 366
#
# _framework density 20.487532000000002
#
# number of rings (size 3 to 8) (size 9 to 14) (size 15 to 20)
#    0.000    1.250    3.750    3.750    0.000    1.000 
#    0.000    7.500    0.000    0.000    0.000    0.000 
#    0.000    0.000    0.000    0.000    0.000    0.000 
#
# Total GULP energy -198328.337817 kJ/mol
# GULP energy per Si atom -12395.521114 kJ/mol
# Density = 2.044090 g / cm^3
# Si number density = 20.487532 Si / 1000 Ang^3
#
#
#
# Elastic Constant Matrix: (Units=GPa)
#
#
# Indices 1 2 3 4 5 6 
#
# 1 93.8659 30.0761 25.9673 -1.9689 4.1549 13.6979
# 2 30.0761 49.9561 29.6679 -3.1018 -12.4066 7.0919
# 3 25.9673 29.6679 97.2072 -8.6990 -15.5921 -2.2040
# 4 -1.9689 -3.1018 -8.6990 29.1255 4.5183 -7.1471
# 5 4.1549 -12.4066 -15.5921 4.5183 33.0031 -6.9220
# 6 13.6979 7.0919 -2.2040 -7.1471 -6.9220 26.2670
#
#
#
# Elastic Compliance Matrix: (Units=1/GPa)
#
#
# Indices 1 2 3 4 5 6 
#
# 1 0.015982 -0.008547 -0.003380 -0.001737 -0.008475 -0.009016
# 2 -0.008547 0.031309 -0.005850 -0.001045 0.009764 -0.002198
# 3 -0.003380 -0.005850 0.014495 0.004342 0.006017 0.007325
# 4 -0.001737 -0.001045 0.004342 0.038432 -0.000916 0.011768
# 5 -0.008475 0.009764 0.006017 -0.000916 0.040682 0.012760
# 6 -0.009016 -0.002198 0.007325 0.011768 0.012760 0.050545
#
#
# Mechanical properties :
#
#
# Convention : Reuss Voigt Hill
#
# Bulk Modulus (GPa) = 38.11996 45.82800 41.97398
# Shear Modulus (GPa) = 21.20951 28.03363 24.62157
#
# Velocity S-wave (km/s) = 3.22101 3.70310 3.47044
# Velocity P-wave (km/s) = 5.69912 6.37975 6.04902
#
# Compressibility (1/GPa) = 0.02623297
#
# Stress axis : x y z
#
# Youngs Moduli (GPa) = 62.57188 31.93920 68.98825
#
# Poissons Ratio (x) = 0.27299 0.23317
# Poissons Ratio (y) = 0.53481 0.40355
# Poissons Ratio (z) = 0.21149 0.18683
#
# Static dielectric constant tensor:
#      x y z
#    x 3.867830 0.353980 -0.114190 
#    y 0.353980 3.741390 -0.446740 
#    z -0.114190 -0.446740 3.984930 
# 
# 
# High freq. dielectric constant tensor:
#      x y z
#    x 1.809340 0.021940 0.000110 
#    y 0.021940 1.784690 -0.025750 
#    z 0.000110 -0.025750 1.789100 
# 
# From -- ./inp_files/354580.got.cif
#   From: 2010.06.25/outbox.cif.g09.slc.cpg/sg2_178_cif.got.tgz:354580.got - 2010.06.27 13:26:56.
