data_PCOD8003825
_publ_section_title
;
Structure prediction by ZEFSAII (Michael W. Deem and Ramdas Pophale) SiO2 
 PCOD8003825
Probable space group: P -1
;
_chemical_formula_sum "Si O2"
_cell_formula_units_Z 16
_cell_length_a 22.469744
_cell_length_b 14.130660
_cell_length_c 9.042056
_cell_angle_alpha 133.860294
_cell_angle_beta 134.134375
_cell_angle_gamma 22.406651
_cell_volume 772.652776
_symmetry_space_group_name_H-M "P -1"
_symmetry_group_IT_number 2
_symmetry_cell_setting 'triclinic'
loop_
_space_group_symop_operation_xyz
x,y,z
-x,-y,-z
loop_
_atom_site_type_symbol
_atom_site_label
_atom_site_fract_x
_atom_site_fract_y
_atom_site_fract_z
Si Si1 0.329965 0.719749 0.130480
Si Si2 0.548773 0.199775 0.043540
Si Si3 0.245159 0.962020 0.549428
Si Si4 0.783795 0.950686 0.954264
Si Si5 0.935954 0.534445 0.582003
Si Si6 0.837521 0.103883 0.419557
Si Si7 0.644207 0.751065 0.381537
Si Si8 0.820241 0.286304 0.325622
O O1 0.488306 0.427200 0.134240
O O2 0.268701 0.888720 0.343766
O O3 0.344125 0.804852 0.112944
O O4 0.204503 0.777924 0.925472
O O5 0.622490 0.111606 0.241646
O O6 0.421498 0.253757 0.871016
O O7 0.686014 0.983549 0.926256
O O8 0.265667 0.806668 0.522860
O O9 0.067143 0.260598 0.583059
O O10 0.918157 0.687438 0.816634
O O11 0.881157 0.922108 0.192013
O O12 0.760959 0.700561 0.452811
O O13 0.000000 0.500000 0.500000
O O14 0.991676 0.963512 0.601208
O O15 0.744219 0.333729 0.400614
O O16 0.746687 0.527064 0.430399
O O17 0.500000 0.000000 0.500000
#
# Coordination Sequence:
#
# PCOD8003825 Si02
#       8
#     2   2   2   2   2   2   2   2
#     4  10  20  37  61  90 126 168 203 256 320 376
#     4  10  22  39  62  94 120 161 218 263 306 366
#     4  11  22  38  62  93 129 165 205 261 319 373
#     4  10  20  37  64  88 123 166 211 253 308 371
#     4  12  24  42  64  93 128 168 212 254 316 382
#     4   9  19  36  58  94 122 154 211 265 306 359
#     4  11  22  41  64  92 125 169 210 256 313 376
#     4   9  19  37  60  90 125 154 210 259 308 363
#
# _framework density 20.707878999999998
#
# number of rings (size 3 to 8) (size 9 to 14) (size 15 to 20)
#    0.000    1.750    3.750    0.750    0.000    4.500 
#    0.000    0.625    0.000    0.000    0.000    0.000 
#    0.000    0.000    0.000    0.000    0.000    0.000 
#
# Total GULP energy -198241.201271 kJ/mol
# GULP energy per Si atom -12390.075079 kJ/mol
# Density = 2.066075 g / cm^3
# Si number density = 20.707879 Si / 1000 Ang^3
#
#
#
# Elastic Constant Matrix: (Units=GPa)
#
#
# Indices 1 2 3 4 5 6 
#
# 1 95.0528 10.4895 33.5630 -8.2903 1.3710 -3.1007
# 2 10.4895 62.2615 30.4858 -5.6250 -3.1378 -3.4379
# 3 33.5630 30.4858 99.5713 -16.1791 -7.3314 -3.6779
# 4 -8.2903 -5.6250 -16.1791 35.0241 -1.4419 2.5252
# 5 1.3710 -3.1378 -7.3314 -1.4419 27.1222 -2.3347
# 6 -3.1007 -3.4379 -3.6779 2.5252 -2.3347 22.3674
#
#
#
# Elastic Compliance Matrix: (Units=1/GPa)
#
#
# Indices 1 2 3 4 5 6 
#
# 1 0.012061 -0.000032 -0.004002 0.000882 -0.001584 0.000744
# 2 -0.000032 0.019002 -0.005612 0.000341 0.000877 0.002047
# 3 -0.004002 -0.005612 0.014192 0.004805 0.003710 0.000761
# 4 0.000882 0.000341 0.004805 0.031313 0.002762 -0.002282
# 5 -0.001584 0.000877 0.003710 0.002762 0.038566 0.004239
# 6 0.000744 0.002047 0.000761 -0.002282 0.004239 0.045951
#
#
# Mechanical properties :
#
#
# Convention : Reuss Voigt Hill
#
# Bulk Modulus (GPa) = 38.51248 45.10690 41.80969
# Shear Modulus (GPa) = 26.45066 29.05923 27.75494
#
# Velocity S-wave (km/s) = 3.57784 3.75012 3.66499
# Velocity P-wave (km/s) = 5.97548 6.37032 6.17605
#
# Compressibility (1/GPa) = 0.02596561
#
# Stress axis : x y z
#
# Youngs Moduli (GPa) = 82.91199 52.62506 70.46156
#
# Poissons Ratio (x) = 0.00167 0.28195
# Poissons Ratio (y) = 0.00263 0.39541
# Poissons Ratio (z) = 0.33177 0.29532
#
# Static dielectric constant tensor:
#      x y z
#    x 3.778000 0.233140 0.085670 
#    y 0.233140 3.737430 -0.186750 
#    z 0.085670 -0.186750 3.845810 
# 
# 
# High freq. dielectric constant tensor:
#      x y z
#    x 1.796970 0.011400 0.005950 
#    y 0.011400 1.798390 -0.014970 
#    z 0.005950 -0.014970 1.818340 
# 
# From -- ./inp_files/333459.got.cif
#   From: 2010.06.25/outbox.cif.g09.slc.cpg/sg2_167_cif.got.tgz:333459.got - 2010.06.27 13:26:56.
