data_PCOD8003806
_publ_section_title
;
Structure prediction by ZEFSAII (Michael W. Deem and Ramdas Pophale) SiO2 
 PCOD8003806
Probable space group: P -1
;
_chemical_formula_sum "Si O2"
_cell_formula_units_Z 16
_cell_length_a 13.104231
_cell_length_b 5.001268
_cell_length_c 11.605436
_cell_angle_alpha 81.477621
_cell_angle_beta 110.197787
_cell_angle_gamma 84.606929
_cell_volume 697.254139
_symmetry_space_group_name_H-M "P -1"
_symmetry_group_IT_number 2
_symmetry_cell_setting 'triclinic'
loop_
_space_group_symop_operation_xyz
x,y,z
-x,-y,-z
loop_
_atom_site_type_symbol
_atom_site_label
_atom_site_fract_x
_atom_site_fract_y
_atom_site_fract_z
Si Si1 0.548777 0.756105 0.454894
Si Si2 0.120599 0.835036 0.324823
Si Si3 0.405977 0.537876 0.824909
Si Si4 0.346058 0.019517 0.939164
Si Si5 0.120579 0.190116 0.728798
Si Si6 0.751129 0.684100 0.674729
Si Si7 0.422480 0.118744 0.208446
Si Si8 0.820285 0.295093 0.385139
O O1 0.500000 0.500000 0.500000
O O2 0.680896 0.712145 0.525286
O O3 0.500000 0.000000 0.500000
O O4 0.508979 0.851573 0.304246
O O5 0.188139 0.628317 0.271883
O O6 0.148976 0.715373 0.469647
O O7 0.990798 0.861469 0.249076
O O8 0.154139 0.130665 0.304690
O O9 0.422602 0.219131 0.892838
O O10 0.515077 0.623883 0.807572
O O11 0.310107 0.594651 0.687800
O O12 0.374015 0.716851 0.916442
O O13 0.217848 0.134794 0.863501
O O14 0.365034 0.011135 0.082723
O O15 0.107952 0.503314 0.662829
O O16 0.147566 0.002456 0.638931
O O17 0.671316 0.766275 0.745141
#
# Coordination Sequence:
#
# PCOD8003806 Si02
#       8
#     2   2   2   2   2   2   2   2
#     4  10  22  39  58  84 117 156 198 240 289 352
#     4  12  22  39  60  88 122 159 200 248 295 354
#     4  10  22  38  62  92 121 155 202 252 302 363
#     4  10  23  40  62  92 119 155 209 252 298 362
#     4  10  21  39  62  89 119 153 199 254 300 347
#     4  11  25  38  57  90 121 158 204 239 291 367
#     4  11  23  42  63  86 126 167 194 247 308 357
#     4  10  20  37  61  89 117 153 195 248 311 356
#
# _framework density 22.947154999999999
#
# number of rings (size 3 to 8) (size 9 to 14) (size 15 to 20)
#    0.000    1.500    0.000    5.250    0.000    9.000 
#    0.000    1.250    0.000    0.000    0.000    0.000 
#    0.000    0.000    0.000    0.000    0.000    0.000 
#
# Total GULP energy -198466.950655 kJ/mol
# GULP energy per Si atom -12404.184416 kJ/mol
# Density = 2.289493 g / cm^3
# Si number density = 22.947155 Si / 1000 Ang^3
#
#
#
# Elastic Constant Matrix: (Units=GPa)
#
#
# Indices 1 2 3 4 5 6 
#
# 1 102.5673 5.0004 25.3259 5.9850 2.2103 26.0887
# 2 5.0004 103.8207 15.1714 -3.5254 4.3983 22.4095
# 3 25.3259 15.1714 109.1980 6.1196 -1.2058 13.0968
# 4 5.9850 -3.5254 6.1196 19.7665 5.3614 3.7996
# 5 2.2103 4.3983 -1.2058 5.3614 16.2690 6.4864
# 6 26.0887 22.4095 13.0968 3.7996 6.4864 37.1379
#
#
#
# Elastic Compliance Matrix: (Units=1/GPa)
#
#
# Indices 1 2 3 4 5 6 
#
# 1 0.012551 0.001525 -0.001897 -0.001704 0.001988 -0.009241
# 2 0.001525 0.011622 -0.001279 0.003945 -0.001655 -0.007748
# 3 -0.001897 -0.001279 0.010201 -0.003336 0.003136 -0.001700
# 4 -0.001704 0.003945 -0.003336 0.058594 -0.019346 -0.002623
# 5 0.001988 -0.001655 0.003136 -0.019346 0.073156 -0.012302
# 6 -0.009241 -0.007748 -0.001700 -0.002623 -0.012302 0.041110
#
#
# Mechanical properties :
#
#
# Convention : Reuss Voigt Hill
#
# Bulk Modulus (GPa) = 32.18241 45.17573 38.67907
# Shear Modulus (GPa) = 22.63547 32.64056 27.63801
#
# Velocity S-wave (km/s) = 3.14414 3.77559 3.47424
# Velocity P-wave (km/s) = 5.21879 6.22386 5.74335
#
# Compressibility (1/GPa) = 0.03107288
#
# Stress axis : x y z
#
# Youngs Moduli (GPa) = 79.67594 86.04507 98.03242
#
# Poissons Ratio (x) = -0.13125 0.18597
# Poissons Ratio (y) = -0.12153 0.12534
# Poissons Ratio (z) = 0.15115 0.11001
#
# Static dielectric constant tensor:
#      x y z
#    x 3.145610 1.002770 -1.157640 
#    y 1.002770 3.418490 1.440900 
#    z -1.157640 1.440900 2.128340 
# 
# 
# High freq. dielectric constant tensor:
#      x y z
#    x 1.903740 0.001970 0.012560 
#    y 0.001970 1.928940 0.010900 
#    z 0.012560 0.010900 1.890350 
# 
# From -- ./inp_files/410295.got.cif
#   From: 2010.06.25/outbox.cif.g09.slc.cpg/sg2_206_cif.got.tgz:410295.got - 2010.06.27 13:26:56.
