data_PCOD8003714
_publ_section_title
;
Structure prediction by ZEFSAII (Michael W. Deem and Ramdas Pophale) SiO2 
 PCOD8003714
Probable space group: P -1
;
_chemical_formula_sum "Si O2"
_cell_formula_units_Z 14
_cell_length_a 7.188272
_cell_length_b 10.915142
_cell_length_c 14.094618
_cell_angle_alpha 129.235269
_cell_angle_beta 38.035807
_cell_angle_gamma 122.162721
_cell_volume 526.422234
_symmetry_space_group_name_H-M "P -1"
_symmetry_group_IT_number 2
_symmetry_cell_setting 'triclinic'
loop_
_space_group_symop_operation_xyz
x,y,z
-x,-y,-z
loop_
_atom_site_type_symbol
_atom_site_label
_atom_site_fract_x
_atom_site_fract_y
_atom_site_fract_z
Si Si1 0.755113 0.272787 0.035380
Si Si2 0.756232 0.385544 0.755534
Si Si3 0.296362 0.378304 0.769462
Si Si4 0.345072 0.281319 0.038068
Si Si5 0.409389 0.856718 0.581031
Si Si6 0.650259 0.063927 0.154180
Si Si7 0.042852 0.905599 0.569745
O O1 0.811983 0.453901 0.139181
O O2 0.779750 0.158099 0.057476
O O3 0.439247 0.251262 0.095254
O O4 0.022541 0.246804 0.839684
O O5 0.472897 0.396342 0.805492
O O6 0.641693 0.323845 0.873968
O O7 0.984724 0.267671 0.557474
O O8 0.879416 0.573512 0.806720
O O9 0.481294 0.312883 0.576078
O O10 0.198310 0.107350 0.978801
O O11 0.271965 0.838143 0.732450
O O12 0.148638 0.899288 0.633583
O O13 0.695408 0.987233 0.537295
O O14 0.287378 0.028440 0.268074
#
# Coordination Sequence:
#
# PCOD8003714 Si02
#       7
#     2   2   2   2   2   2   2
#     4  10  22  39  61  90 126 165 210 258 318 372
#     4   9  19  38  63  88 120 167 214 250 303 378
#     4   9  20  41  62  85 121 169 213 255 307 389
#     4  10  20  37  60  90 124 161 208 253 306 376
#     4  10  21  38  65  91 128 166 211 254 315 373
#     4  12  23  38  65  99 128 161 207 269 320 363
#     4  10  21  39  64  95 127 165 211 257 307 384
#
# _framework density 26.594621
#
# number of rings (size 3 to 8) (size 9 to 14) (size 15 to 20)
#    0.000    2.000    1.429    1.714    2.000    0.571 
#    2.571    7.143    0.000    0.000    0.000    0.000 
#    0.000    0.000    0.000    0.000    0.000    0.000 
#
# Total GULP energy -173535.130782 kJ/mol
# GULP energy per Si atom -12395.366484 kJ/mol
# Density = 2.653409 g / cm^3
# Si number density = 26.594621 Si / 1000 Ang^3
#
#
#
# Elastic Constant Matrix: (Units=GPa)
#
#
# Indices 1 2 3 4 5 6 
#
# 1 72.6416 24.8288 27.9753 -3.0152 21.3350 -15.4068
# 2 24.8288 140.9698 46.4950 17.9489 21.6361 -19.7942
# 3 27.9753 46.4950 106.8911 9.3371 15.3192 -6.1672
# 4 -3.0152 17.9489 9.3371 32.9124 -3.4519 4.7192
# 5 21.3350 21.6361 15.3192 -3.4519 40.7754 -2.4911
# 6 -15.4068 -19.7942 -6.1672 4.7192 -2.4911 31.3314
#
#
#
# Elastic Compliance Matrix: (Units=1/GPa)
#
#
# Indices 1 2 3 4 5 6 
#
# 1 0.019243 0.000068 -0.003479 0.000693 -0.008246 0.008061
# 2 0.000068 0.010521 -0.002994 -0.006324 -0.004621 0.006676
# 3 -0.003479 -0.002994 0.011869 -0.002036 -0.001287 -0.001062
# 4 0.000693 -0.006324 -0.002036 0.036430 0.006290 -0.009042
# 5 -0.008246 -0.004621 -0.001287 0.006290 0.031963 -0.005634
# 6 0.008061 0.006676 -0.001062 -0.009042 -0.005634 0.040803
#
#
# Mechanical properties :
#
#
# Convention : Reuss Voigt Hill
#
# Bulk Modulus (GPa) = 34.69603 57.67784 46.18694
# Shear Modulus (GPa) = 28.86015 35.75073 32.30544
#
# Velocity S-wave (km/s) = 3.29779 3.67043 3.48909
# Velocity P-wave (km/s) = 5.25121 6.30060 5.79969
#
# Compressibility (1/GPa) = 0.02882174
#
# Stress axis : x y z
#
# Youngs Moduli (GPa) = 51.96592 95.04631 84.25017
#
# Poissons Ratio (x) = -0.00642 0.29313
# Poissons Ratio (y) = -0.00351 0.25227
# Poissons Ratio (z) = 0.18081 0.28460
#
# Static dielectric constant tensor:
#      x y z
#    x 4.764760 0.005280 0.119030 
#    y 0.005280 4.778770 0.406040 
#    z 0.119030 0.406040 4.821440 
# 
# 
# High freq. dielectric constant tensor:
#      x y z
#    x 2.077910 -0.006430 0.011790 
#    y -0.006430 2.056750 0.021460 
#    z 0.011790 0.021460 2.068180 
# 
# From -- ./inp_files/436264.got.cif
#   From: 2010.06.25/outbox.cif.g09.slc.cpg/sg2_219_cif.got.tgz:436264.got - 2010.06.27 13:26:56.
