data_PCOD8003920
_publ_section_title
;
Structure prediction by ZEFSAII (Michael W. Deem and Ramdas Pophale) SiO2 
 PCOD8003920
Probable space group: P -1
;
_chemical_formula_sum "Si O2"
_cell_formula_units_Z 16
_cell_length_a 24.303518
_cell_length_b 8.260544
_cell_length_c 20.094937
_cell_angle_alpha 42.710570
_cell_angle_beta 160.451654
_cell_angle_gamma 146.913636
_cell_volume 702.999087
_symmetry_space_group_name_H-M "P -1"
_symmetry_group_IT_number 2
_symmetry_cell_setting 'triclinic'
loop_
_space_group_symop_operation_xyz
x,y,z
-x,-y,-z
loop_
_atom_site_type_symbol
_atom_site_label
_atom_site_fract_x
_atom_site_fract_y
_atom_site_fract_z
Si Si1 0.696473 0.270558 0.413698
Si Si2 0.862857 0.902489 0.438898
Si Si3 0.700388 0.855485 0.794178
Si Si4 0.476370 0.059002 0.550748
Si Si5 0.955390 0.020856 0.651625
Si Si6 0.161977 0.617597 0.779922
Si Si7 0.907348 0.673104 0.829552
Si Si8 0.506600 0.821998 0.218997
O O1 0.673609 0.528749 0.330062
O O2 0.940781 0.435820 0.623600
O O3 0.630595 0.041426 0.469015
O O4 0.533240 0.057791 0.232282
O O5 0.001097 0.974379 0.642133
O O6 0.783151 0.101837 0.288086
O O7 0.000000 0.000000 0.500000
O O8 0.705871 0.030338 0.682625
O O9 0.592720 0.504025 0.761239
O O10 0.567093 0.879247 0.691216
O O11 0.941654 0.018406 0.045771
O O12 0.661210 0.435921 0.643939
O O13 0.145601 0.369976 0.788603
O O14 0.923105 0.769467 0.741282
O O15 0.739314 0.972497 0.411387
O O16 0.360444 0.777957 0.006603
O O17 0.000000 0.500000 0.000000
#
# Coordination Sequence:
#
# PCOD8003920 Si02
#       8
#     2   2   2   2   2   2   2   2
#     4  10  24  41  63  90 133 169 204 263 320 368
#     4  10  23  45  67  92 126 165 210 267 323 367
#     4  10  20  37  62  89 127 163 213 254 302 378
#     4  10  21  39  61  92 129 165 210 258 308 373
#     4  11  21  42  71  92 128 166 207 267 312 369
#     4  10  23  44  64  94 122 167 218 259 314 374
#     4  10  21  36  63 100 123 160 214 251 307 378
#     4  11  22  40  64  93 130 167 211 255 312 380
#
# _framework density 22.759632
#
# number of rings (size 3 to 8) (size 9 to 14) (size 15 to 20)
#    0.000    1.750    2.500    1.125    3.500    2.500 
#    6.750    1.250    0.000    0.000    0.000    0.000 
#    0.000    0.000    0.000    0.000    0.000    0.000 
#
# Total GULP energy -198307.052152 kJ/mol
# GULP energy per Si atom -12394.190759 kJ/mol
# Density = 2.270783 g / cm^3
# Si number density = 22.759632 Si / 1000 Ang^3
#
#
#
# Elastic Constant Matrix: (Units=GPa)
#
#
# Indices 1 2 3 4 5 6 
#
# 1 109.2627 49.5780 47.5420 8.8403 -42.1730 9.8583
# 2 49.5780 122.6553 41.7921 0.0894 -28.0974 -7.2810
# 3 47.5420 41.7921 122.0048 4.0150 -41.6459 6.3986
# 4 8.8403 0.0894 4.0150 33.3724 -3.4615 -11.3669
# 5 -42.1730 -28.0974 -41.6459 -3.4615 33.6246 -0.0698
# 6 9.8583 -7.2810 6.3986 -11.3669 -0.0698 35.3770
#
#
#
# Elastic Compliance Matrix: (Units=1/GPa)
#
#
# Indices 1 2 3 4 5 6 
#
# 1 0.021101 -0.004095 0.002611 -0.006367 0.025603 -0.009190
# 2 -0.004095 0.011247 -0.001807 0.003151 0.002358 0.004800
# 3 0.002611 -0.001807 0.014937 -0.001891 0.020062 -0.004370
# 4 -0.006367 0.003151 -0.001891 0.036385 -0.003920 0.014448
# 5 0.025603 0.002358 0.020062 -0.003920 0.088244 -0.011363
# 6 -0.009190 0.004800 -0.004370 0.014448 -0.011363 0.037226
#
#
# Mechanical properties :
#
#
# Convention : Reuss Voigt Hill
#
# Bulk Modulus (GPa) = 24.56795 70.19411 47.38103
# Shear Modulus (GPa) = 21.80654 34.80883 28.30768
#
# Velocity S-wave (km/s) = 3.09871 3.91501 3.53053
# Velocity P-wave (km/s) = 4.86011 7.16553 6.12232
#
# Compressibility (1/GPa) = 0.04070344
#
# Stress axis : x y z
#
# Youngs Moduli (GPa) = 47.39205 88.91544 66.94590
#
# Poissons Ratio (x) = 0.36407 -0.17482
# Poissons Ratio (y) = 0.19405 0.12100
# Poissons Ratio (z) = -0.12376 0.16071
#
# Static dielectric constant tensor:
#      x y z
#    x 3.938770 -0.177630 -0.335400 
#    y -0.177630 4.924540 0.311530 
#    z -0.335400 0.311530 4.375340 
# 
# 
# High freq. dielectric constant tensor:
#      x y z
#    x 1.874040 0.002900 -0.031190 
#    y 0.002900 1.917870 0.005710 
#    z -0.031190 0.005710 1.886790 
# 
# From -- ./inp_files/602274.got.cif
#   From: 2010.06.25/outbox.cif.g09.slc.cpg/sg2_302_cif.got.tgz:602274.got - 2010.06.27 13:26:56.
