data_PCOD8003831
_publ_section_title
;
Structure prediction by ZEFSAII (Michael W. Deem and Ramdas Pophale) SiO2 
 PCOD8003831
Probable space group: P -1
;
_chemical_formula_sum "Si O2"
_cell_formula_units_Z 16
_cell_length_a 13.903260
_cell_length_b 9.681549
_cell_length_c 29.625396
_cell_angle_alpha 144.956219
_cell_angle_beta 22.048703
_cell_angle_gamma 133.987505
_cell_volume 820.385320
_symmetry_space_group_name_H-M "P -1"
_symmetry_group_IT_number 2
_symmetry_cell_setting 'triclinic'
loop_
_space_group_symop_operation_xyz
x,y,z
-x,-y,-z
loop_
_atom_site_type_symbol
_atom_site_label
_atom_site_fract_x
_atom_site_fract_y
_atom_site_fract_z
Si Si1 0.176390 0.231291 0.871765
Si Si2 0.467986 0.658877 0.997236
Si Si3 0.808809 0.738309 0.622827
Si Si4 0.329477 0.897686 0.937296
Si Si5 0.592290 0.745463 0.530172
Si Si6 0.076294 0.252057 0.526098
Si Si7 0.484620 0.549691 0.863218
Si Si8 0.907450 0.237365 0.732636
O O1 0.373390 0.304624 0.842240
O O2 0.361588 0.019171 0.700072
O O3 0.000000 0.500000 0.000000
O O4 0.972328 0.089705 0.943757
O O5 0.374279 0.707405 0.999092
O O6 0.678405 0.380605 0.834672
O O7 0.198682 0.677433 0.147866
O O8 0.632629 0.837673 0.993736
O O9 0.513438 0.788403 0.785219
O O10 0.786187 0.724581 0.575210
O O11 0.000000 0.500000 0.500000
O O12 0.951339 0.945261 0.628986
O O13 0.393211 0.721876 0.905998
O O14 0.500000 0.500000 0.500000
O O15 0.721642 0.719926 0.516272
O O16 0.806497 0.721967 0.390465
O O17 0.803713 0.479549 0.707715
O O18 0.000000 0.000000 0.500000
#
# Coordination Sequence:
#
# PCOD8003831 Si02
#       8
#     2   2   2   2   2   2   2   2
#     4  10  23  39  60  91 128 171 202 257 326 374
#     4  10  20  37  61  91 120 161 209 259 311 371
#     4  11  21  38  65  96 123 158 214 267 314 368
#     4  10  22  38  60  89 127 163 200 260 318 379
#     4  12  24  42  66  93 130 170 216 265 322 382
#     4  12  21  39  68  94 120 166 219 266 310 382
#     4  11  19  37  63  90 123 163 211 256 311 382
#     4  10  21  37  62  87 126 161 205 261 315 369
#
# _framework density 19.503029999999999
#
# number of rings (size 3 to 8) (size 9 to 14) (size 15 to 20)
#    0.000    1.250    5.000    1.125    1.750    0.000 
#    2.250    0.625    0.000    3.750    0.000    0.000 
#    0.000    0.000    0.000    0.000    0.000    0.000 
#
# Total GULP energy -198287.774360 kJ/mol
# GULP energy per Si atom -12392.985897 kJ/mol
# Density = 1.945864 g / cm^3
# Si number density = 19.503030 Si / 1000 Ang^3
#
#
#
# Elastic Constant Matrix: (Units=GPa)
#
#
# Indices 1 2 3 4 5 6 
#
# 1 92.8348 44.6846 44.4152 -14.1789 15.0400 -4.4878
# 2 44.6846 117.4570 62.3198 -13.8819 7.6952 6.2116
# 3 44.4152 62.3198 131.8465 -16.8901 13.7168 5.6248
# 4 -14.1789 -13.8819 -16.8901 46.3026 -7.5496 3.2596
# 5 15.0400 7.6952 13.7168 -7.5496 26.7745 -5.5848
# 6 -4.4878 6.2116 5.6248 3.2596 -5.5848 33.2729
#
#
#
# Elastic Compliance Matrix: (Units=1/GPa)
#
#
# Indices 1 2 3 4 5 6 
#
# 1 0.015082 -0.003978 -0.002569 0.001497 -0.005131 0.002203
# 2 -0.003978 0.012591 -0.004448 0.001213 0.000794 -0.002121
# 3 -0.002569 -0.004448 0.011155 0.001610 -0.002969 -0.002058
# 4 0.001497 0.001213 0.001610 0.023844 0.004311 -0.001909
# 5 -0.005131 0.000794 -0.002969 0.004311 0.044126 0.006646
# 6 0.002203 -0.002121 -0.002058 -0.001909 0.006646 0.032398
#
#
# Mechanical properties :
#
#
# Convention : Reuss Voigt Hill
#
# Bulk Modulus (GPa) = 59.38876 71.66416 65.52646
# Shear Modulus (GPa) = 29.97651 33.98458 31.98054
#
# Velocity S-wave (km/s) = 3.92474 4.17889 4.05380
# Velocity P-wave (km/s) = 7.14529 7.75300 7.45534
#
# Compressibility (1/GPa) = 0.01683820
#
# Stress axis : x y z
#
# Youngs Moduli (GPa) = 66.30397 79.42458 89.64470
#
# Poissons Ratio (x) = 0.31597 0.23027
# Poissons Ratio (y) = 0.26377 0.39872
# Poissons Ratio (z) = 0.17032 0.35327
#
# Static dielectric constant tensor:
#      x y z
#    x 3.379310 0.082590 -0.111640 
#    y 0.082590 3.845700 -0.196470 
#    z -0.111640 -0.196470 3.928440 
# 
# 
# High freq. dielectric constant tensor:
#      x y z
#    x 1.734870 0.001730 0.009120 
#    y 0.001730 1.768540 0.000060 
#    z 0.009120 0.000060 1.774110 
# 
# From -- ./inp_files/463978.got.cif
#   From: 2010.06.25/outbox.cif.g09.slc.cpg/sg2_232_cif.got.tgz:463978.got - 2010.06.27 13:26:56.
