data_PCOD8003528
_publ_section_title
;
Structure prediction by ZEFSAII (Michael W. Deem and Ramdas Pophale) SiO2 
 PCOD8003528
Probable space group: P -1
;
_chemical_formula_sum "Si O2"
_cell_formula_units_Z 12
_cell_length_a 9.072022
_cell_length_b 21.594325
_cell_length_c 5.149024
_cell_angle_alpha 81.524560
_cell_angle_beta 54.242442
_cell_angle_gamma 51.588670
_cell_volume 603.383747
_symmetry_space_group_name_H-M "P -1"
_symmetry_group_IT_number 2
_symmetry_cell_setting 'triclinic'
loop_
_space_group_symop_operation_xyz
x,y,z
-x,-y,-z
loop_
_atom_site_type_symbol
_atom_site_label
_atom_site_fract_x
_atom_site_fract_y
_atom_site_fract_z
Si Si1 0.627956 0.995966 0.120539
Si Si2 0.682471 0.327599 0.215292
Si Si3 0.763913 0.514888 0.651685
Si Si4 0.717922 0.389196 0.649255
Si Si5 0.172084 0.847400 0.776522
Si Si6 0.226628 0.909380 0.210476
O O1 0.500000 0.000000 0.500000
O O2 0.903773 0.907782 0.893487
O O3 0.500000 0.000000 0.000000
O O4 0.592360 0.079474 0.094268
O O5 0.390936 0.407747 0.441635
O O6 0.795361 0.336410 0.341415
O O7 0.718034 0.245963 0.245887
O O8 0.822016 0.324452 0.823419
O O9 0.836469 0.431444 0.500243
O O10 0.000000 0.500000 0.500000
O O11 0.580941 0.539526 0.065787
O O12 0.333360 0.845741 0.387006
O O13 0.160893 0.881585 0.049224
O O14 0.000000 0.000000 0.500000
#
# Coordination Sequence:
#
# PCOD8003528 Si02
#       6
#     2   2   2   2   2   2
#     4  11  21  36  57  83 110 146 190 234 281 334
#     4  10  20  38  57  82 115 147 188 232 294 329
#     4   9  20  37  62  84 113 152 195 231 276 345
#     4   9  20  37  58  85 114 153 192 227 284 344
#     4  11  21  37  61  80 113 153 185 238 286 335
#     4  10  20  37  59  82 106 152 196 222 279 356
#
# _framework density 19.887839
#
# number of rings (size 3 to 8) (size 9 to 14) (size 15 to 20)
#    1.000    1.000    0.000    6.500    0.000    0.667 
#    0.000    5.000    0.000    0.000    0.000    0.000 
#    0.000    0.000    0.000    0.000    0.000    0.000 
#
# Total GULP energy -148661.772077 kJ/mol
# GULP energy per Si atom -12388.481006 kJ/mol
# Density = 1.984257 g / cm^3
# Si number density = 19.887839 Si / 1000 Ang^3
#
#
#
# Elastic Constant Matrix: (Units=GPa)
#
#
# Indices 1 2 3 4 5 6 
#
# 1 147.3509 72.8261 55.9107 -11.9856 30.6582 25.3802
# 2 72.8261 188.8125 48.8112 -27.1793 16.3681 21.4426
# 3 55.9107 48.8112 72.2981 -26.4969 19.9515 5.7235
# 4 -11.9856 -27.1793 -26.4969 25.7318 0.5905 4.3035
# 5 30.6582 16.3681 19.9515 0.5905 45.1601 -6.5157
# 6 25.3802 21.4426 5.7235 4.3035 -6.5157 33.4755
#
#
#
# Elastic Compliance Matrix: (Units=1/GPa)
#
#
# Indices 1 2 3 4 5 6 
#
# 1 0.013007 -0.001952 -0.006921 -0.001575 -0.006263 -0.008444
# 2 -0.001952 0.008097 0.000706 0.009369 -0.002849 -0.005586
# 3 -0.006921 0.000706 0.036813 0.037236 -0.013597 -0.008933
# 4 -0.001575 0.009369 0.037236 0.091535 -0.023957 -0.027605
# 5 -0.006263 -0.002849 -0.013597 -0.023957 0.036501 0.019083
# 6 -0.008444 -0.005586 -0.008933 -0.027605 0.019083 0.048643
#
#
# Mechanical properties :
#
#
# Convention : Reuss Voigt Hill
#
# Bulk Modulus (GPa) = 24.04879 84.83971 54.44425
# Shear Modulus (GPa) = 18.88269 36.26771 27.57520
#
# Velocity S-wave (km/s) = 3.08467 4.27501 3.72766
# Velocity P-wave (km/s) = 4.98050 8.19264 6.77955
#
# Compressibility (1/GPa) = 0.04158214
#
# Stress axis : x y z
#
# Youngs Moduli (GPa) = 76.88215 123.50239 27.16397
#
# Poissons Ratio (x) = 0.24114 0.18800
# Poissons Ratio (y) = 0.15011 -0.01917
# Poissons Ratio (z) = 0.53209 -0.08716
#
# Static dielectric constant tensor:
#      x y z
#    x 3.584860 0.185550 0.151660 
#    y 0.185550 3.973180 -0.541820 
#    z 0.151660 -0.541820 3.777920 
# 
# 
# High freq. dielectric constant tensor:
#      x y z
#    x 1.771500 0.013730 0.027380 
#    y 0.013730 1.782730 -0.028200 
#    z 0.027380 -0.028200 1.751120 
# 
# From -- ./inp_files/50366.got.cif
#   From: 2010.06.25/outbox.cif.g09.slc.cpg/sg2_26_cif.got.tgz:50366.got - 2010.06.27 13:26:56.
