data_PCOD8003485
_publ_section_title
;
Structure prediction by ZEFSAII (Michael W. Deem and Ramdas Pophale) SiO2 
 PCOD8003485
Probable space group: P -1
;
_chemical_formula_sum "Si O2"
_cell_formula_units_Z 16
_cell_length_a 14.527845
_cell_length_b 10.394618
_cell_length_c 8.479398
_cell_angle_alpha 71.799286
_cell_angle_beta 89.768351
_cell_angle_gamma 136.090094
_cell_volume 790.986285
_symmetry_space_group_name_H-M "P -1"
_symmetry_group_IT_number 2
_symmetry_cell_setting 'triclinic'
loop_
_space_group_symop_operation_xyz
x,y,z
-x,-y,-z
loop_
_atom_site_type_symbol
_atom_site_label
_atom_site_fract_x
_atom_site_fract_y
_atom_site_fract_z
Si Si1 0.410616 0.527355 0.039738
Si Si2 0.102950 0.732514 0.461163
Si Si3 0.534775 0.643102 0.311049
Si Si4 0.789878 0.782767 0.089354
Si Si5 0.971654 0.764839 0.212351
Si Si6 0.605284 0.992498 0.824894
Si Si7 0.891628 0.399630 0.179620
Si Si8 0.393831 0.986298 0.818687
O O1 0.256442 0.340964 0.029245
O O2 0.487472 0.746818 0.888837
O O3 0.500000 0.500000 0.000000
O O4 0.404548 0.523595 0.233699
O O5 0.105437 0.727514 0.653346
O O6 0.000000 0.500000 0.500000
O O7 0.036839 0.800585 0.370912
O O8 0.259101 0.882772 0.332063
O O9 0.500000 0.500000 0.500000
O O10 0.662949 0.726013 0.180565
O O11 0.577685 0.832360 0.320968
O O12 0.838686 0.719755 0.236803
O O13 0.911834 0.028598 0.970906
O O14 0.927636 0.577883 0.199388
O O15 0.536551 0.060701 0.759436
O O16 0.650583 0.044955 0.986756
O O17 0.733155 0.233272 0.180414
O O18 0.000000 0.500000 0.000000
#
# Coordination Sequence:
#
# PCOD8003485 Si02
#       8
#     2   2   2   2   2   2   2   2
#     4   9  18  34  57  80 109 148 186 228 276 331
#     4  10  21  36  56  80 112 151 189 231 279 339
#     4  10  21  35  54  83 115 146 181 230 288 341
#     4  10  20  37  59  80 110 148 190 233 276 336
#     4  10  21  38  58  81 109 148 192 232 278 337
#     4  10  20  37  58  85 114 146 192 236 284 339
#     4  11  22  37  58  83 115 151 188 233 289 342
#     4  10  21  36  58  84 116 149 183 239 291 333
#
# _framework density 20.227912
#
# number of rings (size 3 to 8) (size 9 to 14) (size 15 to 20)
#    0.000    2.000    0.000    5.250    0.000    5.500 
#    0.000    2.500    0.000    3.750    0.000    0.000 
#    0.000    0.000    0.000    0.000    0.000    0.000 
#
# Total GULP energy -198292.348385 kJ/mol
# GULP energy per Si atom -12393.271774 kJ/mol
# Density = 2.018187 g / cm^3
# Si number density = 20.227912 Si / 1000 Ang^3
#
#
#
# Elastic Constant Matrix: (Units=GPa)
#
#
# Indices 1 2 3 4 5 6 
#
# 1 102.2990 33.2782 44.0989 2.3469 32.4503 3.8433
# 2 33.2782 109.3860 32.1772 -7.7473 11.4873 1.4133
# 3 44.0989 32.1772 105.1259 -1.0713 26.9909 2.4225
# 4 2.3469 -7.7473 -1.0713 22.2007 -4.2170 7.4862
# 5 32.4503 11.4873 26.9909 -4.2170 25.6763 -0.2904
# 6 3.8433 1.4133 2.4225 7.4862 -0.2904 31.1405
#
#
#
# Elastic Compliance Matrix: (Units=1/GPa)
#
#
# Indices 1 2 3 4 5 6 
#
# 1 0.018516 -0.003507 -0.001157 -0.007208 -0.021805 -0.000507
# 2 -0.003507 0.011026 -0.002614 0.005026 0.003061 -0.001044
# 3 -0.001157 -0.002614 0.013981 -0.002354 -0.012455 -0.000376
# 4 -0.007208 0.005026 -0.002354 0.055028 0.018236 -0.012214
# 5 -0.021805 0.003061 -0.012455 0.018236 0.081222 -0.000105
# 6 -0.000507 -0.001044 -0.000376 -0.012214 -0.000105 0.035187
#
#
# Mechanical properties :
#
#
# Convention : Reuss Voigt Hill
#
# Bulk Modulus (GPa) = 34.52344 59.54659 47.03502
# Shear Modulus (GPa) = 20.90552 29.62062 25.26307
#
# Velocity S-wave (km/s) = 3.21830 3.83083 3.53784
# Velocity P-wave (km/s) = 5.56005 7.00491 6.32388
#
# Compressibility (1/GPa) = 0.02896583
#
# Stress axis : x y z
#
# Youngs Moduli (GPa) = 54.00694 90.69614 71.52787
#
# Poissons Ratio (x) = 0.31805 0.08277
# Poissons Ratio (y) = 0.18939 0.18700
# Poissons Ratio (z) = 0.06250 0.23711
#
# Static dielectric constant tensor:
#      x y z
#    x 4.034300 -0.289500 0.031990 
#    y -0.289500 6.517190 2.339710 
#    z 0.031990 2.339710 5.857740 
# 
# 
# High freq. dielectric constant tensor:
#      x y z
#    x 1.786190 0.006110 0.027920 
#    y 0.006110 1.800800 -0.003690 
#    z 0.027920 -0.003690 1.775840 
# 
# From -- ./inp_files/251864.got.cif
#   From: 2010.06.25/outbox.cif.g09.slc.cpg/sg2_126_cif.got.tgz:251864.got - 2010.06.27 13:26:56.
