data_PCOD8003644
_publ_section_title
;
Structure prediction by ZEFSAII (Michael W. Deem and Ramdas Pophale) SiO2 
 PCOD8003644
Probable space group: P -1
;
_chemical_formula_sum "Si O2"
_cell_formula_units_Z 16
_cell_length_a 12.646430
_cell_length_b 21.379370
_cell_length_c 8.589809
_cell_angle_alpha 139.058666
_cell_angle_beta 52.780567
_cell_angle_gamma 151.199750
_cell_volume 721.089784
_symmetry_space_group_name_H-M "P -1"
_symmetry_group_IT_number 2
_symmetry_cell_setting 'triclinic'
loop_
_space_group_symop_operation_xyz
x,y,z
-x,-y,-z
loop_
_atom_site_type_symbol
_atom_site_label
_atom_site_fract_x
_atom_site_fract_y
_atom_site_fract_z
Si Si1 0.541461 0.808751 0.143532
Si Si2 0.093825 0.621948 0.276353
Si Si3 0.657280 0.351828 0.317050
Si Si4 0.979620 0.876526 0.290552
Si Si5 0.395649 0.033517 0.087003
Si Si6 0.140438 0.865402 0.675837
Si Si7 0.734116 0.723603 0.905310
Si Si8 0.435542 0.415980 0.737636
O O1 0.345975 0.730656 0.289148
O O2 0.704578 0.992993 0.322328
O O3 0.447708 0.716630 0.889966
O O4 0.679916 0.803402 0.087257
O O5 0.099175 0.732616 0.412508
O O6 0.928094 0.517836 0.377000
O O7 0.000000 0.500000 0.000000
O O8 0.592924 0.223028 0.234954
O O9 0.562963 0.389757 0.557663
O O10 0.832776 0.757862 0.348104
O O11 0.854525 0.770974 0.048709
O O12 0.000000 0.000000 0.500000
O O13 0.226645 0.974844 0.259640
O O14 0.500000 0.000000 0.000000
O O15 0.261595 0.934004 0.863010
O O16 0.904279 0.785652 0.737754
O O17 0.506491 0.527928 0.743282
O O18 0.500000 0.500000 0.000000
#
# Coordination Sequence:
#
# PCOD8003644 Si02
#       8
#     2   2   2   2   2   2   2   2
#     4  10  22  37  61  90 117 152 200 239 289 350
#     4  10  21  39  59  83 118 161 189 233 295 350
#     4  10  20  40  61  83 123 154 189 248 293 341
#     4  10  20  37  60  84 118 151 192 244 289 339
#     4  10  22  38  61  87 112 154 199 238 291 349
#     4  10  20  40  61  81 122 156 187 244 297 338
#     4  10  21  37  60  90 115 154 197 237 293 350
#     4  10  20  37  61  82 118 157 191 236 298 340
#
# _framework density 22.188635000000001
#
# number of rings (size 3 to 8) (size 9 to 14) (size 15 to 20)
#    0.000    2.000    2.500    0.750    0.000    2.500 
#    0.000    0.625    0.000    0.000    0.000    0.000 
#    0.000    0.000    0.000    0.000    0.000    0.000 
#
# Total GULP energy -198336.791038 kJ/mol
# GULP energy per Si atom -12396.049440 kJ/mol
# Density = 2.213813 g / cm^3
# Si number density = 22.188635 Si / 1000 Ang^3
#
#
#
# Elastic Constant Matrix: (Units=GPa)
#
#
# Indices 1 2 3 4 5 6 
#
# 1 91.4465 67.9179 20.9972 -1.9747 -46.9226 2.4303
# 2 67.9179 234.8170 58.0571 0.1881 -39.6275 3.6740
# 3 20.9972 58.0571 96.2989 2.1559 -45.4545 -1.6748
# 4 -1.9747 0.1881 2.1559 39.0810 -1.2345 -17.6441
# 5 -46.9226 -39.6275 -45.4545 -1.2345 42.5734 -3.0741
# 6 2.4303 3.6740 -1.6748 -17.6441 -3.0741 30.3027
#
#
#
# Elastic Compliance Matrix: (Units=1/GPa)
#
#
# Indices 1 2 3 4 5 6 
#
# 1 0.069244 -0.012302 0.047877 0.012728 0.117648 0.017930
# 2 -0.012302 0.007379 -0.010264 -0.002302 -0.017979 -0.003640
# 3 0.047877 -0.010264 0.055067 0.010372 0.103535 0.016991
# 4 0.012728 -0.002302 0.010372 0.037429 0.025796 0.024242
# 5 0.117648 -0.017979 0.103535 0.025796 0.250519 0.038901
# 6 0.017930 -0.003640 0.016991 0.024242 0.038901 0.051004
#
#
# Mechanical properties :
#
#
# Convention : Reuss Voigt Hill
#
# Bulk Modulus (GPa) = 5.48511 79.61184 42.54847
# Shear Modulus (GPa) = 10.39950 40.76411 25.58181
#
# Velocity S-wave (km/s) = 2.16726 4.29086 3.39916
# Velocity P-wave (km/s) = 2.95637 7.77857 5.88414
#
# Compressibility (1/GPa) = 0.18231182
#
# Stress axis : x y z
#
# Youngs Moduli (GPa) = 14.44160 135.51257 18.15984
#
# Poissons Ratio (x) = 1.66706 -0.86944
# Poissons Ratio (y) = 0.17766 0.18640
# Poissons Ratio (z) = -0.69142 1.39097
#
# Static dielectric constant tensor:
#      x y z
#    x 3.550690 -0.004960 -0.176560 
#    y -0.004960 5.159930 -0.090320 
#    z -0.176560 -0.090320 4.050580 
# 
# 
# High freq. dielectric constant tensor:
#      x y z
#    x 1.830250 0.001780 -0.026900 
#    y 0.001780 1.907100 0.003110 
#    z -0.026900 0.003110 1.876620 
# 
# From -- ./inp_files/175316.got.cif
#   From: 2010.06.25/outbox.cif.g09.slc.cpg/sg2_88_cif.got.tgz:175316.got - 2010.06.27 13:26:56.
