data_PCOD8003582
_publ_section_title
;
Structure prediction by ZEFSAII (Michael W. Deem and Ramdas Pophale) SiO2 
 PCOD8003582
Probable space group: P -1
;
_chemical_formula_sum "Si O2"
_cell_formula_units_Z 16
_cell_length_a 19.408699
_cell_length_b 8.998664
_cell_length_c 10.374596
_cell_angle_alpha 90.187843
_cell_angle_beta 53.943168
_cell_angle_gamma 46.678226
_cell_volume 769.128650
_symmetry_space_group_name_H-M "P -1"
_symmetry_group_IT_number 2
_symmetry_cell_setting 'triclinic'
loop_
_space_group_symop_operation_xyz
x,y,z
-x,-y,-z
loop_
_atom_site_type_symbol
_atom_site_label
_atom_site_fract_x
_atom_site_fract_y
_atom_site_fract_z
Si Si1 0.000239 0.844660 0.227603
Si Si2 0.972810 0.366904 0.548055
Si Si3 0.743593 0.627818 0.598266
Si Si4 0.438134 0.574669 0.711349
Si Si5 0.667176 0.472069 0.540395
Si Si6 0.451380 0.913253 0.379976
Si Si7 0.279393 0.374398 0.745760
Si Si8 0.911297 0.959113 0.812205
O O1 0.010830 0.699121 0.321513
O O2 0.079629 0.876019 0.198559
O O3 0.093623 0.653142 0.995738
O O4 0.817328 0.136558 0.382658
O O5 0.791208 0.594949 0.693502
O O6 0.000000 0.500000 0.500000
O O7 0.105332 0.076282 0.317307
O O8 0.662069 0.585765 0.672541
O O9 0.619040 0.932648 0.680331
O O10 0.916139 0.363203 0.324608
O O11 0.500000 0.500000 0.500000
O O12 0.504130 0.616050 0.720676
O O13 0.515887 0.307874 0.676878
O O14 0.242509 0.864656 0.934080
O O15 0.679449 0.553342 0.398064
O O16 0.614553 0.758855 0.241067
O O17 0.319499 0.154938 0.636436
#
# Coordination Sequence:
#
# PCOD8003582 Si02
#       8
#     2   2   2   2   2   2   2   2
#     4  11  20  40  68  85 118 172 206 244 304 367
#     4  10  23  42  65  88 119 158 214 261 292 355
#     4   8  21  42  63  81 123 162 206 242 304 367
#     4  12  22  37  61  96 128 157 200 257 305 354
#     4  10  21  36  64  93 124 156 205 252 300 369
#     4  10  20  37  59  87 130 155 192 252 306 358
#     4  10  20  38  61  92 125 162 198 244 313 370
#     4   9  21  41  63  85 121 160 206 247 299 363
#
# _framework density 20.802762000000001
#
# number of rings (size 3 to 8) (size 9 to 14) (size 15 to 20)
#    0.750    1.250    2.500    0.750    1.750    3.000 
#    0.000    2.500    0.000    0.000    0.000    0.000 
#    0.000    0.000    0.000    0.000    0.000    0.000 
#
# Total GULP energy -198246.704198 kJ/mol
# GULP energy per Si atom -12390.419012 kJ/mol
# Density = 2.075541 g / cm^3
# Si number density = 20.802762 Si / 1000 Ang^3
#
#
#
# Elastic Constant Matrix: (Units=GPa)
#
#
# Indices 1 2 3 4 5 6 
#
# 1 81.7648 7.8496 1.7346 1.2770 -16.2099 10.2227
# 2 7.8496 78.0133 5.4584 9.4143 -13.9675 -10.2297
# 3 1.7346 5.4584 33.7261 -2.2733 -9.4764 10.4303
# 4 1.2770 9.4143 -2.2733 22.8492 0.9614 -1.7684
# 5 -16.2099 -13.9675 -9.4764 0.9614 29.4849 2.0667
# 6 10.2227 -10.2297 10.4303 -1.7684 2.0667 32.3193
#
#
#
# Elastic Compliance Matrix: (Units=1/GPa)
#
#
# Indices 1 2 3 4 5 6 
#
# 1 0.015060 -0.000870 0.004229 -0.001021 0.009756 -0.007084
# 2 -0.000870 0.015659 -0.002988 -0.006522 0.005809 0.005468
# 3 0.004229 -0.002988 0.039016 0.003059 0.014445 -0.015631
# 4 -0.001021 -0.006522 0.003059 0.046999 -0.004208 0.000112
# 5 0.009756 0.005809 0.014445 -0.004208 0.047454 -0.009174
# 6 -0.007084 0.005468 -0.015631 0.000112 -0.009174 0.040550
#
#
# Mechanical properties :
#
#
# Convention : Reuss Voigt Hill
#
# Bulk Modulus (GPa) = 14.18890 24.84326 19.51608
# Shear Modulus (GPa) = 21.97924 28.82814 25.40369
#
# Velocity S-wave (km/s) = 3.25399 3.72665 3.49831
# Velocity P-wave (km/s) = 4.57749 5.52136 5.07143
#
# Compressibility (1/GPa) = 0.07047763
#
# Stress axis : x y z
#
# Youngs Moduli (GPa) = 66.40199 63.86166 25.63053
#
# Poissons Ratio (x) = 0.05556 -0.10840
# Poissons Ratio (y) = 0.05777 0.07658
# Poissons Ratio (z) = -0.28085 0.19081
#
# Static dielectric constant tensor:
#      x y z
#    x 4.000540 0.074780 -0.106420 
#    y 0.074780 3.688210 0.280670 
#    z -0.106420 0.280670 3.589600 
# 
# 
# High freq. dielectric constant tensor:
#      x y z
#    x 1.815280 0.000030 -0.000310 
#    y 0.000030 1.807620 0.025850 
#    z -0.000310 0.025850 1.783370 
# 
# From -- ./inp_files/468933.got.cif
#   From: 2010.06.25/outbox.cif.g09.slc.cpg/sg2_235_cif.got.tgz:468933.got - 2010.06.27 13:26:56.
