data_PCOD8003348
_publ_section_title
;
Structure prediction by ZEFSAII (Michael W. Deem and Ramdas Pophale) SiO2 
 PCOD8003348
Probable space group: P -1
;
_chemical_formula_sum "Si O2"
_cell_formula_units_Z 16
_cell_length_a 14.397102
_cell_length_b 15.369930
_cell_length_c 7.888623
_cell_angle_alpha 64.981624
_cell_angle_beta 34.958428
_cell_angle_gamma 60.005052
_cell_volume 865.941260
_symmetry_space_group_name_H-M "P -1"
_symmetry_group_IT_number 2
_symmetry_cell_setting 'triclinic'
loop_
_space_group_symop_operation_xyz
x,y,z
-x,-y,-z
loop_
_atom_site_type_symbol
_atom_site_label
_atom_site_fract_x
_atom_site_fract_y
_atom_site_fract_z
Si Si1 0.246045 0.664194 0.422992
Si Si2 0.885520 0.617418 0.434975
Si Si3 0.453501 0.243260 0.041975
Si Si4 0.893379 0.747656 0.013029
Si Si5 0.405790 0.251531 0.723553
Si Si6 0.534836 0.535542 0.599905
Si Si7 0.821839 0.414659 0.744196
Si Si8 0.579254 0.882449 0.491730
O O1 0.302708 0.548186 0.496278
O O2 0.170834 0.666962 0.344994
O O3 0.399482 0.710313 0.161883
O O4 0.091320 0.735879 0.705733
O O5 0.725291 0.671228 0.748218
O O6 0.862666 0.659479 0.246425
O O7 0.900391 0.500835 0.490151
O O8 0.056607 0.636690 0.239477
O O9 0.463343 0.150783 0.229721
O O10 0.477448 0.209441 0.836259
O O11 0.797252 0.736436 0.989619
O O12 0.785914 0.852404 0.180285
O O13 0.436748 0.356712 0.546723
O O14 0.494846 0.173111 0.503493
O O15 0.500000 0.500000 0.500000
O O16 0.373733 0.540037 0.952109
O O17 0.500000 0.000000 0.500000
#
# Coordination Sequence:
#
# PCOD8003348 Si02
#       8
#     2   2   2   2   2   2   2   2
#     4  12  22  34  56  88 127 158 195 240 288 354
#     4  10  20  37  50  81 120 164 208 233 273 353
#     4  11  21  38  61  89 118 154 197 242 296 359
#     4   9  22  38  57  85 117 155 196 248 294 346
#     4  10  21  38  61  88 122 154 202 231 299 349
#     4  12  21  33  54  88 127 162 193 232 287 346
#     4  11  22  31  54  78 122 169 205 230 282 336
#     4   9  22  44  66  84 112 151 204 256 301 349
#
# _framework density 18.477004000000001
#
# number of rings (size 3 to 8) (size 9 to 14) (size 15 to 20)
#    0.750    0.750    2.500    3.375    0.000    4.500 
#    0.000    0.625    0.000    0.750    0.000    0.000 
#    0.000    0.000    0.000    0.000    0.000    0.000 
#
# Total GULP energy -198255.888603 kJ/mol
# GULP energy per Si atom -12390.993038 kJ/mol
# Density = 1.843495 g / cm^3
# Si number density = 18.477004 Si / 1000 Ang^3
#
#
#
# Elastic Constant Matrix: (Units=GPa)
#
#
# Indices 1 2 3 4 5 6 
#
# 1 111.9442 37.9297 26.8671 -2.2320 1.3701 -1.0207
# 2 37.9297 111.6380 40.8407 1.4497 -0.9058 -7.6317
# 3 26.8671 40.8407 77.2679 14.6799 -6.3599 -9.8727
# 4 -2.2320 1.4497 14.6799 19.8654 -3.0135 1.4416
# 5 1.3701 -0.9058 -6.3599 -3.0135 29.7983 -0.0039
# 6 -1.0207 -7.6317 -9.8727 1.4416 -0.0039 19.9249
#
#
#
# Elastic Compliance Matrix: (Units=1/GPa)
#
#
# Indices 1 2 3 4 5 6 
#
# 1 0.010723 -0.002584 -0.003521 0.004037 -0.000915 -0.002478
# 2 -0.002584 0.012047 -0.005913 0.003032 -0.000470 0.001332
# 3 -0.003521 -0.005913 0.021872 -0.016367 0.002996 0.009577
# 4 0.004037 0.003032 -0.016367 0.063927 0.002877 -0.011366
# 5 -0.000915 -0.000470 0.002996 0.002877 0.034517 0.001056
# 6 -0.002478 0.001332 0.009577 -0.011366 0.001056 0.056140
#
#
# Mechanical properties :
#
#
# Convention : Reuss Voigt Hill
#
# Bulk Modulus (GPa) = 48.53557 56.90279 52.71918
# Shear Modulus (GPa) = 21.72670 26.93188 24.32929
#
# Velocity S-wave (km/s) = 3.43283 3.82198 3.63262
# Velocity P-wave (km/s) = 6.48364 7.09508 6.79624
#
# Compressibility (1/GPa) = 0.02060345
#
# Stress axis : x y z
#
# Youngs Moduli (GPa) = 93.25891 83.01023 45.72076
#
# Poissons Ratio (x) = 0.21451 0.16100
# Poissons Ratio (y) = 0.24099 0.27037
# Poissons Ratio (z) = 0.32840 0.49088
#
# Static dielectric constant tensor:
#      x y z
#    x 3.644880 -0.049190 0.022040 
#    y -0.049190 3.648250 0.400000 
#    z 0.022040 0.400000 3.422400 
# 
# 
# High freq. dielectric constant tensor:
#      x y z
#    x 1.731630 -0.004360 0.003770 
#    y -0.004360 1.674020 0.010000 
#    z 0.003770 0.010000 1.712900 
# 
# From -- ./inp_files/214894.got.cif
#   From: 2010.06.25/outbox.cif.g09.slc.cpg/sg2_108_cif.got.tgz:214894.got - 2010.06.27 13:26:56.
