data_PCOD8003702
_publ_section_title
;
Structure prediction by ZEFSAII (Michael W. Deem and Ramdas Pophale) SiO2 
 PCOD8003702
Probable space group: P -1
;
_chemical_formula_sum "Si O2"
_cell_formula_units_Z 14
_cell_length_a 15.894582
_cell_length_b 19.029300
_cell_length_c 7.883824
_cell_angle_alpha 134.102934
_cell_angle_beta 137.348399
_cell_angle_gamma 21.203802
_cell_volume 583.840910
_symmetry_space_group_name_H-M "P -1"
_symmetry_group_IT_number 2
_symmetry_cell_setting 'triclinic'
loop_
_space_group_symop_operation_xyz
x,y,z
-x,-y,-z
loop_
_atom_site_type_symbol
_atom_site_label
_atom_site_fract_x
_atom_site_fract_y
_atom_site_fract_z
Si Si1 0.867254 0.230066 0.788691
Si Si2 0.603120 0.081658 0.998465
Si Si3 0.760277 0.810468 0.980353
Si Si4 0.246446 0.548477 0.716603
Si Si5 0.947744 0.565316 0.343337
Si Si6 0.091707 0.745129 0.490027
Si Si7 0.678029 0.163555 0.549872
O O1 0.751771 0.203931 0.608926
O O2 0.794854 0.307114 0.615437
O O3 0.746193 0.393515 0.005079
O O4 0.164238 0.020283 0.913722
O O5 0.553388 0.166238 0.249150
O O6 0.344522 0.256303 0.811898
O O7 0.717701 0.893729 0.875842
O O8 0.871533 0.625918 0.823032
O O9 0.954208 0.735741 0.257055
O O10 0.500000 0.000000 0.000000
O O11 0.010811 0.635538 0.515341
O O12 0.494959 0.314835 0.685953
O O13 0.268534 0.604799 0.677417
O O14 0.000000 0.500000 0.500000
O O15 0.917119 0.953306 0.639088
#
# Coordination Sequence:
#
# PCOD8003702 Si02
#       7
#     2   2   2   2   2   2   2
#     4  10  23  45  67  96 134 173 221 270 322 388
#     4  10  22  41  66  92 128 175 215 265 328 385
#     4  10  20  37  60  89 127 166 213 264 316 385
#     4  12  25  40  66  99 132 171 218 271 330 386
#     4  12  25  41  64  98 135 171 216 269 329 394
#     4  10  22  41  63  93 129 171 217 263 323 388
#     4  10  22  44  69  95 130 171 222 273 321 389
#
# _framework density 23.979133999999998
#
# number of rings (size 3 to 8) (size 9 to 14) (size 15 to 20)
#    0.000    1.714    0.000    7.286    0.000    7.429 
#    0.000    7.143    0.000    0.857    0.000    0.000 
#    0.000    0.000    0.000    0.000    0.000    0.000 
#
# Total GULP energy -173434.959612 kJ/mol
# GULP energy per Si atom -12388.211401 kJ/mol
# Density = 2.392456 g / cm^3
# Si number density = 23.979134 Si / 1000 Ang^3
#
#
#
# Elastic Constant Matrix: (Units=GPa)
#
#
# Indices 1 2 3 4 5 6 
#
# 1 87.5169 19.1735 23.2923 -0.3672 -5.3944 8.3008
# 2 19.1735 100.1499 31.3341 8.1198 -21.7052 1.7729
# 3 23.2923 31.3341 55.0565 25.6891 -7.5883 5.1348
# 4 -0.3672 8.1198 25.6891 33.3748 -5.2486 6.0725
# 5 -5.3944 -21.7052 -7.5883 -5.2486 38.2658 4.3404
# 6 8.3008 1.7729 5.1348 6.0725 4.3404 33.4347
#
#
#
# Elastic Compliance Matrix: (Units=1/GPa)
#
#
# Indices 1 2 3 4 5 6 
#
# 1 0.014448 -0.000066 -0.009382 0.008376 0.001729 -0.003888
# 2 -0.000066 0.013988 -0.009191 0.004959 0.006909 -0.001111
# 3 -0.009382 -0.009191 0.040827 -0.030177 -0.002851 0.002397
# 4 0.008376 0.004959 -0.030177 0.054634 0.006464 -0.008470
# 5 0.001729 0.006909 -0.002851 0.006464 0.031251 -0.005588
# 6 -0.003888 -0.001111 0.002397 -0.008470 -0.005588 0.032829
#
#
# Mechanical properties :
#
#
# Convention : Reuss Voigt Hill
#
# Bulk Modulus (GPa) = 31.26500 43.36923 37.31711
# Shear Modulus (GPa) = 21.19383 32.27661 26.73522
#
# Velocity S-wave (km/s) = 2.97618 3.67281 3.34269
# Velocity P-wave (km/s) = 4.98768 6.00929 5.52216
#
# Compressibility (1/GPa) = 0.03198465
#
# Stress axis : x y z
#
# Youngs Moduli (GPa) = 69.21174 71.48843 24.49350
#
# Poissons Ratio (x) = 0.00474 0.22980
# Poissons Ratio (y) = 0.00459 0.22512
# Poissons Ratio (z) = 0.64935 0.65706
#
# Static dielectric constant tensor:
#      x y z
#    x 4.385440 0.026630 0.345050 
#    y 0.026630 4.451050 0.386400 
#    z 0.345050 0.386400 4.360110 
# 
# 
# High freq. dielectric constant tensor:
#      x y z
#    x 1.953120 -0.009190 0.014860 
#    y -0.009190 1.951400 0.017520 
#    z 0.014860 0.017520 1.942660 
# 
# From -- ./inp_files/337979.got.cif
#   From: 2010.06.25/outbox.cif.g09.slc.cpg/sg2_169_cif.got.tgz:337979.got - 2010.06.27 13:26:56.
