data_PCOD8003636
_publ_section_title
;
Structure prediction by ZEFSAII (Michael W. Deem and Ramdas Pophale) SiO2 
 PCOD8003636
Probable space group: P -1
;
_chemical_formula_sum "Si O2"
_cell_formula_units_Z 14
_cell_length_a 12.947529
_cell_length_b 15.871702
_cell_length_c 15.192581
_cell_angle_alpha 153.299443
_cell_angle_beta 38.967860
_cell_angle_gamma 122.445556
_cell_volume 731.223631
_symmetry_space_group_name_H-M "P -1"
_symmetry_group_IT_number 2
_symmetry_cell_setting 'triclinic'
loop_
_space_group_symop_operation_xyz
x,y,z
-x,-y,-z
loop_
_atom_site_type_symbol
_atom_site_label
_atom_site_fract_x
_atom_site_fract_y
_atom_site_fract_z
Si Si1 0.096489 0.961792 0.090382
Si Si2 0.345954 0.336329 0.892320
Si Si3 0.287021 0.990821 0.541984
Si Si4 0.436639 0.836714 0.861727
Si Si5 0.512752 0.465789 0.596885
Si Si6 0.885856 0.418971 0.558049
Si Si7 0.460296 0.596773 0.943799
O O1 0.208009 0.994944 0.128832
O O2 0.250663 0.715982 0.714417
O O3 0.924096 0.952327 0.238590
O O4 0.029118 0.153948 0.240244
O O5 0.564942 0.160871 0.619604
O O6 0.352840 0.533816 0.027223
O O7 0.283531 0.219149 0.752772
O O8 0.185057 0.437464 0.171073
O O9 0.362652 0.862538 0.277678
O O10 0.464750 0.691294 0.792492
O O11 0.563690 0.660481 0.531622
O O12 0.500000 0.000000 0.000000
O O13 0.406134 0.549853 0.840235
O O14 0.697219 0.458465 0.667423
O O15 0.000000 0.500000 0.500000
#
# Coordination Sequence:
#
# PCOD8003636 Si02
#       7
#     2   2   2   2   2   2   2
#     4  10  20  39  62  89 121 160 203 251 296 363
#     4  10  21  38  57  83 135 167 189 240 309 361
#     4  10  20  37  60  83 123 171 195 236 308 364
#     4   9  21  42  62  85 122 157 205 258 312 340
#     4   9  23  38  63  90 116 157 205 256 301 351
#     4  11  23  35  60  99 126 159 205 246 297 371
#     4  11  21  40  59  88 135 153 197 250 306 361
#
# _framework density 19.145990000000001
#
# number of rings (size 3 to 8) (size 9 to 14) (size 15 to 20)
#    0.857    1.143    2.857    0.857    4.000    5.143 
#    0.000    0.714    0.000    1.714    0.000    0.000 
#    0.000    0.000    0.000    0.000    0.000    0.000 
#
# Total GULP energy -173465.238003 kJ/mol
# GULP energy per Si atom -12390.374143 kJ/mol
# Density = 1.910241 g / cm^3
# Si number density = 19.145990 Si / 1000 Ang^3
#
#
#
# Elastic Constant Matrix: (Units=GPa)
#
#
# Indices 1 2 3 4 5 6 
#
# 1 77.3293 47.3639 38.3110 -5.7001 28.7717 14.6425
# 2 47.3639 97.4731 36.6830 -4.3257 8.2956 11.4788
# 3 38.3110 36.6830 67.8202 -8.6265 19.9194 4.2402
# 4 -5.7001 -4.3257 -8.6265 31.3410 1.5650 2.4747
# 5 28.7717 8.2956 19.9194 1.5650 38.6836 3.3358
# 6 14.6425 11.4788 4.2402 2.4747 3.3358 32.4462
#
#
#
# Elastic Compliance Matrix: (Units=1/GPa)
#
#
# Indices 1 2 3 4 5 6 
#
# 1 0.029608 -0.009787 -0.005589 0.003935 -0.016534 -0.007769
# 2 -0.009787 0.016618 -0.005505 -0.001231 0.006716 -0.001340
# 3 -0.005589 -0.005505 0.023480 0.004902 -0.007103 0.001758
# 4 0.003935 -0.001231 0.004902 0.034427 -0.006238 -0.003965
# 5 -0.016534 0.006716 -0.007103 -0.006238 0.040416 0.002334
# 6 -0.007769 -0.001340 0.001758 -0.003965 0.002334 0.034633
#
#
# Mechanical properties :
#
#
# Convention : Reuss Voigt Hill
#
# Bulk Modulus (GPa) = 35.78728 54.14869 44.96799
# Shear Modulus (GPa) = 21.71458 28.51181 25.11319
#
# Velocity S-wave (km/s) = 3.37138 3.86317 3.62563
# Velocity P-wave (km/s) = 5.82128 6.94566 6.40818
#
# Compressibility (1/GPa) = 0.02794289
#
# Stress axis : x y z
#
# Youngs Moduli (GPa) = 33.77449 60.17438 42.58985
#
# Poissons Ratio (x) = 0.58892 0.23805
# Poissons Ratio (y) = 0.33055 0.23447
# Poissons Ratio (z) = 0.18878 0.33128
#
# Static dielectric constant tensor:
#      x y z
#    x 4.019630 -0.451090 0.014240 
#    y -0.451090 3.858530 0.287700 
#    z 0.014240 0.287700 3.490920 
# 
# 
# High freq. dielectric constant tensor:
#      x y z
#    x 1.733880 0.007970 0.011810 
#    y 0.007970 1.732050 0.012310 
#    z 0.011810 0.012310 1.741850 
# 
# From -- ./inp_files/312916.got.cif
#   From: 2010.06.25/outbox.cif.g09.slc.cpg/sg2_157_cif.got.tgz:312916.got - 2010.06.27 13:26:56.
