data_PCOD8003585
_publ_section_title
;
Structure prediction by ZEFSAII (Michael W. Deem and Ramdas Pophale) SiO2 
 PCOD8003585
Probable space group: P -1
;
_chemical_formula_sum "Si O2"
_cell_formula_units_Z 16
_cell_length_a 12.390067
_cell_length_b 14.218023
_cell_length_c 9.420089
_cell_angle_alpha 66.919969
_cell_angle_beta 80.577973
_cell_angle_gamma 32.065476
_cell_volume 760.706768
_symmetry_space_group_name_H-M "P -1"
_symmetry_group_IT_number 2
_symmetry_cell_setting 'triclinic'
loop_
_space_group_symop_operation_xyz
x,y,z
-x,-y,-z
loop_
_atom_site_type_symbol
_atom_site_label
_atom_site_fract_x
_atom_site_fract_y
_atom_site_fract_z
Si Si1 0.833154 0.001857 0.096120
Si Si2 0.278624 0.726989 0.236129
Si Si3 0.068148 0.106850 0.403028
Si Si4 0.376914 0.098302 0.116832
Si Si5 0.680942 0.293282 0.445851
Si Si6 0.000090 0.263167 0.038174
Si Si7 0.411920 0.276888 0.174427
Si Si8 0.445691 0.940188 0.469795
O O1 0.660454 0.100326 0.186935
O O2 0.715339 0.188090 0.928857
O O3 0.038247 0.875661 0.215468
O O4 0.917912 0.846376 0.064096
O O5 0.456594 0.497462 0.289777
O O6 0.362240 0.701088 0.384538
O O7 0.832625 0.273318 0.420458
O O8 0.032732 0.148684 0.216342
O O9 0.213773 0.890695 0.539048
O O10 0.192322 0.107053 0.437376
O O11 0.350841 0.229250 0.117705
O O12 0.133953 0.257077 0.047061
O O13 0.496205 0.919623 0.303832
O O14 0.500000 0.000000 0.000000
O O15 0.748796 0.499430 0.950466
O O16 0.404761 0.260652 0.356606
O O17 0.500000 0.000000 0.500000
#
# Coordination Sequence:
#
# PCOD8003585 Si02
#       8
#     2   2   2   2   2   2   2   2
#     4  11  22  39  58  88 127 155 203 257 307 356
#     4  10  22  38  55  87 118 160 200 259 302 365
#     4  10  20  37  59  88 119 164 203 256 300 364
#     4  10  20  41  66  89 124 162 200 252 303 364
#     4  10  20  37  60  83 119 161 211 245 310 360
#     4  11  22  38  62  91 121 163 208 245 308 371
#     4  11  22  39  65  90 122 164 202 251 308 360
#     4   9  21  38  62  90 126 160 200 255 306 358
#
# _framework density 21.033073000000002
#
# number of rings (size 3 to 8) (size 9 to 14) (size 15 to 20)
#    0.000    1.750    2.500    1.875    1.750    0.000 
#    0.000    2.500    5.500    0.000    0.000    0.000 
#    0.000    0.000    0.000    0.000    0.000    0.000 
#
# Total GULP energy -198242.508804 kJ/mol
# GULP energy per Si atom -12390.156800 kJ/mol
# Density = 2.098520 g / cm^3
# Si number density = 21.033073 Si / 1000 Ang^3
#
#
#
# Elastic Constant Matrix: (Units=GPa)
#
#
# Indices 1 2 3 4 5 6 
#
# 1 82.9027 20.4222 25.6760 -6.1533 -8.0546 -7.1511
# 2 20.4222 103.0625 47.2223 -14.3546 -11.9632 1.5473
# 3 25.6760 47.2223 116.6878 -3.6395 -6.1651 4.0244
# 4 -6.1533 -14.3546 -3.6395 32.8486 1.8063 -6.6315
# 5 -8.0546 -11.9632 -6.1651 1.8063 23.2950 3.7391
# 6 -7.1511 1.5473 4.0244 -6.6315 3.7391 21.4471
#
#
#
# Elastic Compliance Matrix: (Units=1/GPa)
#
#
# Indices 1 2 3 4 5 6 
#
# 1 0.014087 -0.000940 -0.002692 0.002950 0.002525 0.005742
# 2 -0.000940 0.013321 -0.004787 0.004911 0.004820 0.000302
# 3 -0.002692 -0.004787 0.011164 -0.002044 0.000258 -0.003324
# 4 0.002950 0.004911 -0.002044 0.035490 -0.001723 0.012287
# 5 0.002525 0.004820 0.000258 -0.001723 0.047830 -0.008426
# 6 0.005742 0.000302 -0.003324 0.012287 -0.008426 0.054411
#
#
# Mechanical properties :
#
#
# Convention : Reuss Voigt Hill
#
# Bulk Modulus (GPa) = 46.00919 54.36601 50.18760
# Shear Modulus (GPa) = 24.95182 29.47364 27.21273
#
# Velocity S-wave (km/s) = 3.44803 3.74745 3.60085
# Velocity P-wave (km/s) = 6.14606 6.68046 6.41882
#
# Compressibility (1/GPa) = 0.02173479
#
# Stress axis : x y z
#
# Youngs Moduli (GPa) = 70.98618 75.06774 89.57528
#
# Poissons Ratio (x) = 0.07058 0.24112
# Poissons Ratio (y) = 0.06675 0.42877
# Poissons Ratio (z) = 0.19108 0.35932
#
# Static dielectric constant tensor:
#      x y z
#    x 3.899530 -0.185250 -0.068060 
#    y -0.185250 3.559890 -0.092140 
#    z -0.068060 -0.092140 4.229100 
# 
# 
# High freq. dielectric constant tensor:
#      x y z
#    x 1.828190 -0.015620 -0.001020 
#    y -0.015620 1.792630 -0.005180 
#    z -0.001020 -0.005180 1.842750 
# 
# From -- ./inp_files/217637.got.cif
#   From: 2010.06.25/outbox.cif.g09.slc.cpg/sg2_109_cif.got.tgz:217637.got - 2010.06.27 13:26:56.
