data_PCOD8003455
_publ_section_title
;
Structure prediction by ZEFSAII (Michael W. Deem and Ramdas Pophale) SiO2 
 PCOD8003455
Probable space group: P -1
;
_chemical_formula_sum "Si O2"
_cell_formula_units_Z 14
_cell_length_a 13.791263
_cell_length_b 8.266444
_cell_length_c 10.162104
_cell_angle_alpha 44.485900
_cell_angle_beta 110.432074
_cell_angle_gamma 96.099782
_cell_volume 742.540321
_symmetry_space_group_name_H-M "P -1"
_symmetry_group_IT_number 2
_symmetry_cell_setting 'triclinic'
loop_
_space_group_symop_operation_xyz
x,y,z
-x,-y,-z
loop_
_atom_site_type_symbol
_atom_site_label
_atom_site_fract_x
_atom_site_fract_y
_atom_site_fract_z
Si Si1 0.133894 0.138383 0.150419
Si Si2 0.416419 0.505240 0.344121
Si Si3 0.803132 0.190068 0.877994
Si Si4 0.495040 0.654017 0.780107
Si Si5 0.653358 0.884899 0.600820
Si Si6 0.967741 0.871123 0.305343
Si Si7 0.030634 0.539450 0.279098
O O1 0.224167 0.194465 0.255366
O O2 0.186107 0.968551 0.155568
O O3 0.059405 0.017609 0.277875
O O4 0.063600 0.383398 0.917026
O O5 0.500000 0.500000 0.500000
O O6 0.319877 0.726016 0.194520
O O7 0.479230 0.529358 0.223791
O O8 0.369756 0.265436 0.450998
O O9 0.859535 0.410724 0.753608
O O10 0.856259 0.042662 0.115294
O O11 0.582581 0.818758 0.727858
O O12 0.379807 0.833347 0.607240
O O13 0.500000 0.500000 0.000000
O O14 0.956113 0.735895 0.515210
O O15 0.999580 0.693360 0.304019
#
# Coordination Sequence:
#
# PCOD8003455 Si02
#       7
#     2   2   2   2   2   2   2
#     4   9  16  30  55  78 103 144 178 213 259 322
#     4  10  20  37  58  78 110 142 178 231 277 311
#     4   9  17  30  51  78 109 136 176 223 265 305
#     4   9  20  39  57  75 105 144 182 220 266 331
#     4   9  20  36  57  76 108 142 182 221 270 325
#     4   8  15  29  48  77 109 141 173 215 254 323
#     4   8  15  29  49  76 108 140 178 207 262 319
#
# _framework density 18.854195000000001
#
# number of rings (size 3 to 8) (size 9 to 14) (size 15 to 20)
#    0.857    2.286    0.000    2.571    0.000    1.143 
#    2.571    6.429    0.000    1.714    0.000    0.000 
#    0.000    0.000    0.000    0.000    0.000    0.000 
#
# Total GULP energy -173456.397693 kJ/mol
# GULP energy per Si atom -12389.742692 kJ/mol
# Density = 1.881128 g / cm^3
# Si number density = 18.854195 Si / 1000 Ang^3
#
#
#
# Elastic Constant Matrix: (Units=GPa)
#
#
# Indices 1 2 3 4 5 6 
#
# 1 74.9075 38.8944 73.8038 4.4303 23.8681 9.3083
# 2 38.8944 59.6357 46.8300 9.4914 8.9880 2.3375
# 3 73.8038 46.8300 167.3791 -6.5223 0.2480 14.1298
# 4 4.4303 9.4914 -6.5223 25.7139 7.0505 5.9742
# 5 23.8681 8.9880 0.2480 7.0505 37.6193 2.3555
# 6 9.3083 2.3375 14.1298 5.9742 2.3555 29.5914
#
#
#
# Elastic Compliance Matrix: (Units=1/GPa)
#
#
# Indices 1 2 3 4 5 6 
#
# 1 0.042382 -0.012390 -0.014855 0.000842 -0.023768 -0.003538
# 2 -0.012390 0.028764 -0.003485 -0.011383 0.002809 0.005364
# 3 -0.014855 -0.003485 0.014014 0.005687 0.009327 -0.003634
# 4 0.000842 -0.011383 0.005687 0.048764 -0.006276 -0.011427
# 5 -0.023768 0.002809 0.009327 -0.006276 0.042061 0.000720
# 6 -0.003538 0.005364 -0.003634 -0.011427 0.000720 0.038468
#
#
# Mechanical properties :
#
#
# Convention : Reuss Voigt Hill
#
# Bulk Modulus (GPa) = 42.19249 68.99763 55.59506
# Shear Modulus (GPa) = 17.61729 28.07787 22.84758
#
# Velocity S-wave (km/s) = 3.06011 3.86322 3.48487
# Velocity P-wave (km/s) = 5.90868 7.52157 6.76338
#
# Compressibility (1/GPa) = 0.02370090
#
# Stress axis : x y z
#
# Youngs Moduli (GPa) = 23.59495 34.76583 71.35671
#
# Poissons Ratio (x) = 0.43074 1.05998
# Poissons Ratio (y) = 0.29234 0.24868
# Poissons Ratio (z) = 0.35049 0.12116
#
# Static dielectric constant tensor:
#      x y z
#    x 2.599330 1.087650 -0.396820 
#    y 1.087650 1.689020 0.305730 
#    z -0.396820 0.305730 3.474570 
# 
# 
# High freq. dielectric constant tensor:
#      x y z
#    x 1.720660 -0.003000 0.014550 
#    y -0.003000 1.707630 -0.005100 
#    z 0.014550 -0.005100 1.725350 
# 
# From -- ./inp_files/294188.got.cif
#   From: 2010.06.25/outbox.cif.g09.slc.cpg/sg2_148_cif.got.tgz:294188.got - 2010.06.27 13:26:56.
