data_PCOD8003544
_publ_section_title
;
Structure prediction by ZEFSAII (Michael W. Deem and Ramdas Pophale) SiO2 
 PCOD8003544
Probable space group: P -1
;
_chemical_formula_sum "Si O2"
_cell_formula_units_Z 16
_cell_length_a 28.315525
_cell_length_b 28.454772
_cell_length_c 12.208653
_cell_angle_alpha 154.521021
_cell_angle_beta 26.027268
_cell_angle_gamma 169.858608
_cell_volume 738.627535
_symmetry_space_group_name_H-M "P -1"
_symmetry_group_IT_number 2
_symmetry_cell_setting 'triclinic'
loop_
_space_group_symop_operation_xyz
x,y,z
-x,-y,-z
loop_
_atom_site_type_symbol
_atom_site_label
_atom_site_fract_x
_atom_site_fract_y
_atom_site_fract_z
Si Si1 0.754855 0.268520 0.603211
Si Si2 0.851858 0.567637 0.171410
Si Si3 0.688473 0.847736 0.642500
Si Si4 0.203445 0.616569 0.892856
Si Si5 0.769567 0.164558 0.567726
Si Si6 0.658280 0.374633 0.578287
Si Si7 0.800836 0.906214 0.767700
Si Si8 0.712232 0.622252 0.123483
O O1 0.782689 0.196534 0.479453
O O2 0.000000 0.500000 0.500000
O O3 0.500000 0.000000 0.500000
O O4 0.745962 0.376433 0.907332
O O5 0.596418 0.410781 0.371604
O O6 0.930535 0.589925 0.172794
O O7 0.113450 0.876503 0.237697
O O8 0.673812 0.852661 0.815907
O O9 0.784629 0.813931 0.344192
O O10 0.388958 0.708912 0.624698
O O11 0.371833 0.864082 0.132322
O O12 0.000000 0.500000 0.000000
O O13 0.072569 0.435377 0.546886
O O14 0.591420 0.892503 0.387515
O O15 0.672961 0.518226 0.872808
O O16 0.550882 0.626411 0.771751
O O17 0.000000 0.000000 0.500000
O O18 0.015313 0.175920 0.961840
#
# Coordination Sequence:
#
# PCOD8003544 Si02
#       8
#     2   2   2   2   2   2   2   2
#     4  11  23  38  56  86 122 150 186 238 294 355
#     4  11  24  39  62  87 117 161 197 234 301 361
#     4  11  22  39  58  87 124 159 195 236 284 358
#     4   9  22  44  65  86 114 154 203 252 301 361
#     4  10  22  38  60  86 115 152 196 242 296 358
#     4  11  22  38  62  87 113 149 198 255 297 332
#     4  10  20  37  59  83 119 163 197 233 283 342
#     4  11  22  37  60  92 122 156 204 244 282 343
#
# _framework density 21.661798000000001
#
# number of rings (size 3 to 8) (size 9 to 14) (size 15 to 20)
#    0.000    1.500    0.000    6.375    0.000   13.000 
#    0.000    1.250    0.000    0.000    0.000    0.000 
#    0.000    0.000    0.000    0.000    0.000    0.000 
#
# Total GULP energy -198215.999603 kJ/mol
# GULP energy per Si atom -12388.499975 kJ/mol
# Density = 2.161250 g / cm^3
# Si number density = 21.661798 Si / 1000 Ang^3
#
#
#
# Elastic Constant Matrix: (Units=GPa)
#
#
# Indices 1 2 3 4 5 6 
#
# 1 129.9509 23.9773 7.3848 -2.6593 5.6282 -9.2612
# 2 23.9773 118.9750 16.4629 3.4156 -1.8945 -9.7701
# 3 7.3848 16.4629 113.0144 8.8902 2.5787 -15.9809
# 4 -2.6593 3.4156 8.8902 27.3584 -1.6793 -7.3684
# 5 5.6282 -1.8945 2.5787 -1.6793 29.2807 1.2737
# 6 -9.2612 -9.7701 -15.9809 -7.3684 1.2737 32.8713
#
#
#
# Elastic Compliance Matrix: (Units=1/GPa)
#
#
# Indices 1 2 3 4 5 6 
#
# 1 0.008247 -0.001538 -0.000080 0.001517 -0.001688 0.002233
# 2 -0.001538 0.009010 -0.000963 -0.000467 0.000865 0.001638
# 3 -0.000080 -0.000963 0.009751 -0.002047 -0.001198 0.004019
# 4 0.001517 -0.000467 -0.002047 0.039721 0.001783 0.008128
# 5 -0.001688 0.000865 -0.001198 0.001783 0.034816 -0.001750
# 6 0.002233 0.001638 0.004019 0.008128 -0.001750 0.035382
#
#
# Mechanical properties :
#
#
# Convention : Reuss Voigt Hill
#
# Bulk Modulus (GPa) = 45.77712 50.84335 48.31024
# Shear Modulus (GPa) = 33.47363 38.84309 36.15836
#
# Velocity S-wave (km/s) = 3.93527 4.23917 4.09004
# Velocity P-wave (km/s) = 6.46738 6.89080 6.68245
#
# Compressibility (1/GPa) = 0.02184498
#
# Stress axis : x y z
#
# Youngs Moduli (GPa) = 121.25879 110.98652 102.55692
#
# Poissons Ratio (x) = 0.17070 0.00820
# Poissons Ratio (y) = 0.18650 0.09880
# Poissons Ratio (z) = 0.00969 0.10692
#
# Static dielectric constant tensor:
#      x y z
#    x 4.141890 0.096390 0.285710 
#    y 0.096390 3.875880 0.139060 
#    z 0.285710 0.139060 4.069560 
# 
# 
# High freq. dielectric constant tensor:
#      x y z
#    x 1.838770 0.000700 0.008930 
#    y 0.000700 1.853910 0.008860 
#    z 0.008930 0.008860 1.855550 
# 
# From -- ./inp_files/477234.got.cif
#   From: 2010.06.25/outbox.cif.g09.slc.cpg/sg2_239_cif.got.tgz:477234.got - 2010.06.27 13:26:56.
