data_PCOD8003933
_publ_section_title
;
Structure prediction by ZEFSAII (Michael W. Deem and Ramdas Pophale) SiO2 
 PCOD8003933
Probable space group: P -1
;
_chemical_formula_sum "Si O2"
_cell_formula_units_Z 16
_cell_length_a 11.544590
_cell_length_b 13.514491
_cell_length_c 9.670200
_cell_angle_alpha 132.254871
_cell_angle_beta 56.255951
_cell_angle_gamma 131.240641
_cell_volume 822.465363
_symmetry_space_group_name_H-M "P -1"
_symmetry_group_IT_number 2
_symmetry_cell_setting 'triclinic'
loop_
_space_group_symop_operation_xyz
x,y,z
-x,-y,-z
loop_
_atom_site_type_symbol
_atom_site_label
_atom_site_fract_x
_atom_site_fract_y
_atom_site_fract_z
Si Si1 0.977479 0.701492 0.980820
Si Si2 0.510641 0.857290 0.681971
Si Si3 0.657367 0.130430 0.456705
Si Si4 0.203765 0.167927 0.607603
Si Si5 0.835356 0.352957 0.784133
Si Si6 0.702232 0.191945 0.976468
Si Si7 0.967100 0.135093 0.186335
Si Si8 0.009662 0.165498 0.484148
O O1 0.986803 0.745051 0.854627
O O2 0.934945 0.527794 0.851404
O O3 0.144158 0.798943 0.037946
O O4 0.838714 0.725709 0.166820
O O5 0.377722 0.820528 0.621223
O O6 0.610297 0.774252 0.483221
O O7 0.625196 0.034410 0.796400
O O8 0.417918 0.789641 0.822078
O O9 0.727748 0.272592 0.647507
O O10 0.784742 0.071151 0.290673
O O11 0.500000 0.000000 0.500000
O O12 0.147564 0.170871 0.491976
O O13 0.132624 0.003848 0.570443
O O14 0.735944 0.322621 0.963405
O O15 0.953262 0.285357 0.683706
O O16 0.069055 0.208106 0.326135
O O17 0.000000 0.000000 0.000000
#
# Coordination Sequence:
#
# PCOD8003933 Si02
#       8
#     2   2   2   2   2   2   2   2
#     4  12  24  40  64  93 128 159 210 257 311 365
#     4  11  22  38  64  93 124 158 210 257 303 363
#     4  11  22  41  62  90 127 165 205 249 308 376
#     4  11  20  38  63  93 122 159 204 261 303 358
#     4  11  23  41  65  91 122 171 205 252 313 368
#     4  11  21  39  63  94 121 159 210 255 297 371
#     4  11  23  38  63  96 121 160 211 262 301 358
#     4  10  20  37  62  90 124 157 212 250 304 354
#
# _framework density 19.453707999999999
#
# number of rings (size 3 to 8) (size 9 to 14) (size 15 to 20)
#    0.000    1.000    6.250    1.875    0.000    2.000 
#    0.000    1.250    0.000    0.000    0.000    0.000 
#    0.000    0.000    0.000    0.000    0.000    0.000 
#
# Total GULP energy -198352.176509 kJ/mol
# GULP energy per Si atom -12397.011032 kJ/mol
# Density = 1.940943 g / cm^3
# Si number density = 19.453708 Si / 1000 Ang^3
#
#
#
# Elastic Constant Matrix: (Units=GPa)
#
#
# Indices 1 2 3 4 5 6 
#
# 1 90.5758 34.4914 43.2213 -8.1411 7.3222 -14.5190
# 2 34.4914 105.3736 40.4276 -5.6345 3.5475 -21.7756
# 3 43.2213 40.4276 98.3637 -14.0456 -7.9404 -5.8611
# 4 -8.1411 -5.6345 -14.0456 36.4204 -10.1139 3.8781
# 5 7.3222 3.5475 -7.9404 -10.1139 35.8492 -8.9192
# 6 -14.5190 -21.7756 -5.8611 3.8781 -8.9192 27.5730
#
#
#
# Elastic Compliance Matrix: (Units=1/GPa)
#
#
# Indices 1 2 3 4 5 6 
#
# 1 0.015626 -0.001690 -0.006272 -0.000632 -0.003465 0.004528
# 2 -0.001690 0.013551 -0.004426 -0.000948 -0.000004 0.009004
# 3 -0.006272 -0.004426 0.016004 0.006107 0.006447 -0.002169
# 4 -0.000632 -0.000948 0.006107 0.032548 0.010520 -0.000958
# 5 -0.003465 -0.000004 0.006447 0.010520 0.035363 0.009502
# 6 0.004528 0.009004 -0.002169 -0.000958 0.009502 0.048510
#
#
# Mechanical properties :
#
#
# Convention : Reuss Voigt Hill
#
# Bulk Modulus (GPa) = 49.00464 58.95487 53.97976
# Shear Modulus (GPa) = 25.88266 31.71337 28.79801
#
# Velocity S-wave (km/s) = 3.65152 4.04195 3.85169
# Velocity P-wave (km/s) = 6.55921 7.22178 6.89846
#
# Compressibility (1/GPa) = 0.02040623
#
# Stress axis : x y z
#
# Youngs Moduli (GPa) = 63.99616 73.79320 62.48248
#
# Poissons Ratio (x) = 0.12471 0.39187
# Poissons Ratio (y) = 0.10815 0.27656
# Poissons Ratio (z) = 0.40136 0.32663
#
# Static dielectric constant tensor:
#      x y z
#    x 3.508120 0.119640 -0.271620 
#    y 0.119640 2.800590 0.390500 
#    z -0.271620 0.390500 2.821430 
# 
# 
# High freq. dielectric constant tensor:
#      x y z
#    x 1.757100 -0.021150 0.005030 
#    y -0.021150 1.736860 -0.028540 
#    z 0.005030 -0.028540 1.766280 
# 
# From -- ./inp_files/260560.got.cif
#   From: 2010.06.25/outbox.cif.g09.slc.cpg/sg2_131_cif.got.tgz:260560.got - 2010.06.27 13:26:56.
