data_PCOD8003146
_publ_section_title
;
Structure prediction by ZEFSAII (Michael W. Deem and Ramdas Pophale) SiO2 
 PCOD8003146
Probable space group: P -1
;
_chemical_formula_sum "Si O2"
_cell_formula_units_Z 14
_cell_length_a 12.421376
_cell_length_b 9.643688
_cell_length_c 11.960176
_cell_angle_alpha 101.442180
_cell_angle_beta 44.742133
_cell_angle_gamma 125.590551
_cell_volume 760.058092
_symmetry_space_group_name_H-M "P -1"
_symmetry_group_IT_number 2
_symmetry_cell_setting 'triclinic'
loop_
_space_group_symop_operation_xyz
x,y,z
-x,-y,-z
loop_
_atom_site_type_symbol
_atom_site_label
_atom_site_fract_x
_atom_site_fract_y
_atom_site_fract_z
Si Si1 0.451626 0.323758 0.338571
Si Si2 0.092913 0.407435 0.453883
Si Si3 0.088115 0.263146 0.658440
Si Si4 0.104151 0.413906 0.898739
Si Si5 0.062351 0.157204 0.063985
Si Si6 0.907359 0.044205 0.395542
Si Si7 0.494068 0.456548 0.868708
O O1 0.328063 0.378721 0.498032
O O2 0.659927 0.424844 0.262369
O O3 0.477843 0.382613 0.198468
O O4 0.320677 0.101902 0.413722
O O5 0.025701 0.336202 0.619235
O O6 0.331830 0.553822 0.289072
O O7 0.000000 0.500000 0.500000
O O8 0.022926 0.236598 0.401545
O O9 0.020835 0.284643 0.830302
O O10 0.986856 0.047919 0.677381
O O11 0.051053 0.298707 0.031240
O O12 0.000000 0.500000 0.000000
O O13 0.907595 0.073722 0.267103
O O14 0.285145 0.259490 0.960863
O O15 0.000000 0.000000 0.000000
O O16 0.500000 0.500000 0.000000
#
# Coordination Sequence:
#
# PCOD8003146 Si02
#       7
#     2   2   2   2   2   2   2
#     4   8  20  37  60  83 114 160 205 224 295 366
#     4  11  23  37  59  93 119 152 196 257 306 341
#     4   9  20  37  62  79 115 162 197 229 288 372
#     4  11  22  37  60  90 122 152 190 254 306 338
#     4  11  21  39  62  89 118 158 206 244 290 360
#     4  10  20  38  63  80 117 156 208 230 288 366
#     4  10  20  36  63  86 118 160 202 243 292 362
#
# _framework density 18.419644999999999
#
# number of rings (size 3 to 8) (size 9 to 14) (size 15 to 20)
#    0.857    1.143    2.857    0.857    2.000    1.143 
#    2.571    0.714    0.000    2.571    0.000    0.000 
#    0.000    0.000    0.000    0.000    0.000    0.000 
#
# Total GULP energy -173491.864611 kJ/mol
# GULP energy per Si atom -12392.276044 kJ/mol
# Density = 1.837772 g / cm^3
# Si number density = 18.419645 Si / 1000 Ang^3
#
#
#
# Elastic Constant Matrix: (Units=GPa)
#
#
# Indices 1 2 3 4 5 6 
#
# 1 111.6162 58.2930 45.2581 4.9312 5.5739 -11.0498
# 2 58.2930 105.8193 40.0457 -0.4988 -6.0924 -1.6092
# 3 45.2581 40.0457 82.9090 -5.4255 17.8254 -3.4878
# 4 4.9312 -0.4988 -5.4255 31.9014 -3.4588 0.4817
# 5 5.5739 -6.0924 17.8254 -3.4588 30.2543 3.3108
# 6 -11.0498 -1.6092 -3.4878 0.4817 3.3108 33.3712
#
#
#
# Elastic Compliance Matrix: (Units=1/GPa)
#
#
# Indices 1 2 3 4 5 6 
#
# 1 0.014952 -0.006610 -0.004514 -0.003500 -0.002312 0.004440
# 2 -0.006610 0.015725 -0.005804 0.001219 0.008258 -0.002874
# 3 -0.004514 -0.005804 0.020164 0.002705 -0.012071 0.001491
# 4 -0.003500 0.001219 0.002705 0.032740 0.003216 -0.001609
# 5 -0.002312 0.008258 -0.012071 0.003216 0.043275 -0.005969
# 6 0.004440 -0.002874 0.001491 -0.001609 -0.005969 0.032069
#
#
# Mechanical properties :
#
#
# Convention : Reuss Voigt Hill
#
# Bulk Modulus (GPa) = 58.87601 65.28201 62.07901
# Shear Modulus (GPa) = 25.19638 29.55521 27.37580
#
# Velocity S-wave (km/s) = 3.70254 4.01003 3.85935
# Velocity P-wave (km/s) = 7.09306 7.54711 7.32360
#
# Compressibility (1/GPa) = 0.01698485
#
# Stress axis : x y z
#
# Youngs Moduli (GPa) = 66.88266 63.59221 49.59398
#
# Poissons Ratio (x) = 0.42036 0.22387
# Poissons Ratio (y) = 0.44211 0.28782
# Poissons Ratio (z) = 0.30191 0.36906
#
# Static dielectric constant tensor:
#      x y z
#    x 3.428020 0.019070 0.236390 
#    y 0.019070 3.226100 -0.279450 
#    z 0.236390 -0.279450 3.566130 
# 
# 
# High freq. dielectric constant tensor:
#      x y z
#    x 1.708610 0.005110 0.024750 
#    y 0.005110 1.698600 -0.015900 
#    z 0.024750 -0.015900 1.713090 
# 
# From -- ./inp_files/415113.got.cif
#   From: 2010.06.25/outbox.cif.g09.slc.cpg/sg2_208_cif.got.tgz:415113.got - 2010.06.27 13:26:56.
