data_PCOD8003068
_publ_section_title
;
Structure prediction by ZEFSAII (Michael W. Deem and Ramdas Pophale) SiO2 
 PCOD8003068
Probable space group: P -1
;
_chemical_formula_sum "Si O2"
_cell_formula_units_Z 16
_cell_length_a 12.808610
_cell_length_b 9.020283
_cell_length_c 14.252799
_cell_angle_alpha 138.596745
_cell_angle_beta 119.340300
_cell_angle_gamma 43.398579
_cell_volume 742.766391
_symmetry_space_group_name_H-M "P -1"
_symmetry_group_IT_number 2
_symmetry_cell_setting 'triclinic'
loop_
_space_group_symop_operation_xyz
x,y,z
-x,-y,-z
loop_
_atom_site_type_symbol
_atom_site_label
_atom_site_fract_x
_atom_site_fract_y
_atom_site_fract_z
Si Si1 0.155730 0.189002 0.890898
Si Si2 0.412115 0.475269 0.314335
Si Si3 0.573732 0.186959 0.061617
Si Si4 0.283356 0.427131 0.953525
Si Si5 0.438547 0.255178 0.425604
Si Si6 0.647032 0.593183 0.228935
Si Si7 0.184724 0.652950 0.632643
Si Si8 0.122654 0.788883 0.222980
O O1 0.193693 0.299713 0.871414
O O2 0.969446 0.351995 0.895026
O O3 0.256858 0.129703 0.002621
O O4 0.235031 0.855321 0.744752
O O5 0.496445 0.252938 0.161184
O O6 0.440221 0.307010 0.341719
O O7 0.465072 0.671462 0.439874
O O8 0.230314 0.679150 0.308431
O O9 0.574632 0.437094 0.141276
O O10 0.465301 0.182761 0.938028
O O11 0.254942 0.529398 0.882358
O O12 0.216460 0.697436 0.123311
O O13 0.264435 0.442885 0.478599
O O14 0.512510 0.929230 0.321752
O O15 0.759763 0.527662 0.332452
O O16 0.998849 0.867251 0.653786
#
# Coordination Sequence:
#
# PCOD8003068 Si02
#       8
#     2   2   2   2   2   2   2   2
#     4   9  18  37  58  83 113 152 190 231 291 326
#     4  10  20  36  62  88 107 153 191 242 281 331
#     4  10  20  39  57  84 121 148 193 242 280 334
#     4  11  21  34  62  87 114 151 194 237 279 347
#     4  11  21  37  64  85 115 146 198 241 279 336
#     4  11  22  36  60  88 116 154 190 232 291 334
#     4   9  21  39  57  81 120 157 180 236 286 336
#     4   9  21  39  60  82 121 148 189 237 291 337
#
# _framework density 21.541094000000001
#
# number of rings (size 3 to 8) (size 9 to 14) (size 15 to 20)
#    0.750    1.250    2.500    2.250    1.750    2.000 
#    0.000    0.625    5.500    0.000    0.000    0.000 
#    0.000    0.000    0.000    0.000    0.000    0.000 
#
# Total GULP energy -198257.800836 kJ/mol
# GULP energy per Si atom -12391.112552 kJ/mol
# Density = 2.149207 g / cm^3
# Si number density = 21.541094 Si / 1000 Ang^3
#
#
#
# Elastic Constant Matrix: (Units=GPa)
#
#
# Indices 1 2 3 4 5 6 
#
# 1 79.3681 56.1475 23.8605 -2.2050 -12.9377 0.4981
# 2 56.1475 114.3732 26.1600 2.9663 -9.0971 -5.3358
# 3 23.8605 26.1600 51.5231 -4.7026 -14.5233 3.4399
# 4 -2.2050 2.9663 -4.7026 27.7619 2.0786 -5.3771
# 5 -12.9377 -9.0971 -14.5233 2.0786 19.6213 -5.9493
# 6 0.4981 -5.3358 3.4399 -5.3771 -5.9493 44.2161
#
#
#
# Elastic Compliance Matrix: (Units=1/GPa)
#
#
# Indices 1 2 3 4 5 6 
#
# 1 0.021251 -0.009211 -0.002928 0.001635 0.007424 0.000075
# 2 -0.009211 0.014120 -0.003652 -0.002439 -0.001488 0.001595
# 3 -0.002928 -0.003652 0.027575 0.003617 0.016433 0.000098
# 4 0.001635 -0.002439 0.003617 0.037808 -0.000174 0.003980
# 5 0.007424 -0.001488 0.016433 -0.000174 0.069723 0.007818
# 6 0.000075 0.001595 0.000098 0.003980 0.007818 0.024336
#
#
# Mechanical properties :
#
#
# Convention : Reuss Voigt Hill
#
# Bulk Modulus (GPa) = 31.88386 50.84448 41.36417
# Shear Modulus (GPa) = 21.11053 27.59295 24.35174
#
# Velocity S-wave (km/s) = 3.13391 3.58291 3.36591
# Velocity P-wave (km/s) = 5.28476 6.38522 5.86088
#
# Compressibility (1/GPa) = 0.03136383
#
# Stress axis : x y z
#
# Youngs Moduli (GPa) = 47.05616 70.82235 36.26532
#
# Poissons Ratio (x) = 0.65237 0.10617
# Poissons Ratio (y) = 0.43345 0.13244
# Poissons Ratio (z) = 0.13776 0.25864
#
# Static dielectric constant tensor:
#      x y z
#    x 3.882440 -0.216410 -0.012970 
#    y -0.216410 4.175170 -0.006040 
#    z -0.012970 -0.006040 3.735800 
# 
# 
# High freq. dielectric constant tensor:
#      x y z
#    x 1.837750 -0.004820 -0.002950 
#    y -0.004820 1.853460 0.009710 
#    z -0.002950 0.009710 1.830700 
# 
# From -- ./inp_files/513713.got.cif
#   From: 2010.06.25/outbox.cif.g09.slc.cpg/sg2_257_cif.got.tgz:513713.got - 2010.06.27 13:26:56.
