data_PCOD8003356
_publ_section_title
;
Structure prediction by ZEFSAII (Michael W. Deem and Ramdas Pophale) SiO2 
 PCOD8003356
Probable space group: P -1
;
_chemical_formula_sum "Si O2"
_cell_formula_units_Z 16
_cell_length_a 12.671063
_cell_length_b 15.847928
_cell_length_c 14.932096
_cell_angle_alpha 26.115386
_cell_angle_beta 61.882240
_cell_angle_gamma 44.047298
_cell_volume 754.690186
_symmetry_space_group_name_H-M "P -1"
_symmetry_group_IT_number 2
_symmetry_cell_setting 'triclinic'
loop_
_space_group_symop_operation_xyz
x,y,z
-x,-y,-z
loop_
_atom_site_type_symbol
_atom_site_label
_atom_site_fract_x
_atom_site_fract_y
_atom_site_fract_z
Si Si1 0.044817 0.421483 0.914885
Si Si2 0.448002 0.355362 0.192626
Si Si3 0.300991 0.636059 0.364131
Si Si4 0.063418 0.851410 0.518556
Si Si5 0.549198 0.035786 0.767031
Si Si6 0.953644 0.192971 0.060547
Si Si7 0.346908 0.169135 0.269550
Si Si8 0.556095 0.648873 0.228510
O O1 0.876107 0.556903 0.917997
O O2 0.033126 0.665059 0.682876
O O3 0.006927 0.354961 0.898347
O O4 0.250250 0.103824 0.166502
O O5 0.427690 0.247601 0.216788
O O6 0.604514 0.087624 0.452786
O O7 0.500000 0.500000 0.000000
O O8 0.252718 0.586252 0.103767
O O9 0.371165 0.753828 0.186378
O O10 0.392859 0.448905 0.596369
O O11 0.372442 0.392697 0.496042
O O12 0.082660 0.925918 0.191494
O O13 0.282375 0.623680 0.641995
O O14 0.000000 0.000000 0.500000
O O15 0.959934 0.096919 0.249728
O O16 0.552414 0.932249 0.768324
O O17 0.516107 0.920351 0.967989
#
# Coordination Sequence:
#
# PCOD8003356 Si02
#       8
#     2   2   2   2   2   2   2   2
#     4  10  21  34  55  86 125 148 175 238 293 347
#     4  10  22  43  62  79 113 152 199 247 291 339
#     4  10  20  37  54  82 119 159 197 223 277 356
#     4  10  21  30  52  88 120 148 188 227 288 351
#     4  11  21  34  58  88 122 150 186 238 291 343
#     4  10  22  38  59  83 113 159 195 231 288 343
#     4  10  23  37  58  89 112 151 197 239 297 345
#     4   9  20  33  50  81 122 161 185 220 281 353
#
# _framework density 21.200752000000001
#
# number of rings (size 3 to 8) (size 9 to 14) (size 15 to 20)
#    0.000    2.000    0.000    3.750   10.500    3.000 
#    0.000    0.625    0.000    1.500    0.000    0.000 
#    0.000    0.000    0.000    0.000    0.000    0.000 
#
# Total GULP energy -198239.996129 kJ/mol
# GULP energy per Si atom -12389.999758 kJ/mol
# Density = 2.115250 g / cm^3
# Si number density = 21.200752 Si / 1000 Ang^3
#
#
#
# Elastic Constant Matrix: (Units=GPa)
#
#
# Indices 1 2 3 4 5 6 
#
# 1 67.9672 31.2894 41.7943 -3.0546 -10.5627 -15.6379
# 2 31.2894 108.8410 28.1399 -24.3192 -2.7641 -6.9094
# 3 41.7943 28.1399 69.9835 -19.2296 -15.8363 -5.8452
# 4 -3.0546 -24.3192 -19.2296 38.6386 -3.1397 -2.6305
# 5 -10.5627 -2.7641 -15.8363 -3.1397 28.4653 0.0465
# 6 -15.6379 -6.9094 -5.8452 -2.6305 0.0465 16.4634
#
#
#
# Elastic Compliance Matrix: (Units=1/GPa)
#
#
# Indices 1 2 3 4 5 6 
#
# 1 0.032597 -0.005230 -0.017563 -0.007934 0.000907 0.021262
# 2 -0.005230 0.012420 0.000503 0.007801 0.000403 0.001669
# 3 -0.017563 0.000503 0.031455 0.015422 0.012737 -0.002875
# 4 -0.007934 0.007801 0.015422 0.039216 0.010706 0.007448
# 5 0.000907 0.000403 0.012737 0.010706 0.043761 0.007140
# 6 0.021262 0.001669 -0.002875 0.007448 0.007140 0.081786
#
#
# Mechanical properties :
#
#
# Convention : Reuss Voigt Hill
#
# Bulk Modulus (GPa) = 31.35541 49.91546 40.63544
# Shear Modulus (GPa) = 16.86651 26.41800 21.64225
#
# Velocity S-wave (km/s) = 2.82363 3.53383 3.19850
# Velocity P-wave (km/s) = 5.04504 6.34396 5.73142
#
# Compressibility (1/GPa) = 0.03189242
#
# Stress axis : x y z
#
# Youngs Moduli (GPa) = 30.67787 80.51342 31.79147
#
# Poissons Ratio (x) = 0.42110 0.55835
# Poissons Ratio (y) = 0.16045 -0.01600
# Poissons Ratio (z) = 0.53879 -0.04053
#
# Static dielectric constant tensor:
#      x y z
#    x 3.682320 -0.217530 -0.191550 
#    y -0.217530 3.971420 -0.287670 
#    z -0.191550 -0.287670 3.942040 
# 
# 
# High freq. dielectric constant tensor:
#      x y z
#    x 1.807160 -0.014280 -0.026790 
#    y -0.014280 1.830170 -0.023750 
#    z -0.026790 -0.023750 1.826340 
# 
# From -- ./inp_files/522153.got.cif
#   From: 2010.06.25/outbox.cif.g09.slc.cpg/sg2_262_cif.got.tgz:522153.got - 2010.06.27 13:26:56.
