data_PCOD8003906
_publ_section_title
;
Structure prediction by ZEFSAII (Michael W. Deem and Ramdas Pophale) SiO2 
 PCOD8003906
Probable space group: P -1
;
_chemical_formula_sum "Si O2"
_cell_formula_units_Z 16
_cell_length_a 7.974001
_cell_length_b 5.108479
_cell_length_c 21.034827
_cell_angle_alpha 94.830937
_cell_angle_beta 100.457877
_cell_angle_gamma 90.372179
_cell_volume 839.419652
_symmetry_space_group_name_H-M "P -1"
_symmetry_group_IT_number 2
_symmetry_cell_setting 'triclinic'
loop_
_space_group_symop_operation_xyz
x,y,z
-x,-y,-z
loop_
_atom_site_type_symbol
_atom_site_label
_atom_site_fract_x
_atom_site_fract_y
_atom_site_fract_z
Si Si1 0.938435 0.290383 0.114421
Si Si2 0.295165 0.684639 0.788097
Si Si3 0.498538 0.834210 0.212249
Si Si4 0.634898 0.388674 0.460433
Si Si5 0.172010 0.790224 0.114811
Si Si6 0.177915 0.091330 0.540163
Si Si7 0.338028 0.880735 0.663843
Si Si8 0.381794 0.749875 0.000229
O O1 0.050629 0.536759 0.104699
O O2 0.880158 0.323326 0.184315
O O3 0.766469 0.270863 0.062098
O O4 0.051839 0.037731 0.107535
O O5 0.405677 0.430412 0.803255
O O6 0.244728 0.713150 0.710423
O O7 0.414847 0.936865 0.821343
O O8 0.296443 0.806755 0.184987
O O9 0.524029 0.917042 0.290089
O O10 0.500000 0.500000 0.500000
O O11 0.303580 0.884364 0.510137
O O12 0.567669 0.320166 0.382486
O O13 0.785993 0.607802 0.469389
O O14 0.295472 0.773126 0.063074
O O15 0.197898 0.043176 0.617090
O O16 0.000000 0.000000 0.500000
O O17 0.500000 0.500000 0.000000
O O18 0.500000 0.000000 0.000000
#
# Coordination Sequence:
#
# PCOD8003906 Si02
#       8
#     2   2   2   2   2   2   2   2
#     4  12  24  40  62  92 129 154 197 266 311 335
#     4  10  20  39  62  81 116 166 206 236 292 372
#     4  10  20  39  62  81 116 166 206 236 292 372
#     4  10  20  37  62  88 117 155 191 248 302 352
#     4  12  24  40  62  92 129 154 197 266 311 335
#     4  10  20  37  62  88 117 155 191 248 302 352
#     4   8  22  34  68  77 126 148 218 228 304 351
#     4  12  24  42  66  94 116 168 214 238 298 376
#
# _framework density 19.060787999999999
#
# number of rings (size 3 to 8) (size 9 to 14) (size 15 to 20)
#    1.500    0.000    0.000    6.750    0.000    0.000 
#    0.000    1.250    0.000    0.000    0.000    0.000 
#    0.000    0.000    0.000    0.000    0.000    0.000 
#
# Total GULP energy -198211.337084 kJ/mol
# GULP energy per Si atom -12388.208568 kJ/mol
# Density = 1.901740 g / cm^3
# Si number density = 19.060788 Si / 1000 Ang^3
#
#
#
# Elastic Constant Matrix: (Units=GPa)
#
#
# Indices 1 2 3 4 5 6 
#
# 1 118.8182 56.1005 62.9829 6.7121 2.2782 -2.7736
# 2 56.1005 148.5129 26.0389 11.7120 2.6801 -1.7621
# 3 62.9829 26.0389 116.4502 5.3252 3.6260 -0.1071
# 4 6.7121 11.7120 5.3252 20.8832 -0.7498 -0.0311
# 5 2.2782 2.6801 3.6260 -0.7498 34.9063 3.6193
# 6 -2.7736 -1.7621 -0.1071 -0.0311 3.6193 45.7036
#
#
#
# Elastic Compliance Matrix: (Units=1/GPa)
#
#
# Indices 1 2 3 4 5 6 
#
# 1 0.013841 -0.004030 -0.006561 -0.000514 0.000007 0.000668
# 2 -0.004030 0.008468 0.000467 -0.003592 -0.000525 0.000122
# 3 -0.006561 0.000467 0.012117 -0.001274 -0.000864 -0.000284
# 4 -0.000514 -0.003592 -0.001274 0.050445 0.001552 -0.000261
# 5 0.000007 -0.000525 -0.000864 0.001552 0.029052 -0.002321
# 6 0.000668 0.000122 -0.000284 -0.000261 -0.002321 0.022108
#
#
# Mechanical properties :
#
#
# Convention : Reuss Voigt Hill
#
# Bulk Modulus (GPa) = 70.53444 74.89177 72.71310
# Shear Modulus (GPa) = 31.05479 36.20923 33.63201
#
# Velocity S-wave (km/s) = 4.04078 4.36325 4.20511
# Velocity P-wave (km/s) = 7.67175 8.04737 7.86181
#
# Compressibility (1/GPa) = 0.01417747
#
# Stress axis : x y z
#
# Youngs Moduli (GPa) = 72.24715 118.09153 82.53153
#
# Poissons Ratio (x) = 0.47589 0.54151
# Poissons Ratio (y) = 0.29114 -0.03852
# Poissons Ratio (z) = 0.47403 -0.05512
#
# Static dielectric constant tensor:
#      x y z
#    x 3.313270 0.059230 0.009250 
#    y 0.059230 3.971240 0.015390 
#    z 0.009250 0.015390 3.537650 
# 
# 
# High freq. dielectric constant tensor:
#      x y z
#    x 1.720450 -0.000710 0.000780 
#    y -0.000710 1.764520 0.006430 
#    z 0.000780 0.006430 1.740170 
# 
# From -- ./inp_files/602954.got.cif
#   From: 2010.06.25/outbox.cif.g09.slc.cpg/sg2_302_cif.got.tgz:602954.got - 2010.06.27 13:26:56.
