data_PCOD8003128
_publ_section_title
;
Structure prediction by ZEFSAII (Michael W. Deem and Ramdas Pophale) SiO2 
 PCOD8003128
Probable space group: P -1
;
_chemical_formula_sum "Si O2"
_cell_formula_units_Z 16
_cell_length_a 13.564278
_cell_length_b 22.923246
_cell_length_c 14.125447
_cell_angle_alpha 18.811654
_cell_angle_beta 150.059030
_cell_angle_gamma 147.652257
_cell_volume 698.593351
_symmetry_space_group_name_H-M "P -1"
_symmetry_group_IT_number 2
_symmetry_cell_setting 'triclinic'
loop_
_space_group_symop_operation_xyz
x,y,z
-x,-y,-z
loop_
_atom_site_type_symbol
_atom_site_label
_atom_site_fract_x
_atom_site_fract_y
_atom_site_fract_z
Si Si1 0.434403 0.064790 0.946387
Si Si2 0.425006 0.989762 0.654988
Si Si3 0.115368 0.748346 0.155476
Si Si4 0.156287 0.915779 0.380894
Si Si5 0.636582 0.435660 0.501291
Si Si6 0.737979 0.511840 0.171705
Si Si7 0.627618 0.330926 0.185565
Si Si8 0.256128 0.210352 0.852783
O O1 0.458768 0.285873 0.627637
O O2 0.578431 0.002725 0.244843
O O3 0.500000 0.000000 0.000000
O O4 0.203603 0.962021 0.921682
O O5 0.209229 0.948333 0.486208
O O6 0.539659 0.178649 0.421738
O O7 0.544238 0.824296 0.980052
O O8 0.202058 0.671873 0.248739
O O9 0.182129 0.639364 0.466800
O O10 0.871045 0.711103 0.000982
O O11 0.268879 0.752281 0.688317
O O12 0.921106 0.859760 0.259729
O O13 0.231841 0.100644 0.100844
O O14 0.737019 0.573118 0.455214
O O15 0.546659 0.560181 0.158995
O O16 0.786028 0.467629 0.169902
O O17 0.500000 0.500000 0.000000
#
# Coordination Sequence:
#
# PCOD8003128 Si02
#       8
#     2   2   2   2   2   2   2   2
#     4  10  24  43  64  87 131 177 207 257 318 373
#     4  11  20  40  64  89 126 166 210 260 312 375
#     4  10  22  40  60  90 123 165 210 256 320 367
#     4  10  20  36  62  97 130 155 208 267 320 369
#     4  11  20  39  66  89 130 170 205 258 319 374
#     4  11  21  36  65  95 117 156 214 271 307 371
#     4  11  19  36  63  95 123 158 209 262 316 368
#     4  10  20  36  63  99 124 161 206 266 319 365
#
# _framework density 22.903165999999999
#
# number of rings (size 3 to 8) (size 9 to 14) (size 15 to 20)
#    0.000    1.500    5.000    1.500    0.000    0.500 
#    2.250    1.250    8.250    0.000    0.000    0.000 
#    0.000    0.000    0.000    0.000    0.000    0.000 
#
# Total GULP energy -198250.222328 kJ/mol
# GULP energy per Si atom -12390.638895 kJ/mol
# Density = 2.285104 g / cm^3
# Si number density = 22.903166 Si / 1000 Ang^3
#
#
#
# Elastic Constant Matrix: (Units=GPa)
#
#
# Indices 1 2 3 4 5 6 
#
# 1 44.4586 50.1976 19.4110 7.7792 -18.0816 -15.4020
# 2 50.1976 179.0375 40.3182 8.1592 -8.1572 -9.0427
# 3 19.4110 40.3182 56.4000 -0.9305 -3.6349 -2.0510
# 4 7.7792 8.1592 -0.9305 42.4681 -5.4522 -5.2690
# 5 -18.0816 -8.1572 -3.6349 -5.4522 22.6715 8.6057
# 6 -15.4020 -9.0427 -2.0510 -5.2690 8.6057 39.5075
#
#
#
# Elastic Compliance Matrix: (Units=1/GPa)
#
#
# Indices 1 2 3 4 5 6 
#
# 1 0.059848 -0.012368 -0.009005 -0.002614 0.036778 0.011674
# 2 -0.012368 0.009367 -0.002926 -0.000623 -0.006548 -0.001486
# 3 -0.009005 -0.002926 0.022666 0.002029 -0.003352 -0.002003
# 4 -0.002614 -0.000623 0.002029 0.024815 0.003411 0.001510
# 5 0.036778 -0.006548 -0.003352 0.003411 0.072371 -0.002644
# 6 0.011674 -0.001486 -0.002003 0.001510 -0.002644 0.030196
#
#
# Mechanical properties :
#
#
# Convention : Reuss Voigt Hill
#
# Bulk Modulus (GPa) = 23.10322 55.52772 39.31547
# Shear Modulus (GPa) = 17.71246 32.26071 24.98658
#
# Velocity S-wave (km/s) = 2.78396 3.75716 3.30656
# Velocity P-wave (km/s) = 4.52141 6.56650 5.63747
#
# Compressibility (1/GPa) = 0.04328400
#
# Stress axis : x y z
#
# Youngs Moduli (GPa) = 16.70905 106.75941 44.11928
#
# Poissons Ratio (x) = 1.32036 0.39729
# Poissons Ratio (y) = 0.20665 0.12909
# Poissons Ratio (z) = 0.15046 0.31236
#
# Static dielectric constant tensor:
#      x y z
#    x 4.041070 -0.133110 -0.032810 
#    y -0.133110 4.966560 -0.223360 
#    z -0.032810 -0.223360 4.105030 
# 
# 
# High freq. dielectric constant tensor:
#      x y z
#    x 1.874850 -0.025520 0.003650 
#    y -0.025520 1.931460 -0.004170 
#    z 0.003650 -0.004170 1.876330 
# 
# From -- ./inp_files/535383.got.cif
#   From: 2010.06.25/outbox.cif.g09.slc.cpg/sg2_268_cif.got.tgz:535383.got - 2010.06.27 13:26:56.
