data_PCOD8003879
_publ_section_title
;
Structure prediction by ZEFSAII (Michael W. Deem and Ramdas Pophale) SiO2 
 PCOD8003879
Probable space group: P -1
;
_chemical_formula_sum "Si O2"
_cell_formula_units_Z 16
_cell_length_a 8.468695
_cell_length_b 15.766884
_cell_length_c 11.651445
_cell_angle_alpha 120.863491
_cell_angle_beta 40.287412
_cell_angle_gamma 99.769399
_cell_volume 791.703169
_symmetry_space_group_name_H-M "P -1"
_symmetry_group_IT_number 2
_symmetry_cell_setting 'triclinic'
loop_
_space_group_symop_operation_xyz
x,y,z
-x,-y,-z
loop_
_atom_site_type_symbol
_atom_site_label
_atom_site_fract_x
_atom_site_fract_y
_atom_site_fract_z
Si Si1 0.099733 0.546369 0.371497
Si Si2 0.026625 0.767851 0.018706
Si Si3 0.677032 0.289636 0.581324
Si Si4 0.611471 0.747540 0.683913
Si Si5 0.652056 0.794581 0.438794
Si Si6 0.292201 0.323577 0.011695
Si Si7 0.729017 0.827982 0.890661
Si Si8 0.241512 0.024453 0.837977
O O1 0.308491 0.593867 0.336063
O O2 0.000000 0.500000 0.500000
O O3 0.854346 0.638188 0.507677
O O4 0.245429 0.448530 0.135423
O O5 0.935768 0.765332 0.199035
O O6 0.957861 0.683378 0.921857
O O7 0.865960 0.887083 0.140288
O O8 0.341605 0.729551 0.810473
O O9 0.479049 0.287644 0.587752
O O10 0.563168 0.263683 0.746474
O O11 0.964938 0.199003 0.330097
O O12 0.689013 0.786811 0.549037
O O13 0.569512 0.840469 0.868012
O O14 0.465716 0.916252 0.588712
O O15 0.310857 0.269340 0.087809
O O16 0.629386 0.933646 0.098746
O O17 0.000000 0.000000 0.000000
#
# Coordination Sequence:
#
# PCOD8003879 Si02
#       8
#     2   2   2   2   2   2   2   2
#     4  11  22  40  61  87 115 160 199 239 295 350
#     4  10  23  40  61  90 119 155 196 241 295 346
#     4  10  20  37  62  84 117 152 201 242 287 347
#     4  11  23  38  58  85 127 151 189 251 293 343
#     4  11  22  41  60  90 120 154 196 245 289 350
#     4  10  20  40  61  84 116 156 202 242 283 353
#     4  10  21  38  59  92 115 157 197 238 296 339
#     4  11  19  39  70  83 117 159 198 235 290 357
#
# _framework density 20.209595
#
# number of rings (size 3 to 8) (size 9 to 14) (size 15 to 20)
#    0.000    1.500    5.000    1.500    0.000    3.000 
#    2.250    1.875    0.000    0.000    0.000    0.000 
#    0.000    0.000    0.000    0.000    0.000    0.000 
#
# Total GULP energy -198357.531911 kJ/mol
# GULP energy per Si atom -12397.345744 kJ/mol
# Density = 2.016360 g / cm^3
# Si number density = 20.209595 Si / 1000 Ang^3
#
#
#
# Elastic Constant Matrix: (Units=GPa)
#
#
# Indices 1 2 3 4 5 6 
#
# 1 90.3514 50.2938 17.7845 -9.3193 26.9545 -4.1700
# 2 50.2938 87.0798 30.9694 -1.8215 10.7382 9.2981
# 3 17.7845 30.9694 67.0086 -12.3360 14.8191 -5.1725
# 4 -9.3193 -1.8215 -12.3360 40.3259 -2.4643 7.3519
# 5 26.9545 10.7382 14.8191 -2.4643 21.9115 2.9539
# 6 -4.1700 9.2981 -5.1725 7.3519 2.9539 29.1835
#
#
#
# Elastic Compliance Matrix: (Units=1/GPa)
#
#
# Indices 1 2 3 4 5 6 
#
# 1 0.033137 -0.019821 0.011424 0.004886 -0.040373 0.015931
# 2 -0.019821 0.026629 -0.013788 -0.003472 0.022310 -0.015144
# 3 0.011424 -0.013788 0.026016 0.006275 -0.025758 0.011663
# 4 0.004886 -0.003472 0.006275 0.028057 -0.004905 -0.003655
# 5 -0.040373 0.022310 -0.025758 -0.004905 0.104854 -0.026820
# 6 0.015931 -0.015144 0.011663 -0.003655 -0.026820 0.047070
#
#
# Mechanical properties :
#
#
# Convention : Reuss Voigt Hill
#
# Bulk Modulus (GPa) = 24.14876 49.17057 36.65967
# Shear Modulus (GPa) = 15.43513 27.97698 21.70606
#
# Velocity S-wave (km/s) = 2.76661 3.72471 3.28082
# Velocity P-wave (km/s) = 4.70963 6.54837 5.70358
#
# Compressibility (1/GPa) = 0.04140999
#
# Stress axis : x y z
#
# Youngs Moduli (GPa) = 30.17818 37.55330 38.43804
#
# Poissons Ratio (x) = 0.74436 -0.43912
# Poissons Ratio (y) = 0.59818 0.52999
# Poissons Ratio (z) = -0.34476 0.51780
#
# Static dielectric constant tensor:
#      x y z
#    x 3.766210 0.128850 0.248240 
#    y 0.128850 5.665750 0.700740 
#    z 0.248240 0.700740 4.104610 
# 
# 
# High freq. dielectric constant tensor:
#      x y z
#    x 1.780410 0.019670 0.026100 
#    y 0.019670 1.786980 -0.017940 
#    z 0.026100 -0.017940 1.791610 
# 
# From -- ./inp_files/282397.got.cif
#   From: 2010.06.25/outbox.cif.g09.slc.cpg/sg2_142_cif.got.tgz:282397.got - 2010.06.27 13:26:56.
