data_PCOD8003439
_publ_section_title
;
Structure prediction by ZEFSAII (Michael W. Deem and Ramdas Pophale) SiO2 
 PCOD8003439
Probable space group: P -1
;
_chemical_formula_sum "Si O2"
_cell_formula_units_Z 16
_cell_length_a 9.748494
_cell_length_b 20.282096
_cell_length_c 12.784344
_cell_angle_alpha 142.232685
_cell_angle_beta 146.090487
_cell_angle_gamma 62.624395
_cell_volume 707.024506
_symmetry_space_group_name_H-M "P -1"
_symmetry_group_IT_number 2
_symmetry_cell_setting 'triclinic'
loop_
_space_group_symop_operation_xyz
x,y,z
-x,-y,-z
loop_
_atom_site_type_symbol
_atom_site_label
_atom_site_fract_x
_atom_site_fract_y
_atom_site_fract_z
Si Si1 0.198758 0.424188 0.649039
Si Si2 0.688532 0.246225 0.642318
Si Si3 0.573150 0.048399 0.468038
Si Si4 0.182235 0.526901 0.391672
Si Si5 0.910867 0.839148 0.724865
Si Si6 0.881608 0.362067 0.700505
Si Si7 0.399403 0.155425 0.660289
Si Si8 0.513331 0.596964 0.879206
O O1 0.016201 0.268739 0.356568
O O2 0.284863 0.464549 0.633210
O O3 0.001857 0.472565 0.626030
O O4 0.500000 0.500000 0.000000
O O5 0.727989 0.132874 0.566234
O O6 0.388001 0.219470 0.468465
O O7 0.665691 0.245471 0.500145
O O8 0.988682 0.384715 0.038819
O O9 0.640630 0.149588 0.733295
O O10 0.702561 0.962077 0.466880
O O11 0.208566 0.970488 0.123714
O O12 0.285779 0.643008 0.518316
O O13 0.474935 0.561231 0.684853
O O14 0.863294 0.863337 0.604105
O O15 0.000000 0.500000 0.000000
O O16 0.146032 0.350021 0.814179
O O17 0.543810 0.291694 0.985297
#
# Coordination Sequence:
#
# PCOD8003439 Si02
#       8
#     2   2   2   2   2   2   2   2
#     4  12  18  35  61  92 119 146 182 242 307 350
#     4  10  20  38  59  81 118 155 199 241 280 350
#     4  10  22  38  59  87 115 156 197 238 291 344
#     4  11  22  37  59  92 119 148 192 242 304 356
#     4  11  20  37  61  86 117 152 190 241 299 347
#     4  10  22  41  59  83 121 156 195 246 293 349
#     4  10  20  37  57  85 119 146 191 244 286 345
#     4  12  23  37  61  89 120 155 188 244 308 348
#
# _framework density 22.630051000000002
#
# number of rings (size 3 to 8) (size 9 to 14) (size 15 to 20)
#    0.000    1.250    3.750    4.125    0.000    5.000 
#    0.000    8.125    0.000    9.000    0.000    0.000 
#    0.000    0.000    0.000    0.000    0.000    0.000 
#
# Total GULP energy -198254.346868 kJ/mol
# GULP energy per Si atom -12390.896679 kJ/mol
# Density = 2.257854 g / cm^3
# Si number density = 22.630051 Si / 1000 Ang^3
#
#
#
# Elastic Constant Matrix: (Units=GPa)
#
#
# Indices 1 2 3 4 5 6 
#
# 1 64.2433 45.5975 18.4034 2.2102 2.2102 30.0008
# 2 45.5975 182.7944 33.7562 10.4600 0.1595 45.5178
# 3 18.4034 33.7562 62.7977 7.1437 -13.2764 15.1468
# 4 2.2102 10.4600 7.1437 33.7788 5.2583 -4.7136
# 5 2.2102 0.1595 -13.2764 5.2583 21.1432 -1.2462
# 6 30.0008 45.5178 15.1468 -4.7136 -1.2462 53.8365
#
#
#
# Elastic Compliance Matrix: (Units=1/GPa)
#
#
# Indices 1 2 3 4 5 6 
#
# 1 0.023407 -0.002585 -0.004244 -0.000334 -0.005588 -0.009823
# 2 -0.002585 0.007856 -0.002234 -0.002321 -0.000897 -0.004797
# 3 -0.004244 -0.002234 0.023278 -0.006895 0.016644 -0.002514
# 4 -0.000334 -0.002321 -0.006895 0.034704 -0.012505 0.006837
# 5 -0.005588 -0.000897 0.016644 -0.012505 0.061420 -0.000483
# 6 -0.009823 -0.004797 -0.002514 0.006837 -0.000483 0.029399
#
#
# Mechanical properties :
#
#
# Convention : Reuss Voigt Hill
#
# Bulk Modulus (GPa) = 27.46129 56.14997 41.80563
# Shear Modulus (GPa) = 23.77208 35.89025 29.83116
#
# Velocity S-wave (km/s) = 3.24460 3.98673 3.63466
# Velocity P-wave (km/s) = 5.11838 6.78660 6.01065
#
# Compressibility (1/GPa) = 0.03641489
#
# Stress axis : x y z
#
# Youngs Moduli (GPa) = 42.72162 127.28883 42.95813
#
# Poissons Ratio (x) = 0.32906 0.18233
# Poissons Ratio (y) = 0.11044 0.09597
# Poissons Ratio (z) = 0.18133 0.28437
#
# Static dielectric constant tensor:
#      x y z
#    x 3.962650 0.554080 -0.378920 
#    y 0.554080 4.289480 0.696520 
#    z -0.378920 0.696520 3.442380 
# 
# 
# High freq. dielectric constant tensor:
#      x y z
#    x 1.861980 0.016160 -0.018860 
#    y 0.016160 1.927340 -0.006620 
#    z -0.018860 -0.006620 1.858530 
# 
# From -- ./inp_files/405627.got.cif
#   From: 2010.06.25/outbox.cif.g09.slc.cpg/sg2_203_cif.got.tgz:405627.got - 2010.06.27 13:26:56.
