data_PCOD8003588
_publ_section_title
;
Structure prediction by ZEFSAII (Michael W. Deem and Ramdas Pophale) SiO2 
 PCOD8003588
Probable space group: P -1
;
_chemical_formula_sum "Si O2"
_cell_formula_units_Z 16
_cell_length_a 18.281967
_cell_length_b 10.253075
_cell_length_c 11.922318
_cell_angle_alpha 58.886116
_cell_angle_beta 30.704354
_cell_angle_gamma 42.519252
_cell_volume 725.536320
_symmetry_space_group_name_H-M "P -1"
_symmetry_group_IT_number 2
_symmetry_cell_setting 'triclinic'
loop_
_space_group_symop_operation_xyz
x,y,z
-x,-y,-z
loop_
_atom_site_type_symbol
_atom_site_label
_atom_site_fract_x
_atom_site_fract_y
_atom_site_fract_z
Si Si1 0.078071 0.310436 0.359035
Si Si2 0.516614 0.147111 0.351426
Si Si3 0.615164 0.102414 0.738245
Si Si4 0.809089 0.538760 0.218178
Si Si5 0.217228 0.795421 0.927327
Si Si6 0.800695 0.209396 0.296573
Si Si7 0.355441 0.125064 0.892436
Si Si8 0.739834 0.535369 0.847729
O O1 0.123794 0.455259 0.258939
O O2 0.847505 0.447454 0.622928
O O3 0.190314 0.116337 0.381164
O O4 0.147778 0.226872 0.177069
O O5 0.314775 0.378576 0.538953
O O6 0.695919 0.111105 0.180962
O O7 0.500000 0.000000 0.500000
O O8 0.556846 0.084166 0.195058
O O9 0.654394 0.232251 0.564391
O O10 0.503366 0.065134 0.821500
O O11 0.476111 0.238911 0.968402
O O12 0.861941 0.330815 0.206492
O O13 0.676766 0.709706 0.221123
O O14 0.000000 0.500000 0.000000
O O15 0.295862 0.710001 0.735291
O O16 0.280607 0.614658 0.004215
O O17 0.987281 0.969467 0.149682
#
# Coordination Sequence:
#
# PCOD8003588 Si02
#       8
#     2   2   2   2   2   2   2   2
#     4  10  21  40  61  92 124 159 208 254 300 361
#     4  10  21  39  58  82 121 160 197 245 310 365
#     4  11  21  38  64  94 126 156 206 259 299 365
#     4  11  23  40  59  91 125 157 200 254 308 371
#     4  11  22  37  61  91 122 157 205 258 304 365
#     4  11  21  35  62  93 120 156 202 254 315 358
#     4  10  21  39  62  86 120 169 200 245 313 360
#     4  10  20  37  59  88 123 156 200 257 300 348
#
# _framework density 22.052651999999998
#
# number of rings (size 3 to 8) (size 9 to 14) (size 15 to 20)
#    0.000    1.500    1.250    6.750    0.000    2.500 
#    9.000    0.625    0.000    3.750    0.000    0.000 
#    0.000    0.000    0.000    0.000    0.000    0.000 
#
# Total GULP energy -198342.981393 kJ/mol
# GULP energy per Si atom -12396.436337 kJ/mol
# Density = 2.200246 g / cm^3
# Si number density = 22.052652 Si / 1000 Ang^3
#
#
#
# Elastic Constant Matrix: (Units=GPa)
#
#
# Indices 1 2 3 4 5 6 
#
# 1 53.1133 27.5170 34.9693 7.0300 9.7510 26.7034
# 2 27.5170 84.3529 28.3318 -0.6304 8.4496 21.6729
# 3 34.9693 28.3318 141.9361 12.9572 20.1268 23.1449
# 4 7.0300 -0.6304 12.9572 48.2029 10.7896 0.6908
# 5 9.7510 8.4496 20.1268 10.7896 33.7198 6.0575
# 6 26.7034 21.6729 23.1449 0.6908 6.0575 26.2774
#
#
#
# Elastic Compliance Matrix: (Units=1/GPa)
#
#
# Indices 1 2 3 4 5 6 
#
# 1 0.041778 -0.003029 -0.003076 -0.004454 -0.001451 -0.036796
# 2 -0.003029 0.015507 -0.000861 0.001304 -0.001354 -0.008674
# 3 -0.003076 -0.000861 0.009112 -0.001217 -0.003335 -0.003389
# 4 -0.004454 0.001304 -0.001217 0.023162 -0.006704 0.005459
# 5 -0.001451 -0.001354 -0.003335 -0.006704 0.034975 -0.002357
# 6 -0.036796 -0.008674 -0.003389 0.005459 -0.002357 0.085987
#
#
# Mechanical properties :
#
#
# Convention : Reuss Voigt Hill
#
# Bulk Modulus (GPa) = 19.06101 51.22649 35.14375
# Shear Modulus (GPa) = 20.66630 34.21229 27.43930
#
# Velocity S-wave (km/s) = 3.06459 3.94304 3.53124
# Velocity P-wave (km/s) = 4.60265 6.63398 5.70939
#
# Compressibility (1/GPa) = 0.05246311
#
# Stress axis : x y z
#
# Youngs Moduli (GPa) = 23.93622 64.48872 109.74841
#
# Poissons Ratio (x) = 0.19536 0.33756
# Poissons Ratio (y) = 0.07251 0.09454
# Poissons Ratio (z) = 0.07362 0.05555
#
# Static dielectric constant tensor:
#      x y z
#    x 3.677650 0.286370 0.431310 
#    y 0.286370 4.095110 0.420420 
#    z 0.431310 0.420420 4.616650 
# 
# 
# High freq. dielectric constant tensor:
#      x y z
#    x 1.819930 0.010450 0.014430 
#    y 0.010450 1.874010 0.011680 
#    z 0.014430 0.011680 1.889700 
# 
# From -- ./inp_files/461978.got.cif
#   From: 2010.06.25/outbox.cif.g09.slc.cpg/sg2_231_cif.got.tgz:461978.got - 2010.06.27 13:26:56.
