data_PCOD8003172
_publ_section_title
;
Structure prediction by ZEFSAII (Michael W. Deem and Ramdas Pophale) SiO2 
 PCOD8003172
Probable space group: P -1
;
_chemical_formula_sum "Si O2"
_cell_formula_units_Z 14
_cell_length_a 22.224635
_cell_length_b 12.025118
_cell_length_c 17.602986
_cell_angle_alpha 149.383902
_cell_angle_beta 164.566006
_cell_angle_gamma 33.252877
_cell_volume 636.839396
_symmetry_space_group_name_H-M "P -1"
_symmetry_group_IT_number 2
_symmetry_cell_setting 'triclinic'
loop_
_space_group_symop_operation_xyz
x,y,z
-x,-y,-z
loop_
_atom_site_type_symbol
_atom_site_label
_atom_site_fract_x
_atom_site_fract_y
_atom_site_fract_z
Si Si1 0.656320 0.314177 0.229825
Si Si2 0.377638 0.743942 0.121915
Si Si3 0.768803 0.018115 0.059873
Si Si4 0.822239 0.971058 0.832287
Si Si5 0.837353 0.262962 0.578093
Si Si6 0.548452 0.567166 0.513196
Si Si7 0.948606 0.451006 0.103243
O O1 0.445074 0.486470 0.059649
O O2 0.664084 0.224516 0.274218
O O3 0.892052 0.434805 0.573228
O O4 0.642781 0.112379 0.037455
O O5 0.590038 0.896910 0.469950
O O6 0.244762 0.795995 0.912275
O O7 0.218347 0.809676 0.038546
O O8 0.644568 0.803576 0.756439
O O9 0.035155 0.959570 0.367495
O O10 0.930482 0.783126 0.908925
O O11 0.000000 0.000000 0.000000
O O12 0.706055 0.381043 0.556249
O O13 0.043842 0.410595 0.885472
O O14 0.500000 0.500000 0.500000
O O15 0.297669 0.571074 0.172559
#
# Coordination Sequence:
#
# PCOD8003172 Si02
#       7
#     2   2   2   2   2   2   2
#     4   9  22  44  63  87 126 168 200 246 312 371
#     4  10  22  37  63  90 122 161 203 250 304 359
#     4  12  22  40  67  91 126 159 205 259 307 352
#     4  10  20  36  63  91 122 159 205 248 305 364
#     4  10  23  41  65  84 128 163 204 245 311 365
#     4  12  23  37  65  96 121 156 213 260 297 357
#     4   9  21  39  62  86 124 159 207 240 308 359
#
# _framework density 21.983564999999999
#
# number of rings (size 3 to 8) (size 9 to 14) (size 15 to 20)
#    0.857    0.857    1.429    3.000    6.000    0.000 
#    0.000    2.857    0.000    3.429    0.000    0.000 
#    0.000    0.000    0.000    0.000    0.000    0.000 
#
# Total GULP energy -173516.578921 kJ/mol
# GULP energy per Si atom -12394.041352 kJ/mol
# Density = 2.193353 g / cm^3
# Si number density = 21.983565 Si / 1000 Ang^3
#
#
#
# Elastic Constant Matrix: (Units=GPa)
#
#
# Indices 1 2 3 4 5 6 
#
# 1 127.0195 57.3707 19.4420 -18.3356 -8.7234 -15.6615
# 2 57.3707 155.3826 22.9258 -34.7308 -16.4021 -10.3971
# 3 19.4420 22.9258 29.0665 -17.2789 2.4903 -2.5547
# 4 -18.3356 -34.7308 -17.2789 23.0927 -1.4824 -7.5948
# 5 -8.7234 -16.4021 2.4903 -1.4824 27.1143 -9.3666
# 6 -15.6615 -10.3971 -2.5547 -7.5948 -9.3666 49.8854
#
#
#
# Elastic Compliance Matrix: (Units=1/GPa)
#
#
# Indices 1 2 3 4 5 6 
#
# 1 0.010727 -0.001148 -0.001844 0.007422 0.005101 0.005122
# 2 -0.001148 0.014804 0.007350 0.031088 0.013171 0.010307
# 3 -0.001844 0.007350 0.071822 0.069161 0.006710 0.016420
# 4 0.007422 0.031088 0.069161 0.164981 0.039358 0.044859
# 5 0.005101 0.013171 0.006710 0.039358 0.055302 0.021066
# 6 0.005122 0.010307 0.016420 0.044859 0.021066 0.035428
#
#
# Mechanical properties :
#
#
# Convention : Reuss Voigt Hill
#
# Bulk Modulus (GPa) = 9.42794 56.77176 33.09985
# Shear Modulus (GPa) = 13.16809 34.13381 23.65095
#
# Velocity S-wave (km/s) = 2.45010 3.94470 3.28357
# Velocity P-wave (km/s) = 3.50741 6.82849 5.42818
#
# Compressibility (1/GPa) = 0.10606770
#
# Stress axis : x y z
#
# Youngs Moduli (GPa) = 93.22279 67.54927 13.92326
#
# Poissons Ratio (x) = 0.07758 0.02567
# Poissons Ratio (y) = 0.10706 -0.10233
# Poissons Ratio (z) = 0.17189 -0.49646
#
# Static dielectric constant tensor:
#      x y z
#    x 3.657200 0.082880 -0.106590 
#    y 0.082880 4.272470 -0.382740 
#    z -0.106590 -0.382740 3.817180 
# 
# 
# High freq. dielectric constant tensor:
#      x y z
#    x 1.853840 0.002360 -0.009870 
#    y 0.002360 1.878970 -0.026380 
#    z -0.009870 -0.026380 1.831190 
# 
# From -- ./inp_files/578043.got.cif
#   From: 2010.06.25/outbox.cif.g09.slc.cpg/sg2_290_cif.got.tgz:578043.got - 2010.06.27 13:26:56.
