data_PCOD8003888
_publ_section_title
;
Structure prediction by ZEFSAII (Michael W. Deem and Ramdas Pophale) SiO2 
 PCOD8003888
Probable space group: P -1
;
_chemical_formula_sum "Si O2"
_cell_formula_units_Z 16
_cell_length_a 15.254707
_cell_length_b 7.849439
_cell_length_c 8.898936
_cell_angle_alpha 88.903245
_cell_angle_beta 99.759197
_cell_angle_gamma 47.592869
_cell_volume 762.246557
_symmetry_space_group_name_H-M "P -1"
_symmetry_group_IT_number 2
_symmetry_cell_setting 'triclinic'
loop_
_space_group_symop_operation_xyz
x,y,z
-x,-y,-z
loop_
_atom_site_type_symbol
_atom_site_label
_atom_site_fract_x
_atom_site_fract_y
_atom_site_fract_z
Si Si1 0.219702 0.947119 0.657367
Si Si2 0.854030 0.477408 0.936664
Si Si3 0.802152 0.404817 0.240190
Si Si4 0.489464 0.536234 0.671161
Si Si5 0.021812 0.327194 0.390503
Si Si6 0.079185 0.308162 0.871611
Si Si7 0.376984 0.311922 0.310765
Si Si8 0.560064 0.773509 0.320141
O O1 0.200410 0.786236 0.715195
O O2 0.361421 0.795300 0.671099
O O3 0.149373 0.066804 0.475722
O O4 0.171342 0.134213 0.770684
O O5 0.761228 0.554001 0.774589
O O6 0.994045 0.269391 0.916201
O O7 0.826469 0.389867 0.069734
O O8 0.841905 0.692257 0.981510
O O9 0.673711 0.662864 0.244557
O O10 0.911420 0.339033 0.370490
O O11 0.500000 0.500000 0.500000
O O12 0.590447 0.543458 0.752309
O O13 0.500818 0.329457 0.745830
O O14 0.000000 0.500000 0.500000
O O15 0.019379 0.420085 0.224989
O O16 0.388608 0.303343 0.493811
O O17 0.463680 0.052239 0.269049
#
# Coordination Sequence:
#
# PCOD8003888 Si02
#       8
#     2   2   2   2   2   2   2   2
#     4  10  20  37  62  86 117 156 194 248 304 343
#     4  10  22  40  57  87 121 158 197 242 294 363
#     4  10  21  38  56  87 124 150 195 249 294 361
#     4   9  20  39  56  90 121 145 195 254 292 349
#     4   9  19  32  59  89 108 153 197 245 290 349
#     4   9  21  39  58  84 123 152 200 246 290 356
#     4  10  21  37  65  83 116 165 196 244 306 350
#     4   9  21  38  60  90 116 152 206 251 291 355
#
# _framework density 20.990583000000001
#
# number of rings (size 3 to 8) (size 9 to 14) (size 15 to 20)
#    0.000    2.500    0.000    0.375    8.750    3.000 
#    4.500    1.250    0.000    0.000    0.000    0.000 
#    0.000    0.000    0.000    0.000    0.000    0.000 
#
# Total GULP energy -198231.891666 kJ/mol
# GULP energy per Si atom -12389.493229 kJ/mol
# Density = 2.094281 g / cm^3
# Si number density = 20.990583 Si / 1000 Ang^3
#
#
#
# Elastic Constant Matrix: (Units=GPa)
#
#
# Indices 1 2 3 4 5 6 
#
# 1 114.4115 26.0278 31.2600 2.2945 15.5119 -6.6351
# 2 26.0278 70.8860 17.5094 15.4033 -2.2903 -0.4823
# 3 31.2600 17.5094 51.1161 6.5061 7.1230 -3.5399
# 4 2.2945 15.4033 6.5061 21.3886 -5.6359 -8.7826
# 5 15.5119 -2.2903 7.1230 -5.6359 39.6565 4.8914
# 6 -6.6351 -0.4823 -3.5399 -8.7826 4.8914 24.0534
#
#
#
# Elastic Compliance Matrix: (Units=1/GPa)
#
#
# Indices 1 2 3 4 5 6 
#
# 1 0.011883 -0.003994 -0.005571 0.004209 -0.003859 0.004700
# 2 -0.003994 0.019660 -0.003128 -0.015177 0.001980 -0.007112
# 3 -0.005571 -0.003128 0.025261 -0.005384 -0.003408 0.000845
# 4 0.004209 -0.015177 -0.005384 0.070430 0.005409 0.024680
# 5 -0.003859 0.001980 -0.003408 0.005409 0.028891 -0.005427
# 6 0.004700 -0.007112 0.000845 0.024680 -0.005427 0.052967
#
#
# Mechanical properties :
#
#
# Convention : Reuss Voigt Hill
#
# Bulk Modulus (GPa) = 31.83109 42.88977 37.36043
# Shear Modulus (GPa) = 20.41226 27.79412 24.10319
#
# Velocity S-wave (km/s) = 3.12179 3.64280 3.39231
# Velocity P-wave (km/s) = 5.30957 6.17823 5.76030
#
# Compressibility (1/GPa) = 0.03141583
#
# Stress axis : x y z
#
# Youngs Moduli (GPa) = 84.15663 50.86474 39.58722
#
# Poissons Ratio (x) = 0.20317 0.22054
# Poissons Ratio (y) = 0.33615 0.12384
# Poissons Ratio (z) = 0.46884 0.15912
#
# Static dielectric constant tensor:
#      x y z
#    x 4.182450 0.103690 0.022290 
#    y 0.103690 3.938990 -0.110050 
#    z 0.022290 -0.110050 4.035080 
# 
# 
# High freq. dielectric constant tensor:
#      x y z
#    x 1.841930 -0.000150 -0.000950 
#    y -0.000150 1.805310 0.017020 
#    z -0.000950 0.017020 1.803350 
# 
# From -- ./inp_files/298569.got.cif
#   From: 2010.06.25/outbox.cif.g09.slc.cpg/sg2_150_cif.got.tgz:298569.got - 2010.06.27 13:26:56.
