data_PCOD8003699
_publ_section_title
;
Structure prediction by ZEFSAII (Michael W. Deem and Ramdas Pophale) SiO2 
 PCOD8003699
Probable space group: P -1
;
_chemical_formula_sum "Si O2"
_cell_formula_units_Z 16
_cell_length_a 9.676133
_cell_length_b 18.477403
_cell_length_c 19.862987
_cell_angle_alpha 20.165234
_cell_angle_beta 39.381012
_cell_angle_gamma 44.445702
_cell_volume 775.643047
_symmetry_space_group_name_H-M "P -1"
_symmetry_group_IT_number 2
_symmetry_cell_setting 'triclinic'
loop_
_space_group_symop_operation_xyz
x,y,z
-x,-y,-z
loop_
_atom_site_type_symbol
_atom_site_label
_atom_site_fract_x
_atom_site_fract_y
_atom_site_fract_z
Si Si1 0.571027 0.628864 0.573653
Si Si2 0.390279 0.849156 0.620432
Si Si3 0.563406 0.747763 0.328727
Si Si4 0.414113 0.169202 0.060147
Si Si5 0.254756 0.969151 0.426981
Si Si6 0.149741 0.475711 0.683407
Si Si7 0.994062 0.187077 0.112128
Si Si8 0.182509 0.253328 0.499620
O O1 0.640912 0.625817 0.472106
O O2 0.337963 0.741127 0.571079
O O3 0.772997 0.742954 0.439738
O O4 0.542595 0.390826 0.816036
O O5 0.337776 0.998556 0.446314
O O6 0.177272 0.737121 0.833262
O O7 0.572598 0.686185 0.674461
O O8 0.500000 0.000000 0.500000
O O9 0.317438 0.666455 0.474084
O O10 0.725871 0.706404 0.242484
O O11 0.573738 0.994791 0.125500
O O12 0.210495 0.148786 0.104829
O O13 0.352784 0.137069 0.189764
O O14 0.000000 0.000000 0.500000
O O15 0.970942 0.565608 0.623074
O O16 0.033310 0.376143 0.879813
O O17 0.911089 0.975484 0.289178
#
# Coordination Sequence:
#
# PCOD8003699 Si02
#       8
#     2   2   2   2   2   2   2   2
#     4  10  23  40  61  92 127 158 201 254 313 360
#     4   9  20  38  60  89 126 160 195 245 308 359
#     4  10  23  41  62  94 121 156 210 266 297 358
#     4  11  21  39  65  89 123 162 205 254 302 362
#     4  10  20  37  60  89 122 159 204 252 293 358
#     4  11  23  39  66  92 118 161 215 251 307 364
#     4  11  21  39  65  91 118 166 208 244 307 371
#     4  10  23  42  59  90 130 158 197 261 306 361
#
# _framework density 20.628043999999999
#
# number of rings (size 3 to 8) (size 9 to 14) (size 15 to 20)
#    0.000    1.750    3.750    0.000    0.000    7.000 
#    0.000    1.250    0.000    0.000    0.000    0.000 
#    0.000    0.000    0.000    0.000    0.000    0.000 
#
# Total GULP energy -198286.445559 kJ/mol
# GULP energy per Si atom -12392.902847 kJ/mol
# Density = 2.058109 g / cm^3
# Si number density = 20.628044 Si / 1000 Ang^3
#
#
#
# Elastic Constant Matrix: (Units=GPa)
#
#
# Indices 1 2 3 4 5 6 
#
# 1 125.7769 26.0077 20.5863 4.0621 17.5444 4.9632
# 2 26.0077 33.7938 15.4802 0.2133 8.5692 3.1790
# 3 20.5863 15.4802 77.1509 -3.5883 9.6798 -2.1917
# 4 4.0621 0.2133 -3.5883 26.5591 5.7645 6.2751
# 5 17.5444 8.5692 9.6798 5.7645 29.2303 -1.6634
# 6 4.9632 3.1790 -2.1917 6.2751 -1.6634 33.0424
#
#
#
# Elastic Compliance Matrix: (Units=1/GPa)
#
#
# Indices 1 2 3 4 5 6 
#
# 1 0.009977 -0.006149 -0.001006 -0.000535 -0.003808 -0.001064
# 2 -0.006149 0.038786 -0.005321 0.002267 -0.006588 -0.003923
# 3 -0.001006 -0.005321 0.014855 0.002673 -0.003227 0.000978
# 4 -0.000535 0.002267 0.002673 0.042264 -0.010047 -0.008493
# 5 -0.003808 -0.006588 -0.003227 -0.010047 0.041763 0.005002
# 6 -0.001064 -0.003923 0.000978 -0.008493 0.005002 0.032731
#
#
# Mechanical properties :
#
#
# Convention : Reuss Voigt Hill
#
# Bulk Modulus (GPa) = 25.86206 40.09666 32.97936
# Shear Modulus (GPa) = 22.91321 29.40951 26.16136
#
# Velocity S-wave (km/s) = 3.33645 3.77995 3.56510
# Velocity P-wave (km/s) = 5.23518 6.20732 5.74186
#
# Compressibility (1/GPa) = 0.03866668
#
# Stress axis : x y z
#
# Youngs Moduli (GPa) = 100.23066 25.78250 67.31896
#
# Poissons Ratio (x) = 0.15852 0.06771
# Poissons Ratio (y) = 0.61627 0.35821
# Poissons Ratio (z) = 0.10081 0.13719
#
# Static dielectric constant tensor:
#      x y z
#    x 0.363030 -12.644650 -2.598140 
#    y -12.644650 -41.025200 -9.550280 
#    z -2.598140 -9.550280 1.224830 
# 
# 
# High freq. dielectric constant tensor:
#      x y z
#    x 1.822410 0.008230 0.018150 
#    y 0.008230 1.811230 0.002730 
#    z 0.018150 0.002730 1.782560 
# 
# From -- ./inp_files/312987.got.cif
#   From: 2010.06.25/outbox.cif.g09.slc.cpg/sg2_157_cif.got.tgz:312987.got - 2010.06.27 13:26:56.
