data_PCOD8003660
_publ_section_title
;
Structure prediction by ZEFSAII (Michael W. Deem and Ramdas Pophale) SiO2 
 PCOD8003660
Probable space group: P -1
;
_chemical_formula_sum "Si O2"
_cell_formula_units_Z 16
_cell_length_a 5.270131
_cell_length_b 17.684556
_cell_length_c 9.917968
_cell_angle_alpha 64.487622
_cell_angle_beta 91.313530
_cell_angle_gamma 64.668095
_cell_volume 729.275264
_symmetry_space_group_name_H-M "P -1"
_symmetry_group_IT_number 2
_symmetry_cell_setting 'triclinic'
loop_
_space_group_symop_operation_xyz
x,y,z
-x,-y,-z
loop_
_atom_site_type_symbol
_atom_site_label
_atom_site_fract_x
_atom_site_fract_y
_atom_site_fract_z
Si Si1 0.290806 0.138087 0.785949
Si Si2 0.719505 0.853969 0.512074
Si Si3 0.310655 0.321053 0.665654
Si Si4 0.867363 0.956683 0.635020
Si Si5 0.748636 0.661277 0.658340
Si Si6 0.576425 0.447510 0.180979
Si Si7 0.340686 0.579659 0.325961
Si Si8 0.869347 0.952946 0.936927
O O1 0.113667 0.171121 0.613952
O O2 0.431626 0.206698 0.761940
O O3 0.533450 0.028687 0.853436
O O4 0.097082 0.141274 0.910325
O O5 0.899931 0.860344 0.637029
O O6 0.622637 0.774186 0.601835
O O7 0.457282 0.960379 0.409137
O O8 0.264059 0.359646 0.483082
O O9 0.546083 0.342751 0.723043
O O10 0.003279 0.370925 0.698941
O O11 0.017847 0.926218 0.809451
O O12 0.000000 0.000000 0.500000
O O13 0.545560 0.627875 0.759012
O O14 0.080153 0.606116 0.752158
O O15 0.411481 0.532104 0.218837
O O16 0.500000 0.500000 0.000000
O O17 0.500000 0.500000 0.500000
O O18 0.000000 0.000000 0.000000
#
# Coordination Sequence:
#
# PCOD8003660 Si02
#       8
#     2   2   2   2   2   2   2   2
#     4   9  21  38  58  88 120 159 201 250 308 355
#     4   9  21  38  61  87 115 161 206 251 296 361
#     4  11  22  39  69  98 119 159 217 265 299 371
#     4  10  20  37  60  88 122 160 205 245 300 365
#     4  11  22  42  68  93 124 162 214 257 307 376
#     4  12  26  44  64  92 129 168 201 255 325 378
#     4  12  22  42  68  92 124 159 210 259 317 364
#     4  10  20  37  60  85 127 161 196 248 310 362
#
# _framework density 21.939588000000001
#
# number of rings (size 3 to 8) (size 9 to 14) (size 15 to 20)
#    0.000    1.500    2.500    2.250    3.500    1.000 
#    4.500    0.000    0.000    0.000    0.000    0.000 
#    0.000    0.000    0.000    0.000    0.000    0.000 
#
# Total GULP energy -198266.495388 kJ/mol
# GULP energy per Si atom -12391.655962 kJ/mol
# Density = 2.188965 g / cm^3
# Si number density = 21.939588 Si / 1000 Ang^3
#
#
#
# Elastic Constant Matrix: (Units=GPa)
#
#
# Indices 1 2 3 4 5 6 
#
# 1 83.8825 13.6106 39.5489 8.1056 -13.1079 26.8599
# 2 13.6106 88.8859 49.5626 13.1200 -5.4429 36.2628
# 3 39.5489 49.5626 169.5309 27.2649 -26.0891 33.8966
# 4 8.1056 13.1200 27.2649 38.4860 4.3917 4.0019
# 5 -13.1079 -5.4429 -26.0891 4.3917 27.8896 -6.2703
# 6 26.8599 36.2628 33.8966 4.0019 -6.2703 43.7157
#
#
#
# Elastic Compliance Matrix: (Units=1/GPa)
#
#
# Indices 1 2 3 4 5 6 
#
# 1 0.016666 0.003515 -0.001394 -0.003171 0.005233 -0.011034
# 2 0.003515 0.019129 -0.002707 -0.003714 -0.000069 -0.015599
# 3 -0.001394 -0.002707 0.009923 -0.006494 0.008496 -0.002779
# 4 -0.003171 -0.003714 -0.006494 0.033385 -0.012370 0.005234
# 5 0.005233 -0.000069 0.008496 -0.012370 0.047803 -0.001757
# 6 -0.011034 -0.015599 -0.002779 0.005234 -0.001757 0.044018
#
#
# Mechanical properties :
#
#
# Convention : Reuss Voigt Hill
#
# Bulk Modulus (GPa) = 22.44847 60.86039 41.65443
# Shear Modulus (GPa) = 26.74606 37.99007 32.36806
#
# Velocity S-wave (km/s) = 3.49532 4.16574 3.84517
# Velocity P-wave (km/s) = 5.15207 7.13709 6.22422
#
# Compressibility (1/GPa) = 0.04454646
#
# Stress axis : x y z
#
# Youngs Moduli (GPa) = 60.00364 52.27546 100.77856
#
# Poissons Ratio (x) = -0.18377 0.14050
# Poissons Ratio (y) = -0.21094 0.27281
# Poissons Ratio (z) = 0.08365 0.14151
#
# Static dielectric constant tensor:
#      x y z
#    x 7.398590 2.932560 3.711500 
#    y 2.932560 6.431600 3.324370 
#    z 3.711500 3.324370 8.656300 
# 
# 
# High freq. dielectric constant tensor:
#      x y z
#    x 1.851790 0.017650 -0.010700 
#    y 0.017650 1.861100 0.005680 
#    z -0.010700 0.005680 1.865300 
# 
# From -- ./inp_files/55615.got.cif
#   From: 2010.06.25/outbox.cif.g09.slc.cpg/sg2_28_cif.got.tgz:55615.got - 2010.06.27 13:26:56.
