data_PCOD8003565
_publ_section_title
;
Structure prediction by ZEFSAII (Michael W. Deem and Ramdas Pophale) SiO2 
 PCOD8003565
Probable space group: P -1
;
_chemical_formula_sum "Si O2"
_cell_formula_units_Z 16
_cell_length_a 15.709472
_cell_length_b 8.362830
_cell_length_c 19.065090
_cell_angle_alpha 68.192504
_cell_angle_beta 21.001788
_cell_angle_gamma 80.668412
_cell_volume 693.312779
_symmetry_space_group_name_H-M "P -1"
_symmetry_group_IT_number 2
_symmetry_cell_setting 'triclinic'
loop_
_space_group_symop_operation_xyz
x,y,z
-x,-y,-z
loop_
_atom_site_type_symbol
_atom_site_label
_atom_site_fract_x
_atom_site_fract_y
_atom_site_fract_z
Si Si1 0.526811 0.295833 0.078788
Si Si2 0.453543 0.944407 0.280103
Si Si3 0.045931 0.263150 0.843973
Si Si4 0.316583 0.586349 0.215130
Si Si5 0.874556 0.265655 0.118604
Si Si6 0.980755 0.587801 0.786044
Si Si7 0.758099 0.935904 0.370999
Si Si8 0.296950 0.210777 0.987263
O O1 0.604579 0.291442 0.938755
O O2 0.829199 0.443308 0.859458
O O3 0.373594 0.064375 0.266794
O O4 0.330008 0.384564 0.227518
O O5 0.203422 0.819693 0.549081
O O6 0.731304 0.105328 0.082896
O O7 0.493419 0.777652 0.235923
O O8 0.133723 0.498420 0.726311
O O9 0.265119 0.227580 0.641354
O O10 0.059098 0.239380 0.921641
O O11 0.000000 0.500000 0.500000
O O12 0.555529 0.760662 0.055542
O O13 0.873286 0.153940 0.208163
O O14 0.560975 0.162098 0.341099
O O15 0.000000 0.500000 0.000000
O O16 0.758838 0.604615 0.003916
O O17 0.986306 0.989777 0.249507
#
# Coordination Sequence:
#
# PCOD8003565 Si02
#       8
#     2   2   2   2   2   2   2   2
#     4   9  21  38  56  87 121 155 201 246 294 353
#     4  10  21  38  61  87 119 156 198 247 297 351
#     4  10  22  38  60  89 120 155 197 243 296 356
#     4  10  20  38  62  88 123 160 199 247 297 351
#     4  11  23  40  64  91 121 156 198 246 298 358
#     4  10  20  37  59  85 119 158 199 246 295 347
#     4  10  23  41  61  91 124 155 197 247 298 356
#     4  10  21  38  61  87 118 158 200 241 294 355
#
# _framework density 23.077604999999998
#
# number of rings (size 3 to 8) (size 9 to 14) (size 15 to 20)
#    0.000    2.000    0.000    2.625    0.000    6.000 
#    0.000   17.500    0.000    0.000    0.000    0.000 
#    0.000    0.000    0.000    0.000    0.000    0.000 
#
# Total GULP energy -198297.633252 kJ/mol
# GULP energy per Si atom -12393.602078 kJ/mol
# Density = 2.302508 g / cm^3
# Si number density = 23.077605 Si / 1000 Ang^3
#
#
#
# Elastic Constant Matrix: (Units=GPa)
#
#
# Indices 1 2 3 4 5 6 
#
# 1 72.2703 17.0137 30.3751 -6.2631 -2.6740 18.5431
# 2 17.0137 116.3862 32.9550 3.4490 15.6346 0.1671
# 3 30.3751 32.9550 74.2774 2.8140 8.1673 -7.1387
# 4 -6.2631 3.4490 2.8140 35.9329 -1.1484 8.1382
# 5 -2.6740 15.6346 8.1673 -1.1484 29.0838 0.9484
# 6 18.5431 0.1671 -7.1387 8.1382 0.9484 38.0625
#
#
#
# Elastic Compliance Matrix: (Units=1/GPa)
#
#
# Indices 1 2 3 4 5 6 
#
# 1 0.024570 -0.001382 -0.012172 0.009322 0.007323 -0.016422
# 2 -0.001382 0.010460 -0.003464 -0.001209 -0.004837 0.000357
# 3 -0.012172 -0.003464 0.021996 -0.006327 -0.006061 0.011574
# 4 0.009322 -0.001209 -0.006327 0.033156 0.005015 -0.012937
# 5 0.007323 -0.004837 -0.006061 0.005015 0.039777 -0.006747
# 6 -0.016422 0.000357 0.011574 -0.012937 -0.006747 0.039376
#
#
# Mechanical properties :
#
#
# Convention : Reuss Voigt Hill
#
# Bulk Modulus (GPa) = 43.49387 47.06906 45.28147
# Shear Modulus (GPa) = 23.69290 32.78853 28.24071
#
# Velocity S-wave (km/s) = 3.20763 3.77343 3.50198
# Velocity P-wave (km/s) = 5.71019 6.27896 6.00131
#
# Compressibility (1/GPa) = 0.02299174
#
# Stress axis : x y z
#
# Youngs Moduli (GPa) = 40.69938 95.60309 45.46328
#
# Poissons Ratio (x) = 0.13211 0.55336
# Poissons Ratio (y) = 0.05624 0.15748
# Poissons Ratio (z) = 0.49537 0.33115
#
# Static dielectric constant tensor:
#      x y z
#    x 4.237510 0.076330 -0.002100 
#    y 0.076330 4.354900 0.200170 
#    z -0.002100 0.200170 3.908500 
# 
# 
# High freq. dielectric constant tensor:
#      x y z
#    x 1.912440 0.018000 -0.002580 
#    y 0.018000 1.920800 0.017590 
#    z -0.002580 0.017590 1.890280 
# 
# From -- ./inp_files/599487.got.cif
#   From: 2010.06.25/outbox.cif.g09.slc.cpg/sg2_300_cif.got.tgz:599487.got - 2010.06.27 13:26:56.
