data_PCOD8003000
_publ_section_title
;
Structure prediction by ZEFSAII (Michael W. Deem and Ramdas Pophale) SiO2 
 PCOD8003000
Probable space group: P -1
;
_chemical_formula_sum "Si O2"
_cell_formula_units_Z 16
_cell_length_a 11.489954
_cell_length_b 11.274438
_cell_length_c 6.995964
_cell_angle_alpha 55.273015
_cell_angle_beta 94.570365
_cell_angle_gamma 96.861993
_cell_volume 739.436353
_symmetry_space_group_name_H-M "P -1"
_symmetry_group_IT_number 2
_symmetry_cell_setting 'triclinic'
loop_
_space_group_symop_operation_xyz
x,y,z
-x,-y,-z
loop_
_atom_site_type_symbol
_atom_site_label
_atom_site_fract_x
_atom_site_fract_y
_atom_site_fract_z
Si Si1 0.580849 0.642535 0.317873
Si Si2 0.183823 0.490802 0.624526
Si Si3 0.797481 0.293162 0.249088
Si Si4 0.058390 0.621867 0.145508
Si Si5 0.440322 0.805714 0.846273
Si Si6 0.413759 0.126759 0.556395
Si Si7 0.976647 0.068657 0.131648
Si Si8 0.830354 0.965075 0.539219
O O1 0.500000 0.500000 0.500000
O O2 0.709616 0.606818 0.304012
O O3 0.592860 0.758948 0.381388
O O4 0.523834 0.714635 0.063907
O O5 0.229167 0.633738 0.619222
O O6 0.134092 0.525994 0.377783
O O7 0.080244 0.410584 0.811019
O O8 0.686319 0.284088 0.099646
O O9 0.830708 0.132581 0.448900
O O10 0.902392 0.390218 0.061239
O O11 0.090852 0.790341 0.047412
O O12 0.480886 0.820289 0.618349
O O13 0.431547 0.966086 0.788413
O O14 0.297169 0.118330 0.418586
O O15 0.895183 0.954842 0.352810
O O16 0.098820 0.113537 0.217533
O O17 0.000000 0.000000 0.000000
#
# Coordination Sequence:
#
# PCOD8003000 Si02
#       8
#     2   2   2   2   2   2   2   2
#     4  12  26  42  64  98 129 168 213 265 319 378
#     4  11  24  39  60  89 126 163 211 250 312 374
#     4  10  20  42  63  85 124 164 203 260 308 374
#     4  10  23  40  57  90 121 169 205 248 314 370
#     4  10  23  43  69  93 123 170 213 256 328 371
#     4  10  23  43  66  95 129 162 213 267 313 384
#     4  10  20  36  61  88 123 159 203 257 307 365
#     4   9  21  37  60  93 117 158 209 252 310 364
#
# _framework density 21.638102
#
# number of rings (size 3 to 8) (size 9 to 14) (size 15 to 20)
#    0.000    1.750    0.000    3.000    3.500    3.000 
#    4.500    7.500    0.000    0.000    0.000    0.000 
#    0.000    0.000    0.000    0.000    0.000    0.000 
#
# Total GULP energy -198391.291166 kJ/mol
# GULP energy per Si atom -12399.455698 kJ/mol
# Density = 2.158885 g / cm^3
# Si number density = 21.638102 Si / 1000 Ang^3
#
#
#
# Elastic Constant Matrix: (Units=GPa)
#
#
# Indices 1 2 3 4 5 6 
#
# 1 124.2896 29.3134 26.3289 -7.1043 4.7715 -6.7484
# 2 29.3134 95.2327 25.5057 9.6277 -10.2712 -17.8816
# 3 26.3289 25.5057 61.1921 -6.2603 3.1831 -3.8200
# 4 -7.1043 9.6277 -6.2603 25.8788 -8.5022 -9.5827
# 5 4.7715 -10.2712 3.1831 -8.5022 31.0130 -2.5805
# 6 -6.7484 -17.8816 -3.8200 -9.5827 -2.5805 35.1701
#
#
#
# Elastic Compliance Matrix: (Units=1/GPa)
#
#
# Indices 1 2 3 4 5 6 
#
# 1 0.009435 -0.002421 -0.002639 0.002850 -0.001119 0.000988
# 2 -0.002421 0.014712 -0.005361 -0.003515 0.005320 0.005866
# 3 -0.002639 -0.005361 0.020423 0.005757 -0.001852 0.000419
# 4 0.002850 -0.003515 0.005757 0.051828 0.013220 0.014477
# 5 -0.001119 0.005320 -0.001852 0.013220 0.038719 0.008732
# 6 0.000988 0.005866 0.000419 0.014477 0.008732 0.036236
#
#
# Mechanical properties :
#
#
# Convention : Reuss Voigt Hill
#
# Bulk Modulus (GPa) = 42.14201 49.22338 45.68269
# Shear Modulus (GPa) = 24.98690 31.71682 28.35186
#
# Velocity S-wave (km/s) = 3.40187 3.83271 3.62370
# Velocity P-wave (km/s) = 5.91172 6.51031 6.21822
#
# Compressibility (1/GPa) = 0.02372929
#
# Stress axis : x y z
#
# Youngs Moduli (GPa) = 105.98560 67.97184 48.96337
#
# Poissons Ratio (x) = 0.16455 0.12922
# Poissons Ratio (y) = 0.25657 0.26248
# Poissons Ratio (z) = 0.27971 0.36437
#
# Static dielectric constant tensor:
#      x y z
#    x 4.123870 -0.135430 -0.001790 
#    y -0.135430 3.897520 -0.154200 
#    z -0.001790 -0.154200 3.776700 
# 
# 
# High freq. dielectric constant tensor:
#      x y z
#    x 1.864510 -0.006730 -0.002800 
#    y -0.006730 1.844100 -0.001440 
#    z -0.002800 -0.001440 1.845960 
# 
# From -- ./inp_files/68660.got.cif
#   From: 2010.06.25/outbox.cif.g09.slc.cpg/sg2_35_cif.got.tgz:68660.got - 2010.06.27 13:26:56.
