data_PCOD8003871
_publ_section_title
;
Structure prediction by ZEFSAII (Michael W. Deem and Ramdas Pophale) SiO2 
 PCOD8003871
Probable space group: P -1
;
_chemical_formula_sum "Si O2"
_cell_formula_units_Z 14
_cell_length_a 16.503198
_cell_length_b 5.162589
_cell_length_c 10.207914
_cell_angle_alpha 94.291970
_cell_angle_beta 104.823743
_cell_angle_gamma 66.376562
_cell_volume 769.927300
_symmetry_space_group_name_H-M "P -1"
_symmetry_group_IT_number 2
_symmetry_cell_setting 'triclinic'
loop_
_space_group_symop_operation_xyz
x,y,z
-x,-y,-z
loop_
_atom_site_type_symbol
_atom_site_label
_atom_site_fract_x
_atom_site_fract_y
_atom_site_fract_z
Si Si1 0.554162 0.179141 0.475175
Si Si2 0.149371 0.646622 0.264897
Si Si3 0.619464 0.608997 0.054405
Si Si4 0.749658 0.981649 0.677995
Si Si5 0.212492 0.801063 0.044971
Si Si6 0.440712 0.796802 0.828686
Si Si7 0.975855 0.794176 0.073904
O O1 0.500000 0.500000 0.500000
O O2 0.651722 0.081256 0.578078
O O3 0.566477 0.143970 0.324781
O O4 0.500000 0.000000 0.500000
O O5 0.188393 0.863535 0.354940
O O6 0.172559 0.624555 0.117141
O O7 0.038652 0.746351 0.229966
O O8 0.197937 0.347769 0.343643
O O9 0.597650 0.438584 0.157621
O O10 0.618990 0.905405 0.115557
O O11 0.718506 0.417094 0.034351
O O12 0.546360 0.676648 0.909863
O O13 0.738814 0.046253 0.832777
O O14 0.132784 0.044637 0.937111
O O15 0.000000 0.500000 0.000000
O O16 0.000000 0.000000 0.000000
#
# Coordination Sequence:
#
# PCOD8003871 Si02
#       7
#     2   2   2   2   2   2   2
#     4  12  24  38  57  77 104 138 183 228 264 312
#     4   9  18  31  47  81 112 132 169 212 272 319
#     4  10  21  36  55  73 107 140 175 217 263 320
#     4  10  20  31  51  76 104 140 168 212 272 308
#     4   9  20  29  56  78 109 137 175 208 272 320
#     4  10  23  38  51  77 104 139 178 222 265 304
#     4  10  16  29  47  78 116 133 163 219 264 323
#
# _framework density 18.183534000000002
#
# number of rings (size 3 to 8) (size 9 to 14) (size 15 to 20)
#    0.857    1.143    1.429    2.571    4.000    1.143 
#    0.000    0.000    0.000    0.000    0.000    6.000 
#    0.000    0.000    0.000    0.000    0.000    0.000 
#
# Total GULP energy -173465.874523 kJ/mol
# GULP energy per Si atom -12390.419609 kJ/mol
# Density = 1.814215 g / cm^3
# Si number density = 18.183534 Si / 1000 Ang^3
#
#
#
# Elastic Constant Matrix: (Units=GPa)
#
#
# Indices 1 2 3 4 5 6 
#
# 1 86.4325 53.1302 49.6666 -10.9251 28.1773 -10.3109
# 2 53.1302 142.1769 28.4251 -18.6829 15.1968 -4.7248
# 3 49.6666 28.4251 75.8480 -15.4027 20.6110 -12.4161
# 4 -10.9251 -18.6829 -15.4027 24.0562 -7.9356 3.1593
# 5 28.1773 15.1968 20.6110 -7.9356 28.1846 -2.9524
# 6 -10.3109 -4.7248 -12.4161 3.1593 -2.9524 45.2161
#
#
#
# Elastic Compliance Matrix: (Units=1/GPa)
#
#
# Indices 1 2 3 4 5 6 
#
# 1 0.027438 -0.006860 -0.011864 -0.006159 -0.016620 0.001627
# 2 -0.006860 0.009889 0.001374 0.006239 0.002232 -0.000444
# 3 -0.011864 0.001374 0.023741 0.009395 -0.003272 0.003087
# 4 -0.006159 0.006239 0.009395 0.053359 0.010822 -0.001195
# 5 -0.016620 0.002232 -0.003272 0.010822 0.056171 -0.001544
# 6 0.001627 -0.000444 0.003087 -0.001195 -0.001544 0.023271
#
#
# Mechanical properties :
#
#
# Convention : Reuss Voigt Hill
#
# Bulk Modulus (GPa) = 37.92661 62.98902 50.45781
# Shear Modulus (GPa) = 21.06528 31.04043 26.05285
#
# Velocity S-wave (km/s) = 3.40734 4.13614 3.78930
# Velocity P-wave (km/s) = 6.03182 7.58460 6.85234
#
# Compressibility (1/GPa) = 0.02636671
#
# Stress axis : x y z
#
# Youngs Moduli (GPa) = 36.44627 101.12362 42.12209
#
# Poissons Ratio (x) = 0.69373 0.49973
# Poissons Ratio (y) = 0.25003 -0.05787
# Poissons Ratio (z) = 0.43240 -0.13894
#
# Static dielectric constant tensor:
#      x y z
#    x 3.429720 0.025760 0.275520 
#    y 0.025760 3.552650 -0.176690 
#    z 0.275520 -0.176690 2.984830 
# 
# 
# High freq. dielectric constant tensor:
#      x y z
#    x 1.699540 0.007370 0.030660 
#    y 0.007370 1.726040 -0.020170 
#    z 0.030660 -0.020170 1.659490 
# 
# From -- ./inp_files/55127.got.cif
#   From: 2010.06.25/outbox.cif.g09.slc.cpg/sg2_28_cif.got.tgz:55127.got - 2010.06.27 13:26:56.
