data_PCOD8003088
_publ_section_title
;
Structure prediction by ZEFSAII (Michael W. Deem and Ramdas Pophale) SiO2 
 PCOD8003088
Probable space group: P -1
;
_chemical_formula_sum "Si O2"
_cell_formula_units_Z 16
_cell_length_a 9.146488
_cell_length_b 23.246116
_cell_length_c 23.598019
_cell_angle_alpha 159.436409
_cell_angle_beta 150.176062
_cell_angle_gamma 41.315486
_cell_volume 820.944635
_symmetry_space_group_name_H-M "P -1"
_symmetry_group_IT_number 2
_symmetry_cell_setting 'triclinic'
loop_
_space_group_symop_operation_xyz
x,y,z
-x,-y,-z
loop_
_atom_site_type_symbol
_atom_site_label
_atom_site_fract_x
_atom_site_fract_y
_atom_site_fract_z
Si Si1 0.636682 0.521160 0.744678
Si Si2 0.305144 0.453771 0.741818
Si Si3 0.466303 0.754252 0.986404
Si Si4 0.744053 0.537829 0.067508
Si Si5 0.864813 0.087894 0.487752
Si Si6 0.925560 0.891365 0.931621
Si Si7 0.364089 0.569740 0.464864
Si Si8 0.304710 0.203357 0.415634
O O1 0.550836 0.682432 0.889537
O O2 0.612792 0.532715 0.679381
O O3 0.389417 0.337699 0.514925
O O4 0.983667 0.538637 0.898015
O O5 0.480214 0.628259 0.926036
O O6 0.198636 0.285808 0.510348
O O7 0.998662 0.459043 0.675435
O O8 0.564986 0.442151 0.862749
O O9 0.115689 0.757936 0.870675
O O10 0.713446 0.948933 0.258722
O O11 0.866308 0.747455 0.296516
O O12 0.500000 0.500000 0.000000
O O13 0.603946 0.154258 0.489011
O O14 0.000000 0.000000 0.500000
O O15 0.560710 0.775321 0.710549
O O16 0.000000 0.000000 0.000000
O O17 0.022577 0.027287 0.141686
O O18 0.500000 0.500000 0.500000
#
# Coordination Sequence:
#
# PCOD8003088 Si02
#       8
#     2   2   2   2   2   2   2   2
#     4  10  22  40  64  94 119 163 210 242 305 374
#     4  11  22  39  63  94 125 162 203 249 309 360
#     4  10  22  39  63  92 121 158 209 252 297 366
#     4  11  22  39  64  88 131 162 193 254 308 361
#     4  10  20  36  62  90 119 159 203 242 297 361
#     4  11  22  41  64  87 124 163 204 258 303 354
#     4  12  24  40  64  91 122 163 206 254 310 359
#     4   9  22  38  62  92 119 158 209 247 296 368
#
# _framework density 19.489743000000001
#
# number of rings (size 3 to 8) (size 9 to 14) (size 15 to 20)
#    0.000    1.500    5.000    0.000    1.750    3.500 
#    0.000    1.875    0.000    0.000    0.000    0.000 
#    0.000    0.000    0.000    0.000    0.000    0.000 
#
# Total GULP energy -198432.415184 kJ/mol
# GULP energy per Si atom -12402.025949 kJ/mol
# Density = 1.944538 g / cm^3
# Si number density = 19.489743 Si / 1000 Ang^3
#
#
#
# Elastic Constant Matrix: (Units=GPa)
#
#
# Indices 1 2 3 4 5 6 
#
# 1 113.2473 17.4752 51.6647 1.0503 -19.4730 1.8526
# 2 17.4752 59.9968 17.4574 -1.5591 -17.3381 9.6510
# 3 51.6647 17.4574 106.6260 -1.7902 -4.4647 -6.0551
# 4 1.0503 -1.5591 -1.7902 29.6463 -1.1397 -6.8613
# 5 -19.4730 -17.3381 -4.4647 -1.1397 34.6130 2.5575
# 6 1.8526 9.6510 -6.0551 -6.8613 2.5575 32.5827
#
#
#
# Elastic Compliance Matrix: (Units=1/GPa)
#
#
# Indices 1 2 3 4 5 6 
#
# 1 0.012801 0.000449 -0.006170 -0.001187 0.006798 -0.002791
# 2 0.000449 0.022334 -0.003877 -0.000573 0.011541 -0.008388
# 3 -0.006170 -0.003877 0.013126 0.001722 -0.004005 0.004616
# 4 -0.001187 -0.000573 0.001722 0.035713 -0.000155 0.008090
# 5 0.006798 0.011541 -0.004005 -0.000155 0.038537 -0.007607
# 6 -0.002791 -0.008388 0.004616 0.008090 -0.007607 0.036493
#
#
# Mechanical properties :
#
#
# Convention : Reuss Voigt Hill
#
# Bulk Modulus (GPa) = 34.40394 50.34053 42.37223
# Shear Modulus (GPa) = 26.61129 32.25325 29.43227
#
# Velocity S-wave (km/s) = 3.69914 4.07244 3.89027
# Velocity P-wave (km/s) = 5.99462 6.92808 6.47819
#
# Compressibility (1/GPa) = 0.02906644
#
# Stress axis : x y z
#
# Youngs Moduli (GPa) = 78.11613 44.77387 76.18229
#
# Poissons Ratio (x) = -0.02012 0.47006
# Poissons Ratio (y) = -0.03511 0.29537
# Poissons Ratio (z) = 0.48199 0.17360
#
# Static dielectric constant tensor:
#      x y z
#    x 3.498020 -0.011810 -0.040080 
#    y -0.011810 3.583280 0.018790 
#    z -0.040080 0.018790 3.800980 
# 
# 
# High freq. dielectric constant tensor:
#      x y z
#    x 1.751260 0.002620 -0.005570 
#    y 0.002620 1.758330 -0.008480 
#    z -0.005570 -0.008480 1.767060 
# 
# From -- ./inp_files/179342.got.cif
#   From: 2010.06.25/outbox.cif.g09.slc.cpg/sg2_90_cif.got.tgz:179342.got - 2010.06.27 13:26:56.
