data_PCOD8003649
_publ_section_title
;
Structure prediction by ZEFSAII (Michael W. Deem and Ramdas Pophale) SiO2 
 PCOD8003649
Probable space group: P -1
;
_chemical_formula_sum "Si O2"
_cell_formula_units_Z 14
_cell_length_a 16.894599
_cell_length_b 8.931894
_cell_length_c 7.809433
_cell_angle_alpha 130.461187
_cell_angle_beta 100.344638
_cell_angle_gamma 52.613771
_cell_volume 666.085565
_symmetry_space_group_name_H-M "P -1"
_symmetry_group_IT_number 2
_symmetry_cell_setting 'triclinic'
loop_
_space_group_symop_operation_xyz
x,y,z
-x,-y,-z
loop_
_atom_site_type_symbol
_atom_site_label
_atom_site_fract_x
_atom_site_fract_y
_atom_site_fract_z
Si Si1 0.394890 0.177227 0.479023
Si Si2 0.793432 0.268873 0.077474
Si Si3 0.507450 0.346396 0.545689
Si Si4 0.349683 0.858397 0.029499
Si Si5 0.730358 0.938266 0.221087
Si Si6 0.125145 0.924351 0.662392
Si Si7 0.115554 0.669424 0.153766
O O1 0.296396 0.418620 0.726899
O O2 0.429965 0.283171 0.427889
O O3 0.367747 0.006923 0.274667
O O4 0.500000 0.000000 0.500000
O O5 0.857162 0.180171 0.215218
O O6 0.868015 0.194681 0.888713
O O7 0.746773 0.123914 0.927911
O O8 0.500000 0.500000 0.500000
O O9 0.631757 0.088586 0.431769
O O10 0.456803 0.551614 0.836181
O O11 0.319197 0.004287 0.944230
O O12 0.789993 0.049225 0.341449
O O13 0.810407 0.636495 0.073800
O O14 0.140644 0.717609 0.385869
O O15 0.006856 0.203601 0.807734
#
# Coordination Sequence:
#
# PCOD8003649 Si02
#       7
#     2   2   2   2   2   2   2
#     4  11  22  36  55  84 118 152 194 236 282 347
#     4  10  22  40  61  86 119 155 192 238 292 346
#     4   9  20  35  55  82 111 148 189 230 282 343
#     4   9  21  39  56  82 122 157 188 237 290 343
#     4  10  20  37  60  85 116 153 195 240 288 345
#     4  10  23  41  59  87 119 150 195 244 293 345
#     4  11  22  38  64  88 113 153 197 244 291 340
#
# _framework density 21.018319999999999
#
# number of rings (size 3 to 8) (size 9 to 14) (size 15 to 20)
#    0.000    2.000    0.000    3.429    0.000    9.143 
#    0.000    0.000    0.000    9.429    0.000    0.000 
#    0.000    0.000    0.000    0.000    0.000    0.000 
#
# Total GULP energy -173550.721330 kJ/mol
# GULP energy per Si atom -12396.480095 kJ/mol
# Density = 2.097048 g / cm^3
# Si number density = 21.018320 Si / 1000 Ang^3
#
#
#
# Elastic Constant Matrix: (Units=GPa)
#
#
# Indices 1 2 3 4 5 6 
#
# 1 76.4085 6.1351 30.9505 -9.3331 2.0290 -10.4987
# 2 6.1351 69.9463 26.0072 -1.8205 9.7929 -9.7259
# 3 30.9505 26.0072 70.2750 3.7223 15.2641 -8.9072
# 4 -9.3331 -1.8205 3.7223 36.4392 -5.0741 -2.0908
# 5 2.0290 9.7929 15.2641 -5.0741 36.7483 -0.8592
# 6 -10.4987 -9.7259 -8.9072 -2.0908 -0.8592 34.7371
#
#
#
# Elastic Compliance Matrix: (Units=1/GPa)
#
#
# Indices 1 2 3 4 5 6 
#
# 1 0.017884 0.002128 -0.009178 0.006309 0.003225 0.004107
# 2 0.002128 0.017403 -0.006643 0.002092 -0.001616 0.003898
# 3 -0.009178 -0.006643 0.022889 -0.006104 -0.008057 0.000668
# 4 0.006309 0.002092 -0.006104 0.030783 0.005949 0.002927
# 5 0.003225 -0.001616 -0.008057 0.005949 0.031623 -0.000404
# 6 0.004107 0.003898 0.000668 0.002927 -0.000404 0.031458
#
#
# Mechanical properties :
#
#
# Convention : Reuss Voigt Hill
#
# Bulk Modulus (GPa) = 32.47997 38.09060 35.28528
# Shear Modulus (GPa) = 26.35894 31.82071 29.08983
#
# Velocity S-wave (km/s) = 3.54516 3.89517 3.72428
# Velocity P-wave (km/s) = 5.67840 6.19611 5.94290
#
# Compressibility (1/GPa) = 0.03078821
#
# Stress axis : x y z
#
# Youngs Moduli (GPa) = 55.91719 57.46201 43.68998
#
# Poissons Ratio (x) = -0.12226 0.40098
# Poissons Ratio (y) = -0.11897 0.29024
# Poissons Ratio (z) = 0.51319 0.38173
#
# Static dielectric constant tensor:
#      x y z
#    x 3.300350 -0.056330 -0.522520 
#    y -0.056330 3.899780 0.218470 
#    z -0.522520 0.218470 3.792600 
# 
# 
# High freq. dielectric constant tensor:
#      x y z
#    x 1.837580 0.005880 -0.005070 
#    y 0.005880 1.826030 0.013160 
#    z -0.005070 0.013160 1.811940 
# 
# From -- ./inp_files/37939.got.cif
#   From: 2010.06.25/outbox.cif.g09.slc.cpg/sg2_19_cif.got.tgz:37939.got - 2010.06.27 13:26:56.
