data_PCOD8003285
_publ_section_title
;
Structure prediction by ZEFSAII (Michael W. Deem and Ramdas Pophale) SiO2 
 PCOD8003285
Probable space group: P -1
;
_chemical_formula_sum "Si O2"
_cell_formula_units_Z 16
_cell_length_a 10.284150
_cell_length_b 15.636076
_cell_length_c 11.789487
_cell_angle_alpha 99.628778
_cell_angle_beta 50.922182
_cell_angle_gamma 57.302759
_cell_volume 779.163326
_symmetry_space_group_name_H-M "P -1"
_symmetry_group_IT_number 2
_symmetry_cell_setting 'triclinic'
loop_
_space_group_symop_operation_xyz
x,y,z
-x,-y,-z
loop_
_atom_site_type_symbol
_atom_site_label
_atom_site_fract_x
_atom_site_fract_y
_atom_site_fract_z
Si Si1 0.630844 0.791105 0.023529
Si Si2 0.698406 0.994363 0.535215
Si Si3 0.684712 0.310170 0.143457
Si Si4 0.131672 0.236020 0.744155
Si Si5 0.757742 0.381981 0.430374
Si Si6 0.290642 0.775789 0.644072
Si Si7 0.983386 0.524285 0.147239
Si Si8 0.819736 0.104130 0.864007
O O1 0.440171 0.933340 0.248125
O O2 0.412278 0.865077 0.053697
O O3 0.912652 0.726267 0.812942
O O4 0.746063 0.650498 0.982984
O O5 0.452630 0.127183 0.601523
O O6 0.804566 0.847952 0.423417
O O7 0.991880 0.930561 0.347810
O O8 0.369147 0.505772 0.369595
O O9 0.788242 0.224598 0.187329
O O10 0.620128 0.261548 0.079361
O O11 0.958147 0.253438 0.936872
O O12 0.945598 0.404976 0.851284
O O13 0.500000 0.500000 0.500000
O O14 0.783563 0.268040 0.417495
O O15 0.652280 0.643666 0.409459
O O16 0.064025 0.954116 0.782613
O O17 0.000000 0.500000 0.000000
#
# Coordination Sequence:
#
# PCOD8003285 Si02
#       8
#     2   2   2   2   2   2   2   2
#     4  12  23  40  61  90 127 161 196 255 312 353
#     4  10  20  38  59  88 125 157 196 252 304 351
#     4  10  21  40  63  90 125 158 201 254 298 359
#     4  10  20  36  65  94 116 154 210 251 296 346
#     4  10  20  38  61  86 120 156 203 246 303 346
#     4  11  21  40  63  91 118 160 210 246 292 366
#     4  12  21  37  64  96 113 158 211 247 289 370
#     4  11  24  39  60  91 127 161 197 251 310 360
#
# _framework density 20.534845000000001
#
# number of rings (size 3 to 8) (size 9 to 14) (size 15 to 20)
#    0.000    1.250    5.000    3.000    0.000    1.000 
#    2.250    3.750    0.000    0.000    0.000    0.000 
#    0.000    0.000    0.000    0.000    0.000    0.000 
#
# Total GULP energy -198394.873076 kJ/mol
# GULP energy per Si atom -12399.679567 kJ/mol
# Density = 2.048811 g / cm^3
# Si number density = 20.534845 Si / 1000 Ang^3
#
#
#
# Elastic Constant Matrix: (Units=GPa)
#
#
# Indices 1 2 3 4 5 6 
#
# 1 103.1329 20.6944 59.6932 -3.4647 7.8089 19.5803
# 2 20.6944 62.8384 26.8861 -0.6394 13.5577 18.7577
# 3 59.6932 26.8861 134.2021 -4.1385 20.2808 14.7370
# 4 -3.4647 -0.6394 -4.1385 19.4006 11.2566 1.0319
# 5 7.8089 13.5577 20.2808 11.2566 35.9004 8.7170
# 6 19.5803 18.7577 14.7370 1.0319 8.7170 30.4801
#
#
#
# Elastic Compliance Matrix: (Units=1/GPa)
#
#
# Indices 1 2 3 4 5 6 
#
# 1 0.014284 -0.000679 -0.005754 0.000609 0.001790 -0.006508
# 2 -0.000679 0.021244 -0.001861 0.003960 -0.005569 -0.010279
# 3 -0.005754 -0.001861 0.011373 0.004908 -0.006243 0.000963
# 4 0.000609 0.003960 0.004908 0.067682 -0.025580 -0.000177
# 5 0.001790 -0.005569 -0.006243 -0.025580 0.042576 -0.006014
# 6 -0.006508 -0.010279 0.000963 -0.000177 -0.006014 0.044575
#
#
# Mechanical properties :
#
#
# Convention : Reuss Voigt Hill
#
# Bulk Modulus (GPa) = 32.99146 57.19121 45.09133
# Shear Modulus (GPa) = 21.88870 30.01619 25.95245
#
# Velocity S-wave (km/s) = 3.26840 3.82739 3.55889
# Velocity P-wave (km/s) = 5.50856 6.88790 6.23648
#
# Compressibility (1/GPa) = 0.03031088
#
# Stress axis : x y z
#
# Youngs Moduli (GPa) = 70.01020 47.07170 87.92769
#
# Poissons Ratio (x) = 0.03197 0.50596
# Poissons Ratio (y) = 0.04755 0.16367
# Poissons Ratio (z) = 0.40286 0.08762
#
# Static dielectric constant tensor:
#      x y z
#    x 3.686790 0.497220 0.232450 
#    y 0.497220 3.812780 0.244300 
#    z 0.232450 0.244300 3.964170 
# 
# 
# High freq. dielectric constant tensor:
#      x y z
#    x 1.786860 0.037650 0.009650 
#    y 0.037650 1.788420 0.003810 
#    z 0.009650 0.003810 1.817730 
# 
# From -- ./inp_files/278660.got.cif
#   From: 2010.06.25/outbox.cif.g09.slc.cpg/sg2_140_cif.got.tgz:278660.got - 2010.06.27 13:26:56.
