data_PCOD8003368
_publ_section_title
;
Structure prediction by ZEFSAII (Michael W. Deem and Ramdas Pophale) SiO2 
 PCOD8003368
Probable space group: P -1
;
_chemical_formula_sum "Si O2"
_cell_formula_units_Z 14
_cell_length_a 19.606644
_cell_length_b 24.038989
_cell_length_c 8.822955
_cell_angle_alpha 43.953715
_cell_angle_beta 47.451947
_cell_angle_gamma 14.320523
_cell_volume 708.386499
_symmetry_space_group_name_H-M "P -1"
_symmetry_group_IT_number 2
_symmetry_cell_setting 'triclinic'
loop_
_space_group_symop_operation_xyz
x,y,z
-x,-y,-z
loop_
_atom_site_type_symbol
_atom_site_label
_atom_site_fract_x
_atom_site_fract_y
_atom_site_fract_z
Si Si1 0.080792 0.503200 0.487138
Si Si2 0.626989 0.976953 0.785419
Si Si3 0.221699 0.262082 0.210664
Si Si4 0.397663 0.655051 0.664802
Si Si5 0.193564 0.133975 0.955682
Si Si6 0.869822 0.994107 0.796382
Si Si7 0.122910 0.841459 0.003336
O O1 0.393308 0.234518 0.600715
O O2 0.000000 0.500000 0.500000
O O3 0.857815 0.686016 0.598499
O O4 0.063690 0.603060 0.234199
O O5 0.782873 0.821578 0.702568
O O6 0.500000 0.000000 0.000000
O O7 0.828594 0.850637 0.857416
O O8 0.522128 0.057265 0.151512
O O9 0.000000 0.500000 0.000000
O O10 0.706693 0.366472 0.754173
O O11 0.165033 0.783094 0.695293
O O12 0.379970 0.752069 0.406167
O O13 0.331125 0.721617 0.814397
O O14 0.176077 0.060816 0.056712
O O15 0.879118 0.001381 0.951007
O O16 0.000000 0.000000 0.000000
#
# Coordination Sequence:
#
# PCOD8003368 Si02
#       7
#     2   2   2   2   2   2   2
#     4  12  21  37  61  77 107 155 192 229 285 333
#     4  10  20  37  55  79 107 148 187 232 280 331
#     4  11  20  38  58  75 113 151 187 227 290 329
#     4   8  18  38  62  75 117 151 172 225 293 329
#     4  11  22  36  59  83 114 146 195 243 264 338
#     4   9  19  38  57  85 113 146 188 228 283 325
#     4   9  17  35  62  84 109 147 187 216 279 348
#
# _framework density 19.763223
#
# number of rings (size 3 to 8) (size 9 to 14) (size 15 to 20)
#    0.857    1.143    5.714    0.429    0.000    1.714 
#    0.000    4.286    0.000    0.000    0.000    0.000 
#    0.000    0.000    0.000    0.000    0.000    0.000 
#
# Total GULP energy -173495.822727 kJ/mol
# GULP energy per Si atom -12392.558766 kJ/mol
# Density = 1.971824 g / cm^3
# Si number density = 19.763223 Si / 1000 Ang^3
#
#
#
# Elastic Constant Matrix: (Units=GPa)
#
#
# Indices 1 2 3 4 5 6 
#
# 1 142.0147 41.3307 68.5416 -5.5411 0.3903 40.2888
# 2 41.3307 76.3646 44.4205 -18.6713 2.8529 32.9584
# 3 68.5416 44.4205 161.6819 -47.2637 4.1395 12.1753
# 4 -5.5411 -18.6713 -47.2637 34.4319 3.8666 2.3838
# 5 0.3903 2.8529 4.1395 3.8666 26.9353 -0.7532
# 6 40.2888 32.9584 12.1753 2.3838 -0.7532 32.2317
#
#
#
# Elastic Compliance Matrix: (Units=1/GPa)
#
#
# Indices 1 2 3 4 5 6 
#
# 1 0.014478 0.002895 -0.006844 -0.004312 0.000647 -0.018138
# 2 0.002895 0.035943 -0.001378 0.021840 -0.007937 -0.041652
# 3 -0.006844 -0.001378 0.014913 0.018954 -0.004689 0.002819
# 4 -0.004312 0.021840 0.018954 0.070065 -0.016051 -0.029659
# 5 0.000647 -0.007937 -0.004689 -0.016051 0.041296 0.011230
# 6 -0.018138 -0.041652 0.002819 -0.029659 0.011230 0.097679
#
#
# Mechanical properties :
#
#
# Convention : Reuss Voigt Hill
#
# Bulk Modulus (GPa) = 18.28834 76.51632 47.40233
# Shear Modulus (GPa) = 16.48774 33.77102 25.12938
#
# Velocity S-wave (km/s) = 2.89150 4.13822 3.56971
# Velocity P-wave (km/s) = 4.51901 7.85072 6.40528
#
# Compressibility (1/GPa) = 0.05467964
#
# Stress axis : x y z
#
# Youngs Moduli (GPa) = 69.07131 27.82190 67.05341
#
# Poissons Ratio (x) = -0.08055 0.45892
# Poissons Ratio (y) = -0.19997 0.09241
# Poissons Ratio (z) = 0.47273 0.03834
#
# Static dielectric constant tensor:
#      x y z
#    x 3.190000 0.539960 0.099640 
#    y 0.539960 3.484260 -0.289050 
#    z 0.099640 -0.289050 3.824850 
# 
# 
# High freq. dielectric constant tensor:
#      x y z
#    x 1.756770 0.023260 0.023980 
#    y 0.023260 1.737120 -0.030330 
#    z 0.023980 -0.030330 1.780670 
# 
# From -- ./inp_files/337569.got.cif
#   From: 2010.06.25/outbox.cif.g09.slc.cpg/sg2_169_cif.got.tgz:337569.got - 2010.06.27 13:26:56.
