data_PCOD8003484
_publ_section_title
;
Structure prediction by ZEFSAII (Michael W. Deem and Ramdas Pophale) SiO2 
 PCOD8003484
Probable space group: P -1
;
_chemical_formula_sum "Si O2"
_cell_formula_units_Z 14
_cell_length_a 9.975172
_cell_length_b 18.245547
_cell_length_c 21.997842
_cell_angle_alpha 17.136510
_cell_angle_beta 142.028177
_cell_angle_gamma 143.939246
_cell_volume 691.517476
_symmetry_space_group_name_H-M "P -1"
_symmetry_group_IT_number 2
_symmetry_cell_setting 'triclinic'
loop_
_space_group_symop_operation_xyz
x,y,z
-x,-y,-z
loop_
_atom_site_type_symbol
_atom_site_label
_atom_site_fract_x
_atom_site_fract_y
_atom_site_fract_z
Si Si1 0.822759 0.717955 0.094714
Si Si2 0.401572 0.861275 0.979767
Si Si3 0.670633 0.462071 0.910697
Si Si4 0.931852 0.082722 0.345707
Si Si5 0.785532 0.238665 0.881739
Si Si6 0.881905 0.314976 0.659771
Si Si7 0.401458 0.311727 0.539571
O O1 0.564096 0.527973 0.150458
O O2 0.952915 0.671788 0.117315
O O3 0.944871 0.637811 0.259695
O O4 0.810260 0.011529 0.857745
O O5 0.654165 0.956475 0.026859
O O6 0.352675 0.107738 0.737758
O O7 0.384656 0.643512 0.095077
O O8 0.214314 0.761959 0.044545
O O9 0.839399 0.756910 0.736317
O O10 0.773345 0.275459 0.136591
O O11 0.795612 0.807791 0.485649
O O12 0.000000 0.000000 0.500000
O O13 0.644084 0.429187 0.656306
O O14 0.652496 0.379773 0.545928
O O15 0.000000 0.500000 0.500000
#
# Coordination Sequence:
#
# PCOD8003484 Si02
#       7
#     2   2   2   2   2   2   2
#     4  11  22  40  55  94 125 153 196 252 299 356
#     4  10  20  37  58  84 123 160 192 235 297 361
#     4  10  21  40  63  85 117 157 205 252 287 347
#     4  10  21  38  64  86 109 158 215 248 284 344
#     4  11  23  33  61  89 128 159 186 238 311 362
#     4  11  24  35  61  88 127 161 196 245 300 355
#     4  11  22  40  57  92 121 157 203 241 291 368
#
# _framework density 20.245331
#
# number of rings (size 3 to 8) (size 9 to 14) (size 15 to 20)
#    0.000    1.429    4.286    2.143    8.000    0.000 
#    0.000    0.714    0.000   12.000    0.000    0.000 
#    0.000    0.000    0.000    0.000    0.000    0.000 
#
# Total GULP energy -173544.338072 kJ/mol
# GULP energy per Si atom -12396.024148 kJ/mol
# Density = 2.019925 g / cm^3
# Si number density = 20.245331 Si / 1000 Ang^3
#
#
#
# Elastic Constant Matrix: (Units=GPa)
#
#
# Indices 1 2 3 4 5 6 
#
# 1 125.4927 20.8462 34.9339 19.2068 4.1811 43.5828
# 2 20.8462 80.7806 14.6650 11.9981 6.9744 32.0954
# 3 34.9339 14.6650 53.9538 6.9132 -9.1740 13.4218
# 4 19.2068 11.9981 6.9132 17.7336 -3.9663 -2.3091
# 5 4.1811 6.9744 -9.1740 -3.9663 33.7379 4.4386
# 6 43.5828 32.0954 13.4218 -2.3091 4.4386 40.8433
#
#
#
# Elastic Compliance Matrix: (Units=1/GPa)
#
#
# Indices 1 2 3 4 5 6 
#
# 1 0.038444 0.027568 -0.010727 -0.067064 -0.013170 -0.061521
# 2 0.027568 0.042779 -0.007626 -0.067128 -0.013962 -0.062804
# 3 -0.010727 -0.007626 0.025878 0.010025 0.010014 0.008414
# 4 -0.067064 -0.067128 0.010025 0.194178 0.030817 0.128647
# 5 -0.013170 -0.013962 0.010014 0.030817 0.037959 0.019352
# 6 -0.061521 -0.062804 0.008414 0.128647 0.019352 0.141889
#
#
# Mechanical properties :
#
#
# Convention : Reuss Voigt Hill
#
# Bulk Modulus (GPa) = 7.96626 44.56858 26.26742
# Shear Modulus (GPa) = 9.91000 31.11509 20.51255
#
# Velocity S-wave (km/s) = 2.21485 3.92459 3.18653
# Velocity P-wave (km/s) = 3.23793 6.52676 5.15183
#
# Compressibility (1/GPa) = 0.12552944
#
# Stress axis : x y z
#
# Youngs Moduli (GPa) = 26.01178 23.37612 38.64306
#
# Poissons Ratio (x) = -0.64442 0.41452
# Poissons Ratio (y) = -0.71708 0.29470
# Poissons Ratio (z) = 0.27903 0.17827
#
# Static dielectric constant tensor:
#      x y z
#    x 3.712310 0.087560 -0.124260 
#    y 0.087560 4.002710 -0.154440 
#    z -0.124260 -0.154440 3.795340 
# 
# 
# High freq. dielectric constant tensor:
#      x y z
#    x 1.780900 0.011500 -0.019440 
#    y 0.011500 1.781760 0.004850 
#    z -0.019440 0.004850 1.793460 
# 
# From -- ./inp_files/175791.got.cif
#   From: 2010.06.25/outbox.cif.g09.slc.cpg/sg2_88_cif.got.tgz:175791.got - 2010.06.27 13:26:56.
