data_PCOD8003656
_publ_section_title
;
Structure prediction by ZEFSAII (Michael W. Deem and Ramdas Pophale) SiO2 
 PCOD8003656
Probable space group: P -1
;
_chemical_formula_sum "Si O2"
_cell_formula_units_Z 14
_cell_length_a 16.562750
_cell_length_b 5.425728
_cell_length_c 7.229136
_cell_angle_alpha 113.706701
_cell_angle_beta 106.111583
_cell_angle_gamma 83.132737
_cell_volume 571.439571
_symmetry_space_group_name_H-M "P -1"
_symmetry_group_IT_number 2
_symmetry_cell_setting 'triclinic'
loop_
_space_group_symop_operation_xyz
x,y,z
-x,-y,-z
loop_
_atom_site_type_symbol
_atom_site_label
_atom_site_fract_x
_atom_site_fract_y
_atom_site_fract_z
Si Si1 0.585023 0.184750 0.976776
Si Si2 0.958072 0.937938 0.207377
Si Si3 0.468110 0.376784 0.673166
Si Si4 0.748896 0.348702 0.916886
Si Si5 0.110472 0.459028 0.665688
Si Si6 0.872524 0.896099 0.772492
Si Si7 0.374665 0.357440 0.276819
O O1 0.495223 0.200673 0.814799
O O2 0.660905 0.319256 0.954811
O O3 0.608994 0.874829 0.935930
O O4 0.572346 0.336014 0.206874
O O5 0.945133 0.775309 0.341672
O O6 0.940246 0.261449 0.310586
O O7 0.899665 0.804259 0.969853
O O8 0.054821 0.904130 0.197138
O O9 0.395155 0.235261 0.458999
O O10 0.555428 0.411023 0.626094
O O11 0.721715 0.534248 0.777745
O O12 0.786408 0.067485 0.782185
O O13 0.809907 0.499396 0.141085
O O14 0.139342 0.354133 0.450122
#
# Coordination Sequence:
#
# PCOD8003656 Si02
#       7
#     2   2   2   2   2   2   2
#     4  10  20  38  57  85 120 156 203 257 306 381
#     4  10  24  44  70  98 125 172 232 265 317 393
#     4   9  20  37  61  85 110 159 209 250 311 370
#     4  10  25  38  54  95 127 159 209 256 325 390
#     4  11  24  44  67  97 132 174 220 270 324 387
#     4  10  23  44  67  94 133 171 213 276 323 379
#     4  10  20  37  60  85 119 156 205 254 310 378
#
# _framework density 24.499528999999999
#
# number of rings (size 3 to 8) (size 9 to 14) (size 15 to 20)
#    0.000    2.000    0.000    1.714    4.000    9.714 
#    0.000    2.857    0.000    0.000    0.000    0.000 
#    0.000    0.000    0.000    0.000    0.000    0.000 
#
# Total GULP energy -173482.450264 kJ/mol
# GULP energy per Si atom -12391.603590 kJ/mol
# Density = 2.444377 g / cm^3
# Si number density = 24.499529 Si / 1000 Ang^3
#
#
#
# Elastic Constant Matrix: (Units=GPa)
#
#
# Indices 1 2 3 4 5 6 
#
# 1 56.8693 20.5066 10.6401 -8.0248 -1.9680 -23.7329
# 2 20.5066 89.3414 33.5380 -1.4960 3.2891 -12.5464
# 3 10.6401 33.5380 105.3712 6.5916 -20.5619 -18.3767
# 4 -8.0248 -1.4960 6.5916 23.2260 -0.8160 7.1292
# 5 -1.9680 3.2891 -20.5619 -0.8160 31.8635 -3.0040
# 6 -23.7329 -12.5464 -18.3767 7.1292 -3.0040 35.9994
#
#
#
# Elastic Compliance Matrix: (Units=1/GPa)
#
#
# Indices 1 2 3 4 5 6 
#
# 1 0.026593 -0.004895 0.002762 0.003036 0.005621 0.017104
# 2 -0.004895 0.014368 -0.005519 0.001136 -0.005480 -0.001719
# 3 0.002762 -0.005519 0.015328 -0.006402 0.011405 0.009942
# 4 0.003036 0.001136 -0.006402 0.049217 -0.003832 -0.010937
# 5 0.005621 -0.005480 0.011405 -0.003832 0.040668 0.011770
# 6 0.017104 -0.001719 0.009942 -0.010937 0.011770 0.046678
#
#
# Mechanical properties :
#
#
# Convention : Reuss Voigt Hill
#
# Bulk Modulus (GPa) = 24.39892 42.32794 33.36343
# Shear Modulus (GPa) = 22.54119 30.67758 26.60938
#
# Velocity S-wave (km/s) = 3.03655 3.54244 3.29921
# Velocity P-wave (km/s) = 4.71961 5.83493 5.30665
#
# Compressibility (1/GPa) = 0.04098542
#
# Stress axis : x y z
#
# Youngs Moduli (GPa) = 37.60361 69.60070 65.24141
#
# Poissons Ratio (x) = 0.34070 -0.18023
# Poissons Ratio (y) = 0.18407 0.36006
# Poissons Ratio (z) = -0.10388 0.38412
#
# Static dielectric constant tensor:
#      x y z
#    x 4.241080 -0.243630 0.000950 
#    y -0.243630 4.432780 -0.268010 
#    z 0.000950 -0.268010 4.680920 
# 
# 
# High freq. dielectric constant tensor:
#      x y z
#    x 1.958400 -0.018420 0.002400 
#    y -0.018420 1.966600 -0.008240 
#    z 0.002400 -0.008240 1.985820 
# 
# From -- ./inp_files/137877.got.cif
#   From: 2010.06.25/outbox.cif.g09.slc.cpg/sg2_69_cif.got.tgz:137877.got - 2010.06.27 13:26:56.
