data_PCOD8003372
_publ_section_title
;
Structure prediction by ZEFSAII (Michael W. Deem and Ramdas Pophale) SiO2 
 PCOD8003372
Probable space group: P -1
;
_chemical_formula_sum "Si O2"
_cell_formula_units_Z 14
_cell_length_a 13.571291
_cell_length_b 9.051183
_cell_length_c 16.734322
_cell_angle_alpha 92.688212
_cell_angle_beta 24.709163
_cell_angle_gamma 102.780452
_cell_volume 775.825416
_symmetry_space_group_name_H-M "P -1"
_symmetry_group_IT_number 2
_symmetry_cell_setting 'triclinic'
loop_
_space_group_symop_operation_xyz
x,y,z
-x,-y,-z
loop_
_atom_site_type_symbol
_atom_site_label
_atom_site_fract_x
_atom_site_fract_y
_atom_site_fract_z
Si Si1 0.060438 0.180617 0.135936
Si Si2 0.950070 0.827757 0.182722
Si Si3 0.382393 0.751124 0.581575
Si Si4 0.477325 0.485301 0.766173
Si Si5 0.897134 0.552386 0.328615
Si Si6 0.221139 0.668441 0.870236
Si Si7 0.352809 0.470130 0.025071
O O1 0.160902 0.275976 0.149089
O O2 0.750150 0.133836 0.352034
O O3 0.226053 0.305676 0.945347
O O4 0.105259 0.017623 0.097629
O O5 0.679170 0.801134 0.338109
O O6 0.911367 0.723430 0.289926
O O7 0.115549 0.785581 0.994215
O O8 0.202611 0.568789 0.676808
O O9 0.388728 0.761135 0.672897
O O10 0.706594 0.482411 0.542816
O O11 0.404527 0.629357 0.794771
O O12 0.561440 0.525484 0.798910
O O13 0.179504 0.572561 0.150197
O O14 0.000000 0.500000 0.000000
O O15 0.500000 0.500000 0.000000
#
# Coordination Sequence:
#
# PCOD8003372 Si02
#       7
#     2   2   2   2   2   2   2
#     4   9  22  38  49  85 114 137 183 231 272 310
#     4  12  21  33  55  79 118 147 177 228 265 309
#     4  11  21  34  53  80 114 158 182 208 260 335
#     4  10  20  37  55  81 109 139 189 220 265 334
#     4  11  20  35  61  81 106 149 189 213 264 329
#     4  12  18  34  53  77 111 153 192 208 254 326
#     4   9  20  42  63  78 104 140 183 231 276 329
#
# _framework density 18.045297999999999
#
# number of rings (size 3 to 8) (size 9 to 14) (size 15 to 20)
#    0.857    0.571    5.714    1.714    0.000    1.143 
#    5.143    0.714    0.000    0.857    0.000    0.000 
#    0.000    0.000    0.000    0.000    0.000    0.000 
#
# Total GULP energy -173495.455007 kJ/mol
# GULP energy per Si atom -12392.532500 kJ/mol
# Density = 1.800423 g / cm^3
# Si number density = 18.045298 Si / 1000 Ang^3
#
#
#
# Elastic Constant Matrix: (Units=GPa)
#
#
# Indices 1 2 3 4 5 6 
#
# 1 119.3492 40.1586 34.0704 10.4698 2.4883 9.2362
# 2 40.1586 109.6364 24.5930 16.3608 -3.3778 -12.0733
# 3 34.0704 24.5930 78.8621 21.2186 8.8578 0.2085
# 4 10.4698 16.3608 21.2186 21.2385 2.4587 0.4885
# 5 2.4883 -3.3778 8.8578 2.4587 24.2247 2.7221
# 6 9.2362 -12.0733 0.2085 0.4885 2.7221 18.0425
#
#
#
# Elastic Compliance Matrix: (Units=1/GPa)
#
#
# Indices 1 2 3 4 5 6 
#
# 1 0.011647 -0.004642 -0.004205 0.002188 0.000501 -0.009155
# 2 -0.004642 0.013412 -0.000184 -0.008350 0.001994 0.011279
# 3 -0.004205 -0.000184 0.019708 -0.016917 -0.005429 0.003079
# 4 0.002188 -0.008350 -0.016917 0.069684 -0.001355 -0.008194
# 5 0.000501 0.001994 -0.005429 -0.001355 0.044247 -0.005498
# 6 -0.009155 0.011279 0.003079 -0.008194 -0.005498 0.068674
#
#
# Mechanical properties :
#
#
# Convention : Reuss Voigt Hill
#
# Bulk Modulus (GPa) = 37.44726 56.16574 46.80650
# Shear Modulus (GPa) = 19.65891 26.63618 23.14755
#
# Velocity S-wave (km/s) = 3.30422 3.84614 3.58543
# Velocity P-wave (km/s) = 5.94592 7.13555 6.56773
#
# Compressibility (1/GPa) = 0.02670422
#
# Stress axis : x y z
#
# Youngs Moduli (GPa) = 85.85660 74.55830 50.74153
#
# Poissons Ratio (x) = 0.34612 0.21337
# Poissons Ratio (y) = 0.39857 0.00935
# Poissons Ratio (z) = 0.36103 0.01374
#
# Static dielectric constant tensor:
#      x y z
#    x 3.096110 -0.113140 0.128420 
#    y -0.113140 3.250570 0.252220 
#    z 0.128420 0.252220 3.288350 
# 
# 
# High freq. dielectric constant tensor:
#      x y z
#    x 1.673010 -0.014620 0.012450 
#    y -0.014620 1.687320 0.025380 
#    z 0.012450 0.025380 1.693500 
# 
# From -- ./inp_files/264807.got.cif
#   From: 2010.06.25/outbox.cif.g09.slc.cpg/sg2_133_cif.got.tgz:264807.got - 2010.06.27 13:26:56.
