data_PCOD8003151
_publ_section_title
;
Structure prediction by ZEFSAII (Michael W. Deem and Ramdas Pophale) SiO2 
 PCOD8003151
Probable space group: P -1
;
_chemical_formula_sum "Si O2"
_cell_formula_units_Z 16
_cell_length_a 10.636652
_cell_length_b 9.087713
_cell_length_c 13.002421
_cell_angle_alpha 50.189744
_cell_angle_beta 112.062346
_cell_angle_gamma 117.856475
_cell_volume 848.169632
_symmetry_space_group_name_H-M "P -1"
_symmetry_group_IT_number 2
_symmetry_cell_setting 'triclinic'
loop_
_space_group_symop_operation_xyz
x,y,z
-x,-y,-z
loop_
_atom_site_type_symbol
_atom_site_label
_atom_site_fract_x
_atom_site_fract_y
_atom_site_fract_z
Si Si1 0.340009 0.715557 0.576170
Si Si2 0.662991 0.837354 0.639262
Si Si3 0.091239 0.221624 0.394815
Si Si4 0.103199 0.865956 0.115546
Si Si5 0.030737 0.513029 0.886860
Si Si6 0.325635 0.585036 0.848998
Si Si7 0.367315 0.198933 0.118749
Si Si8 0.887691 0.443215 0.580927
O O1 0.500192 0.706154 0.624853
O O2 0.266980 0.594772 0.710899
O O3 0.267892 0.620675 0.490327
O O4 0.321309 0.933199 0.482034
O O5 0.760721 0.767648 0.619817
O O6 0.699484 0.803928 0.785306
O O7 0.113700 0.370882 0.431499
O O8 0.998806 0.290230 0.252145
O O9 0.000000 0.000000 0.500000
O O10 0.072951 0.738422 0.269013
O O11 0.075552 0.698195 0.094130
O O12 0.270050 0.004662 0.111854
O O13 0.000000 0.000000 0.000000
O O14 0.198193 0.554928 0.902840
O O15 0.000000 0.500000 0.000000
O O16 0.464391 0.786300 0.823463
O O17 0.372296 0.387605 0.964650
O O18 0.000000 0.500000 0.500000
#
# Coordination Sequence:
#
# PCOD8003151 Si02
#       8
#     2   2   2   2   2   2   2   2
#     4  10  20  37  63  87 113 151 199 244 294 358
#     4  10  20  38  62  85 114 156 194 241 305 353
#     4  11  24  38  56  85 121 156 194 244 300 355
#     4  11  22  38  61  90 114 155 204 245 294 356
#     4  11  23  39  60  85 120 157 198 246 301 354
#     4  10  20  37  59  90 117 153 197 243 298 354
#     4  10  20  36  63  87 117 151 199 251 292 354
#     4  11  23  38  59  88 122 155 200 247 291 354
#
# _framework density 18.864151
#
# number of rings (size 3 to 8) (size 9 to 14) (size 15 to 20)
#    0.000    1.500    2.500    3.750    0.000    0.500 
#    0.000    0.625    0.000    0.000    0.000    0.000 
#    0.000    0.000    0.000    0.000    0.000    0.000 
#
# Total GULP energy -198272.715190 kJ/mol
# GULP energy per Si atom -12392.044699 kJ/mol
# Density = 1.882122 g / cm^3
# Si number density = 18.864151 Si / 1000 Ang^3
#
#
#
# Elastic Constant Matrix: (Units=GPa)
#
#
# Indices 1 2 3 4 5 6 
#
# 1 92.9915 62.4935 18.7180 9.5993 -13.3016 5.9750
# 2 62.4935 115.4676 63.1747 5.2576 -6.6312 14.7969
# 3 18.7180 63.1747 138.4065 7.6058 -3.0357 -0.1719
# 4 9.5993 5.2576 7.6058 32.9473 -2.3614 1.5679
# 5 -13.3016 -6.6312 -3.0357 -2.3614 33.2166 1.6751
# 6 5.9750 14.7969 -0.1719 1.5679 1.6751 25.7203
#
#
#
# Elastic Compliance Matrix: (Units=1/GPa)
#
#
# Indices 1 2 3 4 5 6 
#
# 1 0.019140 -0.011925 0.003199 -0.004154 0.005162 0.002353
# 2 -0.011925 0.020441 -0.007879 0.002410 -0.000782 -0.009138
# 3 0.003199 -0.007879 0.010525 -0.002272 0.000308 0.003978
# 4 -0.004154 0.002410 -0.002272 0.031890 0.001000 -0.002446
# 5 0.005162 -0.000782 0.000308 0.001000 0.032262 -0.002909
# 6 0.002353 -0.009138 0.003978 -0.002446 -0.002909 0.043956
#
#
# Mechanical properties :
#
#
# Convention : Reuss Voigt Hill
#
# Bulk Modulus (GPa) = 59.18097 70.62644 64.90370
# Shear Modulus (GPa) = 25.37352 31.87546 28.62449
#
# Velocity S-wave (km/s) = 3.67149 4.11510 3.89961
# Velocity P-wave (km/s) = 7.02947 7.75239 7.39976
#
# Compressibility (1/GPa) = 0.01689732
#
# Stress axis : x y z
#
# Youngs Moduli (GPa) = 52.24699 48.92026 95.01091
#
# Poissons Ratio (x) = 0.58338 -0.30395
# Poissons Ratio (y) = 0.62305 0.74855
# Poissons Ratio (z) = -0.16714 0.38542
#
# Static dielectric constant tensor:
#      x y z
#    x 12.274480 7.952760 5.213320 
#    y 7.952760 10.229020 4.507050 
#    z 5.213320 4.507050 6.841460 
# 
# 
# High freq. dielectric constant tensor:
#      x y z
#    x 1.721780 0.023930 0.002700 
#    y 0.023930 1.722330 0.000610 
#    z 0.002700 0.000610 1.762220 
# 
# From -- ./inp_files/416349.got.cif
#   From: 2010.06.25/outbox.cif.g09.slc.cpg/sg2_209_cif.got.tgz:416349.got - 2010.06.27 13:26:56.
