data_PCOD8003189
_publ_section_title
;
Structure prediction by ZEFSAII (Michael W. Deem and Ramdas Pophale) SiO2 
 PCOD8003189
Probable space group: P -1
;
_chemical_formula_sum "Si O2"
_cell_formula_units_Z 14
_cell_length_a 11.171829
_cell_length_b 16.971541
_cell_length_c 9.202881
_cell_angle_alpha 137.688185
_cell_angle_beta 128.925667
_cell_angle_gamma 32.828295
_cell_volume 636.664908
_symmetry_space_group_name_H-M "P -1"
_symmetry_group_IT_number 2
_symmetry_cell_setting 'triclinic'
loop_
_space_group_symop_operation_xyz
x,y,z
-x,-y,-z
loop_
_atom_site_type_symbol
_atom_site_label
_atom_site_fract_x
_atom_site_fract_y
_atom_site_fract_z
Si Si1 0.701181 0.194667 0.683191
Si Si2 0.240417 0.530024 0.245521
Si Si3 0.442047 0.438501 0.573164
Si Si4 0.301975 0.117226 0.345853
Si Si5 0.274213 0.392774 0.798345
Si Si6 0.089811 0.694738 0.891068
Si Si7 0.786500 0.902881 0.441182
O O1 0.578171 0.265849 0.530150
O O2 0.519160 0.298702 0.812904
O O3 0.839419 0.999295 0.537963
O O4 0.859660 0.219519 0.855563
O O5 0.325033 0.443300 0.350610
O O6 0.390867 0.552590 0.334574
O O7 0.987123 0.707531 0.299750
O O8 0.253942 0.413866 0.986392
O O9 0.255258 0.597146 0.748410
O O10 0.222997 0.289315 0.570611
O O11 0.257830 0.053970 0.361080
O O12 0.159262 0.155039 0.151214
O O13 0.558506 0.974690 0.299538
O O14 0.100115 0.574631 0.836457
#
# Coordination Sequence:
#
# PCOD8003189 Si02
#       7
#     2   2   2   2   2   2   2
#     4  10  20  39  66  88 120 157 201 241 300 360
#     4  11  20  38  63  92 122 148 201 255 301 337
#     4  10  20  36  63  94 118 149 200 255 295 348
#     4  10  22  40  60  85 124 164 202 232 296 368
#     4  10  20  37  66  89 116 158 204 247 288 354
#     4  11  18  39  64  94 109 162 202 250 278 370
#     4  10  23  40  59  86 126 162 192 245 303 356
#
# _framework density 21.98959
#
# number of rings (size 3 to 8) (size 9 to 14) (size 15 to 20)
#    0.000    1.714    4.286    1.286    0.000    1.714 
#    0.000    2.143    0.000    0.000    0.000    0.000 
#    0.000    0.000    0.000    0.000    0.000    0.000 
#
# Total GULP energy -173608.430108 kJ/mol
# GULP energy per Si atom -12400.602151 kJ/mol
# Density = 2.193954 g / cm^3
# Si number density = 21.989590 Si / 1000 Ang^3
#
#
#
# Elastic Constant Matrix: (Units=GPa)
#
#
# Indices 1 2 3 4 5 6 
#
# 1 64.1740 40.8166 30.5475 -5.6805 -1.1190 14.0290
# 2 40.8166 141.1764 55.8577 -30.2716 7.4331 3.7300
# 3 30.5475 55.8577 70.9332 -16.6190 -9.9720 5.8078
# 4 -5.6805 -30.2716 -16.6190 23.5605 4.2192 -1.7516
# 5 -1.1190 7.4331 -9.9720 4.2192 27.8172 3.4328
# 6 14.0290 3.7300 5.8078 -1.7516 3.4328 35.8136
#
#
#
# Elastic Compliance Matrix: (Units=1/GPa)
#
#
# Indices 1 2 3 4 5 6 
#
# 1 0.023381 -0.005732 -0.006239 -0.007148 0.002322 -0.008122
# 2 -0.005732 0.015530 -0.007934 0.015024 -0.009948 0.003603
# 3 -0.006239 -0.007934 0.025696 0.004397 0.010623 -0.001700
# 4 -0.007148 0.015024 0.004397 0.065889 -0.013339 0.005023
# 5 0.002322 -0.009948 0.010623 -0.013339 0.045346 -0.006595
# 6 -0.008122 0.003603 -0.001700 0.005023 -0.006595 0.031882
#
#
# Mechanical properties :
#
#
# Convention : Reuss Voigt Hill
#
# Bulk Modulus (GPa) = 40.32749 58.96966 49.64858
# Shear Modulus (GPa) = 19.54651 27.37571 23.46111
#
# Velocity S-wave (km/s) = 2.98467 3.53220 3.26992
# Velocity P-wave (km/s) = 5.50063 6.59625 6.07320
#
# Compressibility (1/GPa) = 0.02479698
#
# Stress axis : x y z
#
# Youngs Moduli (GPa) = 42.76899 64.39129 38.91721
#
# Poissons Ratio (x) = 0.36908 0.24279
# Poissons Ratio (y) = 0.24515 0.30879
# Poissons Ratio (z) = 0.26682 0.51091
#
# Static dielectric constant tensor:
#      x y z
#    x 4.094040 0.162230 -0.057260 
#    y 0.162230 4.153500 -0.203470 
#    z -0.057260 -0.203470 3.685070 
# 
# 
# High freq. dielectric constant tensor:
#      x y z
#    x 1.869060 0.006330 -0.002480 
#    y 0.006330 1.871950 -0.012340 
#    z -0.002480 -0.012340 1.830060 
# 
# From -- ./inp_files/151978.got.cif
#   From: 2010.06.25/outbox.cif.g09.slc.cpg/sg2_76_cif.got.tgz:151978.got - 2010.06.27 13:26:56.
