data_PCOD8003384
_publ_section_title
;
Structure prediction by ZEFSAII (Michael W. Deem and Ramdas Pophale) SiO2 
 PCOD8003384
Probable space group: P -1
;
_chemical_formula_sum "Si O2"
_cell_formula_units_Z 16
_cell_length_a 16.673778
_cell_length_b 13.729031
_cell_length_c 9.435085
_cell_angle_alpha 106.015194
_cell_angle_beta 84.756537
_cell_angle_gamma 154.757528
_cell_volume 816.754588
_symmetry_space_group_name_H-M "P -1"
_symmetry_group_IT_number 2
_symmetry_cell_setting 'triclinic'
loop_
_space_group_symop_operation_xyz
x,y,z
-x,-y,-z
loop_
_atom_site_type_symbol
_atom_site_label
_atom_site_fract_x
_atom_site_fract_y
_atom_site_fract_z
Si Si1 0.163741 0.394237 0.595695
Si Si2 0.298224 0.060623 0.145112
Si Si3 0.331992 0.386622 0.710868
Si Si4 0.293612 0.130787 0.496463
Si Si5 0.129622 0.376270 0.025709
Si Si6 0.692241 0.503607 0.666262
Si Si7 0.421842 0.796670 0.924598
Si Si8 0.016440 0.032738 0.843017
O O1 0.214520 0.344006 0.637555
O O2 0.276428 0.537224 0.484658
O O3 0.240352 0.575933 0.752064
O O4 0.925888 0.136090 0.505623
O O5 0.443160 0.315475 0.155367
O O6 0.297998 0.086859 0.322456
O O7 0.393895 0.061991 0.097539
O O8 0.074941 0.792393 0.000896
O O9 0.349042 0.314593 0.566669
O O10 0.211775 0.209719 0.801157
O O11 0.454700 0.256850 0.621161
O O12 0.323346 0.653447 0.034274
O O13 0.040789 0.180429 0.866205
O O14 0.210762 0.434237 0.186604
O O15 0.813100 0.746609 0.699252
O O16 0.500000 0.000000 0.000000
O O17 0.000000 0.000000 0.000000
#
# Coordination Sequence:
#
# PCOD8003384 Si02
#       8
#     2   2   2   2   2   2   2   2
#     4  11  22  39  61  91 126 161 213 261 297 371
#     4  11  22  38  66  91 121 165 208 256 310 366
#     4  11  20  35  62  91 130 169 216 246 293 371
#     4  12  21  35  63  93 125 171 206 246 306 373
#     4  11  23  43  60  91 134 161 207 261 304 369
#     4  11  24  38  59  94 135 168 199 246 311 371
#     4  11  24  45  70  92 115 157 217 271 314 368
#     4  10  20  37  55  88 137 172 197 245 299 362
#
# _framework density 19.589728999999998
#
# number of rings (size 3 to 8) (size 9 to 14) (size 15 to 20)
#    0.000    1.000    7.500    1.500    1.750    1.500 
#    0.000    3.125    0.000    1.500    0.000    0.000 
#    0.000    0.000    0.000    0.000    0.000    0.000 
#
# Total GULP energy -198247.404749 kJ/mol
# GULP energy per Si atom -12390.462797 kJ/mol
# Density = 1.954514 g / cm^3
# Si number density = 19.589729 Si / 1000 Ang^3
#
#
#
# Elastic Constant Matrix: (Units=GPa)
#
#
# Indices 1 2 3 4 5 6 
#
# 1 99.0518 57.6148 51.5698 8.8570 -8.0300 10.9545
# 2 57.6148 93.7920 42.9959 -4.0975 -3.2169 7.5852
# 3 51.5698 42.9959 98.4032 -2.0355 2.4752 3.6710
# 4 8.8570 -4.0975 -2.0355 29.8335 4.0552 -3.9524
# 5 -8.0300 -3.2169 2.4752 4.0552 29.7596 10.1984
# 6 10.9545 7.5852 3.6710 -3.9524 10.1984 38.9861
#
#
#
# Elastic Compliance Matrix: (Units=1/GPa)
#
#
# Indices 1 2 3 4 5 6 
#
# 1 0.022238 -0.009739 -0.007591 -0.010706 0.009509 -0.007212
# 2 -0.009739 0.018013 -0.002635 0.005416 -0.001329 0.000377
# 3 -0.007591 -0.002635 0.015395 0.004038 -0.005178 0.002960
# 4 -0.010706 0.005416 0.004038 0.040356 -0.011072 0.008562
# 5 0.009509 -0.001329 -0.005178 -0.011072 0.042850 -0.014258
# 6 -0.007212 0.000377 0.002960 0.008562 -0.014258 0.031922
#
#
# Mechanical properties :
#
#
# Convention : Reuss Voigt Hill
#
# Bulk Modulus (GPa) = 63.62735 66.17868 64.90302
# Shear Modulus (GPa) = 23.15414 28.98695 26.07054
#
# Velocity S-wave (km/s) = 3.44168 3.85086 3.65201
# Velocity P-wave (km/s) = 6.95299 7.32310 7.14044
#
# Compressibility (1/GPa) = 0.01571651
#
# Stress axis : x y z
#
# Youngs Moduli (GPa) = 44.96730 55.51503 64.95640
#
# Poissons Ratio (x) = 0.54068 0.49305
# Poissons Ratio (y) = 0.43795 0.17117
# Poissons Ratio (z) = 0.34133 0.14629
#
# Static dielectric constant tensor:
#      x y z
#    x 3.431820 0.381150 -0.195000 
#    y 0.381150 3.820290 0.030460 
#    z -0.195000 0.030460 3.582930 
# 
# 
# High freq. dielectric constant tensor:
#      x y z
#    x 1.731640 0.038230 -0.010890 
#    y 0.038230 1.760410 -0.002110 
#    z -0.010890 -0.002110 1.763220 
# 
# From -- ./inp_files/307772.got.cif
#   From: 2010.06.25/outbox.cif.g09.slc.cpg/sg2_154_cif.got.tgz:307772.got - 2010.06.27 13:26:56.
