data_PCOD8003763
_publ_section_title
;
Structure prediction by ZEFSAII (Michael W. Deem and Ramdas Pophale) SiO2 
 PCOD8003763
Probable space group: P -1
;
_chemical_formula_sum "Si O2"
_cell_formula_units_Z 16
_cell_length_a 11.133939
_cell_length_b 9.016065
_cell_length_c 11.809946
_cell_angle_alpha 115.965270
_cell_angle_beta 125.945402
_cell_angle_gamma 50.273540
_cell_volume 734.424881
_symmetry_space_group_name_H-M "P -1"
_symmetry_group_IT_number 2
_symmetry_cell_setting 'triclinic'
loop_
_space_group_symop_operation_xyz
x,y,z
-x,-y,-z
loop_
_atom_site_type_symbol
_atom_site_label
_atom_site_fract_x
_atom_site_fract_y
_atom_site_fract_z
Si Si1 0.282822 0.074830 0.020144
Si Si2 0.877078 0.138909 0.229357
Si Si3 0.660466 0.201972 0.343505
Si Si4 0.685215 0.837978 0.186785
Si Si5 0.770646 0.234530 0.648516
Si Si6 0.443754 0.225032 0.538398
Si Si7 0.836814 0.530692 0.348705
Si Si8 0.716147 0.624135 0.742783
O O1 0.262570 0.166659 0.915853
O O2 0.179570 0.960606 0.931215
O O3 0.198550 0.256183 0.122134
O O4 0.480976 0.914208 0.108661
O O5 0.734968 0.231358 0.280302
O O6 0.879036 0.325463 0.253282
O O7 0.066381 0.980155 0.325354
O O8 0.710803 0.287899 0.503567
O O9 0.453899 0.308598 0.251994
O O10 0.731455 0.976304 0.328622
O O11 0.809078 0.634260 0.247231
O O12 0.613111 0.246191 0.637591
O O13 0.825191 0.393789 0.756370
O O14 0.335668 0.342963 0.628309
O O15 0.327030 0.323823 0.395592
O O16 0.500000 0.000000 0.500000
O O17 0.000000 0.500000 0.500000
#
# Coordination Sequence:
#
# PCOD8003763 Si02
#       8
#     2   2   2   2   2   2   2   2
#     4   9  20  39  60  87 116 160 202 236 285 346
#     4  11  22  35  57  87 121 153 199 245 282 347
#     4   9  17  35  58  85 112 150 201 248 289 337
#     4   9  19  37  63  86 118 153 196 246 286 347
#     4  11  21  35  56  86 119 156 196 245 297 343
#     4  11  22  38  61  89 122 153 189 249 312 353
#     4  12  24  40  63  92 118 151 196 249 305 348
#     4  10  20  37  61  85 117 157 200 240 295 359
#
# _framework density 21.785751999999999
#
# number of rings (size 3 to 8) (size 9 to 14) (size 15 to 20)
#    0.000    1.750    0.000    7.875    0.000    4.000 
#    0.000    1.250    0.000    4.500    0.000    0.000 
#    0.000    0.000    0.000    0.000    0.000    0.000 
#
# Total GULP energy -198265.550682 kJ/mol
# GULP energy per Si atom -12391.596918 kJ/mol
# Density = 2.173617 g / cm^3
# Si number density = 21.785752 Si / 1000 Ang^3
#
#
#
# Elastic Constant Matrix: (Units=GPa)
#
#
# Indices 1 2 3 4 5 6 
#
# 1 27.3823 10.1812 14.0246 -0.6441 -1.6646 10.4790
# 2 10.1812 148.7665 39.9144 15.1729 -4.0735 33.2380
# 3 14.0246 39.9144 91.1110 14.4048 11.6210 17.1068
# 4 -0.6441 15.1729 14.4048 43.1387 8.9581 3.0764
# 5 -1.6646 -4.0735 11.6210 8.9581 22.8760 8.5923
# 6 10.4790 33.2380 17.1068 3.0764 8.5923 32.5493
#
#
#
# Elastic Compliance Matrix: (Units=1/GPa)
#
#
# Indices 1 2 3 4 5 6 
#
# 1 0.046875 0.003162 -0.007009 0.000262 0.014363 -0.018452
# 2 0.003162 0.010986 -0.003624 -0.003840 0.010296 -0.012687
# 3 -0.007009 -0.003624 0.014930 -0.002175 -0.008054 0.000442
# 4 0.000262 -0.003840 -0.002175 0.027440 -0.012435 0.005669
# 5 0.014363 0.010296 -0.008054 -0.012435 0.065725 -0.027080
# 6 -0.018452 -0.012687 0.000442 0.005669 -0.027080 0.055999
#
#
# Mechanical properties :
#
#
# Convention : Reuss Voigt Hill
#
# Bulk Modulus (GPa) = 17.28634 43.94447 30.61540
# Shear Modulus (GPa) = 19.51756 33.25544 26.38650
#
# Velocity S-wave (km/s) = 2.99638 3.91125 3.48398
# Velocity P-wave (km/s) = 4.46352 6.37277 5.50160
#
# Compressibility (1/GPa) = 0.05784914
#
# Stress axis : x y z
#
# Youngs Moduli (GPa) = 21.33328 91.02578 66.97855
#
# Poissons Ratio (x) = -0.28781 0.46948
# Poissons Ratio (y) = -0.06745 0.24270
# Poissons Ratio (z) = 0.14953 0.32983
#
# Static dielectric constant tensor:
#      x y z
#    x 3.838390 0.060280 0.143580 
#    y 0.060280 4.105080 0.392260 
#    z 0.143580 0.392260 4.010220 
# 
# 
# High freq. dielectric constant tensor:
#      x y z
#    x 1.837950 0.002940 0.008790 
#    y 0.002940 1.868210 0.018070 
#    z 0.008790 0.018070 1.845020 
# 
# From -- ./inp_files/257016.got.cif
#   From: 2010.06.25/outbox.cif.g09.slc.cpg/sg2_129_cif.got.tgz:257016.got - 2010.06.27 13:26:56.
