data_PCOD8003266
_publ_section_title
;
Structure prediction by ZEFSAII (Michael W. Deem and Ramdas Pophale) SiO2 
 PCOD8003266
Probable space group: P -1
;
_chemical_formula_sum "Si O2"
_cell_formula_units_Z 14
_cell_length_a 12.450209
_cell_length_b 12.121311
_cell_length_c 8.202718
_cell_angle_alpha 40.727975
_cell_angle_beta 72.928001
_cell_angle_gamma 92.849042
_cell_volume 694.704674
_symmetry_space_group_name_H-M "P -1"
_symmetry_group_IT_number 2
_symmetry_cell_setting 'triclinic'
loop_
_space_group_symop_operation_xyz
x,y,z
-x,-y,-z
loop_
_atom_site_type_symbol
_atom_site_label
_atom_site_fract_x
_atom_site_fract_y
_atom_site_fract_z
Si Si1 0.543889 0.904512 0.447196
Si Si2 0.198503 0.009653 0.615380
Si Si3 0.113610 0.309460 0.307598
Si Si4 0.686350 0.380518 0.288496
Si Si5 0.316419 0.807532 0.188824
Si Si6 0.873962 0.392842 0.771422
Si Si7 0.167944 0.843410 0.492845
O O1 0.435125 0.698443 0.686127
O O2 0.500000 0.000000 0.500000
O O3 0.668074 0.890866 0.465597
O O4 0.564841 0.023305 0.136107
O O5 0.209623 0.020198 0.399932
O O6 0.118024 0.119593 0.584031
O O7 0.123540 0.790094 0.940547
O O8 0.143740 0.460943 0.266090
O O9 0.981055 0.260450 0.340155
O O10 0.228776 0.397287 0.025972
O O11 0.644707 0.319828 0.563209
O O12 0.782443 0.294604 0.286797
O O13 0.239670 0.672122 0.230250
O O14 0.233931 0.895304 0.226439
O O15 0.000000 0.500000 0.500000
#
# Coordination Sequence:
#
# PCOD8003266 Si02
#       7
#     2   2   2   2   2   2   2
#     4  11  19  40  63  87 123 161 208 246 301 363
#     4  11  25  38  62  93 120 166 201 249 307 357
#     4  12  23  40  62  93 125 160 202 248 308 364
#     4  10  20  36  65  85 117 163 202 247 299 352
#     4   9  20  35  64  92 113 162 204 245 307 354
#     4  11  20  39  60  85 128 161 196 247 298 364
#     4  10  20  40  61  89 124 158 200 250 307 357
#
# _framework density 20.152446999999999
#
# number of rings (size 3 to 8) (size 9 to 14) (size 15 to 20)
#    0.857    0.571    4.286    2.143    2.000    1.143 
#    0.000    0.000    0.000    2.571    0.000    0.000 
#    0.000    0.000    0.000    0.000    0.000    0.000 
#
# Total GULP energy -173464.395230 kJ/mol
# GULP energy per Si atom -12390.313945 kJ/mol
# Density = 2.010658 g / cm^3
# Si number density = 20.152447 Si / 1000 Ang^3
#
#
#
# Elastic Constant Matrix: (Units=GPa)
#
#
# Indices 1 2 3 4 5 6 
#
# 1 85.5961 34.5344 26.0868 -10.8463 -8.2405 10.9320
# 2 34.5344 96.7335 42.8874 -0.2329 17.5821 4.7690
# 3 26.0868 42.8874 91.2656 7.5427 -7.6818 -4.9793
# 4 -10.8463 -0.2329 7.5427 30.3052 -4.7127 3.5582
# 5 -8.2405 17.5821 -7.6818 -4.7127 24.8587 -2.9202
# 6 10.9320 4.7690 -4.9793 3.5582 -2.9202 29.8723
#
#
#
# Elastic Compliance Matrix: (Units=1/GPa)
#
#
# Indices 1 2 3 4 5 6 
#
# 1 0.018439 -0.007732 -0.001713 0.009536 0.012185 -0.005744
# 2 -0.007732 0.021587 -0.009739 -0.003113 -0.021902 -0.004010
# 3 -0.001713 -0.009739 0.017723 -0.004056 0.011824 0.006775
# 4 0.009536 -0.003113 -0.004056 0.039943 0.010816 -0.007369
# 5 0.012185 -0.021902 0.011824 0.010816 0.066189 0.006190
# 6 -0.005744 -0.004010 0.006775 -0.007369 0.006190 0.038830
#
#
# Mechanical properties :
#
#
# Convention : Reuss Voigt Hill
#
# Bulk Modulus (GPa) = 51.59597 53.40138 52.49867
# Shear Modulus (GPa) = 20.19868 28.34635 24.27251
#
# Velocity S-wave (km/s) = 3.16934 3.75453 3.47428
# Velocity P-wave (km/s) = 6.24911 6.73436 6.49626
#
# Compressibility (1/GPa) = 0.01938136
#
# Stress axis : x y z
#
# Youngs Moduli (GPa) = 54.23190 46.32403 56.42284
#
# Poissons Ratio (x) = 0.35818 0.09665
# Poissons Ratio (y) = 0.41932 0.54951
# Poissons Ratio (z) = 0.09290 0.45116
#
# Static dielectric constant tensor:
#      x y z
#    x 3.392930 0.104640 -0.072310 
#    y 0.104640 3.570160 0.209960 
#    z -0.072310 0.209960 3.766290 
# 
# 
# High freq. dielectric constant tensor:
#      x y z
#    x 1.776460 0.024810 -0.015960 
#    y 0.024810 1.782080 0.012050 
#    z -0.015960 0.012050 1.778350 
# 
# From -- ./inp_files/255784.got.cif
#   From: 2010.06.25/outbox.cif.g09.slc.cpg/sg2_128_cif.got.tgz:255784.got - 2010.06.27 13:26:56.
