data_PCOD8003049
_publ_section_title
;
Structure prediction by ZEFSAII (Michael W. Deem and Ramdas Pophale) SiO2 
 PCOD8003049
Probable space group: P -1
;
_chemical_formula_sum "Si O2"
_cell_formula_units_Z 16
_cell_length_a 8.734986
_cell_length_b 11.983292
_cell_length_c 13.878253
_cell_angle_alpha 59.952384
_cell_angle_beta 119.370099
_cell_angle_gamma 70.032351
_cell_volume 688.152921
_symmetry_space_group_name_H-M "P -1"
_symmetry_group_IT_number 2
_symmetry_cell_setting 'triclinic'
loop_
_space_group_symop_operation_xyz
x,y,z
-x,-y,-z
loop_
_atom_site_type_symbol
_atom_site_label
_atom_site_fract_x
_atom_site_fract_y
_atom_site_fract_z
Si Si1 0.460932 0.433633 0.729965
Si Si2 0.062265 0.012010 0.837834
Si Si3 0.910629 0.451269 0.112290
Si Si4 0.757787 0.904900 0.992785
Si Si5 0.083585 0.295747 0.435830
Si Si6 0.606425 0.094429 0.184472
Si Si7 0.827859 0.433994 0.888345
Si Si8 0.489929 0.268580 0.632287
O O1 0.517963 0.553803 0.717028
O O2 0.421100 0.437269 0.600181
O O3 0.184684 0.542400 0.649567
O O4 0.734339 0.206540 0.954981
O O5 0.743504 0.146033 0.689445
O O6 0.138079 0.985664 0.759605
O O7 0.084736 0.138777 0.843441
O O8 0.990241 0.321420 0.286217
O O9 0.145135 0.428958 0.181554
O O10 0.594770 0.687262 0.921684
O O11 0.910502 0.359901 0.057914
O O12 0.576916 0.878201 0.964868
O O13 0.552848 0.134809 0.796567
O O14 0.968669 0.761966 0.032480
O O15 0.229424 0.354798 0.457138
O O16 0.287048 0.064049 0.631475
#
# Coordination Sequence:
#
# PCOD8003049 Si02
#       8
#     2   2   2   2   2   2   2   2
#     4  11  20  39  65  96 129 168 213 260 318 380
#     4  11  18  36  66  96 127 167 207 258 320 385
#     4  10  23  44  66  92 125 173 215 263 313 370
#     4   9  17  35  61  94 123 166 211 257 316 377
#     4  11  24  42  62  97 133 165 210 264 318 375
#     4  10  22  39  62  93 131 168 210 257 320 377
#     4  10  20  40  68  91 122 171 222 256 311 381
#     4  10  20  36  61  98 133 163 209 262 318 382
#
# _framework density 23.250646
#
# number of rings (size 3 to 8) (size 9 to 14) (size 15 to 20)
#    0.000    1.750    3.750    1.500    0.000    1.500 
#    4.500   11.875    0.000    0.000    0.000    0.000 
#    0.000    0.000    0.000    0.000    0.000    0.000 
#
# Total GULP energy -198326.640282 kJ/mol
# GULP energy per Si atom -12395.415018 kJ/mol
# Density = 2.319773 g / cm^3
# Si number density = 23.250646 Si / 1000 Ang^3
#
#
#
# Elastic Constant Matrix: (Units=GPa)
#
#
# Indices 1 2 3 4 5 6 
#
# 1 116.9230 24.4479 36.1749 -0.9999 31.7379 -19.6292
# 2 24.4479 72.8591 27.0128 3.8584 3.5739 -9.6333
# 3 36.1749 27.0128 73.1697 10.2293 9.0652 -8.9940
# 4 -0.9999 3.8584 10.2293 11.3264 -6.2967 -1.2537
# 5 31.7379 3.5739 9.0652 -6.2967 42.7700 3.5889
# 6 -19.6292 -9.6333 -8.9940 -1.2537 3.5889 30.5750
#
#
#
# Elastic Compliance Matrix: (Units=1/GPa)
#
#
# Indices 1 2 3 4 5 6 
#
# 1 0.014524 -0.001645 -0.004362 0.001027 -0.010301 0.008774
# 2 -0.001645 0.016450 -0.004912 -0.000712 0.000566 0.002586
# 3 -0.004362 -0.004912 0.021048 -0.019689 -0.003837 0.001486
# 4 0.001027 -0.000712 -0.019689 0.117781 0.021062 -0.003000
# 5 -0.010301 0.000566 -0.003837 0.021062 0.035806 -0.010903
# 6 0.008774 0.002586 0.001486 -0.003000 -0.010903 0.040748
#
#
# Mechanical properties :
#
#
# Convention : Reuss Voigt Hill
#
# Bulk Modulus (GPa) = 33.13174 48.69146 40.91160
# Shear Modulus (GPa) = 17.96888 28.62204 23.29546
#
# Velocity S-wave (km/s) = 2.78300 3.51240 3.16876
# Velocity P-wave (km/s) = 4.96060 6.11855 5.56975
#
# Compressibility (1/GPa) = 0.03018254
#
# Stress axis : x y z
#
# Youngs Moduli (GPa) = 68.85099 60.78882 47.51100
#
# Poissons Ratio (x) = 0.10002 0.20725
# Poissons Ratio (y) = 0.11328 0.23339
# Poissons Ratio (z) = 0.30034 0.29862
#
# Static dielectric constant tensor:
#      x y z
#    x 4.343490 0.123240 0.251900 
#    y 0.123240 4.244570 0.172720 
#    z 0.251900 0.172720 3.905790 
# 
# 
# High freq. dielectric constant tensor:
#      x y z
#    x 1.928930 -0.004490 0.013130 
#    y -0.004490 1.907500 0.006660 
#    z 0.013130 0.006660 1.890470 
# 
# From -- ./inp_files/187325.got.cif
#   From: 2010.06.25/outbox.cif.g09.slc.cpg/sg2_94_cif.got.tgz:187325.got - 2010.06.27 13:26:56.
