data_PCOD8003495
_publ_section_title
;
Structure prediction by ZEFSAII (Michael W. Deem and Ramdas Pophale) SiO2 
 PCOD8003495
Probable space group: P -1
;
_chemical_formula_sum "Si O2"
_cell_formula_units_Z 16
_cell_length_a 12.385930
_cell_length_b 15.639825
_cell_length_c 8.746824
_cell_angle_alpha 40.214669
_cell_angle_beta 101.374745
_cell_angle_gamma 125.768836
_cell_volume 780.842160
_symmetry_space_group_name_H-M "P -1"
_symmetry_group_IT_number 2
_symmetry_cell_setting 'triclinic'
loop_
_space_group_symop_operation_xyz
x,y,z
-x,-y,-z
loop_
_atom_site_type_symbol
_atom_site_label
_atom_site_fract_x
_atom_site_fract_y
_atom_site_fract_z
Si Si1 0.046242 0.995183 0.747258
Si Si2 0.836364 0.575628 0.238707
Si Si3 0.602564 0.586473 0.185193
Si Si4 0.094003 0.583794 0.757449
Si Si5 0.322073 0.857199 0.668376
Si Si6 0.210278 0.058787 0.406365
Si Si7 0.178496 0.526810 0.302055
Si Si8 0.280003 0.319548 0.572299
O O1 0.930978 0.018454 0.637446
O O2 0.169399 0.072950 0.544476
O O3 0.139389 0.112706 0.764083
O O4 0.956510 0.785358 0.041820
O O5 0.680635 0.520363 0.225457
O O6 0.896547 0.549943 0.141691
O O7 0.801237 0.446335 0.545327
O O8 0.424911 0.413076 0.378103
O O9 0.677014 0.679577 0.243970
O O10 0.637444 0.740485 0.877579
O O11 0.260022 0.767348 0.604376
O O12 0.002452 0.609617 0.589313
O O13 0.000000 0.500000 0.000000
O O14 0.500000 0.000000 0.500000
O O15 0.248735 0.936460 0.583190
O O16 0.273367 0.719003 0.980526
O O17 0.237451 0.437041 0.377884
#
# Coordination Sequence:
#
# PCOD8003495 Si02
#       8
#     2   2   2   2   2   2   2   2
#     4  10  21  36  60  82 110 142 188 238 270 328
#     4  10  21  39  58  85 112 146 188 232 284 326
#     4   9  21  37  57  82 119 145 178 231 280 338
#     4  10  21  37  58  80 112 149 184 229 278 330
#     4  11  23  38  57  82 114 151 188 227 274 336
#     4  10  21  37  53  82 112 143 186 231 277 324
#     4  10  21  37  59  82 115 149 187 230 274 335
#     4  10  20  37  58  86 111 148 184 224 285 328
#
# _framework density 20.490697999999998
#
# number of rings (size 3 to 8) (size 9 to 14) (size 15 to 20)
#    0.000    2.000    0.000    3.375    0.000   12.000 
#    0.000    0.625    0.000    0.000    0.000    0.000 
#    0.000    0.000    0.000    0.000    0.000    0.000 
#
# Total GULP energy -198337.327513 kJ/mol
# GULP energy per Si atom -12396.082970 kJ/mol
# Density = 2.044406 g / cm^3
# Si number density = 20.490698 Si / 1000 Ang^3
#
#
#
# Elastic Constant Matrix: (Units=GPa)
#
#
# Indices 1 2 3 4 5 6 
#
# 1 143.6136 50.5218 48.0342 -12.9647 -1.5697 -10.0476
# 2 50.5218 71.4638 20.2922 -8.2614 0.9644 1.5853
# 3 48.0342 20.2922 115.4100 0.7184 3.4029 -4.7763
# 4 -12.9647 -8.2614 0.7184 17.2671 1.7620 -6.5100
# 5 -1.5697 0.9644 3.4029 1.7620 33.7389 -3.1441
# 6 -10.0476 1.5853 -4.7763 -6.5100 -3.1441 28.5508
#
#
#
# Elastic Compliance Matrix: (Units=1/GPa)
#
#
# Indices 1 2 3 4 5 6 
#
# 1 0.011492 -0.006374 -0.003510 0.007756 0.001198 0.005712
# 2 -0.006374 0.019219 -0.000828 0.003519 -0.001205 -0.002779
# 3 -0.003510 -0.000828 0.010308 -0.003496 -0.001032 -0.000376
# 4 0.007756 0.003519 -0.003496 0.072634 -0.001470 0.018349
# 5 0.001198 -0.001205 -0.001032 -0.001470 0.030219 0.003308
# 6 0.005712 -0.002779 -0.000376 0.018349 0.003308 0.041675
#
#
# Mechanical properties :
#
#
# Convention : Reuss Voigt Hill
#
# Bulk Modulus (GPa) = 51.03058 63.13154 57.08106
# Shear Modulus (GPa) = 23.41899 30.02065 26.71982
#
# Velocity S-wave (km/s) = 3.38436 3.83180 3.61501
# Velocity P-wave (km/s) = 6.34273 7.10307 6.73364
#
# Compressibility (1/GPa) = 0.01959609
#
# Stress axis : x y z
#
# Youngs Moduli (GPa) = 87.01520 52.03152 97.01543
#
# Poissons Ratio (x) = 0.33166 0.34049
# Poissons Ratio (y) = 0.55465 0.08029
# Poissons Ratio (z) = 0.30539 0.04306
#
# Static dielectric constant tensor:
#      x y z
#    x 4.041640 0.170350 -0.111540 
#    y 0.170350 3.833670 0.108910 
#    z -0.111540 0.108910 3.702850 
# 
# 
# High freq. dielectric constant tensor:
#      x y z
#    x 1.819200 -0.000020 -0.004930 
#    y -0.000020 1.783420 0.009740 
#    z -0.004930 0.009740 1.797190 
# 
# From -- ./inp_files/271570.got.cif
#   From: 2010.06.25/outbox.cif.g09.slc.cpg/sg2_136_cif.got.tgz:271570.got - 2010.06.27 13:26:56.
