data_PCOD8003106
_publ_section_title
;
Structure prediction by ZEFSAII (Michael W. Deem and Ramdas Pophale) SiO2 
 PCOD8003106
Probable space group: P -1
;
_chemical_formula_sum "Si O2"
_cell_formula_units_Z 16
_cell_length_a 13.528786
_cell_length_b 14.469626
_cell_length_c 9.093101
_cell_angle_alpha 44.207598
_cell_angle_beta 112.525440
_cell_angle_gamma 138.773539
_cell_volume 769.362683
_symmetry_space_group_name_H-M "P -1"
_symmetry_group_IT_number 2
_symmetry_cell_setting 'triclinic'
loop_
_space_group_symop_operation_xyz
x,y,z
-x,-y,-z
loop_
_atom_site_type_symbol
_atom_site_label
_atom_site_fract_x
_atom_site_fract_y
_atom_site_fract_z
Si Si1 0.807736 0.567999 0.478531
Si Si2 0.186319 0.772726 0.868810
Si Si3 0.576443 0.940601 0.538806
Si Si4 0.131340 0.427759 0.166267
Si Si5 0.840180 0.316823 0.706856
Si Si6 0.357767 0.499089 0.000917
Si Si7 0.817421 0.075822 0.755365
Si Si8 0.344283 0.343004 0.882177
O O1 0.798240 0.565793 0.650907
O O2 0.744517 0.368051 0.607566
O O3 0.687989 0.568302 0.350225
O O4 0.991775 0.756136 0.323683
O O5 0.059500 0.759399 0.741536
O O6 0.365211 0.985630 0.682478
O O7 0.174829 0.621438 0.952714
O O8 0.141291 0.720416 0.074367
O O9 0.454960 0.707355 0.741545
O O10 0.500000 0.000000 0.500000
O O11 0.741870 0.057593 0.582202
O O12 0.203764 0.412574 0.091174
O O13 0.752123 0.119698 0.791815
O O14 0.000000 0.500000 0.500000
O O15 0.292638 0.339629 0.021093
O O16 0.468765 0.523740 0.154114
O O17 0.756729 0.873308 0.987767
#
# Coordination Sequence:
#
# PCOD8003106 Si02
#       8
#     2   2   2   2   2   2   2   2
#     4  10  20  37  62  92 122 159 205 260 301 364
#     4  10  20  37  61  98 128 154 201 265 306 372
#     4  11  21  37  65  90 127 161 200 253 314 363
#     4  10  20  36  62  93 123 157 207 254 312 364
#     4   9  21  35  62  97 122 154 203 255 314 357
#     4  10  23  40  61  89 121 172 206 247 314 373
#     4  10  21  40  59  93 122 162 206 251 309 370
#     4  10  23  41  61  83 128 169 209 246 308 373
#
# _framework density 20.796434000000001
#
# number of rings (size 3 to 8) (size 9 to 14) (size 15 to 20)
#    0.000    2.000    2.500    0.375    7.000    0.500 
#    0.000    7.500    0.000    0.000    0.000    0.000 
#    0.000    0.000    0.000    0.000    0.000    0.000 
#
# Total GULP energy -198262.400974 kJ/mol
# GULP energy per Si atom -12391.400061 kJ/mol
# Density = 2.074910 g / cm^3
# Si number density = 20.796434 Si / 1000 Ang^3
#
#
#
# Elastic Constant Matrix: (Units=GPa)
#
#
# Indices 1 2 3 4 5 6 
#
# 1 105.6525 32.7383 58.4903 -1.4901 0.0666 -10.1410
# 2 32.7383 66.4390 31.6617 -8.8855 10.6837 -18.0663
# 3 58.4903 31.6617 102.7853 8.9080 8.7088 1.1147
# 4 -1.4901 -8.8855 8.9080 23.1709 -2.0498 10.0571
# 5 0.0666 10.6837 8.7088 -2.0498 41.1432 3.2666
# 6 -10.1410 -18.0663 1.1147 10.0571 3.2666 37.2585
#
#
#
# Elastic Compliance Matrix: (Units=1/GPa)
#
#
# Indices 1 2 3 4 5 6 
#
# 1 0.015128 -0.003170 -0.008052 0.002196 0.002453 0.002013
# 2 -0.003170 0.023626 -0.005681 0.006446 -0.005360 0.009493
# 3 -0.008052 -0.005681 0.016988 -0.008095 -0.002267 -0.003071
# 4 0.002196 0.006446 -0.008095 0.053935 0.003589 -0.010908
# 5 0.002453 -0.005360 -0.002267 0.003589 0.026763 -0.005179
# 6 0.002013 0.009493 -0.003071 -0.010908 -0.005179 0.035481
#
#
# Mechanical properties :
#
#
# Convention : Reuss Voigt Hill
#
# Bulk Modulus (GPa) = 45.58858 57.85081 51.71970
# Shear Modulus (GPa) = 23.46990 30.44695 26.95842
#
# Velocity S-wave (km/s) = 3.36304 3.83044 3.60432
# Velocity P-wave (km/s) = 6.08679 6.88775 6.49962
#
# Compressibility (1/GPa) = 0.02193532
#
# Stress axis : x y z
#
# Youngs Moduli (GPa) = 66.10442 42.32545 58.86579
#
# Poissons Ratio (x) = 0.13419 0.47397
# Poissons Ratio (y) = 0.20958 0.33442
# Poissons Ratio (z) = 0.53225 0.24045
#
# Static dielectric constant tensor:
#      x y z
#    x 3.858670 -0.190270 0.201900 
#    y -0.190270 3.685320 0.006170 
#    z 0.201900 0.006170 3.697400 
# 
# 
# High freq. dielectric constant tensor:
#      x y z
#    x 1.820410 -0.008430 0.011110 
#    y -0.008430 1.798090 0.008210 
#    z 0.011110 0.008210 1.803530 
# 
# From -- ./inp_files/312417.got.cif
#   From: 2010.06.25/outbox.cif.g09.slc.cpg/sg2_157_cif.got.tgz:312417.got - 2010.06.27 13:26:56.
