data_PCOD8003539
_publ_section_title
;
Structure prediction by ZEFSAII (Michael W. Deem and Ramdas Pophale) SiO2 
 PCOD8003539
Probable space group: P -1
;
_chemical_formula_sum "Si O2"
_cell_formula_units_Z 14
_cell_length_a 7.029286
_cell_length_b 25.261898
_cell_length_c 7.927442
_cell_angle_alpha 122.705405
_cell_angle_beta 91.914311
_cell_angle_gamma 129.649459
_cell_volume 740.545777
_symmetry_space_group_name_H-M "P -1"
_symmetry_group_IT_number 2
_symmetry_cell_setting 'triclinic'
loop_
_space_group_symop_operation_xyz
x,y,z
-x,-y,-z
loop_
_atom_site_type_symbol
_atom_site_label
_atom_site_fract_x
_atom_site_fract_y
_atom_site_fract_z
Si Si1 0.663797 0.409361 0.653444
Si Si2 0.335317 0.139391 0.378316
Si Si3 0.610900 0.274524 0.944899
Si Si4 0.351946 0.583754 0.951151
Si Si5 0.338513 0.211271 0.178615
Si Si6 0.318387 0.449035 0.235485
Si Si7 0.755608 0.019480 0.979940
O O1 0.603352 0.379420 0.795375
O O2 0.427695 0.307877 0.361996
O O3 0.619060 0.471742 0.730827
O O4 0.001429 0.474014 0.720773
O O5 0.453755 0.197177 0.655367
O O6 0.490908 0.213160 0.345908
O O7 0.967680 0.053984 0.205603
O O8 0.407945 0.083796 0.281715
O O9 0.559496 0.336081 0.030626
O O10 0.458799 0.213749 0.011018
O O11 0.964319 0.348223 0.087511
O O12 0.567626 0.580340 0.920132
O O13 0.971399 0.108946 0.000029
O O14 0.500000 0.500000 0.500000
O O15 0.500000 0.000000 0.000000
#
# Coordination Sequence:
#
# PCOD8003539 Si02
#       7
#     2   2   2   2   2   2   2
#     4  10  20  37  59  82 119 163 195 242 292 348
#     4   9  21  41  61  84 120 152 193 245 299 353
#     4  11  22  39  62  88 122 159 197 243 290 355
#     4  10  20  38  56  84 122 158 200 241 290 340
#     4  10  20  39  61  86 116 157 193 242 302 347
#     4  11  23  37  54  90 126 157 204 244 284 344
#     4   9  20  43  63  87 118 149 192 253 298 352
#
# _framework density 18.904978
#
# number of rings (size 3 to 8) (size 9 to 14) (size 15 to 20)
#    0.857    1.143    1.429    2.143    0.000    5.143 
#   10.286    0.714    0.000    0.000    0.000    0.000 
#    0.000    0.000    0.000    0.000    0.000    0.000 
#
# Total GULP energy -173569.749652 kJ/mol
# GULP energy per Si atom -12397.839261 kJ/mol
# Density = 1.886195 g / cm^3
# Si number density = 18.904978 Si / 1000 Ang^3
#
#
#
# Elastic Constant Matrix: (Units=GPa)
#
#
# Indices 1 2 3 4 5 6 
#
# 1 136.0825 50.1591 43.3577 11.2248 -18.4820 8.9050
# 2 50.1591 109.8061 57.0369 -2.7828 -14.1144 15.4737
# 3 43.3577 57.0369 117.4069 -2.6767 -12.6441 8.2774
# 4 11.2248 -2.7828 -2.6767 25.7409 -4.0665 2.5173
# 5 -18.4820 -14.1144 -12.6441 -4.0665 25.5162 -2.8589
# 6 8.9050 15.4737 8.2774 2.5173 -2.8589 16.4355
#
#
#
# Elastic Compliance Matrix: (Units=1/GPa)
#
#
# Indices 1 2 3 4 5 6 
#
# 1 0.009996 -0.003223 -0.001796 -0.004268 0.003871 -0.000150
# 2 -0.003223 0.015086 -0.005015 0.003974 0.003037 -0.010012
# 3 -0.001796 -0.005015 0.011899 0.001829 0.002089 -0.000215
# 4 -0.004268 0.003974 0.001829 0.043048 0.005988 -0.007902
# 5 0.003871 0.003037 0.002089 0.005988 0.045780 0.001038
# 6 -0.000150 -0.010012 -0.000215 -0.007902 0.001038 0.071850
#
#
# Mechanical properties :
#
#
# Convention : Reuss Voigt Hill
#
# Bulk Modulus (GPa) = 59.12461 73.82255 66.47358
# Shear Modulus (GPa) = 22.38491 27.72132 25.05312
#
# Velocity S-wave (km/s) = 3.44477 3.83345 3.64430
# Velocity P-wave (km/s) = 6.86764 7.66341 7.27641
#
# Compressibility (1/GPa) = 0.01691343
#
# Stress axis : x y z
#
# Youngs Moduli (GPa) = 100.03866 66.28594 84.04255
#
# Poissons Ratio (x) = 0.21363 0.15091
# Poissons Ratio (y) = 0.32241 0.42149
# Poissons Ratio (z) = 0.17963 0.33244
#
# Static dielectric constant tensor:
#      x y z
#    x 3.506360 -0.118580 -0.007070 
#    y -0.118580 3.570840 0.080360 
#    z -0.007070 0.080360 3.379170 
# 
# 
# High freq. dielectric constant tensor:
#      x y z
#    x 1.721280 -0.003220 -0.010460 
#    y -0.003220 1.732760 0.003490 
#    z -0.010460 0.003490 1.735800 
# 
# From -- ./inp_files/142676.got.cif
#   From: 2010.06.25/outbox.cif.g09.slc.cpg/sg2_72_cif.got.tgz:142676.got - 2010.06.27 13:26:56.
