data_PCOD8003126
_publ_section_title
;
Structure prediction by ZEFSAII (Michael W. Deem and Ramdas Pophale) SiO2 
 PCOD8003126
Probable space group: P -1
;
_chemical_formula_sum "Si O2"
_cell_formula_units_Z 14
_cell_length_a 15.558362
_cell_length_b 9.588686
_cell_length_c 7.443942
_cell_angle_alpha 99.446029
_cell_angle_beta 55.960721
_cell_angle_gamma 138.558057
_cell_volume 538.944411
_symmetry_space_group_name_H-M "P -1"
_symmetry_group_IT_number 2
_symmetry_cell_setting 'triclinic'
loop_
_space_group_symop_operation_xyz
x,y,z
-x,-y,-z
loop_
_atom_site_type_symbol
_atom_site_label
_atom_site_fract_x
_atom_site_fract_y
_atom_site_fract_z
Si Si1 0.991664 0.131137 0.647365
Si Si2 0.167280 0.277811 0.813524
Si Si3 0.649839 0.671540 0.113707
Si Si4 0.553093 0.350468 0.864589
Si Si5 0.728595 0.310247 0.123497
Si Si6 0.192167 0.828865 0.280845
Si Si7 0.666610 0.175747 0.567442
O O1 0.977526 0.254499 0.562099
O O2 0.166438 0.315817 0.609056
O O3 0.000000 0.000000 0.500000
O O4 0.825305 0.955743 0.936982
O O5 0.337988 0.377297 0.706914
O O6 0.171201 0.430886 0.947219
O O7 0.000000 0.000000 0.000000
O O8 0.482573 0.589524 0.258937
O O9 0.659561 0.554510 0.931539
O O10 0.658034 0.325648 0.685533
O O11 0.365814 0.111518 0.117969
O O12 0.737376 0.250848 0.298618
O O13 0.526044 0.105883 0.257089
O O14 0.826480 0.312800 0.875994
O O15 0.197188 0.764266 0.458829
#
# Coordination Sequence:
#
# PCOD8003126 Si02
#       7
#     2   2   2   2   2   2   2
#     4  10  23  40  56  85 120 164 213 248 291 368
#     4  10  21  40  60  83 120 166 207 250 298 354
#     4   9  18  35  61  85 116 163 194 253 313 357
#     4   9  17  33  63  91 122 149 200 248 318 373
#     4  10  21  38  62  94 124 152 208 254 308 377
#     4  10  20  40  62  86 125 161 197 256 316 359
#     4  10  20  36  62  97 122 155 194 259 318 368
#
# _framework density 25.976704999999999
#
# number of rings (size 3 to 8) (size 9 to 14) (size 15 to 20)
#    0.000    2.286    0.000    3.429    2.000    0.571 
#   15.429    1.429    0.000    0.000    0.000    0.000 
#    0.000    0.000    0.000    0.000    0.000    0.000 
#
# Total GULP energy -173502.440918 kJ/mol
# GULP energy per Si atom -12393.031494 kJ/mol
# Density = 2.591758 g / cm^3
# Si number density = 25.976705 Si / 1000 Ang^3
#
#
#
# Elastic Constant Matrix: (Units=GPa)
#
#
# Indices 1 2 3 4 5 6 
#
# 1 304.5283 57.9315 53.9399 28.3730 21.3233 7.0329
# 2 57.9315 139.9327 14.5836 7.9376 -1.2562 -19.2910
# 3 53.9399 14.5836 17.6191 5.4444 6.4134 4.9847
# 4 28.3730 7.9376 5.4444 34.3529 3.9530 0.2419
# 5 21.3233 -1.2562 6.4134 3.9530 31.8773 5.5730
# 6 7.0329 -19.2910 4.9847 0.2419 5.5730 29.4851
#
#
#
# Elastic Compliance Matrix: (Units=1/GPa)
#
#
# Indices 1 2 3 4 5 6 
#
# 1 0.007542 -0.000410 -0.022267 -0.002551 -0.000585 0.001828
# 2 -0.000410 0.009306 -0.008799 -0.000605 0.001183 0.007455
# 3 -0.022267 -0.008799 0.142538 -0.000849 -0.010067 -0.022634
# 4 -0.002551 -0.000605 -0.000849 0.031737 -0.002171 0.000506
# 5 -0.000585 0.001183 -0.010067 -0.002171 0.034792 -0.003943
# 6 0.001828 0.007455 -0.022634 0.000506 -0.003943 0.042925
#
#
# Mechanical properties :
#
#
# Convention : Reuss Voigt Hill
#
# Bulk Modulus (GPa) = 10.36979 79.44334 44.90657
# Shear Modulus (GPa) = 13.73861 41.51806 27.62833
#
# Velocity S-wave (km/s) = 2.30224 4.00219 3.26480
# Velocity P-wave (km/s) = 3.32681 7.21149 5.61575
#
# Compressibility (1/GPa) = 0.09643397
#
# Stress axis : x y z
#
# Youngs Moduli (GPa) = 132.58669 107.45765 7.01565
#
# Poissons Ratio (x) = 0.04409 0.15621
# Poissons Ratio (y) = 0.05440 0.06173
# Poissons Ratio (z) = 2.95226 0.94556
#
# Static dielectric constant tensor:
#      x y z
#    x 5.568090 0.186880 0.231890 
#    y 0.186880 5.018350 -0.226690 
#    z 0.231890 -0.226690 4.175300 
# 
# 
# High freq. dielectric constant tensor:
#      x y z
#    x 2.066750 0.002760 0.013740 
#    y 0.002760 2.054780 -0.009480 
#    z 0.013740 -0.009480 1.998790 
# 
# From -- ./inp_files/164999.got.cif
#   From: 2010.06.25/outbox.cif.g09.slc.cpg/sg2_83_cif.got.tgz:164999.got - 2010.06.27 13:26:56.
