data_PCOD8003263
_publ_section_title
;
Structure prediction by ZEFSAII (Michael W. Deem and Ramdas Pophale) SiO2 
 PCOD8003263
Probable space group: P -1
;
_chemical_formula_sum "Si O2"
_cell_formula_units_Z 12
_cell_length_a 13.634296
_cell_length_b 8.686975
_cell_length_c 8.758982
_cell_angle_alpha 123.822154
_cell_angle_beta 140.425879
_cell_angle_gamma 65.560723
_cell_volume 548.838685
_symmetry_space_group_name_H-M "P -1"
_symmetry_group_IT_number 2
_symmetry_cell_setting 'triclinic'
loop_
_space_group_symop_operation_xyz
x,y,z
-x,-y,-z
loop_
_atom_site_type_symbol
_atom_site_label
_atom_site_fract_x
_atom_site_fract_y
_atom_site_fract_z
Si Si1 0.297907 0.093993 0.768612
Si Si2 0.672089 0.550837 0.794226
Si Si3 0.384445 0.784028 0.906595
Si Si4 0.359665 0.777758 0.224095
Si Si5 0.839010 0.918224 0.705754
Si Si6 0.682358 0.613278 0.519809
O O1 0.155998 0.097405 0.481603
O O2 0.279325 0.897820 0.726216
O O3 0.305649 0.252175 0.991002
O O4 0.447278 0.117205 0.850588
O O5 0.500000 0.500000 0.500000
O O6 0.729527 0.396742 0.896391
O O7 0.765110 0.564355 0.753259
O O8 0.390957 0.569691 0.748267
O O9 0.319041 0.790369 0.003072
O O10 0.542627 0.755771 0.454911
O O11 0.301669 0.958406 0.338738
O O12 0.812348 0.710520 0.624413
O O13 0.000000 0.000000 0.000000
#
# Coordination Sequence:
#
# PCOD8003263 Si02
#       6
#     2   2   2   2   2   2
#     4  11  22  38  62  98 133 156 206 260 315 369
#     4  10  20  36  65 101 127 153 205 269 317 361
#     4  11  21  36  69 101 122 157 207 272 315 357
#     4  11  21  39  63  95 123 163 213 256 311 362
#     4  12  27  43  61  90 131 174 209 251 310 379
#     4  11  21  40  65  97 127 159 210 262 311 366
#
# _framework density 21.864348
#
# number of rings (size 3 to 8) (size 9 to 14) (size 15 to 20)
#    0.000    1.000    5.000    4.000    7.000    0.000 
#    0.000   10.000    0.000    0.000    0.000    0.000 
#    0.000    0.000    0.000    0.000    0.000    0.000 
#
# Total GULP energy -148726.729668 kJ/mol
# GULP energy per Si atom -12393.894139 kJ/mol
# Density = 2.181458 g / cm^3
# Si number density = 21.864348 Si / 1000 Ang^3
#
#
#
# Elastic Constant Matrix: (Units=GPa)
#
#
# Indices 1 2 3 4 5 6 
#
# 1 67.6389 45.2743 42.8128 -9.8792 -25.1811 33.7775
# 2 45.2743 99.3236 44.4361 6.7398 -3.0877 39.2054
# 3 42.8128 44.4361 133.3912 -3.1046 -21.8260 17.3637
# 4 -9.8792 6.7398 -3.1046 28.0182 7.1464 -18.0490
# 5 -25.1811 -3.0877 -21.8260 7.1464 38.3298 -1.1226
# 6 33.7775 39.2054 17.3637 -18.0490 -1.1226 43.2693
#
#
#
# Elastic Compliance Matrix: (Units=1/GPa)
#
#
# Indices 1 2 3 4 5 6 
#
# 1 0.048155 -0.001668 -0.005033 -0.016978 0.030619 -0.040348
# 2 -0.001668 0.031008 -0.004832 -0.034938 0.004013 -0.039324
# 3 -0.005033 -0.004832 0.010321 0.003864 0.001632 0.005819
# 4 -0.016978 -0.034938 0.003864 0.100001 -0.027943 0.084349
# 5 0.030619 0.004013 0.001632 -0.027943 0.051539 -0.038512
# 6 -0.040348 -0.039324 0.005819 0.084349 -0.038512 0.122089
#
#
# Mechanical properties :
#
#
# Convention : Reuss Voigt Hill
#
# Bulk Modulus (GPa) = 15.05618 62.82224 38.93921
# Shear Modulus (GPa) = 12.24535 33.11217 22.67876
#
# Velocity S-wave (km/s) = 2.36913 3.89580 3.22413
# Velocity P-wave (km/s) = 3.79273 7.00224 5.63100
#
# Compressibility (1/GPa) = 0.06641793
#
# Stress axis : x y z
#
# Youngs Moduli (GPa) = 20.76626 32.24979 96.88906
#
# Poissons Ratio (x) = 0.05381 0.48763
# Poissons Ratio (y) = 0.03465 0.46815
# Poissons Ratio (z) = 0.10451 0.15582
#
# Static dielectric constant tensor:
#      x y z
#    x 4.107620 0.744030 -0.467320 
#    y 0.744030 4.342240 -0.085760 
#    z -0.467320 -0.085760 3.674850 
# 
# 
# High freq. dielectric constant tensor:
#      x y z
#    x 1.837940 0.045070 -0.042070 
#    y 0.045070 1.864730 0.018260 
#    z -0.042070 0.018260 1.844140 
# 
# From -- ./inp_files/147334.got.cif
#   From: 2010.06.25/outbox.cif.g09.slc.cpg/sg2_74_cif.got.tgz:147334.got - 2010.06.27 13:26:56.
