data_PCOD8003138
_publ_section_title
;
Structure prediction by ZEFSAII (Michael W. Deem and Ramdas Pophale) SiO2 
 PCOD8003138
Probable space group: P -1
;
_chemical_formula_sum "Si O2"
_cell_formula_units_Z 10
_cell_length_a 9.519216
_cell_length_b 8.449534
_cell_length_c 9.598420
_cell_angle_alpha 73.927139
_cell_angle_beta 92.791909
_cell_angle_gamma 134.550970
_cell_volume 516.587465
_symmetry_space_group_name_H-M "P -1"
_symmetry_group_IT_number 2
_symmetry_cell_setting 'triclinic'
loop_
_space_group_symop_operation_xyz
x,y,z
-x,-y,-z
loop_
_atom_site_type_symbol
_atom_site_label
_atom_site_fract_x
_atom_site_fract_y
_atom_site_fract_z
Si Si1 0.985726 0.465286 0.343948
Si Si2 0.968872 0.099991 0.351767
Si Si3 0.249293 0.125750 0.876730
Si Si4 0.297819 0.583037 0.146948
Si Si5 0.866769 0.628520 0.092241
O O1 0.877021 0.197460 0.377546
O O2 0.862139 0.512169 0.258935
O O3 0.000000 0.500000 0.500000
O O4 0.204873 0.642782 0.233008
O O5 0.191335 0.317498 0.242370
O O6 0.817017 0.898128 0.280037
O O7 0.000000 0.000000 0.500000
O O8 0.464636 0.219505 0.870114
O O9 0.263320 0.315479 0.904035
O O10 0.095296 0.872883 0.006802
O O11 0.235282 0.566362 0.987494
#
# Coordination Sequence:
#
# PCOD8003138 Si02
#       5
#     2   2   2   2   2
#     4  10  21  39  57  80 118 150 180 234 282 321
#     4   9  20  37  56  80 116 145 182 230 278 325
#     4  10  20  36  63  84 108 150 189 225 280 333
#     4   9  21  36  62  83 109 150 189 226 274 338
#     4  10  20  38  59  84 116 143 183 237 277 326
#
# _framework density 19.357806
#
# number of rings (size 3 to 8) (size 9 to 14) (size 15 to 20)
#    1.200    1.200    0.000    2.400    0.000    1.600 
#    0.000    1.000    0.000    0.000    0.000    0.000 
#    0.000    0.000    0.000    0.000    0.000    0.000 
#
# Total GULP energy -123920.244023 kJ/mol
# GULP energy per Si atom -12392.024402 kJ/mol
# Density = 1.931375 g / cm^3
# Si number density = 19.357806 Si / 1000 Ang^3
#
#
#
# Elastic Constant Matrix: (Units=GPa)
#
#
# Indices 1 2 3 4 5 6 
#
# 1 71.7725 22.8892 26.2913 6.7441 -3.1615 -0.0027
# 2 22.8892 53.7216 28.1835 13.6055 -0.0010 3.3009
# 3 26.2913 28.1835 140.8620 27.1749 17.3742 -8.2698
# 4 6.7441 13.6055 27.1749 26.7278 -12.7320 0.1072
# 5 -3.1615 -0.0010 17.3742 -12.7320 37.0299 2.3703
# 6 -0.0027 3.3009 -8.2698 0.1072 2.3703 31.2332
#
#
#
# Elastic Compliance Matrix: (Units=1/GPa)
#
#
# Indices 1 2 3 4 5 6 
#
# 1 0.017060 -0.006669 -0.003392 0.004796 0.004733 -0.000568
# 2 -0.006669 0.025235 -0.001212 -0.011766 -0.003875 -0.002654
# 3 -0.003392 -0.001212 0.013487 -0.018604 -0.013320 0.004774
# 4 0.004796 -0.011766 -0.018604 0.078560 0.036580 -0.006728
# 5 0.004733 -0.003875 -0.013320 0.036580 0.046670 -0.006784
# 6 -0.000568 -0.002654 0.004774 -0.006728 -0.006784 0.034100
#
#
# Mechanical properties :
#
#
# Convention : Reuss Voigt Hill
#
# Bulk Modulus (GPa) = 30.08877 46.78711 38.43794
# Shear Modulus (GPa) = 20.10158 31.59766 25.84962
#
# Velocity S-wave (km/s) = 3.22595 4.04455 3.65822
# Velocity P-wave (km/s) = 5.42705 6.78478 6.14354
#
# Compressibility (1/GPa) = 0.03323499
#
# Stress axis : x y z
#
# Youngs Moduli (GPa) = 58.61612 39.62814 74.14576
#
# Poissons Ratio (x) = 0.26427 0.25153
# Poissons Ratio (y) = 0.39090 0.08988
# Poissons Ratio (z) = 0.19884 0.04804
#
# Static dielectric constant tensor:
#      x y z
#    x 3.308060 -0.144490 -0.080020 
#    y -0.144490 3.298800 0.116860 
#    z -0.080020 0.116860 3.481910 
# 
# 
# High freq. dielectric constant tensor:
#      x y z
#    x 1.739280 -0.016130 0.004280 
#    y -0.016130 1.732880 0.014640 
#    z 0.004280 0.014640 1.758200 
# 
# From -- ./inp_files/16095.got.cif
#   From: 2010.06.25/outbox.cif.g09.slc.cpg/sg2_9_cif.got.tgz:16095.got - 2010.06.27 13:26:56.
