data_PCOD8003944
_publ_section_title
;
Structure prediction by ZEFSAII (Michael W. Deem and Ramdas Pophale) SiO2 
 PCOD8003944
Probable space group: P -1
;
_chemical_formula_sum "Si O2"
_cell_formula_units_Z 16
_cell_length_a 9.068559
_cell_length_b 11.414566
_cell_length_c 11.593190
_cell_angle_alpha 47.737516
_cell_angle_beta 97.874149
_cell_angle_gamma 118.130236
_cell_volume 752.813099
_symmetry_space_group_name_H-M "P -1"
_symmetry_group_IT_number 2
_symmetry_cell_setting 'triclinic'
loop_
_space_group_symop_operation_xyz
x,y,z
-x,-y,-z
loop_
_atom_site_type_symbol
_atom_site_label
_atom_site_fract_x
_atom_site_fract_y
_atom_site_fract_z
Si Si1 0.930925 0.555234 0.811189
Si Si2 0.340868 0.128941 0.226935
Si Si3 0.729517 0.372479 0.134719
Si Si4 0.966414 0.350817 0.762197
Si Si5 0.227311 0.731040 0.425221
Si Si6 0.189959 0.181756 0.407735
Si Si7 0.275843 0.344159 0.885829
Si Si8 0.499718 0.396732 0.452241
O O1 0.882493 0.366502 0.862636
O O2 0.847967 0.657777 0.672582
O O3 0.143564 0.689291 0.752854
O O4 0.845230 0.509748 0.956567
O O5 0.545941 0.204237 0.186269
O O6 0.291429 0.205005 0.283461
O O7 0.262372 0.911673 0.378462
O O8 0.280174 0.185671 0.065918
O O9 0.684713 0.485343 0.143395
O O10 0.819273 0.230814 0.733322
O O11 0.070275 0.560198 0.586379
O O12 0.087170 0.263506 0.857244
O O13 0.384617 0.695261 0.457012
O O14 0.315828 0.217502 0.507731
O O15 0.000000 0.000000 0.500000
O O16 0.426433 0.437107 0.744039
O O17 0.500000 0.500000 0.500000
#
# Coordination Sequence:
#
# PCOD8003944 Si02
#       8
#     2   2   2   2   2   2   2   2
#     4  10  20  37  62  91 120 165 208 259 317 380
#     4  12  23  39  66  98 129 164 215 272 326 375
#     4  10  20  37  63  90 127 163 204 258 325 386
#     4   9  20  42  63  87 129 173 216 254 324 393
#     4  10  23  40  63  91 128 175 215 259 322 392
#     4  12  25  38  63  98 134 162 216 277 324 375
#     4  10  20  40  67  93 122 173 214 261 324 394
#     4  11  24  44  67  89 127 180 220 257 327 400
#
# _framework density 21.253615
#
# number of rings (size 3 to 8) (size 9 to 14) (size 15 to 20)
#    0.000    1.500    2.500    2.625    1.750    3.000 
#    0.000    2.500    0.000    0.000    0.000    0.000 
#    0.000    0.000    0.000    0.000    0.000    0.000 
#
# Total GULP energy -198222.112870 kJ/mol
# GULP energy per Si atom -12388.882054 kJ/mol
# Density = 2.120524 g / cm^3
# Si number density = 21.253615 Si / 1000 Ang^3
#
#
#
# Elastic Constant Matrix: (Units=GPa)
#
#
# Indices 1 2 3 4 5 6 
#
# 1 105.5647 43.0717 28.1497 4.1059 0.3708 1.9901
# 2 43.0717 90.7016 27.2846 16.1437 3.4175 6.3097
# 3 28.1497 27.2846 62.7249 14.4542 -0.8388 -0.9541
# 4 4.1059 16.1437 14.4542 32.8380 -2.0837 2.2781
# 5 0.3708 3.4175 -0.8388 -2.0837 30.6833 6.3946
# 6 1.9901 6.3097 -0.9541 2.2781 6.3946 38.1288
#
#
#
# Elastic Compliance Matrix: (Units=1/GPa)
#
#
# Indices 1 2 3 4 5 6 
#
# 1 0.012587 -0.005290 -0.003995 0.002830 0.000550 -0.000143
# 2 -0.005290 0.015694 -0.003205 -0.005634 -0.001787 -0.001765
# 3 -0.003995 -0.003205 0.020814 -0.007193 0.000139 0.001666
# 4 0.002830 -0.005634 -0.007193 0.036392 0.003311 -0.002125
# 5 0.000550 -0.001787 0.000139 0.003311 0.034192 -0.005662
# 6 -0.000143 -0.001765 0.001666 -0.002125 -0.005662 0.027645
#
#
# Mechanical properties :
#
#
# Convention : Reuss Voigt Hill
#
# Bulk Modulus (GPa) = 41.46619 50.66704 46.06662
# Shear Modulus (GPa) = 27.72486 31.02905 29.37695
#
# Velocity S-wave (km/s) = 3.61567 3.82506 3.72184
# Velocity P-wave (km/s) = 6.08139 6.58780 6.33966
#
# Compressibility (1/GPa) = 0.02411603
#
# Stress axis : x y z
#
# Youngs Moduli (GPa) = 79.44574 63.71701 48.04358
#
# Poissons Ratio (x) = 0.33707 0.19192
# Poissons Ratio (y) = 0.42028 0.15399
# Poissons Ratio (z) = 0.31736 0.20422
#
# Static dielectric constant tensor:
#      x y z
#    x 4.266640 0.163190 0.179890 
#    y 0.163190 3.830700 0.366550 
#    z 0.179890 0.366550 3.761600 
# 
# 
# High freq. dielectric constant tensor:
#      x y z
#    x 1.853180 0.003640 0.007090 
#    y 0.003640 1.822860 0.027240 
#    z 0.007090 0.027240 1.813210 
# 
# From -- ./inp_files/277570.got.cif
#   From: 2010.06.25/outbox.cif.g09.slc.cpg/sg2_139_cif.got.tgz:277570.got - 2010.06.27 13:26:56.
