data_PCOD8003155
_publ_section_title
;
Structure prediction by ZEFSAII (Michael W. Deem and Ramdas Pophale) SiO2 
 PCOD8003155
Probable space group: P -1
;
_chemical_formula_sum "Si O2"
_cell_formula_units_Z 16
_cell_length_a 9.039988
_cell_length_b 14.272402
_cell_length_c 9.096049
_cell_angle_alpha 70.858303
_cell_angle_beta 87.731399
_cell_angle_gamma 130.522946
_cell_volume 788.900470
_symmetry_space_group_name_H-M "P -1"
_symmetry_group_IT_number 2
_symmetry_cell_setting 'triclinic'
loop_
_space_group_symop_operation_xyz
x,y,z
-x,-y,-z
loop_
_atom_site_type_symbol
_atom_site_label
_atom_site_fract_x
_atom_site_fract_y
_atom_site_fract_z
Si Si1 0.104334 0.958985 0.737923
Si Si2 0.273305 0.920427 0.492019
Si Si3 0.091610 0.264361 0.911974
Si Si4 0.961599 0.608796 0.602994
Si Si5 0.151006 0.978715 0.191119
Si Si6 0.908878 0.362550 0.744508
Si Si7 0.442015 0.180448 0.825406
Si Si8 0.487263 0.560485 0.326272
O O1 0.163753 0.954379 0.574663
O O2 0.317218 0.061338 0.769316
O O3 0.990062 0.011289 0.715898
O O4 0.954027 0.805877 0.893478
O O5 0.273113 0.962100 0.304161
O O6 0.144419 0.758004 0.590971
O O7 0.500000 0.000000 0.500000
O O8 0.339692 0.393248 0.820330
O O9 0.002534 0.155235 0.838544
O O10 0.988856 0.324606 0.884374
O O11 0.968618 0.501142 0.724131
O O12 0.741287 0.557327 0.675953
O O13 0.977123 0.610268 0.425580
O O14 0.317428 0.118566 0.016477
O O15 0.662570 0.230781 0.807170
O O16 0.474555 0.306962 0.701833
O O17 0.500000 0.500000 0.500000
#
# Coordination Sequence:
#
# PCOD8003155 Si02
#       8
#     2   2   2   2   2   2   2   2
#     4  11  23  39  63  91 126 157 203 245 309 363
#     4  12  26  43  61  87 126 165 201 245 310 366
#     4  11  20  38  66  98 116 154 206 256 301 351
#     4  10  22  39  57  91 120 158 202 250 294 364
#     4  11  21  41  62  91 127 154 208 252 295 359
#     4  10  20  36  63  88 124 149 206 249 304 341
#     4  10  21  36  65  95 120 155 202 260 300 347
#     4  11  18  35  63  91 122 151 201 254 297 348
#
# _framework density 20.281393999999999
#
# number of rings (size 3 to 8) (size 9 to 14) (size 15 to 20)
#    0.000    1.250    5.000    1.875    1.750    1.000 
#    0.000    1.250    0.000    0.000    0.000    0.000 
#    0.000    0.000    0.000    0.000    0.000    0.000 
#
# Total GULP energy -198441.703187 kJ/mol
# GULP energy per Si atom -12402.606449 kJ/mol
# Density = 2.023523 g / cm^3
# Si number density = 20.281394 Si / 1000 Ang^3
#
#
#
# Elastic Constant Matrix: (Units=GPa)
#
#
# Indices 1 2 3 4 5 6 
#
# 1 121.7201 39.3101 24.6474 -17.4130 2.4287 9.6466
# 2 39.3101 93.1211 27.2033 -20.4135 -2.3551 10.3909
# 3 24.6474 27.2033 72.6206 -12.1126 -0.8864 3.9857
# 4 -17.4130 -20.4135 -12.1126 29.7614 0.0412 -5.2128
# 5 2.4287 -2.3551 -0.8864 0.0412 28.5116 -7.6168
# 6 9.6466 10.3909 3.9857 -5.2128 -7.6168 34.1385
#
#
#
# Elastic Compliance Matrix: (Units=1/GPa)
#
#
# Indices 1 2 3 4 5 6 
#
# 1 0.010109 -0.002979 -0.001766 0.002863 -0.001611 -0.001666
# 2 -0.002979 0.014645 -0.003249 0.006621 0.000806 -0.002046
# 3 -0.001766 -0.003249 0.016138 0.003343 0.000435 0.000211
# 4 0.002863 0.006621 0.003343 0.041780 0.001268 0.003448
# 5 -0.001611 0.000806 0.000435 0.001268 0.037626 0.008747
# 6 -0.001666 -0.002046 0.000211 0.003448 0.008747 0.032839
#
#
# Mechanical properties :
#
#
# Convention : Reuss Voigt Hill
#
# Bulk Modulus (GPa) = 40.15167 52.19817 46.17492
# Shear Modulus (GPa) = 28.18093 31.56903 29.87498
#
# Velocity S-wave (km/s) = 3.73164 3.94960 3.84216
# Velocity P-wave (km/s) = 6.19735 6.82583 6.51917
#
# Compressibility (1/GPa) = 0.02490556
#
# Stress axis : x y z
#
# Youngs Moduli (GPa) = 98.92260 68.28174 61.96661
#
# Poissons Ratio (x) = 0.20339 0.10942
# Poissons Ratio (y) = 0.29466 0.20131
# Poissons Ratio (z) = 0.17468 0.22182
#
# Static dielectric constant tensor:
#      x y z
#    x 3.873870 0.017230 -0.085730 
#    y 0.017230 3.559420 -0.370020 
#    z -0.085730 -0.370020 3.649080 
# 
# 
# High freq. dielectric constant tensor:
#      x y z
#    x 1.810370 0.000680 -0.000750 
#    y 0.000680 1.770760 -0.032740 
#    z -0.000750 -0.032740 1.780750 
# 
# From -- ./inp_files/179053.got.cif
#   From: 2010.06.25/outbox.cif.g09.slc.cpg/sg2_90_cif.got.tgz:179053.got - 2010.06.27 13:26:56.
