data_PCOD8003183
_publ_section_title
;
Structure prediction by ZEFSAII (Michael W. Deem and Ramdas Pophale) SiO2 
 PCOD8003183
Probable space group: P -1
;
_chemical_formula_sum "Si O2"
_cell_formula_units_Z 16
_cell_length_a 10.106088
_cell_length_b 19.182906
_cell_length_c 12.257972
_cell_angle_alpha 38.510439
_cell_angle_beta 107.559030
_cell_angle_gamma 136.546247
_cell_volume 796.892004
_symmetry_space_group_name_H-M "P -1"
_symmetry_group_IT_number 2
_symmetry_cell_setting 'triclinic'
loop_
_space_group_symop_operation_xyz
x,y,z
-x,-y,-z
loop_
_atom_site_type_symbol
_atom_site_label
_atom_site_fract_x
_atom_site_fract_y
_atom_site_fract_z
Si Si1 0.384699 0.559295 0.684326
Si Si2 0.384300 0.270622 0.236700
Si Si3 0.128960 0.483598 0.332701
Si Si4 0.875549 0.265839 0.001200
Si Si5 0.659239 0.093421 0.794040
Si Si6 0.570956 0.239294 0.732345
Si Si7 0.001711 0.820288 0.682217
Si Si8 0.664792 0.523100 0.793468
O O1 0.469965 0.656435 0.705552
O O2 0.506084 0.726960 0.423281
O O3 0.481227 0.501845 0.744158
O O4 0.086702 0.364056 0.848815
O O5 0.249355 0.302529 0.170158
O O6 0.190473 0.045009 0.447330
O O7 0.560202 0.380699 0.041995
O O8 0.082092 0.574852 0.159310
O O9 0.254845 0.577095 0.367272
O O10 0.308016 0.534639 0.235194
O O11 0.874346 0.244720 0.572762
O O12 0.892910 0.214760 0.183579
O O13 0.608428 0.063724 0.132864
O O14 0.714786 0.228190 0.730834
O O15 0.659666 0.970222 0.002444
O O16 0.930510 0.742380 0.634957
#
# Coordination Sequence:
#
# PCOD8003183 Si02
#       8
#     2   2   2   2   2   2   2   2
#     4  11  20  40  68  90 114 155 207 248 291 351
#     4  10  20  39  63  92 121 151 201 250 296 347
#     4  11  25  41  59  88 128 161 191 244 306 354
#     4  11  21  37  65  91 115 153 205 244 291 353
#     4  10  22  38  62  90 119 153 204 251 290 348
#     4  10  22  39  64  88 117 156 204 251 291 347
#     4  10  20  36  63  93 117 157 200 246 294 349
#     4  11  23  42  60  88 130 157 190 247 304 357
#
# _framework density 20.078002999999999
#
# number of rings (size 3 to 8) (size 9 to 14) (size 15 to 20)
#    0.000    1.500    3.750    1.875    3.500    3.000 
#    0.000    1.875    0.000    0.000    0.000    0.000 
#    0.000    0.000    0.000    0.000    0.000    0.000 
#
# Total GULP energy -198376.838399 kJ/mol
# GULP energy per Si atom -12398.552400 kJ/mol
# Density = 2.003230 g / cm^3
# Si number density = 20.078003 Si / 1000 Ang^3
#
#
#
# Elastic Constant Matrix: (Units=GPa)
#
#
# Indices 1 2 3 4 5 6 
#
# 1 110.1104 49.5066 57.6450 9.2684 -0.7020 -3.6222
# 2 49.5066 95.4763 60.0967 -0.0212 -3.9291 1.0663
# 3 57.6450 60.0967 103.1715 6.4142 4.1539 5.7872
# 4 9.2684 -0.0212 6.4142 26.8422 9.5617 7.3457
# 5 -0.7020 -3.9291 4.1539 9.5617 28.2871 6.8986
# 6 -3.6222 1.0663 5.7872 7.3457 6.8986 20.8247
#
#
#
# Elastic Compliance Matrix: (Units=1/GPa)
#
#
# Indices 1 2 3 4 5 6 
#
# 1 0.014613 -0.003852 -0.005952 -0.005685 0.001156 0.006015
# 2 -0.003852 0.017991 -0.008549 0.002613 0.003056 -0.001150
# 3 -0.005952 -0.008549 0.018381 -0.000023 -0.002869 -0.004747
# 4 -0.005685 0.002613 -0.000023 0.047416 -0.012458 -0.013715
# 5 0.001156 0.003056 -0.002869 -0.012458 0.042602 -0.008877
# 6 0.006015 -0.001150 -0.004747 -0.013715 -0.008877 0.058222
#
#
# Mechanical properties :
#
#
# Convention : Reuss Voigt Hill
#
# Bulk Modulus (GPa) = 70.02440 71.47275 70.74857
# Shear Modulus (GPa) = 20.77362 24.62480 22.69921
#
# Velocity S-wave (km/s) = 3.22008 3.50588 3.36601
# Velocity P-wave (km/s) = 6.98406 7.21547 7.10071
#
# Compressibility (1/GPa) = 0.01428074
#
# Stress axis : x y z
#
# Youngs Moduli (GPa) = 68.43133 55.58312 54.40511
#
# Poissons Ratio (x) = 0.21410 0.32380
# Poissons Ratio (y) = 0.26359 0.46508
# Poissons Ratio (z) = 0.40728 0.47515
#
# Static dielectric constant tensor:
#      x y z
#    x 3.431480 0.099020 0.129520 
#    y 0.099020 3.593360 -0.049430 
#    z 0.129520 -0.049430 3.856600 
# 
# 
# High freq. dielectric constant tensor:
#      x y z
#    x 1.752270 0.007430 0.016240 
#    y 0.007430 1.781540 -0.003960 
#    z 0.016240 -0.003960 1.800280 
# 
# From -- ./inp_files/402855.got.cif
#   From: 2010.06.25/outbox.cif.g09.slc.cpg/sg2_202_cif.got.tgz:402855.got - 2010.06.27 13:26:56.
