data_PCOD8003949
_publ_section_title
;
Structure prediction by ZEFSAII (Michael W. Deem and Ramdas Pophale) SiO2 
 PCOD8003949
Probable space group: P -1
;
_chemical_formula_sum "Si O2"
_cell_formula_units_Z 16
_cell_length_a 11.394963
_cell_length_b 13.328328
_cell_length_c 9.609760
_cell_angle_alpha 116.641969
_cell_angle_beta 76.224630
_cell_angle_gamma 54.590533
_cell_volume 776.099256
_symmetry_space_group_name_H-M "P -1"
_symmetry_group_IT_number 2
_symmetry_cell_setting 'triclinic'
loop_
_space_group_symop_operation_xyz
x,y,z
-x,-y,-z
loop_
_atom_site_type_symbol
_atom_site_label
_atom_site_fract_x
_atom_site_fract_y
_atom_site_fract_z
Si Si1 0.353157 0.408140 0.302971
Si Si2 0.245764 0.071959 0.587197
Si Si3 0.887966 0.562802 0.776438
Si Si4 0.798138 0.068173 0.949296
Si Si5 0.027356 0.235128 0.482852
Si Si6 0.699589 0.717897 0.218830
Si Si7 0.049926 0.090486 0.893923
Si Si8 0.821734 0.468919 0.279277
O O1 0.291648 0.328240 0.213786
O O2 0.334135 0.428045 0.487739
O O3 0.206828 0.607006 0.392091
O O4 0.575168 0.271519 0.111068
O O5 0.092976 0.139637 0.555133
O O6 0.209425 0.228146 0.734592
O O7 0.208667 0.020895 0.698129
O O8 0.468265 0.894228 0.359935
O O9 0.062274 0.344874 0.551812
O O10 0.977728 0.620952 0.772037
O O11 0.812482 0.592783 0.972657
O O12 0.944589 0.056353 0.842561
O O13 0.841403 0.919030 0.768165
O O14 0.824881 0.031647 0.082300
O O15 0.733829 0.607074 0.265975
O O16 0.875815 0.306566 0.108378
#
# Coordination Sequence:
#
# PCOD8003949 Si02
#       8
#     2   2   2   2   2   2   2   2
#     4  10  23  39  65  93 123 168 205 252 313 367
#     4  11  22  39  62  95 128 165 202 259 311 371
#     4  10  20  37  62  91 127 161 193 257 313 367
#     4  11  24  47  62  90 124 168 218 255 297 369
#     4  10  22  42  63  89 129 164 201 260 311 362
#     4  11  21  36  63  96 130 159 207 249 314 387
#     4  11  24  42  67  86 128 165 208 266 303 356
#     4  12  20  40  62  98 124 161 207 255 319 368
#
# _framework density 20.615919000000002
#
# number of rings (size 3 to 8) (size 9 to 14) (size 15 to 20)
#    0.750    0.500    3.750    3.000    0.000    1.000 
#    2.250    1.875    0.000    0.000    0.000    0.000 
#    0.000    0.000    0.000    0.000    0.000    0.000 
#
# Total GULP energy -198301.950082 kJ/mol
# GULP energy per Si atom -12393.871880 kJ/mol
# Density = 2.056900 g / cm^3
# Si number density = 20.615919 Si / 1000 Ang^3
#
#
#
# Elastic Constant Matrix: (Units=GPa)
#
#
# Indices 1 2 3 4 5 6 
#
# 1 63.5548 34.0642 48.1202 -1.0348 -2.3970 -1.1659
# 2 34.0642 80.3901 21.6836 2.4876 -6.2188 -8.4911
# 3 48.1202 21.6836 108.3016 6.0517 -0.8012 -6.9803
# 4 -1.0348 2.4876 6.0517 23.3122 -4.1353 -0.1991
# 5 -2.3970 -6.2188 -0.8012 -4.1353 22.8699 4.3690
# 6 -1.1659 -8.4911 -6.9803 -0.1991 4.3690 26.5838
#
#
#
# Elastic Compliance Matrix: (Units=1/GPa)
#
#
# Indices 1 2 3 4 5 6 
#
# 1 0.030519 -0.010243 -0.012176 0.005934 0.002097 -0.005430
# 2 -0.010243 0.017129 0.001590 -0.002250 0.002268 0.005050
# 3 -0.012176 0.001590 0.014852 -0.004885 -0.002003 0.004166
# 4 0.005934 -0.002250 -0.004885 0.046192 0.008732 -0.002830
# 5 0.002097 0.002268 -0.002003 0.008732 0.047494 -0.007450
# 6 -0.005430 0.005050 0.004166 -0.002830 -0.007450 0.041289
#
#
# Mechanical properties :
#
#
# Convention : Reuss Voigt Hill
#
# Bulk Modulus (GPa) = 47.97910 51.10916 49.54413
# Shear Modulus (GPa) = 20.31852 24.44509 22.38180
#
# Velocity S-wave (km/s) = 3.14279 3.44719 3.29850
# Velocity P-wave (km/s) = 6.04093 6.37880 6.21216
#
# Compressibility (1/GPa) = 0.02084241
#
# Stress axis : x y z
#
# Youngs Moduli (GPa) = 32.76620 58.37917 67.33243
#
# Poissons Ratio (x) = 0.59798 0.81981
# Poissons Ratio (y) = 0.33562 -0.10703
# Poissons Ratio (z) = 0.39894 -0.09280
#
# Static dielectric constant tensor:
#      x y z
#    x 3.629380 -0.141270 0.190240 
#    y -0.141270 3.606730 -0.007170 
#    z 0.190240 -0.007170 3.694490 
# 
# 
# High freq. dielectric constant tensor:
#      x y z
#    x 1.787980 -0.016550 0.013980 
#    y -0.016550 1.797910 -0.000560 
#    z 0.013980 -0.000560 1.810980 
# 
# From -- ./inp_files/259482.got.cif
#   From: 2010.06.25/outbox.cif.g09.slc.cpg/sg2_130_cif.got.tgz:259482.got - 2010.06.27 13:26:56.
