data_PCOD8003994
_publ_section_title
;
Structure prediction by ZEFSAII (Michael W. Deem and Ramdas Pophale) SiO2 
 PCOD8003994
Probable space group: P -1
;
_chemical_formula_sum "Si O2"
_cell_formula_units_Z 16
_cell_length_a 22.434974
_cell_length_b 17.216540
_cell_length_c 11.362756
_cell_angle_alpha 159.203052
_cell_angle_beta 149.140461
_cell_angle_gamma 31.432664
_cell_volume 767.640715
_symmetry_space_group_name_H-M "P -1"
_symmetry_group_IT_number 2
_symmetry_cell_setting 'triclinic'
loop_
_space_group_symop_operation_xyz
x,y,z
-x,-y,-z
loop_
_atom_site_type_symbol
_atom_site_label
_atom_site_fract_x
_atom_site_fract_y
_atom_site_fract_z
Si Si1 0.726054 0.742260 0.741353
Si Si2 0.734102 0.291372 0.265607
Si Si3 0.016891 0.439068 0.126187
Si Si4 0.383846 0.007205 0.735717
Si Si5 0.242205 0.860233 0.477770
Si Si6 0.989606 0.152912 0.447990
Si Si7 0.525857 0.238601 0.700303
Si Si8 0.763346 0.475669 0.822430
O O1 0.728736 0.529294 0.529198
O O2 0.843611 0.681894 0.767645
O O3 0.602165 0.807733 0.547132
O O4 0.724219 0.949701 0.117286
O O5 0.732077 0.327166 0.452650
O O6 0.858506 0.106028 0.172187
O O7 0.624145 0.184785 0.895749
O O8 0.001993 0.705647 0.455404
O O9 0.001121 0.311160 0.800044
O O10 0.909577 0.426553 0.014909
O O11 0.309836 0.852422 0.456794
O O12 0.420556 0.904661 0.525963
O O13 0.301127 0.262349 0.938618
O O14 0.500000 0.000000 0.000000
O O15 0.283674 0.615524 0.266823
O O16 0.097303 0.920809 0.298504
O O17 0.500000 0.500000 0.000000
#
# Coordination Sequence:
#
# PCOD8003994 Si02
#       8
#     2   2   2   2   2   2   2   2
#     4   9  16  33  57  84 116 151 195 236 279 334
#     4   9  17  34  58  87 119 155 192 231 288 348
#     4   8  14  28  54  84 115 144 187 242 281 323
#     4  12  22  40  62  84 119 150 190 247 284 338
#     4  11  20  34  60  92 116 148 196 238 290 337
#     4   8  14  28  53  83 118 147 190 236 281 336
#     4  10  20  37  63  83 112 159 196 230 291 349
#     4  11  21  35  62  93 115 148 190 242 292 336
#
# _framework density 20.843084999999999
#
# number of rings (size 3 to 8) (size 9 to 14) (size 15 to 20)
#    0.000    2.250    3.750    2.250    0.000    5.000 
#    0.000    1.250    5.500    0.750    0.000    0.000 
#    0.000    0.000    0.000    0.000    0.000    0.000 
#
# Total GULP energy -198226.424061 kJ/mol
# GULP energy per Si atom -12389.151504 kJ/mol
# Density = 2.079565 g / cm^3
# Si number density = 20.843085 Si / 1000 Ang^3
#
#
#
# Elastic Constant Matrix: (Units=GPa)
#
#
# Indices 1 2 3 4 5 6 
#
# 1 81.1280 59.0024 28.8756 0.7567 14.6418 -7.4251
# 2 59.0024 103.7704 39.7197 -30.7056 20.5268 -27.2041
# 3 28.8756 39.7197 47.8103 -21.8559 3.3731 -11.1554
# 4 0.7567 -30.7056 -21.8559 32.3521 -4.2986 12.9711
# 5 14.6418 20.5268 3.3731 -4.2986 22.5552 1.2245
# 6 -7.4251 -27.2041 -11.1554 12.9711 1.2245 31.6920
#
#
#
# Elastic Compliance Matrix: (Units=1/GPa)
#
#
# Indices 1 2 3 4 5 6 
#
# 1 0.039577 -0.025945 -0.020514 -0.038535 -0.006127 -0.004211
# 2 -0.025945 0.040653 0.001183 0.031097 -0.015333 0.017099
# 3 -0.020514 0.001183 0.047479 0.036253 0.012178 -0.002387
# 4 -0.038535 0.031097 0.036253 0.089620 0.008730 -0.006591
# 5 -0.006127 -0.015333 0.012178 0.008730 0.062996 -0.016318
# 6 -0.004211 0.017099 -0.002387 -0.006591 -0.016318 0.047733
#
#
# Mechanical properties :
#
#
# Convention : Reuss Voigt Hill
#
# Bulk Modulus (GPa) = 26.91247 54.21156 40.56202
# Shear Modulus (GPa) = 11.60104 24.32725 17.96415
#
# Velocity S-wave (km/s) = 2.36177 3.42008 2.93896
# Velocity P-wave (km/s) = 4.51412 6.45459 5.56952
#
# Compressibility (1/GPa) = 0.03715750
#
# Stress axis : x y z
#
# Youngs Moduli (GPa) = 25.26735 24.59839 21.06172
#
# Poissons Ratio (x) = 0.63820 0.43207
# Poissons Ratio (y) = 0.65556 -0.02492
# Poissons Ratio (z) = 0.51834 -0.02911
#
# Static dielectric constant tensor:
#      x y z
#    x 3.645480 -0.559860 0.431040 
#    y -0.559860 4.528270 -0.475470 
#    z 0.431040 -0.475470 3.465700 
# 
# 
# High freq. dielectric constant tensor:
#      x y z
#    x 1.788270 -0.026800 0.024160 
#    y -0.026800 1.823150 -0.009540 
#    z 0.024160 -0.009540 1.780150 
# 
# From -- ./inp_files/390022.got.cif
#   From: 2010.06.25/outbox.cif.g09.slc.cpg/sg2_196_cif.got.tgz:390022.got - 2010.06.27 13:26:56.
