data_PCOD8003248
_publ_section_title
;
Structure prediction by ZEFSAII (Michael W. Deem and Ramdas Pophale) SiO2 
 PCOD8003248
Probable space group: P -1
;
_chemical_formula_sum "Si O2"
_cell_formula_units_Z 12
_cell_length_a 15.063287
_cell_length_b 8.801589
_cell_length_c 12.131159
_cell_angle_alpha 62.821632
_cell_angle_beta 129.156101
_cell_angle_gamma 149.342580
_cell_volume 620.560459
_symmetry_space_group_name_H-M "P -1"
_symmetry_group_IT_number 2
_symmetry_cell_setting 'triclinic'
loop_
_space_group_symop_operation_xyz
x,y,z
-x,-y,-z
loop_
_atom_site_type_symbol
_atom_site_label
_atom_site_fract_x
_atom_site_fract_y
_atom_site_fract_z
Si Si1 0.040002 0.859697 0.539437
Si Si2 0.607955 0.748513 0.153075
Si Si3 0.576024 0.811617 0.870639
Si Si4 0.699590 0.856954 0.559649
Si Si5 0.619856 0.144894 0.432826
Si Si6 0.795032 0.852380 0.875126
O O1 0.840140 0.498442 0.508248
O O2 0.000000 0.000000 0.500000
O O3 0.203757 0.975954 0.711515
O O4 0.124368 0.972583 0.444643
O O5 0.611640 0.555054 0.176399
O O6 0.397352 0.514428 0.135054
O O7 0.619490 0.886210 0.010147
O O8 0.510830 0.914410 0.740454
O O9 0.776828 0.984568 0.906908
O O10 0.500000 0.500000 0.500000
O O11 0.789331 0.930872 0.725381
O O12 0.640948 0.981210 0.458498
O O13 0.500000 0.000000 0.500000
O O14 0.000000 0.000000 0.000000
#
# Coordination Sequence:
#
# PCOD8003248 Si02
#       6
#     2   2   2   2   2   2
#     4  12  23  40  65  96 127 168 211 262 318 378
#     4   9  19  39  59  94 126 167 208 245 323 375
#     4   9  19  39  62  91 127 169 204 253 317 372
#     4  12  24  43  65  96 127 168 217 263 319 375
#     4  12  23  44  64  95 130 164 218 267 310 383
#     4  10  20  36  64  94 128 162 214 252 320 372
#
# _framework density 19.337358999999999
#
# number of rings (size 3 to 8) (size 9 to 14) (size 15 to 20)
#    1.000    0.333    5.000    1.500    4.667    0.000 
#    0.000    3.333    0.000    0.000    0.000    0.000 
#    0.000    0.000    0.000    0.000    0.000    0.000 
#
# Total GULP energy -148772.284260 kJ/mol
# GULP energy per Si atom -12397.690355 kJ/mol
# Density = 1.929335 g / cm^3
# Si number density = 19.337359 Si / 1000 Ang^3
#
#
#
# Elastic Constant Matrix: (Units=GPa)
#
#
# Indices 1 2 3 4 5 6 
#
# 1 128.0272 58.9510 59.7436 -13.9948 8.2182 17.0870
# 2 58.9510 121.4921 48.2766 -1.1983 6.7215 13.5286
# 3 59.7436 48.2766 161.4496 -22.4839 4.7868 18.3544
# 4 -13.9948 -1.1983 -22.4839 33.4725 7.4130 0.6813
# 5 8.2182 6.7215 4.7868 7.4130 41.4222 -10.8728
# 6 17.0870 13.5286 18.3544 0.6813 -10.8728 39.0254
#
#
#
# Elastic Compliance Matrix: (Units=1/GPa)
#
#
# Indices 1 2 3 4 5 6 
#
# 1 0.011914 -0.004356 -0.001995 0.004262 -0.003167 -0.003725
# 2 -0.004356 0.011265 -0.001963 -0.002582 -0.000588 -0.001193
# 3 -0.001995 -0.001963 0.008713 0.005484 -0.002122 -0.003231
# 4 0.004262 -0.002582 0.005484 0.037509 -0.009577 -0.006873
# 5 -0.003167 -0.000588 -0.002122 -0.009577 0.029721 0.011036
# 6 -0.003725 -0.001193 -0.003231 -0.006873 0.011036 0.032383
#
#
# Mechanical properties :
#
#
# Convention : Reuss Voigt Hill
#
# Bulk Modulus (GPa) = 65.51726 82.76792 74.14259
# Shear Modulus (GPa) = 32.63242 39.05053 35.84148
#
# Velocity S-wave (km/s) = 4.11242 4.49869 4.30988
# Velocity P-wave (km/s) = 7.51692 8.35938 7.94932
#
# Compressibility (1/GPa) = 0.01526315
#
# Stress axis : x y z
#
# Youngs Moduli (GPa) = 83.93462 88.77374 114.77022
#
# Poissons Ratio (x) = 0.38671 0.22900
# Poissons Ratio (y) = 0.36563 0.22528
# Poissons Ratio (z) = 0.16747 0.17425
#
# Static dielectric constant tensor:
#      x y z
#    x 3.709620 0.280230 -0.094400 
#    y 0.280230 3.617030 -0.075740 
#    z -0.094400 -0.075740 3.656100 
# 
# 
# High freq. dielectric constant tensor:
#      x y z
#    x 1.749750 0.019200 -0.006430 
#    y 0.019200 1.735140 -0.010090 
#    z -0.006430 -0.010090 1.762590 
# 
# From -- ./inp_files/162942.got.cif
#   From: 2010.06.25/outbox.cif.g09.slc.cpg/sg2_82_cif.got.tgz:162942.got - 2010.06.27 13:26:56.
