data_PCOD8003999
_publ_section_title
;
Structure prediction by ZEFSAII (Michael W. Deem and Ramdas Pophale) SiO2 
 PCOD8003999
Probable space group: P -1
;
_chemical_formula_sum "Si O2"
_cell_formula_units_Z 16
_cell_length_a 11.981618
_cell_length_b 16.144810
_cell_length_c 9.263948
_cell_angle_alpha 134.864628
_cell_angle_beta 140.449549
_cell_angle_gamma 67.067095
_cell_volume 760.049731
_symmetry_space_group_name_H-M "P -1"
_symmetry_group_IT_number 2
_symmetry_cell_setting 'triclinic'
loop_
_space_group_symop_operation_xyz
x,y,z
-x,-y,-z
loop_
_atom_site_type_symbol
_atom_site_label
_atom_site_fract_x
_atom_site_fract_y
_atom_site_fract_z
Si Si1 0.078802 0.296266 0.662159
Si Si2 0.377125 0.497796 0.697260
Si Si3 0.682840 0.303374 0.304972
Si Si4 0.294153 0.051640 0.212760
Si Si5 0.057833 0.057291 0.471159
Si Si6 0.716095 0.691029 0.410579
Si Si7 0.374868 0.548048 0.331175
Si Si8 0.610669 0.953530 0.375109
O O1 0.135488 0.208668 0.728237
O O2 0.139492 0.269869 0.529509
O O3 0.856878 0.259748 0.398718
O O4 0.175684 0.439529 0.977364
O O5 0.276998 0.561525 0.563217
O O6 0.225057 0.395965 0.520334
O O7 0.509380 0.426302 0.671097
O O8 0.506729 0.613188 0.060484
O O9 0.655131 0.329225 0.479836
O O10 0.501965 0.195298 0.929208
O O11 0.299228 0.191314 0.376000
O O12 0.293360 0.010975 0.329016
O O13 0.476090 0.031648 0.298139
O O14 0.110000 0.971786 0.846369
O O15 0.220786 0.006505 0.521773
O O16 0.000000 0.000000 0.500000
O O17 0.500000 0.500000 0.500000
#
# Coordination Sequence:
#
# PCOD8003999 Si02
#       8
#     2   2   2   2   2   2   2   2
#     4  11  22  40  60  93 128 168 212 266 322 385
#     4   9  19  37  58  95 117 164 208 262 317 377
#     4  11  20  38  66  92 126 166 213 262 324 393
#     4  11  23  42  69  95 124 181 213 265 324 391
#     4  12  26  43  64  95 136 169 221 273 320 385
#     4  10  20  37  63  85 128 159 215 260 314 381
#     4   9  19  36  62  84 123 165 204 253 321 380
#     4  11  23  43  70  94 129 171 222 265 326 388
#
# _framework density 21.051254
#
# number of rings (size 3 to 8) (size 9 to 14) (size 15 to 20)
#    0.000    1.500    3.750    2.250    0.000    4.000 
#    2.250    0.000    0.000    0.000    0.000    0.000 
#    0.000    0.000    0.000    0.000    0.000    0.000 
#
# Total GULP energy -198292.318653 kJ/mol
# GULP energy per Si atom -12393.269916 kJ/mol
# Density = 2.100334 g / cm^3
# Si number density = 21.051254 Si / 1000 Ang^3
#
#
#
# Elastic Constant Matrix: (Units=GPa)
#
#
# Indices 1 2 3 4 5 6 
#
# 1 140.0922 62.4226 35.5429 1.8379 9.4120 -5.8891
# 2 62.4226 82.8404 13.5977 7.3655 -1.7321 -3.4742
# 3 35.5429 13.5977 71.8575 -9.0712 -5.2297 -6.3095
# 4 1.8379 7.3655 -9.0712 22.0965 -10.4693 0.8973
# 5 9.4120 -1.7321 -5.2297 -10.4693 28.6170 -0.1817
# 6 -5.8891 -3.4742 -6.3095 0.8973 -0.1817 38.4571
#
#
#
# Elastic Compliance Matrix: (Units=1/GPa)
#
#
# Indices 1 2 3 4 5 6 
#
# 1 0.013030 -0.008636 -0.005839 -0.004110 -0.007377 0.000318
# 2 -0.008636 0.018976 0.000368 -0.004301 0.002486 0.000564
# 3 -0.005839 0.000368 0.019313 0.013073 0.010268 0.002051
# 4 -0.004110 -0.004301 0.013073 0.065392 0.027402 -0.000269
# 5 -0.007377 0.002486 0.010268 0.027402 0.049425 0.000374
# 6 0.000318 0.000564 0.002051 -0.000269 0.000374 0.026447
#
#
# Mechanical properties :
#
#
# Convention : Reuss Voigt Hill
#
# Bulk Modulus (GPa) = 43.27846 57.54625 50.41236
# Shear Modulus (GPa) = 21.88193 30.04924 25.96558
#
# Velocity S-wave (km/s) = 3.22756 3.78224 3.51585
# Velocity P-wave (km/s) = 5.87306 6.81684 6.36247
#
# Compressibility (1/GPa) = 0.02310618
#
# Stress axis : x y z
#
# Youngs Moduli (GPa) = 76.74319 52.69707 51.77978
#
# Poissons Ratio (x) = 0.45508 0.30234
# Poissons Ratio (y) = 0.66274 -0.01906
# Poissons Ratio (z) = 0.44810 -0.01940
#
# Static dielectric constant tensor:
#      x y z
#    x 4.309190 -0.096950 -0.361580 
#    y -0.096950 3.737510 0.143500 
#    z -0.361580 0.143500 3.928650 
# 
# 
# High freq. dielectric constant tensor:
#      x y z
#    x 1.825820 -0.012090 -0.009470 
#    y -0.012090 1.806690 0.007200 
#    z -0.009470 0.007200 1.820560 
# 
# From -- ./inp_files/274537.got.cif
#   From: 2010.06.25/outbox.cif.g09.slc.cpg/sg2_138_cif.got.tgz:274537.got - 2010.06.27 13:26:56.
