data_PCOD8003270
_publ_section_title
;
Structure prediction by ZEFSAII (Michael W. Deem and Ramdas Pophale) SiO2 
 PCOD8003270
Probable space group: P -1
;
_chemical_formula_sum "Si O2"
_cell_formula_units_Z 16
_cell_length_a 9.142296
_cell_length_b 6.742967
_cell_length_c 14.547213
_cell_angle_alpha 68.513740
_cell_angle_beta 83.240455
_cell_angle_gamma 60.941002
_cell_volume 727.416645
_symmetry_space_group_name_H-M "P -1"
_symmetry_group_IT_number 2
_symmetry_cell_setting 'triclinic'
loop_
_space_group_symop_operation_xyz
x,y,z
-x,-y,-z
loop_
_atom_site_type_symbol
_atom_site_label
_atom_site_fract_x
_atom_site_fract_y
_atom_site_fract_z
Si Si1 0.899104 0.994961 0.097554
Si Si2 0.095245 0.543472 0.284416
Si Si3 0.295127 0.383811 0.470949
Si Si4 0.208996 0.551521 0.654017
Si Si5 0.400580 0.518597 0.913423
Si Si6 0.359753 0.884171 0.595138
Si Si7 0.376355 0.154867 0.858877
Si Si8 0.439876 0.226005 0.228704
O O1 0.772124 0.899286 0.091996
O O2 0.017643 0.809801 0.198597
O O3 0.793584 0.267310 0.101046
O O4 0.000000 0.000000 0.000000
O O5 0.163111 0.569078 0.374950
O O6 0.245208 0.346734 0.244907
O O7 0.972074 0.427372 0.320643
O O8 0.256941 0.503658 0.552280
O O9 0.484603 0.318909 0.440287
O O10 0.271163 0.143462 0.507183
O O11 0.221099 0.795468 0.637074
O O12 0.334500 0.346604 0.747791
O O13 0.415150 0.258482 0.931570
O O14 0.500778 0.569996 0.817052
O O15 0.500000 0.500000 0.000000
O O16 0.435788 0.944785 0.671455
O O17 0.531972 0.912221 0.847581
#
# Coordination Sequence:
#
# PCOD8003270 Si02
#       8
#     2   2   2   2   2   2   2   2
#     4  10  23  44  67  96 133 168 209 268 335 381
#     4  10  23  40  63  98 137 170 209 273 322 379
#     4  10  21  38  60  94 131 170 218 261 316 380
#     4  11  20  38  62  94 130 172 216 263 323 371
#     4  11  23  42  70  93 123 167 221 268 321 387
#     4  10  20  36  65  89 126 175 218 265 306 378
#     4  10  22  40  70  94 125 174 216 266 316 386
#     4  10  20  41  63  93 130 170 219 260 318 382
#
# _framework density 21.995647999999999
#
# number of rings (size 3 to 8) (size 9 to 14) (size 15 to 20)
#    0.000    1.750    2.500    1.500    0.000    3.000 
#    0.000    8.750    0.000    0.000    0.000    0.000 
#    0.000    0.000    0.000    0.000    0.000    0.000 
#
# Total GULP energy -198314.863094 kJ/mol
# GULP energy per Si atom -12394.678943 kJ/mol
# Density = 2.194558 g / cm^3
# Si number density = 21.995648 Si / 1000 Ang^3
#
#
#
# Elastic Constant Matrix: (Units=GPa)
#
#
# Indices 1 2 3 4 5 6 
#
# 1 82.8158 43.3709 37.1563 13.1379 -8.3130 -1.7241
# 2 43.3709 101.1948 31.9857 16.4803 4.5196 12.7635
# 3 37.1563 31.9857 92.5316 13.4839 -5.5664 -5.7645
# 4 13.1379 16.4803 13.4839 37.7767 2.1199 2.0073
# 5 -8.3130 4.5196 -5.5664 2.1199 37.9021 -6.3170
# 6 -1.7241 12.7635 -5.7645 2.0073 -6.3170 24.7035
#
#
#
# Elastic Compliance Matrix: (Units=1/GPa)
#
#
# Indices 1 2 3 4 5 6 
#
# 1 0.018778 -0.007377 -0.003925 -0.002531 0.005534 0.005827
# 2 -0.007377 0.016089 -0.003269 -0.002390 -0.005692 -0.010852
# 3 -0.003925 -0.003269 0.014448 -0.002825 0.002762 0.005723
# 4 -0.002531 -0.002390 -0.002825 0.029705 -0.002802 -0.002731
# 5 0.005534 -0.005692 0.002762 -0.002802 0.030854 0.012089
# 6 0.005827 -0.010852 0.005723 -0.002731 0.012089 0.051142
#
#
# Mechanical properties :
#
#
# Convention : Reuss Voigt Hill
#
# Bulk Modulus (GPa) = 49.57592 55.72979 52.65285
# Shear Modulus (GPa) = 25.39569 31.01173 28.20371
#
# Velocity S-wave (km/s) = 3.40159 3.75894 3.58472
# Velocity P-wave (km/s) = 6.16569 6.65066 6.41276
#
# Compressibility (1/GPa) = 0.02017108
#
# Stress axis : x y z
#
# Youngs Moduli (GPa) = 53.25349 62.15294 69.21459
#
# Poissons Ratio (x) = 0.45852 0.27170
# Poissons Ratio (y) = 0.39286 0.22629
# Poissons Ratio (z) = 0.20905 0.20320
#
# Static dielectric constant tensor:
#      x y z
#    x 3.709490 0.091030 0.651830 
#    y 0.091030 3.918610 -0.635550 
#    z 0.651830 -0.635550 0.670150 
# 
# 
# High freq. dielectric constant tensor:
#      x y z
#    x 1.853710 -0.000190 -0.009670 
#    y -0.000190 1.850500 -0.007340 
#    z -0.009670 -0.007340 1.885720 
# 
# From -- ./inp_files/224185.got.cif
#   From: 2010.06.25/outbox.cif.g09.slc.cpg/sg2_113_cif.got.tgz:224185.got - 2010.06.27 13:26:56.
