data_PCOD8003212
_publ_section_title
;
Structure prediction by ZEFSAII (Michael W. Deem and Ramdas Pophale) SiO2 
 PCOD8003212
Probable space group: P -1
;
_chemical_formula_sum "Si O2"
_cell_formula_units_Z 16
_cell_length_a 11.879876
_cell_length_b 22.047274
_cell_length_c 10.129721
_cell_angle_alpha 134.068614
_cell_angle_beta 109.278123
_cell_angle_gamma 33.806232
_cell_volume 832.367813
_symmetry_space_group_name_H-M "P -1"
_symmetry_group_IT_number 2
_symmetry_cell_setting 'triclinic'
loop_
_space_group_symop_operation_xyz
x,y,z
-x,-y,-z
loop_
_atom_site_type_symbol
_atom_site_label
_atom_site_fract_x
_atom_site_fract_y
_atom_site_fract_z
Si Si1 0.956241 0.597379 0.489154
Si Si2 0.955988 0.738955 0.909808
Si Si3 0.794930 0.591049 0.959266
Si Si4 0.539255 0.496952 0.160057
Si Si5 0.797696 0.145476 0.450598
Si Si6 0.342039 0.217166 0.031586
Si Si7 0.645400 0.245459 0.848425
Si Si8 0.608804 0.093483 0.192645
O O1 0.652546 0.770535 0.630086
O O2 0.028460 0.634142 0.656701
O O3 0.116943 0.412742 0.317555
O O4 0.050335 0.559893 0.319162
O O5 0.210582 0.600883 0.880372
O O6 0.748870 0.823057 0.054120
O O7 0.840890 0.898450 0.055245
O O8 0.596975 0.659588 0.067477
O O9 0.636166 0.766286 0.086763
O O10 0.000000 0.500000 0.000000
O O11 0.291105 0.709225 0.429325
O O12 0.500000 0.500000 0.000000
O O13 0.576297 0.384577 0.079562
O O14 0.695841 0.204745 0.650927
O O15 0.663556 0.157655 0.329402
O O16 0.106262 0.942857 0.259159
O O17 0.596590 0.076121 0.005028
#
# Coordination Sequence:
#
# PCOD8003212 Si02
#       8
#     2   2   2   2   2   2   2   2
#     4   9  19  33  57  85 114 154 190 237 294 339
#     4  11  19  34  59  90 118 146 203 247 288 340
#     4  10  22  38  59  82 121 158 190 236 295 362
#     4  10  21  35  59  88 117 151 194 249 292 336
#     4  10  20  36  64  85 117 148 196 255 287 334
#     4   9  20  33  56  85 112 152 189 236 294 340
#     4  10  21  40  57  91 113 155 203 229 295 361
#     4  11  18  34  60  89 117 146 200 249 288 341
#
# _framework density 19.222272
#
# number of rings (size 3 to 8) (size 9 to 14) (size 15 to 20)
#    0.750    1.250    1.250    5.250    3.500    0.000 
#    0.000    3.750    0.000    4.500    0.000    0.000 
#    0.000    0.000    0.000    0.000    0.000    0.000 
#
# Total GULP energy -198276.061944 kJ/mol
# GULP energy per Si atom -12392.253871 kJ/mol
# Density = 1.917852 g / cm^3
# Si number density = 19.222272 Si / 1000 Ang^3
#
#
#
# Elastic Constant Matrix: (Units=GPa)
#
#
# Indices 1 2 3 4 5 6 
#
# 1 92.2134 41.4293 36.8236 1.4937 12.4507 -15.2809
# 2 41.4293 114.5337 34.7056 7.5621 9.7256 -22.4943
# 3 36.8236 34.7056 65.8356 13.8784 21.8620 -4.9224
# 4 1.4937 7.5621 13.8784 32.8973 5.1852 7.5282
# 5 12.4507 9.7256 21.8620 5.1852 34.0149 1.4154
# 6 -15.2809 -22.4943 -4.9224 7.5282 1.4154 35.8551
#
#
#
# Elastic Compliance Matrix: (Units=1/GPa)
#
#
# Indices 1 2 3 4 5 6 
#
# 1 0.015657 -0.002899 -0.007215 0.002341 -0.000764 0.003402
# 2 -0.002899 0.012418 -0.003946 -0.002583 0.000168 0.006549
# 3 -0.007215 -0.003946 0.027255 -0.008398 -0.012487 0.000447
# 4 0.002341 -0.002583 -0.008398 0.036577 0.000097 -0.009460
# 5 -0.000764 0.000168 -0.012487 0.000097 0.037784 -0.003446
# 6 0.003402 0.006549 0.000447 -0.009460 -0.003446 0.035632
#
#
# Mechanical properties :
#
#
# Convention : Reuss Voigt Hill
#
# Bulk Modulus (GPa) = 36.75094 55.38886 46.06990
# Shear Modulus (GPa) = 24.68965 31.19508 27.94236
#
# Velocity S-wave (km/s) = 3.58778 4.03285 3.81681
# Velocity P-wave (km/s) = 6.02689 7.11074 6.59113
#
# Compressibility (1/GPa) = 0.02721019
#
# Stress axis : x y z
#
# Youngs Moduli (GPa) = 63.87016 80.52849 36.69007
#
# Poissons Ratio (x) = 0.23343 0.26471
# Poissons Ratio (y) = 0.18514 0.14480
# Poissons Ratio (z) = 0.46080 0.31780
#
# Static dielectric constant tensor:
#      x y z
#    x 3.372500 0.065020 0.382550 
#    y 0.065020 3.577750 0.180660 
#    z 0.382550 0.180660 3.557180 
# 
# 
# High freq. dielectric constant tensor:
#      x y z
#    x 1.725250 -0.007100 0.026500 
#    y -0.007100 1.764130 0.008300 
#    z 0.026500 0.008300 1.728010 
# 
# From -- ./inp_files/439151.got.cif
#   From: 2010.06.25/outbox.cif.g09.slc.cpg/sg2_220_cif.got.tgz:439151.got - 2010.06.27 13:26:56.
