data_PCOD8003532
_publ_section_title
;
Structure prediction by ZEFSAII (Michael W. Deem and Ramdas Pophale) SiO2 
 PCOD8003532
Probable space group: P -1
;
_chemical_formula_sum "Si O2"
_cell_formula_units_Z 14
_cell_length_a 18.072733
_cell_length_b 9.736814
_cell_length_c 6.568333
_cell_angle_alpha 45.896134
_cell_angle_beta 95.857631
_cell_angle_gamma 112.959272
_cell_volume 738.717853
_symmetry_space_group_name_H-M "P -1"
_symmetry_group_IT_number 2
_symmetry_cell_setting 'triclinic'
loop_
_space_group_symop_operation_xyz
x,y,z
-x,-y,-z
loop_
_atom_site_type_symbol
_atom_site_label
_atom_site_fract_x
_atom_site_fract_y
_atom_site_fract_z
Si Si1 0.969630 0.492373 0.219097
Si Si2 0.378942 0.481001 0.379474
Si Si3 0.328567 0.841354 0.091437
Si Si4 0.960567 0.156795 0.843900
Si Si5 0.194038 0.848960 0.348424
Si Si6 0.434753 0.232979 0.961976
Si Si7 0.673568 0.887429 0.562936
O O1 0.007471 0.358385 0.497139
O O2 0.014359 0.741947 0.030700
O O3 0.868814 0.378343 0.332846
O O4 0.000000 0.500000 0.000000
O O5 0.391026 0.362141 0.703657
O O6 0.466604 0.639548 0.142900
O O7 0.326932 0.307289 0.370973
O O8 0.330600 0.615053 0.298422
O O9 0.408792 0.009512 0.065539
O O10 0.326308 0.930557 0.774319
O O11 0.248323 0.805053 0.239260
O O12 0.860939 0.048494 0.885553
O O13 0.000000 0.000000 0.000000
O O14 0.246508 0.012675 0.370860
O O15 0.407534 0.196297 0.228325
#
# Coordination Sequence:
#
# PCOD8003532 Si02
#       7
#     2   2   2   2   2   2   2
#     4   9  20  39  60  82 108 141 185 227 274 332
#     4  10  20  37  59  82 111 152 189 225 275 327
#     4  10  21  37  55  83 114 152 183 225 285 323
#     4   9  20  40  60  82 107 144 185 226 276 334
#     4   9  21  39  56  79 123 140 178 238 277 327
#     4   9  20  38  57  80 116 146 190 236 264 321
#     4  10  21  36  54  85 115 146 185 231 276 322
#
# _framework density 18.951754999999999
#
# number of rings (size 3 to 8) (size 9 to 14) (size 15 to 20)
#    0.857    1.714    0.000    0.857    2.000    3.429 
#   10.286    0.000    0.000    0.000    0.000    0.000 
#    0.000    0.000    0.000    0.000    0.000    0.000 
#
# Total GULP energy -173471.524554 kJ/mol
# GULP energy per Si atom -12390.823182 kJ/mol
# Density = 1.890862 g / cm^3
# Si number density = 18.951755 Si / 1000 Ang^3
#
#
#
# Elastic Constant Matrix: (Units=GPa)
#
#
# Indices 1 2 3 4 5 6 
#
# 1 110.3765 66.1623 42.8707 4.7663 4.5998 -7.6173
# 2 66.1623 146.0198 47.6847 4.1881 13.7919 -14.7774
# 3 42.8707 47.6847 73.2738 10.6543 -12.0661 -20.3914
# 4 4.7663 4.1881 10.6543 27.5440 -12.5066 0.7469
# 5 4.5998 13.7919 -12.0661 -12.5066 28.3977 -7.0253
# 6 -7.6173 -14.7774 -20.3914 0.7469 -7.0253 35.6080
#
#
#
# Elastic Compliance Matrix: (Units=1/GPa)
#
#
# Indices 1 2 3 4 5 6 
#
# 1 0.014350 -0.003881 -0.007639 -0.001181 -0.005173 -0.003911
# 2 -0.003881 0.011737 -0.007105 -0.002750 -0.009771 -0.001898
# 3 -0.007639 -0.007105 0.031398 -0.000048 0.022417 0.017822
# 4 -0.001181 -0.002750 -0.000048 0.047260 0.022838 0.002093
# 5 -0.005173 -0.009771 0.022417 0.022838 0.065350 0.020090
# 6 -0.003911 -0.001898 0.017822 0.002093 0.020090 0.040585
#
#
# Mechanical properties :
#
#
# Convention : Reuss Voigt Hill
#
# Bulk Modulus (GPa) = 49.41643 71.45614 60.43629
# Shear Modulus (GPa) = 19.63305 29.84010 24.73657
#
# Velocity S-wave (km/s) = 3.22211 3.97234 3.61673
# Velocity P-wave (km/s) = 6.32251 7.66977 7.02850
#
# Compressibility (1/GPa) = 0.02023618
#
# Stress axis : x y z
#
# Youngs Moduli (GPa) = 69.68808 85.20378 31.84903
#
# Poissons Ratio (x) = 0.33065 0.24328
# Poissons Ratio (y) = 0.27044 0.22628
# Poissons Ratio (z) = 0.53232 0.60535
#
# Static dielectric constant tensor:
#      x y z
#    x 3.206630 0.059500 -0.129810 
#    y 0.059500 3.466140 0.044940 
#    z -0.129810 0.044940 3.412360 
# 
# 
# High freq. dielectric constant tensor:
#      x y z
#    x 1.718640 0.005430 -0.014090 
#    y 0.005430 1.751430 0.007170 
#    z -0.014090 0.007170 1.727360 
# 
# From -- ./inp_files/104427.got.cif
#   From: 2010.06.25/outbox.cif.g09.slc.cpg/sg2_53_cif.got.tgz:104427.got - 2010.06.27 13:26:56.
