data_PCOD8003401
_publ_section_title
;
Structure prediction by ZEFSAII (Michael W. Deem and Ramdas Pophale) SiO2 
 PCOD8003401
Probable space group: P -1
;
_chemical_formula_sum "Si O2"
_cell_formula_units_Z 12
_cell_length_a 10.761467
_cell_length_b 9.417106
_cell_length_c 9.072813
_cell_angle_alpha 131.030908
_cell_angle_beta 87.264076
_cell_angle_gamma 107.679060
_cell_volume 645.966860
_symmetry_space_group_name_H-M "P -1"
_symmetry_group_IT_number 2
_symmetry_cell_setting 'triclinic'
loop_
_space_group_symop_operation_xyz
x,y,z
-x,-y,-z
loop_
_atom_site_type_symbol
_atom_site_label
_atom_site_fract_x
_atom_site_fract_y
_atom_site_fract_z
Si Si1 0.314720 0.179238 0.953509
Si Si2 0.879587 0.660979 0.052301
Si Si3 0.179511 0.784220 0.170846
Si Si4 0.731095 0.836401 0.377435
Si Si5 0.346198 0.864218 0.929860
Si Si6 0.558484 0.473189 0.323515
O O1 0.443891 0.341641 0.130151
O O2 0.191549 0.261277 0.023380
O O3 0.347536 0.151342 0.760738
O O4 0.268641 0.960865 0.887951
O O5 0.846181 0.746928 0.268435
O O6 0.037300 0.741184 0.070962
O O7 0.816503 0.418842 0.894641
O O8 0.201584 0.943137 0.408456
O O9 0.294262 0.870542 0.101904
O O10 0.629127 0.693583 0.402640
O O11 0.333155 0.636086 0.734030
O O12 0.500000 0.000000 0.000000
O O13 0.500000 0.500000 0.500000
#
# Coordination Sequence:
#
# PCOD8003401 Si02
#       6
#     2   2   2   2   2   2
#     4   9  21  37  56  87 121 144 197 239 284 341
#     4   9  22  38  61  86 120 149 197 235 279 352
#     4  11  20  39  64  84 117 158 190 232 295 339
#     4  10  20  37  60  87 114 154 191 239 283 344
#     4  10  20  37  56  85 115 151 193 234 288 342
#     4  11  21  38  59  83 120 154 193 243 289 339
#
# _framework density 18.576805
#
# number of rings (size 3 to 8) (size 9 to 14) (size 15 to 20)
#    1.000    1.000    1.667    3.000    0.000    2.000 
#    0.000    5.000    0.000    4.000    0.000    0.000 
#    0.000    0.000    0.000    0.000    0.000    0.000 
#
# Total GULP energy -148721.754200 kJ/mol
# GULP energy per Si atom -12393.479517 kJ/mol
# Density = 1.853452 g / cm^3
# Si number density = 18.576805 Si / 1000 Ang^3
#
#
#
# Elastic Constant Matrix: (Units=GPa)
#
#
# Indices 1 2 3 4 5 6 
#
# 1 87.6869 43.7116 24.8983 9.0247 -3.8291 -17.2944
# 2 43.7116 95.7340 52.7819 9.0147 11.2753 -15.6442
# 3 24.8983 52.7819 102.8950 23.4849 -8.7920 -3.9046
# 4 9.0247 9.0147 23.4849 26.1974 -0.7853 -9.7356
# 5 -3.8291 11.2753 -8.7920 -0.7853 21.3418 0.7494
# 6 -17.2944 -15.6442 -3.9046 -9.7356 0.7494 40.2381
#
#
#
# Elastic Compliance Matrix: (Units=1/GPa)
#
#
# Indices 1 2 3 4 5 6 
#
# 1 0.016512 -0.008921 0.002134 -0.003202 0.008335 0.002906
# 2 -0.008921 0.025209 -0.014415 0.009383 -0.020766 0.007225
# 3 0.002134 -0.014415 0.021707 -0.017374 0.016551 -0.007092
# 4 -0.003202 0.009383 -0.017374 0.056679 -0.011113 0.014506
# 5 0.008335 -0.020766 0.016551 -0.011113 0.065971 -0.006802
# 6 0.002906 0.007225 -0.007092 0.014506 -0.006802 0.031858
#
#
# Mechanical properties :
#
#
# Convention : Reuss Voigt Hill
#
# Bulk Modulus (GPa) = 47.56342 58.78884 53.17613
# Shear Modulus (GPa) = 18.70222 28.55039 23.62631
#
# Velocity S-wave (km/s) = 3.17638 3.92456 3.57012
# Velocity P-wave (km/s) = 6.25394 7.22851 6.75881
#
# Compressibility (1/GPa) = 0.02102456
#
# Stress axis : x y z
#
# Youngs Moduli (GPa) = 60.56182 39.66813 46.06808
#
# Poissons Ratio (x) = 0.35389 -0.09831
# Poissons Ratio (y) = 0.54029 0.66405
# Poissons Ratio (z) = -0.12924 0.57180
#
# Static dielectric constant tensor:
#      x y z
#    x 3.420520 -0.304760 -0.246980 
#    y -0.304760 3.632060 0.202120 
#    z -0.246980 0.202120 3.309450 
# 
# 
# High freq. dielectric constant tensor:
#      x y z
#    x 1.708600 -0.008090 -0.016890 
#    y -0.008090 1.728610 0.010020 
#    z -0.016890 0.010020 1.713280 
# 
# From -- ./inp_files/79482.got.cif
#   From: 2010.06.25/outbox.cif.g09.slc.cpg/sg2_40_cif.got.tgz:79482.got - 2010.06.27 13:26:56.
