data_PCOD8003247
_publ_section_title
;
Structure prediction by ZEFSAII (Michael W. Deem and Ramdas Pophale) SiO2 
 PCOD8003247
Probable space group: P -1
;
_chemical_formula_sum "Si O2"
_cell_formula_units_Z 14
_cell_length_a 10.312108
_cell_length_b 5.297374
_cell_length_c 14.293552
_cell_angle_alpha 82.568000
_cell_angle_beta 80.476702
_cell_angle_gamma 45.866282
_cell_volume 552.570476
_symmetry_space_group_name_H-M "P -1"
_symmetry_group_IT_number 2
_symmetry_cell_setting 'triclinic'
loop_
_space_group_symop_operation_xyz
x,y,z
-x,-y,-z
loop_
_atom_site_type_symbol
_atom_site_label
_atom_site_fract_x
_atom_site_fract_y
_atom_site_fract_z
Si Si1 0.594236 0.642316 0.739103
Si Si2 0.071254 0.852390 0.626500
Si Si3 0.790164 0.638882 0.208098
Si Si4 0.281934 0.305811 0.996702
Si Si5 0.683396 0.267612 0.928173
Si Si6 0.605534 0.593934 0.525762
Si Si7 0.086748 0.443722 0.298491
O O1 0.657209 0.332377 0.816582
O O2 0.625530 0.513248 0.636385
O O3 0.708179 0.748835 0.743169
O O4 0.385798 0.963378 0.767760
O O5 0.202031 0.615860 0.711547
O O6 0.190051 0.679838 0.526178
O O7 0.920254 0.825840 0.637965
O O8 0.985035 0.243846 0.635253
O O9 0.962000 0.594175 0.212437
O O10 0.781531 0.554299 0.107497
O O11 0.203075 0.640693 0.052774
O O12 0.200646 0.143654 0.048948
O O13 0.500000 0.000000 0.000000
O O14 0.500000 0.500000 0.000000
O O15 0.500000 0.500000 0.500000
O O16 0.500000 0.000000 0.500000
#
# Coordination Sequence:
#
# PCOD8003247 Si02
#       7
#     2   2   2   2   2   2   2
#     4  12  24  46  74  98 138 179 231 281 329 419
#     4  10  23  47  64  98 150 166 226 284 338 392
#     4  10  22  44  71  93 141 177 224 286 330 399
#     4  10  20  36  64  94 127 174 223 266 345 385
#     4  10  22  38  62 101 126 174 226 273 338 393
#     4  12  25  42  72 111 128 181 234 267 340 413
#     4  10  26  44  66 105 134 184 225 272 347 394
#
# _framework density 25.336134999999999
#
# number of rings (size 3 to 8) (size 9 to 14) (size 15 to 20)
#    0.857    0.571    4.286    1.714    2.000    6.857 
#    2.571    1.429    0.000    0.000    0.000    0.000 
#    0.000    0.000    0.000    0.000    0.000    0.000 
#
# Total GULP energy -173502.595427 kJ/mol
# GULP energy per Si atom -12393.042531 kJ/mol
# Density = 2.527847 g / cm^3
# Si number density = 25.336135 Si / 1000 Ang^3
#
#
#
# Elastic Constant Matrix: (Units=GPa)
#
#
# Indices 1 2 3 4 5 6 
#
# 1 127.7923 17.7221 29.8399 4.3114 13.5824 23.9402
# 2 17.7221 69.4666 15.3309 6.1260 5.4798 41.8113
# 3 29.8399 15.3309 187.1855 -10.6051 16.4476 22.9751
# 4 4.3114 6.1260 -10.6051 13.7333 7.0730 -4.6274
# 5 13.5824 5.4798 16.4476 7.0730 40.5068 0.2010
# 6 23.9402 41.8113 22.9751 -4.6274 0.2010 51.9863
#
#
#
# Elastic Compliance Matrix: (Units=1/GPa)
#
#
# Indices 1 2 3 4 5 6 
#
# 1 0.009313 0.002177 -0.001074 -0.005768 -0.001944 -0.006071
# 2 0.002177 0.035600 -0.000941 -0.027903 -0.000135 -0.031702
# 3 -0.001074 -0.000941 0.006402 0.007111 -0.003349 -0.000932
# 4 -0.005768 -0.027903 0.007111 0.112050 -0.016903 0.031994
# 5 -0.001944 -0.000135 -0.003349 -0.016903 0.029664 0.000864
# 6 -0.006071 -0.031702 -0.000932 0.031994 0.000864 0.050786
#
#
# Mechanical properties :
#
#
# Convention : Reuss Voigt Hill
#
# Bulk Modulus (GPa) = 19.36455 56.69223 38.02839
# Shear Modulus (GPa) = 19.17892 42.68207 30.93049
#
# Velocity S-wave (km/s) = 2.75431 4.10888 3.49779
# Velocity P-wave (km/s) = 4.21599 6.70337 5.59954
#
# Compressibility (1/GPa) = 0.05164075
#
# Stress axis : x y z
#
# Youngs Moduli (GPa) = 107.38239 28.08978 156.19743
#
# Poissons Ratio (x) = -0.06116 0.16771
# Poissons Ratio (y) = -0.23381 0.14693
# Poissons Ratio (z) = 0.11530 0.02642
#
# Static dielectric constant tensor:
#      x y z
#    x 1.228850 3.987900 1.075050 
#    y 3.987900 2.496230 -1.043450 
#    z 1.075050 -1.043450 4.439770 
# 
# 
# High freq. dielectric constant tensor:
#      x y z
#    x 2.010590 0.011950 0.006440 
#    y 0.011950 2.005430 -0.001600 
#    z 0.006440 -0.001600 2.016930 
# 
# From -- ./inp_files/509750.got.cif
#   From: 2010.06.25/outbox.cif.g09.slc.cpg/sg2_255_cif.got.tgz:509750.got - 2010.06.27 13:26:56.
