data_PCOD8003504
_publ_section_title
;
Structure prediction by ZEFSAII (Michael W. Deem and Ramdas Pophale) SiO2 
 PCOD8003504
Probable space group: P -1
;
_chemical_formula_sum "Si O2"
_cell_formula_units_Z 16
_cell_length_a 7.373486
_cell_length_b 18.789961
_cell_length_c 10.009036
_cell_angle_alpha 143.751389
_cell_angle_beta 118.551775
_cell_angle_gamma 57.133389
_cell_volume 686.441370
_symmetry_space_group_name_H-M "P -1"
_symmetry_group_IT_number 2
_symmetry_cell_setting 'triclinic'
loop_
_space_group_symop_operation_xyz
x,y,z
-x,-y,-z
loop_
_atom_site_type_symbol
_atom_site_label
_atom_site_fract_x
_atom_site_fract_y
_atom_site_fract_z
Si Si1 0.734700 0.286933 0.980461
Si Si2 0.637263 0.679447 0.279928
Si Si3 0.444493 0.332568 0.462772
Si Si4 0.318095 0.477013 0.182940
Si Si5 0.829320 0.896640 0.702456
Si Si6 0.134025 0.367445 0.180088
Si Si7 0.578766 0.886931 0.036635
Si Si8 0.051269 0.062156 0.904417
O O1 0.551593 0.375228 0.148088
O O2 0.887779 0.370737 0.118623
O O3 0.611732 0.256352 0.759195
O O4 0.857800 0.158025 0.900744
O O5 0.638697 0.641964 0.377145
O O6 0.779403 0.773154 0.445305
O O7 0.747775 0.555082 0.039072
O O8 0.650834 0.384185 0.590645
O O9 0.235922 0.406719 0.410816
O O10 0.515627 0.183816 0.222426
O O11 0.143723 0.463515 0.209881
O O12 0.613805 0.016899 0.806985
O O13 0.929385 0.871502 0.847505
O O14 0.996363 0.931415 0.711759
O O15 0.276083 0.220773 0.974815
O O16 0.724859 0.965338 0.138897
#
# Coordination Sequence:
#
# PCOD8003504 Si02
#       8
#     2   2   2   2   2   2   2   2
#     4   9  21  38  57  85 125 145 192 240 296 339
#     4  10  22  38  60  85 124 154 185 237 305 339
#     4  10  20  39  65  84 113 160 198 233 289 342
#     4  10  21  38  64  84 121 153 188 244 293 339
#     4  11  20  38  61  83 118 153 195 237 284 346
#     4   9  19  40  60  86 114 151 206 231 278 350
#     4   9  20  36  63  81 118 144 199 237 281 330
#     4  10  20  37  58  88 112 151 202 233 281 350
#
# _framework density 23.308619
#
# number of rings (size 3 to 8) (size 9 to 14) (size 15 to 20)
#    1.500    0.750    1.250    1.875    0.000    1.000 
#    2.250    1.875    2.750    0.000    0.000    0.000 
#    0.000    0.000    0.000    0.000    0.000    0.000 
#
# Total GULP energy -198288.810135 kJ/mol
# GULP energy per Si atom -12393.050633 kJ/mol
# Density = 2.325557 g / cm^3
# Si number density = 23.308619 Si / 1000 Ang^3
#
#
#
# Elastic Constant Matrix: (Units=GPa)
#
#
# Indices 1 2 3 4 5 6 
#
# 1 90.4452 13.7303 25.8234 -0.0659 38.9668 25.2272
# 2 13.7303 45.3271 4.9327 -9.0866 8.4311 14.5096
# 3 25.8234 4.9327 84.5145 -9.6661 39.9562 8.3710
# 4 -0.0659 -9.0866 -9.6661 22.4367 3.5779 8.5779
# 5 38.9668 8.4311 39.9562 3.5779 40.3698 11.6171
# 6 25.2272 14.5096 8.3710 8.5779 11.6171 25.8994
#
#
#
# Elastic Compliance Matrix: (Units=1/GPa)
#
#
# Indices 1 2 3 4 5 6 
#
# 1 0.036011 0.017996 0.020513 0.040565 -0.050116 -0.042744
# 2 0.017996 0.050030 0.021735 0.056464 -0.038835 -0.053863
# 3 0.020513 0.021735 0.041935 0.050016 -0.060117 -0.035311
# 4 0.040565 0.056464 0.050016 0.139067 -0.085423 -0.095053
# 5 -0.050116 -0.038835 -0.060117 -0.085423 0.131224 0.059434
# 6 -0.042744 -0.053863 -0.035311 -0.095053 0.059434 0.126657
#
#
# Mechanical properties :
#
#
# Convention : Reuss Voigt Hill
#
# Bulk Modulus (GPa) = 4.02473 34.36220 19.19346
# Shear Modulus (GPa) = 10.26148 29.46121 19.86134
#
# Velocity S-wave (km/s) = 2.10048 3.55908 2.92225
# Velocity P-wave (km/s) = 2.75919 5.62705 4.43152
#
# Compressibility (1/GPa) = 0.24846382
#
# Stress axis : x y z
#
# Youngs Moduli (GPa) = 27.76919 19.98791 23.84616
#
# Poissons Ratio (x) = -0.35970 -0.48916
# Poissons Ratio (y) = -0.49973 -0.51829
# Poissons Ratio (z) = -0.56963 -0.43443
#
# Static dielectric constant tensor:
#      x y z
#    x 4.021440 0.066300 0.439060 
#    y 0.066300 3.958470 -0.003750 
#    z 0.439060 -0.003750 3.965080 
# 
# 
# High freq. dielectric constant tensor:
#      x y z
#    x 1.918970 0.003500 0.030310 
#    y 0.003500 1.911260 0.002200 
#    z 0.030310 0.002200 1.900970 
# 
# From -- ./inp_files/404378.got.cif
#   From: 2010.06.25/outbox.cif.g09.slc.cpg/sg2_203_cif.got.tgz:404378.got - 2010.06.27 13:26:56.
