data_PCOD8003897
_publ_section_title
;
Structure prediction by ZEFSAII (Michael W. Deem and Ramdas Pophale) SiO2 
 PCOD8003897
Probable space group: P -1
;
_chemical_formula_sum "Si O2"
_cell_formula_units_Z 16
_cell_length_a 13.625055
_cell_length_b 9.660405
_cell_length_c 9.084334
_cell_angle_alpha 66.769796
_cell_angle_beta 55.182613
_cell_angle_gamma 35.959197
_cell_volume 570.716779
_symmetry_space_group_name_H-M "P -1"
_symmetry_group_IT_number 2
_symmetry_cell_setting 'triclinic'
loop_
_space_group_symop_operation_xyz
x,y,z
-x,-y,-z
loop_
_atom_site_type_symbol
_atom_site_label
_atom_site_fract_x
_atom_site_fract_y
_atom_site_fract_z
Si Si1 0.893516 0.446976 0.597254
Si Si2 0.962869 0.021037 0.319833
Si Si3 0.826616 0.871587 0.026996
Si Si4 0.557236 0.151373 0.626385
Si Si5 0.681815 0.258017 0.705599
Si Si6 0.710547 0.204628 0.218385
Si Si7 0.168834 0.467442 0.717810
Si Si8 0.552953 0.853144 0.873659
O O1 0.794001 0.540484 0.483007
O O2 0.745418 0.568490 0.811699
O O3 0.000000 0.500000 0.500000
O O4 0.030928 0.169067 0.604838
O O5 0.179589 0.879689 0.209422
O O6 0.820224 0.214099 0.491824
O O7 0.855644 0.173319 0.195719
O O8 0.855347 0.686963 0.165560
O O9 0.838775 0.999621 0.072865
O O10 0.620568 0.085667 0.038726
O O11 0.982120 0.738657 0.819857
O O12 0.625031 0.153369 0.725151
O O13 0.644678 0.144334 0.415405
O O14 0.330837 0.382871 0.714304
O O15 0.601369 0.930449 0.673596
O O16 0.480740 0.533832 0.792735
O O17 0.500000 0.000000 0.000000
#
# Coordination Sequence:
#
# PCOD8003897 Si02
#       8
#     2   2   2   2   2   2   2   2
#     4  12  22  36  61  92 121 157 208 256 307 373
#     4  10  21  35  62  93 122 160 206 254 305 365
#     4  10  21  37  58  87 125 162 200 253 316 371
#     4  10  20  37  62  87 120 163 207 251 304 371
#     4  10  21  39  60  92 125 162 210 257 302 359
#     4  11  21  39  64  91 124 162 206 255 304 363
#     4  10  21  37  59  88 121 160 202 252 312 371
#     4  11  23  38  59  90 127 162 199 255 317 369
#
# _framework density 28.034921000000001
#
# number of rings (size 3 to 8) (size 9 to 14) (size 15 to 20)
#    0.000    1.500    0.000    7.500    0.000    5.000 
#    0.000    0.625    0.000   12.000    0.000    0.000 
#    0.000    0.000    0.000    0.000    0.000    0.000 
#
# Total GULP energy -198263.899311 kJ/mol
# GULP energy per Si atom -12391.493707 kJ/mol
# Density = 2.797111 g / cm^3
# Si number density = 28.034921 Si / 1000 Ang^3
#
#
#
# Elastic Constant Matrix: (Units=GPa)
#
#
# Indices 1 2 3 4 5 6 
#
# 1 167.9177 50.9150 21.9338 19.5670 0.2344 -30.0541
# 2 50.9150 138.4518 35.7996 31.1611 16.2842 -29.2319
# 3 21.9338 35.7996 108.2024 34.7865 15.0569 -0.7721
# 4 19.5670 31.1611 34.7865 48.3877 2.1768 3.9406
# 5 0.2344 16.2842 15.0569 2.1768 48.6970 7.5454
# 6 -30.0541 -29.2319 -0.7721 3.9406 7.5454 45.3947
#
#
#
# Elastic Compliance Matrix: (Units=1/GPa)
#
#
# Indices 1 2 3 4 5 6 
#
# 1 0.007410 -0.001176 -0.000303 -0.002372 -0.000120 0.004369
# 2 -0.001176 0.011657 -0.000665 -0.007004 -0.004628 0.008093
# 3 -0.000303 -0.000665 0.012760 -0.008540 -0.003480 0.000909
# 4 -0.002372 -0.007004 -0.008540 0.032856 0.005062 -0.009919
# 5 -0.000120 -0.004628 -0.003480 0.005062 0.024105 -0.007565
# 6 0.004369 0.008093 0.000909 -0.009919 -0.007565 0.032267
#
#
# Mechanical properties :
#
#
# Convention : Reuss Voigt Hill
#
# Bulk Modulus (GPa) = 36.31222 70.20764 53.25993
# Shear Modulus (GPa) = 37.16879 48.89079 43.02979
#
# Velocity S-wave (km/s) = 3.64511 4.18056 3.92198
# Velocity P-wave (km/s) = 5.54043 6.95702 6.28874
#
# Compressibility (1/GPa) = 0.02753894
#
# Stress axis : x y z
#
# Youngs Moduli (GPa) = 134.95206 85.78725 78.37258
#
# Poissons Ratio (x) = 0.10093 0.02371
# Poissons Ratio (y) = 0.15877 0.05210
# Poissons Ratio (z) = 0.04082 0.05703
#
# Static dielectric constant tensor:
#      x y z
#    x 5.529260 -0.100600 -0.046340 
#    y -0.100600 5.443440 -0.050250 
#    z -0.046340 -0.050250 5.309360 
# 
# 
# High freq. dielectric constant tensor:
#      x y z
#    x 2.152630 -0.000470 -0.013850 
#    y -0.000470 2.145150 0.006710 
#    z -0.013850 0.006710 2.132470 
# 
# From -- ./inp_files/307299.got.cif
#   From: 2010.06.25/outbox.cif.g09.slc.cpg/sg2_154_cif.got.tgz:307299.got - 2010.06.27 13:26:56.
