data_PCOD8003749
_publ_section_title
;
Structure prediction by ZEFSAII (Michael W. Deem and Ramdas Pophale) SiO2 
 PCOD8003749
Probable space group: P -1
;
_chemical_formula_sum "Si O2"
_cell_formula_units_Z 14
_cell_length_a 13.936543
_cell_length_b 8.303224
_cell_length_c 14.981306
_cell_angle_alpha 94.526130
_cell_angle_beta 148.735090
_cell_angle_gamma 66.067160
_cell_volume 678.751891
_symmetry_space_group_name_H-M "P -1"
_symmetry_group_IT_number 2
_symmetry_cell_setting 'triclinic'
loop_
_space_group_symop_operation_xyz
x,y,z
-x,-y,-z
loop_
_atom_site_type_symbol
_atom_site_label
_atom_site_fract_x
_atom_site_fract_y
_atom_site_fract_z
Si Si1 0.139646 0.112888 0.787692
Si Si2 0.794230 0.251307 0.828125
Si Si3 0.057028 0.283059 0.547723
Si Si4 0.657712 0.285717 0.170678
Si Si5 0.492661 0.121682 0.170244
Si Si6 0.107489 0.491511 0.991798
Si Si7 0.235638 0.539596 0.371183
O O1 0.185820 0.199180 0.742125
O O2 0.870816 0.295394 0.623771
O O3 0.179367 0.905198 0.780417
O O4 0.337402 0.054860 0.014254
O O5 0.517359 0.338634 0.610449
O O6 0.817038 0.326379 0.754097
O O7 0.838792 0.348427 0.950755
O O8 0.000000 0.000000 0.000000
O O9 0.000000 0.500000 0.500000
O O10 0.825064 0.298448 0.368516
O O11 0.238400 0.106311 0.608270
O O12 0.497656 0.260167 0.105042
O O13 0.500000 0.500000 0.000000
O O14 0.370583 0.259145 0.169586
O O15 0.911787 0.547607 0.762043
O O16 0.000000 0.500000 0.000000
#
# Coordination Sequence:
#
# PCOD8003749 Si02
#       7
#     2   2   2   2   2   2   2
#     4  10  20  38  58  81 122 151 192 247 303 351
#     4  10  21  38  63  88 118 157 210 246 300 360
#     4  11  22  37  56  88 116 154 200 242 297 364
#     4  11  22  35  57  87 117 154 199 241 295 366
#     4  10  20  37  61  82 116 158 189 248 300 346
#     4   9  20  39  61  85 121 157 198 246 302 355
#     4   9  21  40  59  87 121 159 194 256 304 351
#
# _framework density 20.626093999999998
#
# number of rings (size 3 to 8) (size 9 to 14) (size 15 to 20)
#    0.000    2.000    0.000    5.143    4.000    1.714 
#    7.714    0.000    0.000    0.000    0.000    0.000 
#    0.000    0.000    0.000    0.000    0.000    0.000 
#
# Total GULP energy -173445.484119 kJ/mol
# GULP energy per Si atom -12388.963151 kJ/mol
# Density = 2.057915 g / cm^3
# Si number density = 20.626094 Si / 1000 Ang^3
#
#
#
# Elastic Constant Matrix: (Units=GPa)
#
#
# Indices 1 2 3 4 5 6 
#
# 1 63.6831 48.3472 25.2706 -16.5476 13.8361 -20.7364
# 2 48.3472 165.0131 60.3109 -12.2203 1.7543 -9.6876
# 3 25.2706 60.3109 107.2795 -14.4468 14.2232 1.3403
# 4 -16.5476 -12.2203 -14.4468 45.7631 3.8122 3.7287
# 5 13.8361 1.7543 14.2232 3.8122 27.9849 -5.2217
# 6 -20.7364 -9.6876 1.3403 3.7287 -5.2217 38.2895
#
#
#
# Elastic Compliance Matrix: (Units=1/GPa)
#
#
# Indices 1 2 3 4 5 6 
#
# 1 0.030619 -0.007380 -0.000169 0.009206 -0.013611 0.011968
# 2 -0.007380 0.009723 -0.004741 -0.002006 0.005647 -0.000405
# 3 -0.000169 -0.004741 0.013602 0.003864 -0.007653 -0.003187
# 4 0.009206 -0.002006 0.003864 0.026662 -0.009949 0.000390
# 5 -0.013611 0.005647 -0.007653 -0.009949 0.047690 0.001798
# 6 0.011968 -0.000405 -0.003187 0.000390 0.001798 0.032815
#
#
# Mechanical properties :
#
#
# Convention : Reuss Voigt Hill
#
# Bulk Modulus (GPa) = 34.05651 67.09256 50.57453
# Shear Modulus (GPa) = 25.57825 35.87731 30.72778
#
# Velocity S-wave (km/s) = 3.52531 4.17515 3.86392
# Velocity P-wave (km/s) = 5.75480 7.47269 6.66929
#
# Compressibility (1/GPa) = 0.02936296
#
# Stress axis : x y z
#
# Youngs Moduli (GPa) = 32.65916 102.84863 73.52075
#
# Poissons Ratio (x) = 0.75906 0.01240
# Poissons Ratio (y) = 0.24104 0.34859
# Poissons Ratio (z) = 0.00551 0.48765
#
# Static dielectric constant tensor:
#      x y z
#    x 3.290490 0.012080 -0.667780 
#    y 0.012080 3.869720 0.914380 
#    z -0.667780 0.914380 0.994910 
# 
# 
# High freq. dielectric constant tensor:
#      x y z
#    x 1.786680 -0.016120 0.024420 
#    y -0.016120 1.819080 0.012890 
#    z 0.024420 0.012890 1.804540 
# 
# From -- ./inp_files/222688.got.cif
#   From: 2010.06.25/outbox.cif.g09.slc.cpg/sg2_112_cif.got.tgz:222688.got - 2010.06.27 13:26:56.
