data_PCOD8003335
_publ_section_title
;
Structure prediction by ZEFSAII (Michael W. Deem and Ramdas Pophale) SiO2 
 PCOD8003335
Probable space group: P -1
;
_chemical_formula_sum "Si O2"
_cell_formula_units_Z 14
_cell_length_a 9.040144
_cell_length_b 9.550904
_cell_length_c 8.633341
_cell_angle_alpha 69.239037
_cell_angle_beta 68.693423
_cell_angle_gamma 81.126193
_cell_volume 649.095603
_symmetry_space_group_name_H-M "P -1"
_symmetry_group_IT_number 2
_symmetry_cell_setting 'triclinic'
loop_
_space_group_symop_operation_xyz
x,y,z
-x,-y,-z
loop_
_atom_site_type_symbol
_atom_site_label
_atom_site_fract_x
_atom_site_fract_y
_atom_site_fract_z
Si Si1 0.998586 0.339515 0.139490
Si Si2 0.546865 0.444989 0.756757
Si Si3 0.894702 0.147353 0.974332
Si Si4 0.465052 0.866224 0.948800
Si Si5 0.069735 0.341112 0.600247
Si Si6 0.280192 0.282923 0.268233
Si Si7 0.268247 0.541661 0.621361
O O1 0.875588 0.341977 0.329558
O O2 0.174124 0.297108 0.148473
O O3 0.933436 0.226040 0.086974
O O4 0.000000 0.500000 0.000000
O O5 0.638153 0.558789 0.788621
O O6 0.383622 0.525971 0.730993
O O7 0.646368 0.394814 0.587196
O O8 0.510241 0.295513 0.919395
O O9 0.932048 0.245063 0.768036
O O10 0.710925 0.107294 0.059036
O O11 0.000000 0.000000 0.000000
O O12 0.590788 0.852793 0.761953
O O13 0.500000 0.000000 0.000000
O O14 0.164892 0.244255 0.471341
O O15 0.197008 0.379020 0.671427
O O16 0.000000 0.500000 0.500000
#
# Coordination Sequence:
#
# PCOD8003335 Si02
#       7
#     2   2   2   2   2   2   2
#     4  12  20  37  69  97 129 168 225 268 329 390
#     4  10  22  39  65  99 130 167 218 276 328 383
#     4  12  27  45  66  98 136 177 220 278 334 396
#     4  12  26  44  63  92 139 177 217 265 339 395
#     4  11  21  43  72 102 131 171 226 277 326 391
#     4  11  23  41  69 100 127 172 224 274 327 389
#     4  10  20  36  68  98 128 164 223 277 321 382
#
# _framework density 21.568470999999999
#
# number of rings (size 3 to 8) (size 9 to 14) (size 15 to 20)
#    0.000    0.857    2.857    5.571    2.000    0.000 
#    2.571    2.143    0.000    0.000    0.000    0.000 
#    0.000    0.000    0.000    0.000    0.000    0.000 
#
# Total GULP energy -173585.630902 kJ/mol
# GULP energy per Si atom -12398.973636 kJ/mol
# Density = 2.151938 g / cm^3
# Si number density = 21.568471 Si / 1000 Ang^3
#
#
#
# Elastic Constant Matrix: (Units=GPa)
#
#
# Indices 1 2 3 4 5 6 
#
# 1 172.7502 57.6321 34.1470 19.5378 -2.6734 5.8830
# 2 57.6321 126.1360 35.1552 32.8833 -1.7136 3.3420
# 3 34.1470 35.1552 64.2680 23.9610 -10.3998 -10.7777
# 4 19.5378 32.8833 23.9610 36.1691 -8.0703 -1.4852
# 5 -2.6734 -1.7136 -10.3998 -8.0703 33.1955 12.3165
# 6 5.8830 3.3420 -10.7777 -1.4852 12.3165 46.0322
#
#
#
# Elastic Compliance Matrix: (Units=1/GPa)
#
#
# Indices 1 2 3 4 5 6 
#
# 1 0.007204 -0.002547 -0.002720 0.000207 0.000170 -0.001411
# 2 -0.002547 0.011969 -0.002583 -0.008298 -0.002096 -0.000855
# 3 -0.002720 -0.002583 0.023861 -0.011221 0.002507 0.005089
# 4 0.000207 -0.008298 -0.011221 0.044145 0.007813 -0.002718
# 5 0.000170 -0.002096 0.002507 0.007813 0.035921 -0.008642
# 6 -0.001411 -0.000855 0.005089 -0.002718 -0.008642 0.025382
#
#
# Mechanical properties :
#
#
# Convention : Reuss Voigt Hill
#
# Bulk Modulus (GPa) = 36.58662 68.55811 52.57236
# Shear Modulus (GPa) = 28.85277 38.82736 33.84007
#
# Velocity S-wave (km/s) = 3.66147 4.24747 3.96531
# Velocity P-wave (km/s) = 5.90550 7.47729 6.73739
#
# Compressibility (1/GPa) = 0.02733240
#
# Stress axis : x y z
#
# Youngs Moduli (GPa) = 138.82013 83.54908 41.91018
#
# Poissons Ratio (x) = 0.21283 0.11400
# Poissons Ratio (y) = 0.35363 0.10824
# Poissons Ratio (z) = 0.37762 0.21578
#
# Static dielectric constant tensor:
#      x y z
#    x 4.613670 -0.033870 -0.448790 
#    y -0.033870 3.769940 0.423590 
#    z -0.448790 0.423590 4.130950 
# 
# 
# High freq. dielectric constant tensor:
#      x y z
#    x 1.873080 0.007220 -0.012960 
#    y 0.007220 1.825680 0.036130 
#    z -0.012960 0.036130 1.842600 
# 
# From -- ./inp_files/157251.got.cif
#   From: 2010.06.25/outbox.cif.g09.slc.cpg/sg2_79_cif.got.tgz:157251.got - 2010.06.27 13:26:56.
