data_PCOD8003397
_publ_section_title
;
Structure prediction by ZEFSAII (Michael W. Deem and Ramdas Pophale) SiO2 
 PCOD8003397
Probable space group: P -1
;
_chemical_formula_sum "Si O2"
_cell_formula_units_Z 16
_cell_length_a 16.538151
_cell_length_b 15.221702
_cell_length_c 15.989043
_cell_angle_alpha 28.203113
_cell_angle_beta 153.782644
_cell_angle_gamma 152.550995
_cell_volume 744.574038
_symmetry_space_group_name_H-M "P -1"
_symmetry_group_IT_number 2
_symmetry_cell_setting 'triclinic'
loop_
_space_group_symop_operation_xyz
x,y,z
-x,-y,-z
loop_
_atom_site_type_symbol
_atom_site_label
_atom_site_fract_x
_atom_site_fract_y
_atom_site_fract_z
Si Si1 0.515255 0.894035 0.018812
Si Si2 0.862523 0.539805 0.010542
Si Si3 0.230892 0.294529 0.785760
Si Si4 0.804116 0.775899 0.001728
Si Si5 0.651493 0.990675 0.387987
Si Si6 0.581787 0.680947 0.717184
Si Si7 0.941011 0.039941 0.223684
Si Si8 0.911656 0.427088 0.321707
O O1 0.327270 0.656880 0.044458
O O2 0.745808 0.911242 0.212876
O O3 0.500000 0.000000 0.000000
O O4 0.495461 0.024515 0.812339
O O5 0.786121 0.687431 0.863982
O O6 0.015517 0.714240 0.940120
O O7 0.979316 0.475902 0.244448
O O8 0.300340 0.286177 0.951843
O O9 0.421685 0.437360 0.783577
O O10 0.084498 0.406881 0.553613
O O11 0.124070 0.061710 0.844153
O O12 0.864061 0.597759 0.178085
O O13 0.640123 0.788564 0.773443
O O14 0.000000 0.000000 0.000000
O O15 0.516588 0.806673 0.483830
O O16 0.854607 0.983194 0.542934
O O17 0.708838 0.201538 0.317649
#
# Coordination Sequence:
#
# PCOD8003397 Si02
#       8
#     2   2   2   2   2   2   2   2
#     4  11  23  40  65  94 120 153 201 253 301 367
#     4   9  19  39  60  84 121 158 197 242 298 369
#     4  11  20  34  59  86 112 160 205 242 298 346
#     4  11  21  36  54  81 122 158 201 248 295 341
#     4   9  21  41  61  87 121 157 202 244 301 369
#     4  10  20  37  56  83 117 155 200 244 289 359
#     4  10  21  40  64  85 123 166 194 244 315 350
#     4   9  19  35  56  81 115 160 196 246 294 346
#
# _framework density 21.488797999999999
#
# number of rings (size 3 to 8) (size 9 to 14) (size 15 to 20)
#    0.000    2.000    1.250    3.750    1.750    1.000 
#    0.000    3.750    0.000    0.000    0.000    0.000 
#    0.000    0.000    0.000    0.000    0.000    0.000 
#
# Total GULP energy -198215.208437 kJ/mol
# GULP energy per Si atom -12388.450527 kJ/mol
# Density = 2.143989 g / cm^3
# Si number density = 21.488798 Si / 1000 Ang^3
#
#
#
# Elastic Constant Matrix: (Units=GPa)
#
#
# Indices 1 2 3 4 5 6 
#
# 1 60.9065 26.2425 17.6401 -6.4460 6.4921 -4.4469
# 2 26.2425 115.8942 25.6562 -20.8647 -6.3893 5.7593
# 3 17.6401 25.6562 60.2535 -13.2260 -11.1421 1.5722
# 4 -6.4460 -20.8647 -13.2260 32.2960 2.7331 -1.0513
# 5 6.4921 -6.3893 -11.1421 2.7331 23.4025 -1.4605
# 6 -4.4469 5.7593 1.5722 -1.0513 -1.4605 24.5004
#
#
#
# Elastic Compliance Matrix: (Units=1/GPa)
#
#
# Indices 1 2 3 4 5 6 
#
# 1 0.021506 -0.004236 -0.006468 -0.000102 -0.009895 0.004720
# 2 -0.004236 0.011242 -0.001819 0.005360 0.002571 -0.002912
# 3 -0.006468 -0.001819 0.022670 0.005818 0.011332 -0.001276
# 4 -0.000102 0.005360 0.005818 0.036789 -0.000040 -0.000076
# 5 -0.009895 0.002571 0.011332 -0.000040 0.051574 -0.000055
# 6 0.004720 -0.002912 -0.001276 -0.000076 -0.000055 0.042432
#
#
# Mechanical properties :
#
#
# Convention : Reuss Voigt Hill
#
# Bulk Modulus (GPa) = 32.92450 41.79243 37.35846
# Shear Modulus (GPa) = 22.58530 27.20746 24.89638
#
# Velocity S-wave (km/s) = 3.24547 3.56212 3.40748
# Velocity P-wave (km/s) = 5.42209 6.03399 5.73620
#
# Compressibility (1/GPa) = 0.03037252
#
# Stress axis : x y z
#
# Youngs Moduli (GPa) = 46.49932 88.95358 44.11054
#
# Poissons Ratio (x) = 0.37684 0.28529
# Poissons Ratio (y) = 0.19699 0.08022
# Poissons Ratio (z) = 0.30074 0.16177
#
# Static dielectric constant tensor:
#      x y z
#    x 3.633420 0.164200 -0.175040 
#    y 0.164200 4.100050 -0.141360 
#    z -0.175040 -0.141360 4.017360 
# 
# 
# High freq. dielectric constant tensor:
#      x y z
#    x 1.809730 0.004010 -0.009790 
#    y 0.004010 1.856590 -0.010600 
#    z -0.009790 -0.010600 1.833450 
# 
# From -- ./inp_files/352116.got.cif
#   From: 2010.06.25/outbox.cif.g09.slc.cpg/sg2_177_cif.got.tgz:352116.got - 2010.06.27 13:26:56.
