data_PCOD8003318
_publ_section_title
;
Structure prediction by ZEFSAII (Michael W. Deem and Ramdas Pophale) SiO2 
 PCOD8003318
Probable space group: P -1
;
_chemical_formula_sum "Si O2"
_cell_formula_units_Z 16
_cell_length_a 22.419270
_cell_length_b 8.013338
_cell_length_c 11.715121
_cell_angle_alpha 139.368643
_cell_angle_beta 29.447248
_cell_angle_gamma 130.173766
_cell_volume 672.966604
_symmetry_space_group_name_H-M "P -1"
_symmetry_group_IT_number 2
_symmetry_cell_setting 'triclinic'
loop_
_space_group_symop_operation_xyz
x,y,z
-x,-y,-z
loop_
_atom_site_type_symbol
_atom_site_label
_atom_site_fract_x
_atom_site_fract_y
_atom_site_fract_z
Si Si1 0.006447 0.447099 0.789163
Si Si2 0.641515 0.517506 0.554803
Si Si3 0.848393 0.265715 0.760396
Si Si4 0.737581 0.762666 0.729490
Si Si5 0.270597 0.024007 0.766469
Si Si6 0.007059 0.924724 0.174911
Si Si7 0.580978 0.750933 0.193384
Si Si8 0.633369 0.603260 0.352915
O O1 0.153984 0.452578 0.539320
O O2 0.950672 0.397728 0.733202
O O3 0.965434 0.229154 0.832506
O O4 0.957139 0.726854 0.062289
O O5 0.688855 0.748050 0.672305
O O6 0.494790 0.502074 0.789460
O O7 0.681071 0.559688 0.380180
O O8 0.694808 0.260461 0.394276
O O9 0.795602 0.031514 0.797644
O O10 0.732637 0.456963 0.029096
O O11 0.907894 0.157034 0.486391
O O12 0.618653 0.742382 0.994312
O O13 0.296811 0.238082 0.930610
O O14 0.353339 0.100438 0.557021
O O15 0.127746 0.049431 0.991216
O O16 0.500000 0.000000 0.500000
O O17 0.500000 0.500000 0.500000
#
# Coordination Sequence:
#
# PCOD8003318 Si02
#       8
#     2   2   2   2   2   2   2   2
#     4  10  20  39  70 106 142 179 236 294 355 430
#     4  11  23  43  71 104 143 189 235 297 354 421
#     4  11  24  39  69 100 145 186 233 294 357 419
#     4  11  21  39  72 109 139 184 241 290 361 429
#     4  11  22  44  74 102 138 189 239 292 353 432
#     4  10  20  38  68 105 137 179 236 291 351 418
#     4  10  20  36  66  98 138 181 234 284 345 418
#     4  12  27  47  71 103 144 193 239 291 357 420
#
# _framework density 23.775326
#
# number of rings (size 3 to 8) (size 9 to 14) (size 15 to 20)
#    0.000    1.250    2.500    5.625    5.250    0.500 
#    0.000    2.500    0.000    0.000    0.000    0.000 
#    0.000    0.000    0.000    0.000    0.000    0.000 
#
# Total GULP energy -198259.279210 kJ/mol
# GULP energy per Si atom -12391.204951 kJ/mol
# Density = 2.372121 g / cm^3
# Si number density = 23.775326 Si / 1000 Ang^3
#
#
#
# Elastic Constant Matrix: (Units=GPa)
#
#
# Indices 1 2 3 4 5 6 
#
# 1 97.2670 46.3211 42.5774 10.5642 14.1051 10.7979
# 2 46.3211 83.7963 35.9054 -24.6035 6.8583 1.6498
# 3 42.5774 35.9054 112.9745 -9.4817 14.5223 6.8832
# 4 10.5642 -24.6035 -9.4817 36.7657 4.9034 4.7974
# 5 14.1051 6.8583 14.5223 4.9034 28.1431 -3.5663
# 6 10.7979 1.6498 6.8832 4.7974 -3.5663 47.3628
#
#
#
# Elastic Compliance Matrix: (Units=1/GPa)
#
#
# Indices 1 2 3 4 5 6 
#
# 1 0.021589 -0.014656 -0.004423 -0.016539 -0.002373 -0.002272
# 2 -0.014656 0.027283 -0.000895 0.022606 -0.002777 0.000022
# 3 -0.004423 -0.000895 0.011878 0.004555 -0.004678 -0.001500
# 4 -0.016539 0.022606 0.004555 0.049854 -0.008685 -0.003382
# 5 -0.002373 -0.002777 -0.004678 -0.008685 0.042005 0.005360
# 6 -0.002272 0.000022 -0.001500 -0.003382 0.005360 0.022595
#
#
# Mechanical properties :
#
#
# Convention : Reuss Voigt Hill
#
# Bulk Modulus (GPa) = 48.07136 60.40507 54.23822
# Shear Modulus (GPa) = 22.51383 33.73660 28.12522
#
# Velocity S-wave (km/s) = 3.08058 3.77102 3.44315
# Velocity P-wave (km/s) = 5.73726 6.66502 6.21847
#
# Compressibility (1/GPa) = 0.02080241
#
# Stress axis : x y z
#
# Youngs Moduli (GPa) = 46.31899 36.65323 84.18974
#
# Poissons Ratio (x) = 0.53719 0.37239
# Poissons Ratio (y) = 0.67885 0.07531
# Poissons Ratio (z) = 0.20488 0.03279
#
# Static dielectric constant tensor:
#      x y z
#    x 4.249010 0.396870 -0.077980 
#    y 0.396870 4.512100 -0.199390 
#    z -0.077980 -0.199390 4.402000 
# 
# 
# High freq. dielectric constant tensor:
#      x y z
#    x 1.925800 0.027840 0.001990 
#    y 0.027840 1.937640 -0.020110 
#    z 0.001990 -0.020110 1.934020 
# 
# From -- ./inp_files/474336.got.cif
#   From: 2010.06.25/outbox.cif.g09.slc.cpg/sg2_238_cif.got.tgz:474336.got - 2010.06.27 13:26:56.
