data_PCOD8003242
_publ_section_title
;
Structure prediction by ZEFSAII (Michael W. Deem and Ramdas Pophale) SiO2 
 PCOD8003242
Probable space group: P -1
;
_chemical_formula_sum "Si O2"
_cell_formula_units_Z 14
_cell_length_a 7.420839
_cell_length_b 12.533095
_cell_length_c 9.081259
_cell_angle_alpha 109.295459
_cell_angle_beta 115.591103
_cell_angle_gamma 44.419373
_cell_volume 532.834605
_symmetry_space_group_name_H-M "P -1"
_symmetry_group_IT_number 2
_symmetry_cell_setting 'triclinic'
loop_
_space_group_symop_operation_xyz
x,y,z
-x,-y,-z
loop_
_atom_site_type_symbol
_atom_site_label
_atom_site_fract_x
_atom_site_fract_y
_atom_site_fract_z
Si Si1 0.775532 0.374118 0.125993
Si Si2 0.202127 0.652863 0.538065
Si Si3 0.389018 0.742846 0.428296
Si Si4 0.020827 0.901362 0.122994
Si Si5 0.449881 0.880575 0.114558
Si Si6 0.152494 0.412740 0.724304
Si Si7 0.680307 0.978564 0.422838
O O1 0.956501 0.420603 0.199494
O O2 0.710902 0.373256 0.273670
O O3 0.500000 0.500000 0.000000
O O4 0.939713 0.210989 0.037074
O O5 0.085329 0.575814 0.412154
O O6 0.441600 0.612890 0.495836
O O7 0.985728 0.834864 0.511726
O O8 0.101426 0.828601 0.280803
O O9 0.633736 0.651463 0.360462
O O10 0.365484 0.871992 0.559675
O O11 0.214557 0.935015 0.173434
O O12 0.703526 0.057049 0.069634
O O13 0.690567 0.696776 0.126892
O O14 0.581058 0.951288 0.229146
O O15 0.500000 0.000000 0.500000
#
# Coordination Sequence:
#
# PCOD8003242 Si02
#       7
#     2   2   2   2   2   2   2
#     4  12  23  41  64  94 125 168 210 257 318 370
#     4  11  25  40  66  93 125 167 212 256 310 375
#     4  11  22  40  65  95 126 161 213 258 308 369
#     4  10  20  36  64  93 126 163 205 256 316 363
#     4   9  18  34  63  88 121 165 199 250 309 368
#     4  10  22  43  65  90 127 167 210 254 309 377
#     4  11  18  38  64  94 128 164 208 252 313 374
#
# _framework density 26.274569
#
# number of rings (size 3 to 8) (size 9 to 14) (size 15 to 20)
#    0.000    1.429    7.143    1.714    2.000    0.571 
#    0.000    5.000    0.000    0.000    0.000    0.000 
#    0.000    0.000    0.000    0.000    0.000    0.000 
#
# Total GULP energy -173526.071463 kJ/mol
# GULP energy per Si atom -12394.719390 kJ/mol
# Density = 2.621477 g / cm^3
# Si number density = 26.274569 Si / 1000 Ang^3
#
#
#
# Elastic Constant Matrix: (Units=GPa)
#
#
# Indices 1 2 3 4 5 6 
#
# 1 80.3766 42.3075 53.8130 -11.4751 15.2803 28.6401
# 2 42.3075 116.6917 64.8668 1.3196 12.1759 45.1065
# 3 53.8130 64.8668 127.8845 -24.0578 13.1549 18.5996
# 4 -11.4751 1.3196 -24.0578 50.1938 2.0687 14.9318
# 5 15.2803 12.1759 13.1549 2.0687 31.0882 -4.2090
# 6 28.6401 45.1065 18.5996 14.9318 -4.2090 49.8291
#
#
#
# Elastic Compliance Matrix: (Units=1/GPa)
#
#
# Indices 1 2 3 4 5 6 
#
# 1 0.026138 0.002995 -0.006518 0.009096 -0.014474 -0.019250
# 2 0.002995 0.019207 -0.007032 0.002508 -0.008618 -0.017963
# 3 -0.006518 -0.007032 0.014543 0.004695 -0.000066 0.003271
# 4 0.009096 0.002508 0.004695 0.030456 -0.012093 -0.019399
# 5 -0.014474 -0.008618 -0.000066 -0.012093 0.046699 0.023713
# 6 -0.019250 -0.017963 0.003271 -0.019399 0.023713 0.053988
#
#
# Mechanical properties :
#
#
# Convention : Reuss Voigt Hill
#
# Bulk Modulus (GPa) = 25.78763 71.88082 48.83423
# Shear Modulus (GPa) = 22.21559 37.15324 29.68442
#
# Velocity S-wave (km/s) = 2.91093 3.76445 3.36486
# Velocity P-wave (km/s) = 4.59717 6.80527 5.80714
#
# Compressibility (1/GPa) = 0.03877828
#
# Stress axis : x y z
#
# Youngs Moduli (GPa) = 38.25801 52.06511 68.75963
#
# Poissons Ratio (x) = -0.15593 0.44820
# Poissons Ratio (y) = -0.11458 0.48349
# Poissons Ratio (z) = 0.24938 0.36610
#
# Static dielectric constant tensor:
#      x y z
#    x 4.969960 0.211810 0.146810 
#    y 0.211810 5.575360 -0.251470 
#    z 0.146810 -0.251470 5.237530 
# 
# 
# High freq. dielectric constant tensor:
#      x y z
#    x 2.041540 0.015760 0.025800 
#    y 0.015760 2.078980 -0.022770 
#    z 0.025800 -0.022770 2.046070 
# 
# From -- ./inp_files/180671.got.cif
#   From: 2010.06.25/outbox.cif.g09.slc.cpg/sg2_91_cif.got.tgz:180671.got - 2010.06.27 13:26:56.
