data_PCOD8003797
_publ_section_title
;
Structure prediction by ZEFSAII (Michael W. Deem and Ramdas Pophale) SiO2 
 PCOD8003797
Probable space group: P -1
;
_chemical_formula_sum "Si O2"
_cell_formula_units_Z 16
_cell_length_a 15.272883
_cell_length_b 15.101591
_cell_length_c 9.427608
_cell_angle_alpha 115.078668
_cell_angle_beta 34.713096
_cell_angle_gamma 134.537427
_cell_volume 817.811155
_symmetry_space_group_name_H-M "P -1"
_symmetry_group_IT_number 2
_symmetry_cell_setting 'triclinic'
loop_
_space_group_symop_operation_xyz
x,y,z
-x,-y,-z
loop_
_atom_site_type_symbol
_atom_site_label
_atom_site_fract_x
_atom_site_fract_y
_atom_site_fract_z
Si Si1 0.415000 0.739910 0.079960
Si Si2 0.556952 0.411097 0.858111
Si Si3 0.980838 0.462990 0.721402
Si Si4 0.871263 0.077416 0.227260
Si Si5 0.306947 0.712311 0.775457
Si Si6 0.427777 0.063044 0.220831
Si Si7 0.313973 0.203860 0.791987
Si Si8 0.222389 0.748606 0.598879
O O1 0.470510 0.653041 0.994464
O O2 0.188396 0.649542 0.241784
O O3 0.404141 0.803764 0.278437
O O4 0.590332 0.856363 0.815678
O O5 0.393308 0.285100 0.887498
O O6 0.800713 0.503133 0.549895
O O7 0.500000 0.500000 0.000000
O O8 0.020578 0.594455 0.719346
O O9 0.899130 0.420929 0.964531
O O10 0.817044 0.154166 0.273200
O O11 0.791545 0.043016 0.474311
O O12 0.769382 0.945090 0.181329
O O13 0.123580 0.183301 0.966933
O O14 0.386502 0.838623 0.846606
O O15 0.494450 0.712334 0.520671
O O16 0.283229 0.736547 0.663543
O O17 0.500000 0.000000 0.000000
#
# Coordination Sequence:
#
# PCOD8003797 Si02
#       8
#     2   2   2   2   2   2   2   2
#     4  10  21  38  60  92 120 155 200 246 299 356
#     4  11  23  37  63  89 125 156 197 244 305 356
#     4  10  22  39  60  91 122 151 198 248 300 354
#     4  10  23  38  60  84 122 161 196 244 302 350
#     4  10  21  38  61  85 121 152 195 253 288 349
#     4  10  20  37  61  88 118 154 199 248 296 351
#     4  10  22  40  56  85 122 159 192 245 297 353
#     4  11  19  35  64  87 114 154 204 240 292 356
#
# _framework density 19.564419999999998
#
# number of rings (size 3 to 8) (size 9 to 14) (size 15 to 20)
#    0.000    1.750    3.750    1.875    3.500    3.000 
#    0.000    6.250    0.000    0.000    0.000    0.000 
#    0.000    0.000    0.000    0.000    0.000    0.000 
#
# Total GULP energy -198238.473394 kJ/mol
# GULP energy per Si atom -12389.904587 kJ/mol
# Density = 1.951989 g / cm^3
# Si number density = 19.564420 Si / 1000 Ang^3
#
#
#
# Elastic Constant Matrix: (Units=GPa)
#
#
# Indices 1 2 3 4 5 6 
#
# 1 88.0339 42.2995 47.6713 5.5844 7.8582 -9.8074
# 2 42.2995 88.2514 44.6541 18.7138 -4.7073 -12.5896
# 3 47.6713 44.6541 103.6108 -7.4869 5.2640 -11.7972
# 4 5.5844 18.7138 -7.4869 31.2985 -1.6711 3.6977
# 5 7.8582 -4.7073 5.2640 -1.6711 35.3435 5.7545
# 6 -9.8074 -12.5896 -11.7972 3.6977 5.7545 33.5503
#
#
#
# Elastic Compliance Matrix: (Units=1/GPa)
#
#
# Indices 1 2 3 4 5 6 
#
# 1 0.017563 -0.005127 -0.005544 -0.001878 -0.004207 0.002189
# 2 -0.005127 0.021495 -0.007561 -0.014121 0.003674 0.004834
# 3 -0.005544 -0.007561 0.016288 0.009240 -0.001856 0.000569
# 4 -0.001878 -0.014121 0.009240 0.043850 0.000457 -0.007510
# 5 -0.004207 0.003674 -0.001856 0.000457 0.030972 -0.005866
# 6 0.002189 0.004834 0.000569 -0.007510 -0.005866 0.034294
#
#
# Mechanical properties :
#
#
# Convention : Reuss Voigt Hill
#
# Bulk Modulus (GPa) = 52.96260 61.01620 56.98940
# Shear Modulus (GPa) = 24.12888 29.72320 26.92604
#
# Velocity S-wave (km/s) = 3.51565 3.90198 3.71384
# Velocity P-wave (km/s) = 6.60374 7.18023 6.89801
#
# Compressibility (1/GPa) = 0.01888125
#
# Stress axis : x y z
#
# Youngs Moduli (GPa) = 56.93644 46.52333 61.39539
#
# Poissons Ratio (x) = 0.23853 0.34037
# Poissons Ratio (y) = 0.29191 0.46423
# Poissons Ratio (z) = 0.31565 0.35178
#
# Static dielectric constant tensor:
#      x y z
#    x 3.608900 0.058530 0.207870 
#    y 0.058530 3.755410 -0.098830 
#    z 0.207870 -0.098830 3.812980 
# 
# 
# High freq. dielectric constant tensor:
#      x y z
#    x 1.751420 0.012000 0.014550 
#    y 0.012000 1.766940 -0.000940 
#    z 0.014550 -0.000940 1.755130 
# 
# From -- ./inp_files/313646.got.cif
#   From: 2010.06.25/outbox.cif.g09.slc.cpg/sg2_157_cif.got.tgz:313646.got - 2010.06.27 13:26:56.
