data_PCOD8003958
_publ_section_title
;
Structure prediction by ZEFSAII (Michael W. Deem and Ramdas Pophale) SiO2 
 PCOD8003958
Probable space group: P -1
;
_chemical_formula_sum "Si O2"
_cell_formula_units_Z 16
_cell_length_a 5.558295
_cell_length_b 15.097602
_cell_length_c 8.433996
_cell_angle_alpha 69.811068
_cell_angle_beta 78.637569
_cell_angle_gamma 85.515768
_cell_volume 651.211072
_symmetry_space_group_name_H-M "P -1"
_symmetry_group_IT_number 2
_symmetry_cell_setting 'triclinic'
loop_
_space_group_symop_operation_xyz
x,y,z
-x,-y,-z
loop_
_atom_site_type_symbol
_atom_site_label
_atom_site_fract_x
_atom_site_fract_y
_atom_site_fract_z
Si Si1 0.713610 0.413439 0.692041
Si Si2 0.290895 0.078264 0.965520
Si Si3 0.498653 0.295504 0.307624
Si Si4 0.175602 0.875026 0.581797
Si Si5 0.202209 0.240661 0.094609
Si Si6 0.080111 0.033044 0.716244
Si Si7 0.857426 0.409181 0.016970
Si Si8 0.747236 0.616845 0.425529
O O1 0.736793 0.505833 0.525769
O O2 0.468637 0.358857 0.693272
O O3 0.974093 0.355678 0.676422
O O4 0.686529 0.435786 0.870438
O O5 0.247688 0.096026 0.771867
O O6 0.343770 0.179429 0.977931
O O7 0.500000 0.000000 0.000000
O O8 0.049799 0.041439 0.106512
O O9 0.589918 0.192562 0.413643
O O10 0.405401 0.290190 0.143578
O O11 0.711173 0.373821 0.214220
O O12 0.298463 0.327468 0.440010
O O13 0.948516 0.826084 0.727002
O O14 0.107109 0.898686 0.394597
O O15 0.240923 0.972011 0.606667
O O16 0.036608 0.323698 0.988851
O O17 0.000000 0.500000 0.000000
#
# Coordination Sequence:
#
# PCOD8003958 Si02
#       8
#     2   2   2   2   2   2   2   2
#     4  10  24  44  64  97 128 171 223 282 343 403
#     4  10  20  37  62  92 129 166 209 264 329 400
#     4  11  24  41  66  94 129 174 226 282 338 404
#     4   9  20  39  61  91 127 169 216 272 325 402
#     4  10  23  40  60  93 130 167 218 277 327 402
#     4   9  19  38  63  90 127 170 211 261 333 399
#     4  11  26  43  69  92 130 176 228 277 345 403
#     4  10  24  42  68  91 133 170 221 282 343 404
#
# _framework density 24.569604999999999
#
# number of rings (size 3 to 8) (size 9 to 14) (size 15 to 20)
#    0.000    2.000    0.000    1.500   10.500    4.000 
#    2.250    3.750    0.000    0.000    0.000    0.000 
#    0.000    0.000    0.000    0.000    0.000    0.000 
#
# Total GULP energy -198322.287049 kJ/mol
# GULP energy per Si atom -12395.142941 kJ/mol
# Density = 2.451368 g / cm^3
# Si number density = 24.569605 Si / 1000 Ang^3
#
#
#
# Elastic Constant Matrix: (Units=GPa)
#
#
# Indices 1 2 3 4 5 6 
#
# 1 98.2370 30.0494 30.3120 17.3541 23.4388 -11.1392
# 2 30.0494 102.8181 35.3637 27.4896 11.8207 -1.0275
# 3 30.3120 35.3637 107.7368 19.6734 39.4473 5.5176
# 4 17.3541 27.4896 19.6734 40.1755 7.6593 5.3646
# 5 23.4388 11.8207 39.4473 7.6593 40.5319 8.6561
# 6 -11.1392 -1.0275 5.5176 5.3646 8.6561 32.2502
#
#
#
# Elastic Compliance Matrix: (Units=1/GPa)
#
#
# Indices 1 2 3 4 5 6 
#
# 1 0.014552 -0.002061 0.000241 -0.004363 -0.008943 0.008045
# 2 -0.002061 0.013078 -0.003003 -0.006990 0.001407 0.001004
# 3 0.000241 -0.003003 0.016093 -0.003366 -0.014660 0.001729
# 4 -0.004363 -0.006990 -0.003366 0.033628 0.003102 -0.007580
# 5 -0.008943 0.001407 -0.014660 0.003102 0.045974 -0.013392
# 6 0.008045 0.001004 0.001729 -0.007580 -0.013392 0.038378
#
#
# Mechanical properties :
#
#
# Convention : Reuss Voigt Hill
#
# Bulk Modulus (GPa) = 29.34403 55.58245 42.46324
# Shear Modulus (GPa) = 27.36599 36.79597 32.08098
#
# Velocity S-wave (km/s) = 3.34101 3.87411 3.61739
# Velocity P-wave (km/s) = 5.18192 6.53324 5.89642
#
# Compressibility (1/GPa) = 0.03407848
#
# Stress axis : x y z
#
# Youngs Moduli (GPa) = 68.71816 76.46266 62.13709
#
# Poissons Ratio (x) = 0.15758 -0.01499
# Poissons Ratio (y) = 0.14162 0.18660
# Poissons Ratio (z) = -0.01658 0.22963
#
# Static dielectric constant tensor:
#      x y z
#    x 4.429450 -0.022070 0.122330 
#    y -0.022070 4.474690 0.122760 
#    z 0.122330 0.122760 4.634810 
# 
# 
# High freq. dielectric constant tensor:
#      x y z
#    x 1.963250 -0.004190 0.010250 
#    y -0.004190 1.970570 0.004550 
#    z 0.010250 0.004550 1.985900 
# 
# From -- ./inp_files/90516.got.cif
#   From: 2010.06.25/outbox.cif.g09.slc.cpg/sg2_46_cif.got.tgz:90516.got - 2010.06.27 13:26:56.
