data_PCOD8003124
_publ_section_title
;
Structure prediction by ZEFSAII (Michael W. Deem and Ramdas Pophale) SiO2 
 PCOD8003124
Probable space group: P -1
;
_chemical_formula_sum "Si O2"
_cell_formula_units_Z 16
_cell_length_a 8.480804
_cell_length_b 11.000141
_cell_length_c 14.414180
_cell_angle_alpha 136.593165
_cell_angle_beta 91.021869
_cell_angle_gamma 60.620307
_cell_volume 664.122923
_symmetry_space_group_name_H-M "P -1"
_symmetry_group_IT_number 2
_symmetry_cell_setting 'triclinic'
loop_
_space_group_symop_operation_xyz
x,y,z
-x,-y,-z
loop_
_atom_site_type_symbol
_atom_site_label
_atom_site_fract_x
_atom_site_fract_y
_atom_site_fract_z
Si Si1 0.730722 0.573889 0.023929
Si Si2 0.002674 0.152657 0.926320
Si Si3 0.853210 0.708121 0.828592
Si Si4 0.677847 0.002791 0.303309
Si Si5 0.185032 0.619287 0.269283
Si Si6 0.749297 0.009384 0.829608
Si Si7 0.280933 0.919856 0.443476
Si Si8 0.239165 0.215615 0.458994
O O1 0.796267 0.723956 0.127996
O O2 0.481850 0.740931 0.075920
O O3 0.787937 0.417074 0.028440
O O4 0.887334 0.375368 0.833212
O O5 0.198536 0.963426 0.748160
O O6 0.908037 0.035600 0.888657
O O7 0.097390 0.189329 0.033548
O O8 0.085190 0.467582 0.653376
O O9 0.724219 0.632730 0.822160
O O10 0.702917 0.913315 0.861915
O O11 0.675331 0.059322 0.440960
O O12 0.417361 0.186580 0.383747
O O13 0.352773 0.656682 0.287187
O O14 0.978484 0.850319 0.454354
O O15 0.880393 0.809926 0.635653
O O16 0.382964 0.972159 0.395540
#
# Coordination Sequence:
#
# PCOD8003124 Si02
#       8
#     2   2   2   2   2   2   2   2
#     4  11  21  41  65  97 126 165 213 274 325 372
#     4  12  23  42  69  98 128 165 221 274 318 376
#     4  11  24  44  67  90 135 180 211 258 329 388
#     4  11  22  38  65 100 130 161 211 274 327 374
#     4  10  20  36  62  95 126 167 211 263 318 378
#     4  11  26  42  66  94 132 173 220 261 320 390
#     4  10  20  36  64  96 130 162 215 264 322 377
#     4  10  23  42  64  94 130 173 211 265 325 388
#
# _framework density 24.091926999999998
#
# number of rings (size 3 to 8) (size 9 to 14) (size 15 to 20)
#    0.000    1.250    2.500    4.125    3.500    3.500 
#    0.000    0.625    0.000    0.000    0.000    0.000 
#    0.000    0.000    0.000    0.000    0.000    0.000 
#
# Total GULP energy -198232.667522 kJ/mol
# GULP energy per Si atom -12389.541720 kJ/mol
# Density = 2.403709 g / cm^3
# Si number density = 24.091927 Si / 1000 Ang^3
#
#
#
# Elastic Constant Matrix: (Units=GPa)
#
#
# Indices 1 2 3 4 5 6 
#
# 1 75.9994 26.1118 23.4163 3.9157 20.7352 7.1550
# 2 26.1118 99.8808 36.4756 -23.0285 8.2852 5.1851
# 3 23.4163 36.4756 84.6405 -25.4002 27.5414 -5.3740
# 4 3.9157 -23.0285 -25.4002 31.9438 -7.8408 2.9030
# 5 20.7352 8.2852 27.5414 -7.8408 35.8288 0.4278
# 6 7.1550 5.1851 -5.3740 2.9030 0.4278 24.5279
#
#
#
# Elastic Compliance Matrix: (Units=1/GPa)
#
#
# Indices 1 2 3 4 5 6 
#
# 1 0.019749 -0.005443 -0.003515 -0.011212 -0.009875 -0.003881
# 2 -0.005443 0.014873 -0.003704 0.009947 0.004778 -0.003628
# 3 -0.003515 -0.003704 0.022075 0.011994 -0.011518 0.005426
# 4 -0.011212 0.009947 0.011994 0.051119 0.006184 -0.002363
# 5 -0.009875 0.004778 -0.011518 0.006184 0.042753 -0.002131
# 6 -0.003881 -0.003628 0.005426 -0.002363 -0.002131 0.044175
#
#
# Mechanical properties :
#
#
# Convention : Reuss Voigt Hill
#
# Bulk Modulus (GPa) = 31.87572 48.05868 39.96720
# Shear Modulus (GPa) = 21.68955 30.09459 25.89207
#
# Velocity S-wave (km/s) = 3.00373 3.53818 3.28185
# Velocity P-wave (km/s) = 5.02886 6.05664 5.56652
#
# Compressibility (1/GPa) = 0.03137184
#
# Stress axis : x y z
#
# Youngs Moduli (GPa) = 50.63616 67.23662 45.30031
#
# Poissons Ratio (x) = 0.36600 0.15925
# Poissons Ratio (y) = 0.27563 0.16777
# Poissons Ratio (z) = 0.17800 0.24902
#
# Static dielectric constant tensor:
#      x y z
#    x 4.403650 0.287660 0.051670 
#    y 0.287660 4.075060 -0.149160 
#    z 0.051670 -0.149160 4.496500 
# 
# 
# High freq. dielectric constant tensor:
#      x y z
#    x 1.950870 0.012210 0.007120 
#    y 0.012210 1.927400 -0.023810 
#    z 0.007120 -0.023810 1.969760 
# 
# From -- ./inp_files/499518.got.cif
#   From: 2010.06.25/outbox.cif.g09.slc.cpg/sg2_250_cif.got.tgz:499518.got - 2010.06.27 13:26:56.
