data_PCOD8003158
_publ_section_title
;
Structure prediction by ZEFSAII (Michael W. Deem and Ramdas Pophale) SiO2 
 PCOD8003158
Probable space group: P -1
;
_chemical_formula_sum "Si O2"
_cell_formula_units_Z 12
_cell_length_a 17.627203
_cell_length_b 10.948190
_cell_length_c 12.956413
_cell_angle_alpha 125.345302
_cell_angle_beta 150.832733
_cell_angle_gamma 34.350597
_cell_volume 588.215426
_symmetry_space_group_name_H-M "P -1"
_symmetry_group_IT_number 2
_symmetry_cell_setting 'triclinic'
loop_
_space_group_symop_operation_xyz
x,y,z
-x,-y,-z
loop_
_atom_site_type_symbol
_atom_site_label
_atom_site_fract_x
_atom_site_fract_y
_atom_site_fract_z
Si Si1 0.537335 0.270760 0.341520
Si Si2 0.926773 0.747338 0.494075
Si Si3 0.831277 0.719505 0.140554
Si Si4 0.312418 0.758076 0.265509
Si Si5 0.420891 0.221404 0.557413
Si Si6 0.585938 0.782763 0.215943
O O1 0.430038 0.500362 0.269250
O O2 0.590100 0.250634 0.515135
O O3 0.815265 0.003304 0.488548
O O4 0.322821 0.308766 0.089326
O O5 0.847695 0.719851 0.282831
O O6 0.787680 0.766887 0.433105
O O7 0.246553 0.494219 0.758455
O O8 0.112398 0.491949 0.308408
O O9 0.679242 0.986380 0.051018
O O10 0.421650 0.771372 0.308972
O O11 0.000000 0.000000 0.000000
O O12 0.501040 0.164993 0.744236
O O13 0.500000 0.000000 0.500000
#
# Coordination Sequence:
#
# PCOD8003158 Si02
#       6
#     2   2   2   2   2   2
#     4  10  21  38  60  84 113 154 192 230 284 341
#     4   9  18  35  60  89 114 145 191 235 281 335
#     4  10  20  36  63  89 112 145 192 243 281 329
#     4  11  25  40  56  82 118 157 191 229 285 346
#     4  11  22  36  57  86 115 147 193 240 282 333
#     4   9  18  31  54  86 113 140 181 230 280 328
#
# _framework density 20.400689
#
# number of rings (size 3 to 8) (size 9 to 14) (size 15 to 20)
#    0.000    2.000    0.000    5.000    0.000   10.667 
#    0.000    3.333    0.000   13.000    0.000    0.000 
#    0.000    0.000    0.000    0.000    0.000    0.000 
#
# Total GULP energy -148738.622968 kJ/mol
# GULP energy per Si atom -12394.885247 kJ/mol
# Density = 2.035426 g / cm^3
# Si number density = 20.400689 Si / 1000 Ang^3
#
#
#
# Elastic Constant Matrix: (Units=GPa)
#
#
# Indices 1 2 3 4 5 6 
#
# 1 144.7742 61.1909 44.5027 -10.5270 -1.8125 2.7333
# 2 61.1909 177.1519 54.5461 -37.4177 3.3183 7.7998
# 3 44.5027 54.5461 80.5123 -20.8663 -3.0881 10.8170
# 4 -10.5270 -37.4177 -20.8663 42.2933 0.7671 -4.8624
# 5 -1.8125 3.3183 -3.0881 0.7671 24.1442 -5.7447
# 6 2.7333 7.7998 10.8170 -4.8624 -5.7447 25.9959
#
#
#
# Elastic Compliance Matrix: (Units=1/GPa)
#
#
# Indices 1 2 3 4 5 6 
#
# 1 0.008961 -0.002289 -0.003961 -0.001618 0.000835 0.001275
# 2 -0.002289 0.008631 -0.003178 0.005483 -0.002047 -0.000453
# 3 -0.003961 -0.003178 0.018770 0.004834 0.001129 -0.005286
# 4 -0.001618 0.005483 0.004834 0.030732 -0.000733 0.002100
# 5 0.000835 -0.002047 0.001129 -0.000733 0.044236 0.009695
# 6 0.001275 -0.000453 -0.005286 0.002100 0.009695 0.043204
#
#
# Mechanical properties :
#
#
# Convention : Reuss Voigt Hill
#
# Bulk Modulus (GPa) = 57.12849 80.32421 68.72635
# Shear Modulus (GPa) = 27.89776 34.63325 31.26550
#
# Velocity S-wave (km/s) = 3.70197 4.12473 3.91905
# Velocity P-wave (km/s) = 6.80711 7.88310 7.36478
#
# Compressibility (1/GPa) = 0.01750440
#
# Stress axis : x y z
#
# Youngs Moduli (GPa) = 111.59265 115.86675 53.27790
#
# Poissons Ratio (x) = 0.26524 0.21102
# Poissons Ratio (y) = 0.25546 0.16934
# Poissons Ratio (z) = 0.44199 0.36828
#
# Static dielectric constant tensor:
#      x y z
#    x 3.614290 0.055640 -0.243880 
#    y 0.055640 4.419410 -0.521770 
#    z -0.243880 -0.521770 3.644830 
# 
# 
# High freq. dielectric constant tensor:
#      x y z
#    x 1.787650 -0.005950 -0.024620 
#    y -0.005950 1.820340 -0.031170 
#    z -0.024620 -0.031170 1.781040 
# 
# From -- ./inp_files/180514.got.cif
#   From: 2010.06.25/outbox.cif.g09.slc.cpg/sg2_91_cif.got.tgz:180514.got - 2010.06.27 13:26:56.
