data_PCOD8003916
_publ_section_title
;
Structure prediction by ZEFSAII (Michael W. Deem and Ramdas Pophale) SiO2 
 PCOD8003916
Probable space group: P -1
;
_chemical_formula_sum "Si O2"
_cell_formula_units_Z 16
_cell_length_a 8.351032
_cell_length_b 17.274902
_cell_length_c 11.747578
_cell_angle_alpha 51.161301
_cell_angle_beta 76.198963
_cell_angle_gamma 117.593138
_cell_volume 751.571946
_symmetry_space_group_name_H-M "P -1"
_symmetry_group_IT_number 2
_symmetry_cell_setting 'triclinic'
loop_
_space_group_symop_operation_xyz
x,y,z
-x,-y,-z
loop_
_atom_site_type_symbol
_atom_site_label
_atom_site_fract_x
_atom_site_fract_y
_atom_site_fract_z
Si Si1 0.536876 0.593598 0.508615
Si Si2 0.142188 0.044189 0.659575
Si Si3 0.851960 0.034835 0.883468
Si Si4 0.237548 0.860583 0.385263
Si Si5 0.438674 0.754750 0.403125
Si Si6 0.281597 0.412854 0.944956
Si Si7 0.294845 0.901854 0.730660
Si Si8 0.258212 0.273200 0.280070
O O1 0.500000 0.500000 0.500000
O O2 0.334382 0.593787 0.528121
O O3 0.474126 0.500666 0.719250
O O4 0.851030 0.789305 0.275089
O O5 0.425710 0.202226 0.536994
O O6 0.165167 0.115343 0.470319
O O7 0.883038 0.959137 0.857638
O O8 0.115119 0.915587 0.757364
O O9 0.724114 0.065950 0.809254
O O10 0.660005 0.909432 0.135237
O O11 0.204789 0.725783 0.490311
O O12 0.960387 0.757536 0.594383
O O13 0.524900 0.028067 0.251203
O O14 0.428978 0.557809 0.877352
O O15 0.258701 0.294589 0.124719
O O16 0.968754 0.300866 0.063402
O O17 0.500000 0.000000 0.500000
#
# Coordination Sequence:
#
# PCOD8003916 Si02
#       8
#     2   2   2   2   2   2   2   2
#     4  11  23  38  61  89 124 157 204 251 299 361
#     4   9  19  37  62  84 119 157 207 238 291 375
#     4  10  20  40  64  87 112 168 211 235 293 371
#     4  10  20  40  63  87 123 152 207 254 297 357
#     4  10  20  37  62  89 116 163 203 244 300 359
#     4  11  22  39  64  89 121 160 200 246 308 357
#     4  11  23  38  60  92 123 152 196 259 306 346
#     4  10  20  42  66  85 117 167 201 245 298 373
#
# _framework density 21.288713000000001
#
# number of rings (size 3 to 8) (size 9 to 14) (size 15 to 20)
#    0.000    1.750    5.000    1.875    5.250    0.500 
#    0.000    4.375    0.000    0.000    0.000    0.000 
#    0.000    0.000    0.000    0.000    0.000    0.000 
#
# Total GULP energy -198210.488244 kJ/mol
# GULP energy per Si atom -12388.155515 kJ/mol
# Density = 2.124026 g / cm^3
# Si number density = 21.288713 Si / 1000 Ang^3
#
#
#
# Elastic Constant Matrix: (Units=GPa)
#
#
# Indices 1 2 3 4 5 6 
#
# 1 114.6542 32.7091 17.5054 0.8374 15.0194 -7.9930
# 2 32.7091 86.3283 13.8903 1.3943 2.7720 3.7770
# 3 17.5054 13.8903 75.0489 16.2130 11.6366 2.5411
# 4 0.8374 1.3943 16.2130 32.1323 17.9142 -3.9488
# 5 15.0194 2.7720 11.6366 17.9142 31.0456 5.2192
# 6 -7.9930 3.7770 2.5411 -3.9488 5.2192 28.6818
#
#
#
# Elastic Compliance Matrix: (Units=1/GPa)
#
#
# Indices 1 2 3 4 5 6 
#
# 1 0.012061 -0.004301 -0.002315 0.007540 -0.010112 0.007011
# 2 -0.004301 0.013537 -0.001443 -0.001971 0.003173 -0.003702
# 3 -0.002315 -0.001443 0.016017 -0.008867 0.000910 -0.003261
# 4 0.007540 -0.001971 -0.008867 0.058128 -0.036687 0.017825
# 5 -0.010112 0.003173 0.000910 -0.036687 0.060918 -0.019453
# 6 0.007011 -0.003702 -0.003261 0.017825 -0.019453 0.043589
#
#
# Mechanical properties :
#
#
# Convention : Reuss Voigt Hill
#
# Bulk Modulus (GPa) = 39.22240 44.91565 42.06903
# Shear Modulus (GPa) = 21.84665 32.50038 27.17351
#
# Velocity S-wave (km/s) = 3.20692 3.91147 3.57659
# Velocity P-wave (km/s) = 5.67243 6.44544 6.07125
#
# Compressibility (1/GPa) = 0.02549564
#
# Stress axis : x y z
#
# Youngs Moduli (GPa) = 82.91329 73.86932 62.43521
#
# Poissons Ratio (x) = 0.31771 0.14457
# Poissons Ratio (y) = 0.35661 0.09010
# Poissons Ratio (z) = 0.19198 0.10660
#
# Static dielectric constant tensor:
#      x y z
#    x 4.252100 0.006510 0.253810 
#    y 0.006510 4.048740 0.008070 
#    z 0.253810 0.008070 3.826650 
# 
# 
# High freq. dielectric constant tensor:
#      x y z
#    x 1.827190 0.010400 0.013420 
#    y 0.010400 1.828130 0.016920 
#    z 0.013420 0.016920 1.825200 
# 
# From -- ./inp_files/401931.got.cif
#   From: 2010.06.25/outbox.cif.g09.slc.cpg/sg2_201_cif.got.tgz:401931.got - 2010.06.27 13:26:56.
