data_PCOD8003415
_publ_section_title
;
Structure prediction by ZEFSAII (Michael W. Deem and Ramdas Pophale) SiO2 
 PCOD8003415
Probable space group: P -1
;
_chemical_formula_sum "Si O2"
_cell_formula_units_Z 16
_cell_length_a 14.780704
_cell_length_b 11.629410
_cell_length_c 5.247044
_cell_angle_alpha 108.979739
_cell_angle_beta 115.426124
_cell_angle_gamma 62.988028
_cell_volume 716.130736
_symmetry_space_group_name_H-M "P -1"
_symmetry_group_IT_number 2
_symmetry_cell_setting 'triclinic'
loop_
_space_group_symop_operation_xyz
x,y,z
-x,-y,-z
loop_
_atom_site_type_symbol
_atom_site_label
_atom_site_fract_x
_atom_site_fract_y
_atom_site_fract_z
Si Si1 0.611115 0.288493 0.512648
Si Si2 0.315461 0.368897 0.873308
Si Si3 0.822562 0.127929 0.935736
Si Si4 0.796510 0.807184 0.294692
Si Si5 0.290341 0.040739 0.186770
Si Si6 0.387474 0.463179 0.538723
Si Si7 0.480824 0.884381 0.033721
Si Si8 0.025676 0.092095 0.396321
O O1 0.725780 0.241553 0.761740
O O2 0.511660 0.362283 0.639196
O O3 0.613516 0.390046 0.367372
O O4 0.593770 0.166755 0.273372
O O5 0.205567 0.337418 0.749302
O O6 0.315421 0.454769 0.686598
O O7 0.408525 0.228198 0.838525
O O8 0.334309 0.439614 0.196863
O O9 0.775133 0.053930 0.031751
O O10 0.890890 0.007766 0.758396
O O11 0.909076 0.183156 0.201586
O O12 0.737003 0.900188 0.523795
O O13 0.916986 0.805841 0.381682
O O14 0.730212 0.852459 0.984434
O O15 0.415854 0.944371 0.259470
O O16 0.500000 0.000000 0.000000
O O17 0.000000 0.000000 0.500000
#
# Coordination Sequence:
#
# PCOD8003415 Si02
#       8
#     2   2   2   2   2   2   2   2
#     4  10  23  42  64  91 124 169 213 260 301 365
#     4  11  23  40  62  87 123 171 207 258 309 361
#     4  10  21  36  60  86 125 163 202 255 315 374
#     4  11  22  36  59  85 126 164 201 249 315 373
#     4  11  21  35  54  89 129 163 192 242 313 396
#     4  10  24  45  64  87 124 170 224 254 293 359
#     4  11  22  35  59  95 131 159 199 251 321 384
#     4  10  20  37  56  91 127 159 199 252 325 392
#
# _framework density 22.342289000000001
#
# number of rings (size 3 to 8) (size 9 to 14) (size 15 to 20)
#    0.000    1.500    2.500    3.000    1.750    7.000 
#    0.000    0.000    0.000    1.500    0.000    0.000 
#    0.000    0.000    0.000    0.000    0.000    0.000 
#
# Total GULP energy -198236.948010 kJ/mol
# GULP energy per Si atom -12389.809251 kJ/mol
# Density = 2.229144 g / cm^3
# Si number density = 22.342289 Si / 1000 Ang^3
#
#
#
# Elastic Constant Matrix: (Units=GPa)
#
#
# Indices 1 2 3 4 5 6 
#
# 1 118.6117 37.6572 41.6180 -2.1947 13.6415 33.4387
# 2 37.6572 80.1998 30.8658 0.3226 9.0218 25.0494
# 3 41.6180 30.8658 78.7224 -9.7720 14.0258 12.6329
# 4 -2.1947 0.3226 -9.7720 23.4589 9.5928 4.6396
# 5 13.6415 9.0218 14.0258 9.5928 40.5566 -3.1369
# 6 33.4387 25.0494 12.6329 4.6396 -3.1369 39.1968
#
#
#
# Elastic Compliance Matrix: (Units=1/GPa)
#
#
# Indices 1 2 3 4 5 6 
#
# 1 0.013726 -0.001166 -0.003791 0.003754 -0.004752 -0.010568
# 2 -0.001166 0.017949 -0.004211 0.001046 -0.003126 -0.009493
# 3 -0.003791 -0.004211 0.019422 0.011239 -0.007337 -0.002252
# 4 0.003754 0.001046 0.011239 0.059290 -0.020656 -0.016165
# 5 -0.004752 -0.003126 -0.007337 -0.020656 0.035433 0.013697
# 6 -0.010568 -0.009493 -0.002252 -0.016165 0.013697 0.044330
#
#
# Mechanical properties :
#
#
# Convention : Reuss Voigt Hill
#
# Bulk Modulus (GPa) = 30.52361 55.31287 42.91824
# Shear Modulus (GPa) = 22.78855 31.80197 27.29526
#
# Velocity S-wave (km/s) = 3.19717 3.77689 3.49905
# Velocity P-wave (km/s) = 5.22692 6.62047 5.96453
#
# Compressibility (1/GPa) = 0.03276152
#
# Stress axis : x y z
#
# Youngs Moduli (GPa) = 72.85198 55.71187 51.48783
#
# Poissons Ratio (x) = 0.06496 0.19519
# Poissons Ratio (y) = 0.08494 0.21683
# Poissons Ratio (z) = 0.27619 0.23461
#
# Static dielectric constant tensor:
#      x y z
#    x 4.393070 0.290550 0.395570 
#    y 0.290550 3.816150 0.057160 
#    z 0.395570 0.057160 4.082250 
# 
# 
# High freq. dielectric constant tensor:
#      x y z
#    x 1.894460 0.034680 0.006480 
#    y 0.034680 1.844350 0.001020 
#    z 0.006480 0.001020 1.874060 
# 
# From -- ./inp_files/95406.got.cif
#   From: 2010.06.25/outbox.cif.g09.slc.cpg/sg2_48_cif.got.tgz:95406.got - 2010.06.27 13:26:56.
