data_PCOD8003220
_publ_section_title
;
Structure prediction by ZEFSAII (Michael W. Deem and Ramdas Pophale) SiO2 
 PCOD8003220
Probable space group: P -1
;
_chemical_formula_sum "Si O2"
_cell_formula_units_Z 16
_cell_length_a 18.879972
_cell_length_b 18.322466
_cell_length_c 8.411757
_cell_angle_alpha 46.966504
_cell_angle_beta 134.709710
_cell_angle_gamma 160.244703
_cell_volume 696.480363
_symmetry_space_group_name_H-M "P -1"
_symmetry_group_IT_number 2
_symmetry_cell_setting 'triclinic'
loop_
_space_group_symop_operation_xyz
x,y,z
-x,-y,-z
loop_
_atom_site_type_symbol
_atom_site_label
_atom_site_fract_x
_atom_site_fract_y
_atom_site_fract_z
Si Si1 0.572082 0.409128 0.940375
Si Si2 0.181957 0.039055 0.670561
Si Si3 0.046425 0.383580 0.753880
Si Si4 0.748982 0.267703 0.951775
Si Si5 0.710963 0.217728 0.610209
Si Si6 0.254833 0.046823 0.234726
Si Si7 0.075667 0.132202 0.182355
Si Si8 0.375933 0.058347 0.725055
O O1 0.401692 0.284483 0.719634
O O2 0.687630 0.615754 0.869073
O O3 0.765085 0.513138 0.019934
O O4 0.461404 0.249421 0.146937
O O5 0.086655 0.025395 0.402048
O O6 0.249336 0.990528 0.779069
O O7 0.012985 0.881511 0.783726
O O8 0.169394 0.575867 0.560145
O O9 0.891543 0.291655 0.779555
O O10 0.891265 0.178922 0.701389
O O11 0.639870 0.166446 0.755417
O O12 0.631275 0.258627 0.865420
O O13 0.711632 0.128617 0.186331
O O14 0.000000 0.500000 0.000000
O O15 0.500000 0.000000 0.500000
O O16 0.346719 0.113975 0.456762
O O17 0.096916 0.003868 0.031235
#
# Coordination Sequence:
#
# PCOD8003220 Si02
#       8
#     2   2   2   2   2   2   2   2
#     4  10  20  36  64  87 125 157 209 257 314 371
#     4  10  22  39  64  95 124 158 208 266 319 379
#     4  10  21  34  61  88 118 163 210 258 311 363
#     4  11  26  42  59  88 135 172 209 258 319 379
#     4  11  23  37  61  88 123 163 222 264 305 373
#     4  10  21  41  60  91 125 165 205 260 314 386
#     4   9  21  41  65  93 122 159 209 265 321 370
#     4  11  25  40  63  88 130 168 208 255 320 374
#
# _framework density 22.972650000000002
#
# number of rings (size 3 to 8) (size 9 to 14) (size 15 to 20)
#    0.000    1.750    0.000    3.375    8.750    3.500 
#    0.000    0.625    0.000    0.000    0.000    0.000 
#    0.000    0.000    0.000    0.000    0.000    0.000 
#
# Total GULP energy -198209.727578 kJ/mol
# GULP energy per Si atom -12388.107974 kJ/mol
# Density = 2.292036 g / cm^3
# Si number density = 22.972650 Si / 1000 Ang^3
#
#
#
# Elastic Constant Matrix: (Units=GPa)
#
#
# Indices 1 2 3 4 5 6 
#
# 1 71.0546 12.6408 11.9835 1.2728 14.7256 19.2142
# 2 12.6408 130.9212 27.7359 -2.6491 3.9818 20.8473
# 3 11.9835 27.7359 98.0589 7.6045 3.0071 13.7252
# 4 1.2728 -2.6491 7.6045 30.9111 6.1250 2.1524
# 5 14.7256 3.9818 3.0071 6.1250 23.6176 5.5897
# 6 19.2142 20.8473 13.7252 2.1524 5.5897 23.2294
#
#
#
# Elastic Compliance Matrix: (Units=1/GPa)
#
#
# Indices 1 2 3 4 5 6 
#
# 1 0.019991 0.000893 -0.000488 0.002320 -0.009616 -0.014950
# 2 0.000893 0.009256 -0.001723 0.001835 -0.000460 -0.008086
# 3 -0.000488 -0.001723 0.011620 -0.002846 0.001012 -0.004895
# 4 0.002320 0.001835 -0.002846 0.035264 -0.009882 -0.002773
# 5 -0.009616 -0.000460 0.001012 -0.009882 0.051740 -0.003766
# 6 -0.014950 -0.008086 -0.004895 -0.002773 -0.003766 0.066727
#
#
# Mechanical properties :
#
#
# Convention : Reuss Voigt Hill
#
# Bulk Modulus (GPa) = 26.15760 44.97279 35.56519
# Shear Modulus (GPa) = 23.81201 32.06325 27.93763
#
# Velocity S-wave (km/s) = 3.22302 3.73998 3.49108
# Velocity P-wave (km/s) = 5.02609 6.18620 5.63608
#
# Compressibility (1/GPa) = 0.03822981
#
# Stress axis : x y z
#
# Youngs Moduli (GPa) = 50.02233 108.03996 86.05920
#
# Poissons Ratio (x) = -0.09650 0.04201
# Poissons Ratio (y) = -0.04468 0.14832
# Poissons Ratio (z) = 0.02442 0.18620
#
# Static dielectric constant tensor:
#      x y z
#    x 4.222780 0.533000 0.058240 
#    y 0.533000 4.389850 -0.060180 
#    z 0.058240 -0.060180 4.363760 
# 
# 
# High freq. dielectric constant tensor:
#      x y z
#    x 1.877760 0.029870 0.017930 
#    y 0.029870 1.912560 -0.001430 
#    z 0.017930 -0.001430 1.918900 
# 
# From -- ./inp_files/336722.got.cif
#   From: 2010.06.25/outbox.cif.g09.slc.cpg/sg2_169_cif.got.tgz:336722.got - 2010.06.27 13:26:56.
