data_PCOD8003140
_publ_section_title
;
Structure prediction by ZEFSAII (Michael W. Deem and Ramdas Pophale) SiO2 
 PCOD8003140
Probable space group: P -1
;
_chemical_formula_sum "Si O2"
_cell_formula_units_Z 16
_cell_length_a 24.157439
_cell_length_b 6.994654
_cell_length_c 14.931821
_cell_angle_alpha 75.283400
_cell_angle_beta 162.086853
_cell_angle_gamma 103.261376
_cell_volume 749.930850
_symmetry_space_group_name_H-M "P -1"
_symmetry_group_IT_number 2
_symmetry_cell_setting 'triclinic'
loop_
_space_group_symop_operation_xyz
x,y,z
-x,-y,-z
loop_
_atom_site_type_symbol
_atom_site_label
_atom_site_fract_x
_atom_site_fract_y
_atom_site_fract_z
Si Si1 0.769857 0.564465 0.562520
Si Si2 0.341685 0.360191 0.799120
Si Si3 0.499441 0.262021 0.224910
Si Si4 0.018615 0.568208 0.666999
Si Si5 0.339017 0.055799 0.366976
Si Si6 0.729366 0.142040 0.899719
Si Si7 0.858824 0.759299 0.229782
Si Si8 0.054141 0.218503 0.031230
O O1 0.730762 0.713571 0.399761
O O2 0.588718 0.473822 0.332114
O O3 0.852594 0.697081 0.748292
O O4 0.890124 0.372062 0.736723
O O5 0.170721 0.466865 0.572585
O O6 0.500000 0.500000 0.000000
O O7 0.424198 0.199627 0.017010
O O8 0.632163 0.088522 0.485974
O O9 0.340602 0.304423 0.045457
O O10 0.996575 0.711930 0.528571
O O11 0.088528 0.353998 0.766970
O O12 0.168329 0.654154 0.954641
O O13 0.521395 0.164641 0.609241
O O14 0.186157 0.213795 0.148030
O O15 0.266707 0.926148 0.189278
O O16 0.848072 0.990200 0.161950
O O17 0.000000 0.000000 0.000000
#
# Coordination Sequence:
#
# PCOD8003140 Si02
#       8
#     2   2   2   2   2   2   2   2
#     4  10  22  38  62  85 113 159 195 235 295 340
#     4   9  20  38  62  86 116 149 192 244 287 342
#     4   9  18  40  61  80 122 152 185 247 289 340
#     4  10  20  36  63  84 116 154 192 236 296 345
#     4  10  22  40  57  87 123 151 197 240 290 341
#     4  10  22  38  59  87 117 155 191 243 285 347
#     4   9  20  37  58  89 114 150 193 239 290 343
#     4  11  23  38  59  85 118 156 196 243 284 347
#
# _framework density 21.3353
#
# number of rings (size 3 to 8) (size 9 to 14) (size 15 to 20)
#    0.000    2.250    1.250    0.375    5.250    0.000 
#    0.000    2.500    0.000    0.000    0.000    0.000 
#    0.000    0.000    0.000    0.000    0.000    0.000 
#
# Total GULP energy -198255.193415 kJ/mol
# GULP energy per Si atom -12390.949588 kJ/mol
# Density = 2.128674 g / cm^3
# Si number density = 21.335300 Si / 1000 Ang^3
#
#
#
# Elastic Constant Matrix: (Units=GPa)
#
#
# Indices 1 2 3 4 5 6 
#
# 1 113.8149 29.2098 38.9867 4.4349 4.3438 -8.5413
# 2 29.2098 58.4904 27.1705 14.8880 7.7091 -12.1707
# 3 38.9867 27.1705 78.7212 16.3430 1.2047 -10.1452
# 4 4.4349 14.8880 16.3430 20.8799 -1.7427 -3.3125
# 5 4.3438 7.7091 1.2047 -1.7427 38.6674 -5.6973
# 6 -8.5413 -12.1707 -10.1452 -3.3125 -5.6973 27.8688
#
#
#
# Elastic Compliance Matrix: (Units=1/GPa)
#
#
# Indices 1 2 3 4 5 6 
#
# 1 0.011540 -0.004574 -0.005111 0.004855 0.000032 0.000262
# 2 -0.004574 0.026440 -0.002851 -0.014996 -0.004398 0.006425
# 3 -0.005111 -0.002851 0.018899 -0.011185 0.000467 0.002834
# 4 0.004855 -0.014996 -0.011185 0.066792 0.005802 -0.000008
# 5 0.000032 -0.004398 0.000467 0.005802 0.027660 0.004604
# 6 0.000262 0.006425 0.002834 -0.000008 0.004604 0.040741
#
#
# Mechanical properties :
#
#
# Convention : Reuss Voigt Hill
#
# Bulk Modulus (GPa) = 31.44218 49.08450 40.26334
# Shear Modulus (GPa) = 21.95424 27.86052 24.90738
#
# Velocity S-wave (km/s) = 3.21130 3.61756 3.42047
# Velocity P-wave (km/s) = 5.34033 6.36437 5.87470
#
# Compressibility (1/GPa) = 0.03180441
#
# Stress axis : x y z
#
# Youngs Moduli (GPa) = 86.65332 37.82217 52.91387
#
# Poissons Ratio (x) = 0.17301 0.27045
# Poissons Ratio (y) = 0.39639 0.15088
# Poissons Ratio (z) = 0.44290 0.10785
#
# Static dielectric constant tensor:
#      x y z
#    x 4.150780 0.108890 -0.161280 
#    y 0.108890 3.484890 -0.213310 
#    z -0.161280 -0.213310 4.224160 
# 
# 
# High freq. dielectric constant tensor:
#      x y z
#    x 1.854010 0.006650 -0.002680 
#    y 0.006650 1.790440 -0.001680 
#    z -0.002680 -0.001680 1.854520 
# 
# From -- ./inp_files/112512.got.cif
#   From: 2010.06.25/outbox.cif.g09.slc.cpg/sg2_57_cif.got.tgz:112512.got - 2010.06.27 13:26:56.
