data_PCOD8003826
_publ_section_title
;
Structure prediction by ZEFSAII (Michael W. Deem and Ramdas Pophale) SiO2 
 PCOD8003826
Probable space group: P -1
;
_chemical_formula_sum "Si O2"
_cell_formula_units_Z 16
_cell_length_a 14.657107
_cell_length_b 11.629297
_cell_length_c 7.525341
_cell_angle_alpha 102.783389
_cell_angle_beta 64.981054
_cell_angle_gamma 140.721789
_cell_volume 723.171352
_symmetry_space_group_name_H-M "P -1"
_symmetry_group_IT_number 2
_symmetry_cell_setting 'triclinic'
loop_
_space_group_symop_operation_xyz
x,y,z
-x,-y,-z
loop_
_atom_site_type_symbol
_atom_site_label
_atom_site_fract_x
_atom_site_fract_y
_atom_site_fract_z
Si Si1 0.412245 0.560646 0.937074
Si Si2 0.901583 0.354338 0.188671
Si Si3 0.521693 0.751580 0.567043
Si Si4 0.651722 0.759213 0.116321
Si Si5 0.813781 0.461103 0.755374
Si Si6 0.633814 0.064252 0.789134
Si Si7 0.186065 0.478067 0.603544
Si Si8 0.846151 0.116301 0.898907
O O1 0.536972 0.689840 0.716503
O O2 0.320370 0.354586 0.920975
O O3 0.495503 0.642592 0.088425
O O4 0.291150 0.561892 0.022381
O O5 0.794659 0.362599 0.352530
O O6 0.012182 0.402702 0.267863
O O7 0.800155 0.158341 0.118888
O O8 0.000000 0.500000 0.000000
O O9 0.636990 0.806708 0.338237
O O10 0.342567 0.565557 0.588364
O O11 0.561263 0.925128 0.635353
O O12 0.798968 0.943532 0.945479
O O13 0.739152 0.266841 0.701594
O O14 0.826630 0.559331 0.608802
O O15 0.743136 0.068682 0.803189
O O16 0.500000 0.000000 0.000000
O O17 0.032543 0.286287 0.761854
#
# Coordination Sequence:
#
# PCOD8003826 Si02
#       8
#     2   2   2   2   2   2   2   2
#     4  11  23  46  70  93 137 173 231 282 326 391
#     4  10  20  37  61  90 136 175 210 264 341 399
#     4  12  24  43  70 104 133 177 225 276 340 398
#     4  11  25  45  71  96 128 184 232 277 328 389
#     4  12  22  41  64 101 135 180 217 273 342 398
#     4  12  23  38  68 100 142 171 220 283 331 401
#     4  11  24  39  64 100 140 176 214 266 347 411
#     4  11  23  43  62  99 135 175 222 276 328 400
#
# _framework density 22.124770000000002
#
# number of rings (size 3 to 8) (size 9 to 14) (size 15 to 20)
#    0.000    0.750    6.250    3.000    1.750    0.500 
#    0.000    3.125    0.000    0.000    0.000    0.000 
#    0.000    0.000    0.000    0.000    0.000    0.000 
#
# Total GULP energy -198350.644951 kJ/mol
# GULP energy per Si atom -12396.915309 kJ/mol
# Density = 2.207441 g / cm^3
# Si number density = 22.124770 Si / 1000 Ang^3
#
#
#
# Elastic Constant Matrix: (Units=GPa)
#
#
# Indices 1 2 3 4 5 6 
#
# 1 58.5355 26.3152 10.2590 -1.6797 7.9639 -10.6303
# 2 26.3152 109.8003 33.5377 0.9225 2.5705 -21.4562
# 3 10.2590 33.5377 96.4463 6.1583 15.7147 -13.1916
# 4 -1.6797 0.9225 6.1583 31.5466 -0.0818 3.6316
# 5 7.9639 2.5705 15.7147 -0.0818 21.9127 -0.1988
# 6 -10.6303 -21.4562 -13.1916 3.6316 -0.1988 39.2242
#
#
#
# Elastic Compliance Matrix: (Units=1/GPa)
#
#
# Indices 1 2 3 4 5 6 
#
# 1 0.020561 -0.004397 0.001017 0.000612 -0.007653 0.003413
# 2 -0.004397 0.012014 -0.003560 -0.000370 0.002779 0.004231
# 3 0.001017 -0.003560 0.013707 -0.002906 -0.009764 0.003157
# 4 0.000612 -0.000370 -0.002906 0.032780 0.001991 -0.004039
# 5 -0.007653 0.002779 -0.009764 0.001991 0.055067 -0.003743
# 6 0.003413 0.004231 0.003157 -0.004039 -0.003743 0.030151
#
#
# Mechanical properties :
#
#
# Convention : Reuss Voigt Hill
#
# Bulk Modulus (GPa) = 30.86467 45.00067 37.93267
# Shear Modulus (GPa) = 26.46064 31.51472 28.98768
#
# Velocity S-wave (km/s) = 3.46204 3.77823 3.62358
# Velocity P-wave (km/s) = 5.47371 6.27830 5.88976
#
# Compressibility (1/GPa) = 0.03239950
#
# Stress axis : x y z
#
# Youngs Moduli (GPa) = 48.63597 83.23907 72.95717
#
# Poissons Ratio (x) = 0.36602 -0.07418
# Poissons Ratio (y) = 0.21386 0.25975
# Poissons Ratio (z) = -0.04945 0.29636
#
# Static dielectric constant tensor:
#      x y z
#    x 3.646430 -0.334200 0.001090 
#    y -0.334200 3.463950 0.015760 
#    z 0.001090 0.015760 4.045900 
# 
# 
# High freq. dielectric constant tensor:
#      x y z
#    x 1.846540 -0.001360 0.018200 
#    y -0.001360 1.865230 0.006100 
#    z 0.018200 0.006100 1.879050 
# 
# From -- ./inp_files/305379.got.cif
#   From: 2010.06.25/outbox.cif.g09.slc.cpg/sg2_153_cif.got.tgz:305379.got - 2010.06.27 13:26:56.
