data_PCOD8003632
_publ_section_title
;
Structure prediction by ZEFSAII (Michael W. Deem and Ramdas Pophale) SiO2 
 PCOD8003632
Probable space group: P -1
;
_chemical_formula_sum "Si O2"
_cell_formula_units_Z 16
_cell_length_a 18.937498
_cell_length_b 13.496633
_cell_length_c 6.833063
_cell_angle_alpha 89.477679
_cell_angle_beta 74.596012
_cell_angle_gamma 150.867291
_cell_volume 703.244645
_symmetry_space_group_name_H-M "P -1"
_symmetry_group_IT_number 2
_symmetry_cell_setting 'triclinic'
loop_
_space_group_symop_operation_xyz
x,y,z
-x,-y,-z
loop_
_atom_site_type_symbol
_atom_site_label
_atom_site_fract_x
_atom_site_fract_y
_atom_site_fract_z
Si Si1 0.851418 0.410677 0.775386
Si Si2 0.841629 0.863363 0.713256
Si Si3 0.240406 0.191549 0.810846
Si Si4 0.846623 0.056587 0.445641
Si Si5 0.352459 0.762343 0.737847
Si Si6 0.139351 0.626743 0.665319
Si Si7 0.559250 0.452962 0.664474
Si Si8 0.418831 0.126075 0.515257
O O1 0.790811 0.300875 0.608888
O O2 0.991986 0.671581 0.644868
O O3 0.941569 0.426426 0.818339
O O4 0.678041 0.233700 0.020343
O O5 0.664177 0.585454 0.789442
O O6 0.833194 0.966211 0.640393
O O7 0.869849 0.897796 0.926506
O O8 0.000000 0.000000 0.500000
O O9 0.408555 0.349389 0.787768
O O10 0.303102 0.353886 0.614747
O O11 0.126537 0.971293 0.776300
O O12 0.660338 0.886698 0.570765
O O13 0.165572 0.554949 0.765690
O O14 0.409953 0.718093 0.708132
O O15 0.500000 0.000000 0.500000
O O16 0.264512 0.859131 0.678529
O O17 0.478548 0.246099 0.677534
#
# Coordination Sequence:
#
# PCOD8003632 Si02
#       8
#     2   2   2   2   2   2   2   2
#     4  10  20  37  60  83 114 151 182 227 283 332
#     4  11  23  36  56  86 114 144 187 233 279 333
#     4   9  19  38  59  79 111 147 185 230 273 331
#     4   9  21  39  55  79 113 150 188 226 278 334
#     4  10  21  36  57  84 112 144 187 233 277 327
#     4   9  20  38  57  82 114 149 188 226 274 333
#     4   9  19  37  58  80 110 150 185 223 280 329
#     4   9  19  37  56  79 112 145 186 232 271 324
#
# _framework density 22.751684000000001
#
# number of rings (size 3 to 8) (size 9 to 14) (size 15 to 20)
#    0.000    2.500    0.000    1.500    0.000    8.000 
#    0.000   18.750    0.000    0.000    0.000    0.000 
#    0.000    0.000    0.000    0.000    0.000    0.000 
#
# Total GULP energy -198271.668671 kJ/mol
# GULP energy per Si atom -12391.979292 kJ/mol
# Density = 2.269990 g / cm^3
# Si number density = 22.751684 Si / 1000 Ang^3
#
#
#
# Elastic Constant Matrix: (Units=GPa)
#
#
# Indices 1 2 3 4 5 6 
#
# 1 90.7601 0.6554 21.0617 2.7107 -14.4403 -4.0490
# 2 0.6554 83.6703 15.7847 18.7974 0.4191 -17.5066
# 3 21.0617 15.7847 99.8820 6.0142 -21.3583 -13.5949
# 4 2.7107 18.7974 6.0142 25.6723 2.3626 -4.9871
# 5 -14.4403 0.4191 -21.3583 2.3626 32.5583 2.4782
# 6 -4.0490 -17.5066 -13.5949 -4.9871 2.4782 17.6095
#
#
#
# Elastic Compliance Matrix: (Units=1/GPa)
#
#
# Indices 1 2 3 4 5 6 
#
# 1 0.012170 0.000828 -0.001454 -0.001689 0.004450 0.001394
# 2 0.000828 0.017212 -0.000486 -0.009759 -0.000549 0.014239
# 3 -0.001454 -0.000486 0.013174 -0.001756 0.007537 0.007795
# 4 -0.001689 -0.009759 -0.001756 0.047742 -0.005456 0.002842
# 5 0.004450 -0.000549 0.007537 -0.005456 0.038082 -0.000608
# 6 0.001394 0.014239 0.007795 0.002842 -0.000608 0.078172
#
#
# Mechanical properties :
#
#
# Convention : Reuss Voigt Hill
#
# Bulk Modulus (GPa) = 24.79520 38.81290 31.80405
# Shear Modulus (GPa) = 22.50024 30.95539 26.72781
#
# Velocity S-wave (km/s) = 3.14817 3.69260 3.43120
# Velocity P-wave (km/s) = 4.91289 5.93943 5.45038
#
# Compressibility (1/GPa) = 0.04033039
#
# Stress axis : x y z
#
# Youngs Moduli (GPa) = 82.16847 58.10067 75.90876
#
# Poissons Ratio (x) = -0.04810 0.11038
# Poissons Ratio (y) = -0.06803 0.03691
# Poissons Ratio (z) = 0.11949 0.02825
#
# Static dielectric constant tensor:
#      x y z
#    x 4.701860 0.176150 -0.204310 
#    y 0.176150 4.016100 0.283750 
#    z -0.204310 0.283750 3.871080 
# 
# 
# High freq. dielectric constant tensor:
#      x y z
#    x 1.900090 0.011090 -0.017800 
#    y 0.011090 1.882110 0.019200 
#    z -0.017800 0.019200 1.879590 
# 
# From -- ./inp_files/119458.got.cif
#   From: 2010.06.25/outbox.cif.g09.slc.cpg/sg2_60_cif.got.tgz:119458.got - 2010.06.27 13:26:56.
