data_PCOD8003622
_publ_section_title
;
Structure prediction by ZEFSAII (Michael W. Deem and Ramdas Pophale) SiO2 
 PCOD8003622
Probable space group: P -1
;
_chemical_formula_sum "Si O2"
_cell_formula_units_Z 16
_cell_length_a 9.744417
_cell_length_b 25.257863
_cell_length_c 8.558824
_cell_angle_alpha 47.533702
_cell_angle_beta 31.206882
_cell_angle_gamma 46.882969
_cell_volume 773.537566
_symmetry_space_group_name_H-M "P -1"
_symmetry_group_IT_number 2
_symmetry_cell_setting 'triclinic'
loop_
_space_group_symop_operation_xyz
x,y,z
-x,-y,-z
loop_
_atom_site_type_symbol
_atom_site_label
_atom_site_fract_x
_atom_site_fract_y
_atom_site_fract_z
Si Si1 0.822312 0.810890 0.530721
Si Si2 0.321520 0.833865 0.187148
Si Si3 0.279415 0.165295 0.780473
Si Si4 0.589714 0.562984 0.374637
Si Si5 0.138067 0.913950 0.508682
Si Si6 0.701264 0.542199 0.649719
Si Si7 0.333518 0.294364 0.684603
Si Si8 0.013226 0.346094 0.197606
O O1 0.780809 0.834650 0.344449
O O2 0.090340 0.830004 0.296734
O O3 0.567388 0.850328 0.813459
O O4 0.866433 0.722621 0.668088
O O5 0.205402 0.902613 0.281249
O O6 0.415679 0.758814 0.352428
O O7 0.583689 0.111019 0.612644
O O8 0.253374 0.247439 0.714183
O O9 0.063335 0.134360 0.147651
O O10 0.500000 0.500000 0.500000
O O11 0.704922 0.526083 0.496930
O O12 0.840052 0.592058 0.002617
O O13 0.316244 0.631686 0.519014
O O14 0.000000 0.000000 0.500000
O O15 0.602394 0.632209 0.599987
O O16 0.000000 0.500000 0.500000
O O17 0.500000 0.500000 0.000000
O O18 0.084492 0.325898 0.986482
#
# Coordination Sequence:
#
# PCOD8003622 Si02
#       8
#     2   2   2   2   2   2   2   2
#     4  11  21  38  61  95 120 147 200 255 301 339
#     4  10  21  40  65  86 120 164 199 240 298 367
#     4  11  24  39  65  95 123 153 203 260 292 344
#     4  11  23  38  55  78 110 152 197 239 299 369
#     4  11  23  43  65  91 124 167 203 234 291 369
#     4  11  23  37  55  81 115 150 191 246 298 343
#     4   9  21  40  61  84 114 160 205 239 295 367
#     4  10  20  37  60  80 109 153 194 243 296 360
#
# _framework density 20.684191999999999
#
# number of rings (size 3 to 8) (size 9 to 14) (size 15 to 20)
#    0.000    1.500    0.000    7.500    0.000    7.000 
#    0.000    3.750    0.000    0.000    0.000    0.000 
#    0.000    0.000    0.000    0.000    0.000    0.000 
#
# Total GULP energy -198328.675160 kJ/mol
# GULP energy per Si atom -12395.542197 kJ/mol
# Density = 2.063711 g / cm^3
# Si number density = 20.684192 Si / 1000 Ang^3
#
#
#
# Elastic Constant Matrix: (Units=GPa)
#
#
# Indices 1 2 3 4 5 6 
#
# 1 153.4388 21.7702 31.3632 18.3342 -0.3048 0.8155
# 2 21.7702 117.7083 5.8367 -18.2799 -12.6556 17.5994
# 3 31.3632 5.8367 90.1832 9.7839 -8.8450 -8.3546
# 4 18.3342 -18.2799 9.7839 40.2189 6.6855 -8.9161
# 5 -0.3048 -12.6556 -8.8450 6.6855 41.2239 2.3527
# 6 0.8155 17.5994 -8.3546 -8.9161 2.3527 27.2373
#
#
#
# Elastic Compliance Matrix: (Units=1/GPa)
#
#
# Indices 1 2 3 4 5 6 
#
# 1 0.007715 -0.001807 -0.002258 -0.003971 -0.000279 -0.001032
# 2 -0.001807 0.010701 -0.000791 0.004086 0.002782 -0.006005
# 3 -0.002258 -0.000791 0.012737 -0.002067 0.002604 0.003584
# 4 -0.003971 0.004086 -0.002067 0.031503 -0.004759 0.007568
# 5 -0.000279 0.002782 0.002604 -0.004759 0.026717 -0.004856
# 6 -0.001032 -0.006005 0.003584 0.007568 -0.004856 0.044622
#
#
# Mechanical properties :
#
#
# Convention : Reuss Voigt Hill
#
# Bulk Modulus (GPa) = 46.64296 53.25228 49.94762
# Shear Modulus (GPa) = 33.14471 41.89337 37.51904
#
# Velocity S-wave (km/s) = 4.00736 4.50531 4.26361
# Velocity P-wave (km/s) = 6.63408 7.27083 6.95974
#
# Compressibility (1/GPa) = 0.02143946
#
# Stress axis : x y z
#
# Youngs Moduli (GPa) = 129.62266 93.45225 78.51362
#
# Poissons Ratio (x) = 0.16890 0.17729
# Poissons Ratio (y) = 0.23428 0.06209
# Poissons Ratio (z) = 0.29270 0.07390
#
# Static dielectric constant tensor:
#      x y z
#    x 3.653170 0.077420 -0.008140 
#    y 0.077420 3.604320 0.219430 
#    z -0.008140 0.219430 3.634880 
# 
# 
# High freq. dielectric constant tensor:
#      x y z
#    x 1.810110 0.001750 -0.015340 
#    y 0.001750 1.804530 0.005560 
#    z -0.015340 0.005560 1.817830 
# 
# From -- ./inp_files/226048.got.cif
#   From: 2010.06.25/outbox.cif.g09.slc.cpg/sg2_114_cif.got.tgz:226048.got - 2010.06.27 13:26:56.
