data_PCOD8003851
_publ_section_title
;
Structure prediction by ZEFSAII (Michael W. Deem and Ramdas Pophale) SiO2 
 PCOD8003851
Probable space group: P -1
;
_chemical_formula_sum "Si O2"
_cell_formula_units_Z 16
_cell_length_a 20.191366
_cell_length_b 9.742288
_cell_length_c 6.826146
_cell_angle_alpha 48.712833
_cell_angle_beta 84.907678
_cell_angle_gamma 111.060572
_cell_volume 833.722620
_symmetry_space_group_name_H-M "P -1"
_symmetry_group_IT_number 2
_symmetry_cell_setting 'triclinic'
loop_
_space_group_symop_operation_xyz
x,y,z
-x,-y,-z
loop_
_atom_site_type_symbol
_atom_site_label
_atom_site_fract_x
_atom_site_fract_y
_atom_site_fract_z
Si Si1 0.056677 0.936534 0.636876
Si Si2 0.655624 0.454019 0.741391
Si Si3 0.909944 0.186839 0.654756
Si Si4 0.433153 0.010562 0.618847
Si Si5 0.945571 0.635426 0.279893
Si Si6 0.162448 0.213431 0.693217
Si Si7 0.451508 0.583029 0.536186
Si Si8 0.405636 0.338397 0.151704
O O1 0.096446 0.875187 0.513856
O O2 0.128029 0.137622 0.554388
O O3 0.000000 0.000000 0.500000
O O4 0.003343 0.730198 0.987398
O O5 0.747339 0.581347 0.536266
O O6 0.601444 0.381588 0.631399
O O7 0.642809 0.614204 0.725609
O O8 0.634726 0.233796 0.063577
O O9 0.891627 0.372389 0.517498
O O10 0.000148 0.282599 0.615819
O O11 0.843489 0.981243 0.995908
O O12 0.500000 0.000000 0.500000
O O13 0.479993 0.179474 0.622835
O O14 0.387476 0.094085 0.417560
O O15 0.887851 0.719152 0.229802
O O16 0.500000 0.500000 0.500000
O O17 0.389825 0.395640 0.885571
O O18 0.500000 0.500000 0.000000
#
# Coordination Sequence:
#
# PCOD8003851 Si02
#       8
#     2   2   2   2   2   2   2   2
#     4  11  18  38  68  84 116 166 199 239 293 358
#     4  12  24  39  62  93 125 161 201 259 318 356
#     4  10  20  38  64  87 120 159 206 237 293 358
#     4  11  20  40  67  89 115 156 211 256 299 365
#     4  10  20  37  61  93 115 157 206 247 279 362
#     4  11  24  38  58  89 130 155 194 257 307 346
#     4  11  20  40  68  86 114 160 207 250 305 370
#     4  10  20  39  61  88 120 150 203 259 298 360
#
# _framework density 19.191033999999998
#
# number of rings (size 3 to 8) (size 9 to 14) (size 15 to 20)
#    0.000    1.250    7.500    1.500    0.000    2.000 
#    0.000    0.000    5.500    0.000    0.000    0.000 
#    0.000    0.000    0.000    0.000    0.000    0.000 
#
# Total GULP energy -198378.692780 kJ/mol
# GULP energy per Si atom -12398.668299 kJ/mol
# Density = 1.914735 g / cm^3
# Si number density = 19.191034 Si / 1000 Ang^3
#
#
#
# Elastic Constant Matrix: (Units=GPa)
#
#
# Indices 1 2 3 4 5 6 
#
# 1 33.2159 19.7408 20.0123 -10.9236 -3.6186 -1.5979
# 2 19.7408 94.6127 41.6717 -4.2312 -6.6277 -13.2892
# 3 20.0123 41.6717 113.5567 -15.2998 5.0113 -2.2249
# 4 -10.9236 -4.2312 -15.2998 42.3789 -3.6355 2.6994
# 5 -3.6186 -6.6277 5.0113 -3.6355 32.1361 -6.2995
# 6 -1.5979 -13.2892 -2.2249 2.6994 -6.2995 24.3046
#
#
#
# Elastic Compliance Matrix: (Units=1/GPa)
#
#
# Indices 1 2 3 4 5 6 
#
# 1 0.039194 -0.005902 -0.003803 0.008584 0.004612 -0.000756
# 2 -0.005902 0.015518 -0.004950 -0.001922 0.004878 0.009122
# 3 -0.003803 -0.004950 0.011748 0.002657 -0.003590 -0.003107
# 4 0.008584 -0.001922 0.002657 0.026971 0.002710 -0.002536
# 5 0.004612 0.004878 -0.003590 0.002710 0.035787 0.011617
# 6 -0.000756 0.009122 -0.003107 -0.002536 0.011617 0.049090
#
#
# Mechanical properties :
#
#
# Convention : Reuss Voigt Hill
#
# Bulk Modulus (GPa) = 26.91763 44.91500 35.91631
# Shear Modulus (GPa) = 22.72704 30.42794 26.57749
#
# Velocity S-wave (km/s) = 3.44503 3.98619 3.72545
# Velocity P-wave (km/s) = 5.46634 6.68141 6.10419
#
# Compressibility (1/GPa) = 0.03715038
#
# Stress axis : x y z
#
# Youngs Moduli (GPa) = 25.51394 64.44097 85.11792
#
# Poissons Ratio (x) = 0.38033 0.32372
# Poissons Ratio (y) = 0.15058 0.42133
# Poissons Ratio (z) = 0.09703 0.31898
#
# Static dielectric constant tensor:
#      x y z
#    x 3.237650 -0.327840 0.053970 
#    y -0.327840 2.841500 -0.543920 
#    z 0.053970 -0.543920 3.217870 
# 
# 
# High freq. dielectric constant tensor:
#      x y z
#    x 1.721000 -0.019530 0.015090 
#    y -0.019530 1.746460 0.005210 
#    z 0.015090 0.005210 1.759020 
# 
# From -- ./inp_files/115909.got.cif
#   From: 2010.06.25/outbox.cif.g09.slc.cpg/sg2_58_cif.got.tgz:115909.got - 2010.06.27 13:26:56.
