data_PCOD8003064
_publ_section_title
;
Structure prediction by ZEFSAII (Michael W. Deem and Ramdas Pophale) SiO2 
 PCOD8003064
Probable space group: P -1
;
_chemical_formula_sum "Si O2"
_cell_formula_units_Z 16
_cell_length_a 19.196814
_cell_length_b 12.483597
_cell_length_c 26.674297
_cell_angle_alpha 152.968508
_cell_angle_beta 163.114301
_cell_angle_gamma 27.214055
_cell_volume 810.122708
_symmetry_space_group_name_H-M "P -1"
_symmetry_group_IT_number 2
_symmetry_cell_setting 'triclinic'
loop_
_space_group_symop_operation_xyz
x,y,z
-x,-y,-z
loop_
_atom_site_type_symbol
_atom_site_label
_atom_site_fract_x
_atom_site_fract_y
_atom_site_fract_z
Si Si1 0.567840 0.903508 0.451495
Si Si2 0.009949 0.584625 0.442293
Si Si3 0.906582 0.448783 0.993989
Si Si4 0.051359 0.842340 0.200918
Si Si5 0.646973 0.347164 0.146533
Si Si6 0.962976 0.039012 0.931876
Si Si7 0.586530 0.242391 0.171237
Si Si8 0.259715 0.526170 0.879190
O O1 0.752260 0.636136 0.472213
O O2 0.328807 0.906885 0.256093
O O3 0.500000 0.000000 0.500000
O O4 0.702067 0.074942 0.584676
O O5 0.128798 0.812357 0.631610
O O6 0.778385 0.555722 0.305007
O O7 0.930899 0.590682 0.331614
O O8 0.930526 0.276637 0.890691
O O9 0.033385 0.280105 0.058753
O O10 0.614013 0.579721 0.856283
O O11 0.044084 0.656695 0.163809
O O12 0.807870 0.074222 0.129596
O O13 0.598196 0.384399 0.186896
O O14 0.370802 0.384269 0.947398
O O15 0.120313 0.807260 0.912274
O O16 0.000000 0.000000 0.000000
O O17 0.500000 0.000000 0.000000
O O18 0.500000 0.500000 0.000000
#
# Coordination Sequence:
#
# PCOD8003064 Si02
#       8
#     2   2   2   2   2   2   2   2
#     4  11  18  37  64  90 116 154 216 251 287 364
#     4  10  20  36  62  87 118 161 206 248 294 362
#     4  11  21  38  61  89 123 160 201 247 309 358
#     4  10  21  38  66  91 117 160 208 249 296 366
#     4  10  21  39  61  92 123 153 199 254 305 358
#     4  12  23  38  63  95 123 157 202 254 309 354
#     4  12  22  37  57  90 123 154 198 252 308 355
#     4  10  21  38  61  90 123 156 200 247 299 363
#
# _framework density 19.750094000000001
#
# number of rings (size 3 to 8) (size 9 to 14) (size 15 to 20)
#    0.000    1.250    5.000    2.625    0.000    0.000 
#    2.250    1.250    0.000    4.500    0.000    0.000 
#    0.000    0.000    0.000    0.000    0.000    0.000 
#
# Total GULP energy -198235.523235 kJ/mol
# GULP energy per Si atom -12389.720202 kJ/mol
# Density = 1.970514 g / cm^3
# Si number density = 19.750094 Si / 1000 Ang^3
#
#
#
# Elastic Constant Matrix: (Units=GPa)
#
#
# Indices 1 2 3 4 5 6 
#
# 1 95.6173 25.8209 46.1845 -4.8567 1.0280 8.1780
# 2 25.8209 72.5013 46.2162 -4.3696 8.3199 7.2157
# 3 46.1845 46.2162 144.1885 -5.7630 -7.0485 17.2288
# 4 -4.8567 -4.3696 -5.7630 31.8156 7.7809 0.5012
# 5 1.0280 8.3199 -7.0485 7.7809 31.7895 -1.2191
# 6 8.1780 7.2157 17.2288 0.5012 -1.2191 33.5475
#
#
#
# Elastic Compliance Matrix: (Units=1/GPa)
#
#
# Indices 1 2 3 4 5 6 
#
# 1 0.012790 -0.002186 -0.003267 0.001302 -0.000924 -0.001023
# 2 -0.002186 0.019191 -0.005546 0.003016 -0.006960 -0.001045
# 3 -0.003267 -0.005546 0.010312 -0.000269 0.003788 -0.003165
# 4 0.001302 0.003016 -0.000269 0.034309 -0.009353 -0.001681
# 5 -0.000924 -0.006960 0.003788 -0.009353 0.036485 0.001242
# 6 -0.001023 -0.001045 -0.003165 -0.001681 0.001242 0.031978
#
#
# Mechanical properties :
#
#
# Convention : Reuss Voigt Hill
#
# Bulk Modulus (GPa) = 49.27268 60.97226 55.12247
# Shear Modulus (GPa) = 28.76385 32.36956 30.56670
#
# Velocity S-wave (km/s) = 3.82041 4.05280 3.93832
# Velocity P-wave (km/s) = 6.66805 7.26905 6.97503
#
# Compressibility (1/GPa) = 0.02029522
#
# Stress axis : x y z
#
# Youngs Moduli (GPa) = 78.18413 52.10735 96.97491
#
# Poissons Ratio (x) = 0.11393 0.31681
# Poissons Ratio (y) = 0.17094 0.53780
# Poissons Ratio (z) = 0.25542 0.28898
#
# Static dielectric constant tensor:
#      x y z
#    x 3.921920 0.146630 -0.034160 
#    y 0.146630 3.865820 -0.219910 
#    z -0.034160 -0.219910 4.488390 
# 
# 
# High freq. dielectric constant tensor:
#      x y z
#    x 1.779190 -0.016180 0.002040 
#    y -0.016180 1.759780 0.001640 
#    z 0.002040 0.001640 1.762930 
# 
# From -- ./inp_files/494798.got.cif
#   From: 2010.06.25/outbox.cif.g09.slc.cpg/sg2_248_cif.got.tgz:494798.got - 2010.06.27 13:26:56.
