data_PCOD8003373
_publ_section_title
;
Structure prediction by ZEFSAII (Michael W. Deem and Ramdas Pophale) SiO2 
 PCOD8003373
Probable space group: P -1
;
_chemical_formula_sum "Si O2"
_cell_formula_units_Z 16
_cell_length_a 8.227528
_cell_length_b 27.697019
_cell_length_c 6.658093
_cell_angle_alpha 58.574222
_cell_angle_beta 97.029343
_cell_angle_gamma 136.268617
_cell_volume 807.490720
_symmetry_space_group_name_H-M "P -1"
_symmetry_group_IT_number 2
_symmetry_cell_setting 'triclinic'
loop_
_space_group_symop_operation_xyz
x,y,z
-x,-y,-z
loop_
_atom_site_type_symbol
_atom_site_label
_atom_site_fract_x
_atom_site_fract_y
_atom_site_fract_z
Si Si1 0.868591 0.285833 0.448017
Si Si2 0.933273 0.803281 0.722372
Si Si3 0.377555 0.692204 0.894633
Si Si4 0.686132 0.053083 0.224722
Si Si5 0.833947 0.481076 0.834592
Si Si6 0.954929 0.358749 0.710192
Si Si7 0.724284 0.627440 0.993228
Si Si8 0.375212 0.893274 0.287128
O O1 0.771283 0.321492 0.289140
O O2 0.903090 0.297423 0.666748
O O3 0.657408 0.182822 0.565026
O O4 0.147335 0.346017 0.263555
O O5 0.680919 0.773955 0.702964
O O6 0.842890 0.714469 0.932866
O O7 0.034268 0.856603 0.834242
O O8 0.138325 0.860661 0.444113
O O9 0.272510 0.601225 0.125435
O O10 0.304864 0.709893 0.041414
O O11 0.500000 0.000000 0.500000
O O12 0.646025 0.982529 0.250557
O O13 0.612345 0.082024 0.992828
O O14 0.001558 0.566877 0.532441
O O15 0.582815 0.450670 0.931364
O O16 0.000000 0.500000 0.000000
O O17 0.203884 0.406332 0.778743
#
# Coordination Sequence:
#
# PCOD8003373 Si02
#       8
#     2   2   2   2   2   2   2   2
#     4  10  20  37  55  81 110 145 182 225 274 327
#     4   9  18  35  56  81 109 142 182 227 268 322
#     4  10  22  38  54  80 112 142 186 230 272 330
#     4   9  17  32  56  85 109 137 178 222 269 321
#     4  11  21  40  56  79 111 147 184 236 280 320
#     4  11  21  37  57  78 109 152 185 227 280 322
#     4   9  21  37  56  81 109 142 193 230 265 330
#     4   9  18  33  58  82 108 140 179 225 267 323
#
# _framework density 19.81447
#
# number of rings (size 3 to 8) (size 9 to 14) (size 15 to 20)
#    0.000    2.250    1.250    1.500    0.000    2.500 
#    9.000    0.625    0.000    7.500    0.000    0.000 
#    0.000    0.000    0.000    0.000    0.000    0.000 
#
# Total GULP energy -198234.241615 kJ/mol
# GULP energy per Si atom -12389.640101 kJ/mol
# Density = 1.976937 g / cm^3
# Si number density = 19.814470 Si / 1000 Ang^3
#
#
#
# Elastic Constant Matrix: (Units=GPa)
#
#
# Indices 1 2 3 4 5 6 
#
# 1 92.2706 28.7927 28.5329 8.8524 -2.6293 8.3640
# 2 28.7927 78.9372 19.7697 11.3417 -9.5565 -1.1530
# 3 28.5329 19.7697 88.1556 12.9907 3.7696 2.0013
# 4 8.8524 11.3417 12.9907 30.1198 -5.6109 1.1298
# 5 -2.6293 -9.5565 3.7696 -5.6109 25.4977 1.2430
# 6 8.3640 -1.1530 2.0013 1.1298 1.2430 27.9266
#
#
#
# Elastic Compliance Matrix: (Units=1/GPa)
#
#
# Indices 1 2 3 4 5 6 
#
# 1 0.013559 -0.004012 -0.003293 -0.000832 0.000392 -0.003974
# 2 -0.004012 0.015709 -0.002041 -0.002990 0.005025 0.001894
# 3 -0.003293 -0.002041 0.013781 -0.005012 -0.004260 0.000307
# 4 -0.000832 -0.002990 -0.005012 0.038282 0.008028 -0.001421
# 5 0.000392 0.005025 -0.004260 0.008028 0.043631 -0.001871
# 6 -0.003974 0.001894 0.000307 -0.001421 -0.001871 0.037195
#
#
# Mechanical properties :
#
#
# Convention : Reuss Voigt Hill
#
# Bulk Modulus (GPa) = 41.05748 45.95045 43.50397
# Shear Modulus (GPa) = 26.45946 28.86005 27.65975
#
# Velocity S-wave (km/s) = 3.65822 3.82057 3.74028
# Velocity P-wave (km/s) = 6.21365 6.53476 6.37622
#
# Compressibility (1/GPa) = 0.02435610
#
# Stress axis : x y z
#
# Youngs Moduli (GPa) = 73.75099 63.65885 72.56386
#
# Poissons Ratio (x) = 0.25541 0.23894
# Poissons Ratio (y) = 0.29590 0.14814
# Poissons Ratio (z) = 0.24285 0.12996
#
# Static dielectric constant tensor:
#      x y z
#    x 3.525540 -0.121760 0.006060 
#    y -0.121760 3.905700 -0.051040 
#    z 0.006060 -0.051040 3.591410 
# 
# 
# High freq. dielectric constant tensor:
#      x y z
#    x 1.751420 -0.013410 0.001960 
#    y -0.013410 1.774470 0.001430 
#    z 0.001960 0.001430 1.773190 
# 
# From -- ./inp_files/44332.got.cif
#   From: 2010.06.25/outbox.cif.g09.slc.cpg/sg2_23_cif.got.tgz:44332.got - 2010.06.27 13:26:56.
