data_PCOD8003137
_publ_section_title
;
Structure prediction by ZEFSAII (Michael W. Deem and Ramdas Pophale) SiO2 
 PCOD8003137
Probable space group: P -1
;
_chemical_formula_sum "Si O2"
_cell_formula_units_Z 10
_cell_length_a 8.791530
_cell_length_b 9.106689
_cell_length_c 10.795471
_cell_angle_alpha 37.670253
_cell_angle_beta 117.820075
_cell_angle_gamma 128.283427
_cell_volume 414.099353
_symmetry_space_group_name_H-M "P -1"
_symmetry_group_IT_number 2
_symmetry_cell_setting 'triclinic'
loop_
_space_group_symop_operation_xyz
x,y,z
-x,-y,-z
loop_
_atom_site_type_symbol
_atom_site_label
_atom_site_fract_x
_atom_site_fract_y
_atom_site_fract_z
Si Si1 0.076575 0.337235 0.428370
Si Si2 0.665782 0.927990 0.650129
Si Si3 0.788300 0.542322 0.880432
Si Si4 0.176232 0.927329 0.122786
Si Si5 0.807540 0.056286 0.151754
O O1 0.112836 0.372536 0.273459
O O2 0.110801 0.609150 0.330010
O O3 0.858060 0.123668 0.518288
O O4 0.221508 0.220973 0.610941
O O5 0.685080 0.928312 0.805533
O O6 0.500000 0.000000 0.500000
O O7 0.616741 0.623305 0.787767
O O8 0.963029 0.721000 0.923356
O O9 0.709117 0.216378 0.083701
O O10 0.286562 0.017611 0.972217
O O11 0.000000 0.000000 0.000000
#
# Coordination Sequence:
#
# PCOD8003137 Si02
#       5
#     2   2   2   2   2
#     4  10  20  36  63  83 108 154 197 223 271 344
#     4  11  22  37  57  88 122 143 176 245 297 318
#     4   9  18  34  59  83 109 150 195 226 266 343
#     4  11  20  35  61  85 111 148 198 229 270 337
#     4   9  17  32  58  82 107 141 201 226 261 321
#
# _framework density 24.148793999999999
#
# number of rings (size 3 to 8) (size 9 to 14) (size 15 to 20)
#    0.000    2.000    4.000    3.000    0.000    0.000 
#    0.000    5.000    0.000    6.000    0.000    0.000 
#    0.000    0.000    0.000    0.000    0.000    0.000 
#
# Total GULP energy -123887.847751 kJ/mol
# GULP energy per Si atom -12388.784775 kJ/mol
# Density = 2.409383 g / cm^3
# Si number density = 24.148794 Si / 1000 Ang^3
#
#
#
# Elastic Constant Matrix: (Units=GPa)
#
#
# Indices 1 2 3 4 5 6 
#
# 1 63.1789 39.4640 50.6849 -1.5720 36.8977 -26.3758
# 2 39.4640 88.9675 63.9569 6.9618 23.4595 -35.5753
# 3 50.6849 63.9569 192.6893 -17.5094 56.7204 -23.6789
# 4 -1.5720 6.9618 -17.5094 54.7693 -16.7896 10.9644
# 5 36.8977 23.4595 56.7204 -16.7896 56.0425 -11.0641
# 6 -26.3758 -35.5753 -23.6789 10.9644 -11.0641 27.6525
#
#
#
# Elastic Compliance Matrix: (Units=1/GPa)
#
#
# Indices 1 2 3 4 5 6 
#
# 1 0.056716 0.015756 -0.004164 -0.025640 -0.034113 0.067318
# 2 0.015756 0.043057 -0.008195 -0.025627 -0.014394 0.067806
# 3 -0.004164 -0.008195 0.009342 0.004721 -0.003826 -0.009918
# 4 -0.025640 -0.025627 0.004721 0.041558 0.023331 -0.060526
# 5 -0.034113 -0.014394 -0.003826 0.023331 0.048467 -0.044192
# 6 0.067318 0.067806 -0.009918 -0.060526 -0.044192 0.185431
#
#
# Mechanical properties :
#
#
# Convention : Reuss Voigt Hill
#
# Bulk Modulus (GPa) = 8.62755 72.56079 40.59417
# Shear Modulus (GPa) = 12.00734 40.40821 26.20778
#
# Velocity S-wave (km/s) = 2.23227 4.09504 3.29791
# Velocity P-wave (km/s) = 3.19757 7.24374 5.59894
#
# Compressibility (1/GPa) = 0.11590770
#
# Stress axis : x y z
#
# Youngs Moduli (GPa) = 17.63186 23.22517 107.04910
#
# Poissons Ratio (x) = -0.36592 0.44572
# Poissons Ratio (y) = -0.27780 0.87725
# Poissons Ratio (z) = 0.07341 0.19033
#
# Static dielectric constant tensor:
#      x y z
#    x 4.130760 -0.787930 0.656340 
#    y -0.787930 4.498490 -0.329460 
#    z 0.656340 -0.329460 5.170150 
# 
# 
# High freq. dielectric constant tensor:
#      x y z
#    x 1.917650 -0.050520 0.030050 
#    y -0.050520 1.949490 -0.003420 
#    z 0.030050 -0.003420 1.986920 
# 
# From -- ./inp_files/151881.got.cif
#   From: 2010.06.25/outbox.cif.g09.slc.cpg/sg2_76_cif.got.tgz:151881.got - 2010.06.27 13:26:56.
