data_PCOD8003265
_publ_section_title
;
Structure prediction by ZEFSAII (Michael W. Deem and Ramdas Pophale) SiO2 
 PCOD8003265
Probable space group: P -1
;
_chemical_formula_sum "Si O2"
_cell_formula_units_Z 16
_cell_length_a 14.180584
_cell_length_b 23.415440
_cell_length_c 20.877717
_cell_angle_alpha 161.201275
_cell_angle_beta 25.838091
_cell_angle_gamma 159.310270
_cell_volume 782.894718
_symmetry_space_group_name_H-M "P -1"
_symmetry_group_IT_number 2
_symmetry_cell_setting 'triclinic'
loop_
_space_group_symop_operation_xyz
x,y,z
-x,-y,-z
loop_
_atom_site_type_symbol
_atom_site_label
_atom_site_fract_x
_atom_site_fract_y
_atom_site_fract_z
Si Si1 0.641762 0.615000 0.655484
Si Si2 0.858890 0.180949 0.760733
Si Si3 0.966320 0.985965 0.081296
Si Si4 0.925250 0.517714 0.165670
Si Si5 0.222432 0.490970 0.318265
Si Si6 0.619387 0.160585 0.515606
Si Si7 0.433442 0.296362 0.550997
Si Si8 0.109630 0.730815 0.407818
O O1 0.345745 0.499611 0.686512
O O2 0.635306 0.439043 0.520073
O O3 0.830205 0.677817 0.546027
O O4 0.751641 0.832802 0.862851
O O5 0.850804 0.295461 0.822580
O O6 0.141154 0.219116 0.628111
O O7 0.596267 0.927449 0.653748
O O8 0.844162 0.283888 0.944348
O O9 0.754052 0.036089 0.283730
O O10 0.879437 0.745006 0.899420
O O11 0.000000 0.000000 0.000000
O O12 0.049018 0.564981 0.211183
O O13 0.340984 0.666611 0.375858
O O14 0.455536 0.556934 0.296893
O O15 0.000000 0.500000 0.500000
O O16 0.742006 0.291278 0.646728
O O17 0.299869 0.978578 0.526209
#
# Coordination Sequence:
#
# PCOD8003265 Si02
#       8
#     2   2   2   2   2   2   2   2
#     4  10  21  38  58  86 118 158 197 238 291 359
#     4   9  21  36  59  94 110 146 193 251 298 352
#     4  11  21  38  61  95 122 151 195 249 303 349
#     4  10  20  36  65  84 115 153 195 241 303 351
#     4  12  22  35  65  93 119 156 192 247 307 349
#     4  10  23  40  62  87 122 159 199 245 289 358
#     4  10  20  37  58  86 124 143 191 251 298 347
#     4  10  21  41  59  81 123 164 196 238 293 350
#
# _framework density 20.436976000000001
#
# number of rings (size 3 to 8) (size 9 to 14) (size 15 to 20)
#    0.000    1.750    2.500    1.875    3.500    1.000 
#    0.000    6.250   16.500    0.000    0.000    0.000 
#    0.000    0.000    0.000    0.000    0.000    0.000 
#
# Total GULP energy -198314.387689 kJ/mol
# GULP energy per Si atom -12394.649231 kJ/mol
# Density = 2.039046 g / cm^3
# Si number density = 20.436976 Si / 1000 Ang^3
#
#
#
# Elastic Constant Matrix: (Units=GPa)
#
#
# Indices 1 2 3 4 5 6 
#
# 1 81.9531 33.4429 32.5490 4.1864 24.4845 -21.3177
# 2 33.4429 104.3862 34.2242 14.0644 2.3638 -24.2809
# 3 32.5490 34.2242 95.4949 13.3991 12.2293 -15.8343
# 4 4.1864 14.0644 13.3991 28.1244 -6.0230 1.9176
# 5 24.4845 2.3638 12.2293 -6.0230 41.2889 4.5573
# 6 -21.3177 -24.2809 -15.8343 1.9176 4.5573 29.8946
#
#
#
# Elastic Compliance Matrix: (Units=1/GPa)
#
#
# Indices 1 2 3 4 5 6 
#
# 1 0.023020 -0.001680 -0.001450 -0.006482 -0.015962 0.017132
# 2 -0.001680 0.013919 -0.001619 -0.006920 -0.001424 0.009911
# 3 -0.001450 -0.001619 0.014291 -0.007307 -0.005059 0.006460
# 4 -0.006482 -0.006920 -0.007307 0.048136 0.015587 -0.019577
# 5 -0.015962 -0.001424 -0.005059 0.015587 0.040002 -0.022317
# 6 0.017132 0.009911 0.006460 -0.019577 -0.022317 0.061797
#
#
# Mechanical properties :
#
#
# Convention : Reuss Voigt Hill
#
# Bulk Modulus (GPa) = 23.96259 53.58514 38.77387
# Shear Modulus (GPa) = 22.26461 31.96944 27.11703
#
# Velocity S-wave (km/s) = 3.30423 3.95941 3.64656
# Velocity P-wave (km/s) = 5.12911 6.86871 6.06164
#
# Compressibility (1/GPa) = 0.04173171
#
# Stress axis : x y z
#
# Youngs Moduli (GPa) = 43.44094 71.84606 69.97648
#
# Poissons Ratio (x) = 0.12069 0.10145
# Poissons Ratio (y) = 0.07297 0.11330
# Poissons Ratio (z) = 0.06298 0.11632
#
# Static dielectric constant tensor:
#      x y z
#    x 3.739370 -0.117390 0.102510 
#    y -0.117390 3.964350 0.287900 
#    z 0.102510 0.287900 3.775780 
# 
# 
# High freq. dielectric constant tensor:
#      x y z
#    x 1.796440 -0.000300 0.015370 
#    y -0.000300 1.809850 0.015250 
#    z 0.015370 0.015250 1.778040 
# 
# From -- ./inp_files/358788.got.cif
#   From: 2010.06.25/outbox.cif.g09.slc.cpg/sg2_180_cif.got.tgz:358788.got - 2010.06.27 13:26:56.
