data_PCOD8003007
_publ_section_title
;
Structure prediction by ZEFSAII (Michael W. Deem and Ramdas Pophale) SiO2 
 PCOD8003007
Probable space group: P -1
;
_chemical_formula_sum "Si O2"
_cell_formula_units_Z 14
_cell_length_a 14.491634
_cell_length_b 9.016128
_cell_length_c 11.099530
_cell_angle_alpha 113.077789
_cell_angle_beta 39.203547
_cell_angle_gamma 136.288957
_cell_volume 584.617744
_symmetry_space_group_name_H-M "P -1"
_symmetry_group_IT_number 2
_symmetry_cell_setting 'triclinic'
loop_
_space_group_symop_operation_xyz
x,y,z
-x,-y,-z
loop_
_atom_site_type_symbol
_atom_site_label
_atom_site_fract_x
_atom_site_fract_y
_atom_site_fract_z
Si Si1 0.331876 0.818559 0.771808
Si Si2 0.334531 0.233090 0.266958
Si Si3 0.039085 0.119726 0.123459
Si Si4 0.307898 0.121955 0.004425
Si Si5 0.975950 0.750154 0.391846
Si Si6 0.589843 0.731947 0.541405
Si Si7 0.008393 0.570417 0.819269
O O1 0.517631 0.835001 0.576378
O O2 0.229492 0.768557 0.728975
O O3 0.423904 0.063324 0.804519
O O4 0.169970 0.610369 0.961627
O O5 0.483221 0.318485 0.258984
O O6 0.256062 0.357320 0.390206
O O7 0.436918 0.280660 0.045555
O O8 0.132123 0.951264 0.398046
O O9 0.061608 0.327434 0.148632
O O10 0.841780 0.924101 0.346340
O O11 0.259020 0.230967 0.996854
O O12 0.000000 0.000000 0.000000
O O13 0.074162 0.871812 0.199583
O O14 0.962139 0.545838 0.348161
O O15 0.500000 0.500000 0.500000
#
# Coordination Sequence:
#
# PCOD8003007 Si02
#       7
#     2   2   2   2   2   2   2
#     4  10  21  37  61  85 120 157 198 238 290 358
#     4   9  17  36  60  85 116 154 204 235 289 356
#     4  12  22  38  62  91 122 153 196 250 296 347
#     4   9  18  37  61  82 114 162 194 231 296 352
#     4   8  15  33  61  82 109 155 197 236 277 357
#     4  12  24  37  61  93 115 155 204 249 292 350
#     4  10  20  36  61  89 118 156 199 241 296 349
#
# _framework density 23.947272999999999
#
# number of rings (size 3 to 8) (size 9 to 14) (size 15 to 20)
#    0.857    1.143    2.857    1.714    2.000    1.143 
#    0.000    2.857    0.000    3.429    0.000    0.000 
#    0.000    0.000    0.000    0.000    0.000    0.000 
#
# Total GULP energy -173491.739965 kJ/mol
# GULP energy per Si atom -12392.267140 kJ/mol
# Density = 2.389277 g / cm^3
# Si number density = 23.947273 Si / 1000 Ang^3
#
#
#
# Elastic Constant Matrix: (Units=GPa)
#
#
# Indices 1 2 3 4 5 6 
#
# 1 141.6048 43.8906 25.5339 33.9363 2.9579 -8.8296
# 2 43.8906 83.0170 29.4057 52.4377 1.7842 -22.1628
# 3 25.5339 29.4057 61.5485 44.0479 -5.1337 -5.4440
# 4 33.9363 52.4377 44.0479 47.4900 -3.9866 -7.5259
# 5 2.9579 1.7842 -5.1337 -3.9866 35.9682 13.0844
# 6 -8.8296 -22.1628 -5.4440 -7.5259 13.0844 35.7207
#
#
#
# Elastic Compliance Matrix: (Units=1/GPa)
#
#
# Indices 1 2 3 4 5 6 
#
# 1 0.006007 -0.145888 -0.125838 0.266370 0.042981 -0.067832
# 2 -0.145888 -7.700943 -6.763124 14.499587 2.365955 -3.656587
# 3 -0.125838 -6.763124 -5.890131 12.686155 2.080468 -3.214209
# 4 0.266370 14.499587 12.686155-27.228155 -4.455001 6.890731
# 5 0.042981 2.365955 2.080468 -4.455001 -0.694195 1.111317
# 6 -0.067832 -3.656587 -3.214209 6.890731 1.111317 -1.702635
#
#
# Mechanical properties :
#
#
# Convention : Reuss Voigt Hill
#
# Bulk Modulus (GPa) = -0.03616 53.75898 26.86141
# Shear Modulus (GPa) = -0.13035 36.32511 18.09738
#
# Velocity S-wave (km/s) = -0.23356 3.89894 2.75201
# Velocity P-wave (km/s) = 0.29642 6.53962 4.61945
#
# Compressibility (1/GPa) = -27.65476527
#
# Stress axis : x y z
#
# Youngs Moduli (GPa) = 166.48563 -0.12985 -0.16978
#
# Poissons Ratio (x) = -0.01894 -0.02136
# Poissons Ratio (y) = 24.28824 -1.14821
# Poissons Ratio (z) = 20.95014 -0.87822
#
# Static dielectric constant tensor:
#      x y z
#    x 4.079690 -0.057020 -0.049180 
#    y -0.057020 4.079710 0.331040 
#    z -0.049180 0.331040 4.225590 
# 
# 
# High freq. dielectric constant tensor:
#      x y z
#    x 1.934110 -0.005700 0.002070 
#    y -0.005700 1.938090 0.025850 
#    z 0.002070 0.025850 1.939740 
# 
# From -- ./inp_files/444982.got.cif
#   From: 2010.06.25/outbox.cif.g09.slc.cpg/sg2_223_cif.got.tgz:444982.got - 2010.06.27 13:26:56.
