data_PCOD8003882
_publ_section_title
;
Structure prediction by ZEFSAII (Michael W. Deem and Ramdas Pophale) SiO2 
 PCOD8003882
Probable space group: P -1
;
_chemical_formula_sum "Si O2"
_cell_formula_units_Z 12
_cell_length_a 12.735777
_cell_length_b 14.890459
_cell_length_c 14.513184
_cell_angle_alpha 159.760082
_cell_angle_beta 36.697901
_cell_angle_gamma 142.867062
_cell_volume 555.398137
_symmetry_space_group_name_H-M "P -1"
_symmetry_group_IT_number 2
_symmetry_cell_setting 'triclinic'
loop_
_space_group_symop_operation_xyz
x,y,z
-x,-y,-z
loop_
_atom_site_type_symbol
_atom_site_label
_atom_site_fract_x
_atom_site_fract_y
_atom_site_fract_z
Si Si1 0.253396 0.508282 0.112712
Si Si2 0.868326 0.847231 0.521370
Si Si3 0.514691 0.838297 0.120399
Si Si4 0.508225 0.111707 0.203867
Si Si5 0.110918 0.670517 0.894265
Si Si6 0.593789 0.346902 0.668704
O O1 0.266459 0.634298 0.327115
O O2 0.048320 0.359963 0.097350
O O3 0.318335 0.736904 0.209155
O O4 0.389721 0.303436 0.813114
O O5 0.665493 0.757976 0.536140
O O6 0.929292 0.578351 0.247379
O O7 0.875763 0.047261 0.794106
O O8 0.000000 0.000000 0.500000
O O9 0.492184 0.878160 0.065935
O O10 0.615985 0.110647 0.359064
O O11 0.634409 0.618505 0.840908
O O12 0.698429 0.323559 0.285978
O O13 0.500000 0.000000 0.000000
#
# Coordination Sequence:
#
# PCOD8003882 Si02
#       6
#     2   2   2   2   2   2
#     4   9  21  37  63  88 120 147 206 240 306 336
#     4  11  24  40  61  88 113 159 207 247 287 352
#     4  10  20  37  62  85 116 161 199 237 298 347
#     4  10  24  43  59  87 129 160 195 244 303 350
#     4  11  24  38  60  88 121 157 191 251 300 351
#     4   9  21  35  64  88 116 151 198 257 283 352
#
# _framework density 21.606123
#
# number of rings (size 3 to 8) (size 9 to 14) (size 15 to 20)
#    1.000    1.000    0.000    2.500    4.667    6.667 
#    0.000    1.667    0.000    0.000    0.000    0.000 
#    0.000    0.000    0.000    0.000    0.000    0.000 
#
# Total GULP energy -148711.851410 kJ/mol
# GULP energy per Si atom -12392.654284 kJ/mol
# Density = 2.155695 g / cm^3
# Si number density = 21.606123 Si / 1000 Ang^3
#
#
#
# Elastic Constant Matrix: (Units=GPa)
#
#
# Indices 1 2 3 4 5 6 
#
# 1 146.0697 67.9977 15.5728 2.4124 4.1950 11.3766
# 2 67.9977 78.5227 13.8189 1.3649 2.1796 13.0455
# 3 15.5728 13.8189 68.9374 20.6969 8.8705 4.0994
# 4 2.4124 1.3649 20.6969 27.1862 -1.6529 -6.2593
# 5 4.1950 2.1796 8.8705 -1.6529 25.0320 -1.1536
# 6 11.3766 13.0455 4.0994 -6.2593 -1.1536 50.7650
#
#
#
# Elastic Compliance Matrix: (Units=1/GPa)
#
#
# Indices 1 2 3 4 5 6 
#
# 1 0.011516 -0.009856 -0.000414 -0.000286 -0.000947 -0.000071
# 2 -0.009856 0.022185 -0.002341 0.000836 0.000458 -0.003190
# 3 -0.000414 -0.002341 0.021713 -0.017700 -0.008748 -0.003440
# 4 -0.000286 0.000836 -0.017700 0.052699 0.010096 0.008006
# 5 -0.000947 0.000458 -0.008748 0.010096 0.043975 0.003045
# 6 -0.000071 -0.003190 -0.003440 0.008006 0.003045 0.021868
#
#
# Mechanical properties :
#
#
# Convention : Reuss Voigt Hill
#
# Bulk Modulus (GPa) = 33.12148 54.25651 43.68900
# Shear Modulus (GPa) = 23.89579 33.67267 28.78423
#
# Velocity S-wave (km/s) = 3.32923 3.95204 3.65393
# Velocity P-wave (km/s) = 5.49011 6.78166 6.16977
#
# Compressibility (1/GPa) = 0.03019189
#
# Stress axis : x y z
#
# Youngs Moduli (GPa) = 86.83589 45.07519 46.05572
#
# Poissons Ratio (x) = 0.44428 0.01905
# Poissons Ratio (y) = 0.85590 0.10781
# Poissons Ratio (z) = 0.03592 0.10552
#
# Static dielectric constant tensor:
#      x y z
#    x 3.914570 0.123220 -0.108340 
#    y 0.123220 3.986880 -0.049830 
#    z -0.108340 -0.049830 3.667140 
# 
# 
# High freq. dielectric constant tensor:
#      x y z
#    x 1.852360 -0.003570 -0.001790 
#    y -0.003570 1.831180 0.010880 
#    z -0.001790 0.010880 1.827190 
# 
# From -- ./inp_files/31373.got.cif
#   From: 2010.06.25/outbox.cif.g09.slc.cpg/sg2_16_cif.got.tgz:31373.got - 2010.06.27 13:26:56.
