data_PCOD8003698
_publ_section_title
;
Structure prediction by ZEFSAII (Michael W. Deem and Ramdas Pophale) SiO2 
 PCOD8003698
Probable space group: P -1
;
_chemical_formula_sum "Si O2"
_cell_formula_units_Z 14
_cell_length_a 17.089282
_cell_length_b 7.796222
_cell_length_c 6.960089
_cell_angle_alpha 58.627481
_cell_angle_beta 123.905926
_cell_angle_gamma 108.999377
_cell_volume 656.294260
_symmetry_space_group_name_H-M "P -1"
_symmetry_group_IT_number 2
_symmetry_cell_setting 'triclinic'
loop_
_space_group_symop_operation_xyz
x,y,z
-x,-y,-z
loop_
_atom_site_type_symbol
_atom_site_label
_atom_site_fract_x
_atom_site_fract_y
_atom_site_fract_z
Si Si1 0.557062 0.757368 0.353013
Si Si2 0.890258 0.438438 0.871851
Si Si3 0.389620 0.800065 0.805659
Si Si4 0.244070 0.777333 0.926051
Si Si5 0.131551 0.162764 0.558831
Si Si6 0.397668 0.649920 0.477343
Si Si7 0.958277 0.045282 0.117926
O O1 0.502010 0.708847 0.505073
O O2 0.625807 0.581883 0.485689
O O3 0.620069 0.959530 0.364821
O O4 0.484709 0.770814 0.069969
O O5 0.833965 0.605930 0.578521
O O6 0.840921 0.388258 0.041681
O O7 0.884849 0.222476 0.882480
O O8 0.000000 0.500000 0.000000
O O9 0.296938 0.710141 0.844155
O O10 0.396592 0.682710 0.684377
O O11 0.209995 0.003078 0.717920
O O12 0.319096 0.787157 0.198132
O O13 0.042859 0.117248 0.328305
O O14 0.098141 0.144167 0.747398
O O15 0.000000 0.000000 0.000000
#
# Coordination Sequence:
#
# PCOD8003698 Si02
#       7
#     2   2   2   2   2   2   2
#     4   9  20  37  62  87 119 158 195 243 294 356
#     4   9  19  38  60  78 112 157 193 240 295 341
#     4  10  20  37  61  87 121 156 196 246 298 347
#     4  10  22  35  56  87 119 152 197 249 295 350
#     4   9  19  36  55  75 115 147 179 245 292 335
#     4  10  20  37  60  89 122 154 200 241 292 366
#     4   9  18  34  58  82 104 141 195 238 287 350
#
# _framework density 21.331894999999999
#
# number of rings (size 3 to 8) (size 9 to 14) (size 15 to 20)
#    0.000    2.571    0.000    1.714    2.000    2.857 
#    0.000    2.857    3.143    0.000    0.000    0.000 
#    0.000    0.000    0.000    0.000    0.000    0.000 
#
# Total GULP energy -173443.217816 kJ/mol
# GULP energy per Si atom -12388.801273 kJ/mol
# Density = 2.128334 g / cm^3
# Si number density = 21.331895 Si / 1000 Ang^3
#
#
#
# Elastic Constant Matrix: (Units=GPa)
#
#
# Indices 1 2 3 4 5 6 
#
# 1 133.1172 52.2037 55.0055 -2.6226 -31.1676 -11.3868
# 2 52.2037 90.7891 44.9775 -31.3983 -18.0968 -12.1494
# 3 55.0055 44.9775 87.3923 -24.8798 -22.2697 -21.7571
# 4 -2.6226 -31.3983 -24.8798 42.1279 -10.5883 0.3694
# 5 -31.1676 -18.0968 -22.2697 -10.5883 47.7589 0.4215
# 6 -11.3868 -12.1494 -21.7571 0.3694 0.4215 30.0563
#
#
#
# Elastic Compliance Matrix: (Units=1/GPa)
#
#
# Indices 1 2 3 4 5 6 
#
# 1 0.013274 -0.007347 -0.008213 -0.009471 -0.000017 -0.003769
# 2 -0.007347 0.024958 0.003586 0.023034 0.011358 0.009459
# 3 -0.008213 0.003586 0.030326 0.023724 0.015225 0.019785
# 4 -0.009471 0.023034 0.023724 0.060901 0.026919 0.021770
# 5 -0.000017 0.011358 0.015225 0.026919 0.038168 0.014739
# 6 -0.003769 0.009459 0.019785 0.021770 0.014739 0.049514
#
#
# Mechanical properties :
#
#
# Convention : Reuss Voigt Hill
#
# Bulk Modulus (GPa) = 22.41663 68.40801 45.41232
# Shear Modulus (GPa) = 19.53438 34.59608 27.06523
#
# Velocity S-wave (km/s) = 3.02940 4.03153 3.56584
# Velocity P-wave (km/s) = 4.77154 7.33546 6.18775
#
# Compressibility (1/GPa) = 0.04460974
#
# Stress axis : x y z
#
# Youngs Moduli (GPa) = 75.33546 40.06673 32.97532
#
# Poissons Ratio (x) = 0.29438 0.27081
# Poissons Ratio (y) = 0.55352 -0.11824
# Poissons Ratio (z) = 0.61870 -0.14367
#
# Static dielectric constant tensor:
#      x y z
#    x 4.029700 -0.018360 -0.130310 
#    y -0.018360 3.941280 -0.838960 
#    z -0.130310 -0.838960 4.124310 
# 
# 
# High freq. dielectric constant tensor:
#      x y z
#    x 1.851370 -0.006610 -0.006870 
#    y -0.006610 1.807470 -0.040450 
#    z -0.006870 -0.040450 1.828520 
# 
# From -- ./inp_files/106387.got.cif
#   From: 2010.06.25/outbox.cif.g09.slc.cpg/sg2_54_cif.got.tgz:106387.got - 2010.06.27 13:26:56.
