data_PCOD8003279
_publ_section_title
;
Structure prediction by ZEFSAII (Michael W. Deem and Ramdas Pophale) SiO2 
 PCOD8003279
Probable space group: P -1
;
_chemical_formula_sum "Si O2"
_cell_formula_units_Z 16
_cell_length_a 10.798541
_cell_length_b 10.501083
_cell_length_c 15.381622
_cell_angle_alpha 86.759485
_cell_angle_beta 118.969953
_cell_angle_gamma 142.346030
_cell_volume 737.435690
_symmetry_space_group_name_H-M "P -1"
_symmetry_group_IT_number 2
_symmetry_cell_setting 'triclinic'
loop_
_space_group_symop_operation_xyz
x,y,z
-x,-y,-z
loop_
_atom_site_type_symbol
_atom_site_label
_atom_site_fract_x
_atom_site_fract_y
_atom_site_fract_z
Si Si1 0.561319 0.446796 0.946435
Si Si2 0.237208 0.450162 0.372290
Si Si3 0.768681 0.734878 0.480040
Si Si4 0.411612 0.361947 0.212840
Si Si5 0.109574 0.909098 0.891353
Si Si6 0.267298 0.720760 0.468741
Si Si7 0.885215 0.266410 0.944811
Si Si8 0.604453 0.241753 0.297796
O O1 0.463672 0.442497 0.825210
O O2 0.369435 0.171671 0.912967
O O3 0.500000 0.500000 0.000000
O O4 0.881292 0.635460 0.034242
O O5 0.575823 0.675670 0.476648
O O6 0.075996 0.242969 0.402486
O O7 0.222520 0.585095 0.383069
O O8 0.107244 0.332182 0.238066
O O9 0.580331 0.509916 0.354671
O O10 0.000000 0.000000 0.500000
O O11 0.447784 0.243128 0.203192
O O12 0.065630 0.115667 0.117750
O O13 0.208113 0.877584 0.992443
O O14 0.408062 0.773700 0.601752
O O15 0.945168 0.524042 0.379244
O O16 0.500000 0.000000 0.500000
O O17 0.580255 0.024774 0.794255
O O18 0.000000 0.500000 0.000000
#
# Coordination Sequence:
#
# PCOD8003279 Si02
#       8
#     2   2   2   2   2   2   2   2
#     4  11  23  42  70 101 126 176 222 270 335 392
#     4  10  22  40  61  97 128 164 223 266 322 398
#     4  10  20  36  65  92 126 172 208 272 332 380
#     4  10  21  41  64  97 130 168 215 278 330 382
#     4  10  23  42  67  99 134 167 217 277 326 397
#     4  11  27  43  66  95 129 181 218 272 326 390
#     4  11  27  46  68  99 137 179 218 272 335 394
#     4  11  25  46  65  94 136 172 222 274 324 394
#
# _framework density 21.696805999999999
#
# number of rings (size 3 to 8) (size 9 to 14) (size 15 to 20)
#    0.000    1.500    1.250    2.250    5.250    5.500 
#    0.000    0.000    0.000    0.000    0.000    0.000 
#    0.000    0.000    0.000    0.000    0.000    0.000 
#
# Total GULP energy -198296.020668 kJ/mol
# GULP energy per Si atom -12393.501292 kJ/mol
# Density = 2.164742 g / cm^3
# Si number density = 21.696806 Si / 1000 Ang^3
#
#
#
# Elastic Constant Matrix: (Units=GPa)
#
#
# Indices 1 2 3 4 5 6 
#
# 1 95.0353 41.3693 22.3707 -5.6380 -4.1733 -3.8757
# 2 41.3693 156.6879 30.4531 1.0621 10.2898 2.2478
# 3 22.3707 30.4531 80.0690 -3.9459 3.2339 1.8743
# 4 -5.6380 1.0621 -3.9459 33.1417 -0.0374 -3.3652
# 5 -4.1733 10.2898 3.2339 -0.0374 22.6733 -3.8855
# 6 -3.8757 2.2478 1.8743 -3.3652 -3.8855 29.2640
#
#
#
# Elastic Compliance Matrix: (Units=1/GPa)
#
#
# Indices 1 2 3 4 5 6 
#
# 1 0.013039 -0.003326 -0.002528 0.002339 0.004796 0.003050
# 2 -0.003326 0.007947 -0.001945 -0.001222 -0.004222 -0.001627
# 3 -0.002528 -0.001945 0.014094 0.001188 -0.001795 -0.001190
# 4 0.002339 -0.001222 0.001188 0.031172 0.001573 0.004121
# 5 0.004796 -0.004222 -0.001795 0.001573 0.048481 0.007692
# 6 0.003050 -0.001627 -0.001190 0.004121 0.007692 0.036272
#
#
# Mechanical properties :
#
#
# Convention : Reuss Voigt Hill
#
# Bulk Modulus (GPa) = 51.32740 57.79760 54.56250
# Shear Modulus (GPa) = 28.88557 32.85576 30.87067
#
# Velocity S-wave (km/s) = 3.65270 3.89564 3.77612
# Velocity P-wave (km/s) = 6.44186 6.85064 6.64939
#
# Compressibility (1/GPa) = 0.01948277
#
# Stress axis : x y z
#
# Youngs Moduli (GPa) = 76.69296 125.83131 70.95159
#
# Poissons Ratio (x) = 0.41850 0.17936
# Poissons Ratio (y) = 0.25507 0.13800
# Poissons Ratio (z) = 0.19387 0.24474
#
# Static dielectric constant tensor:
#      x y z
#    x 4.328700 0.152350 -0.584350 
#    y 0.152350 4.040040 -0.088460 
#    z -0.584350 -0.088460 4.681220 
# 
# 
# High freq. dielectric constant tensor:
#      x y z
#    x 1.850420 0.003470 -0.010250 
#    y 0.003470 1.862630 -0.008090 
#    z -0.010250 -0.008090 1.851280 
# 
# From -- ./inp_files/519687.got.cif
#   From: 2010.06.25/outbox.cif.g09.slc.cpg/sg2_260_cif.got.tgz:519687.got - 2010.06.27 13:26:56.
