data_PCOD8003522
_publ_section_title
;
Structure prediction by ZEFSAII (Michael W. Deem and Ramdas Pophale) SiO2 
 PCOD8003522
Probable space group: P -1
;
_chemical_formula_sum "Si O2"
_cell_formula_units_Z 14
_cell_length_a 15.247589
_cell_length_b 9.003741
_cell_length_c 14.117734
_cell_angle_alpha 113.340161
_cell_angle_beta 28.373308
_cell_angle_gamma 130.522858
_cell_volume 611.936775
_symmetry_space_group_name_H-M "P -1"
_symmetry_group_IT_number 2
_symmetry_cell_setting 'triclinic'
loop_
_space_group_symop_operation_xyz
x,y,z
-x,-y,-z
loop_
_atom_site_type_symbol
_atom_site_label
_atom_site_fract_x
_atom_site_fract_y
_atom_site_fract_z
Si Si1 0.407849 0.087133 0.360286
Si Si2 0.194556 0.656909 0.551412
Si Si3 0.720506 0.170248 0.906512
Si Si4 0.718425 0.831354 0.115573
Si Si5 0.038074 0.152362 0.717045
Si Si6 0.698467 0.475443 0.308908
Si Si7 0.966120 0.229736 0.106162
O O1 0.245377 0.827323 0.467745
O O2 0.615429 0.185811 0.106586
O O3 0.545101 0.217189 0.364252
O O4 0.235497 0.130962 0.497489
O O5 0.417868 0.657086 0.334561
O O6 0.193309 0.733418 0.676571
O O7 0.923310 0.411091 0.723574
O O8 0.860712 0.085915 0.779007
O O9 0.500000 0.000000 0.000000
O O10 0.809694 0.705032 0.021433
O O11 0.774695 0.971665 0.191370
O O12 0.873203 0.991837 0.920734
O O13 0.168881 0.407827 0.685585
O O14 0.500000 0.500000 0.500000
O O15 0.914556 0.612831 0.058185
#
# Coordination Sequence:
#
# PCOD8003522 Si02
#       7
#     2   2   2   2   2   2   2
#     4  11  23  45  69  99 134 168 218 269 328 398
#     4  12  24  40  68  96 127 172 221 273 321 383
#     4  12  29  48  66  93 127 175 234 280 324 377
#     4  10  21  36  63 102 139 169 208 258 326 399
#     4  10  22  44  68  96 137 177 204 267 335 387
#     4   9  20  36  65  98 140 171 201 255 327 401
#     4  10  20  37  59 102 142 171 207 252 325 408
#
# _framework density 22.878177999999998
#
# number of rings (size 3 to 8) (size 9 to 14) (size 15 to 20)
#    0.000    1.429    4.286    0.429    6.000    2.857 
#    0.000    0.714    0.000    0.000    0.000    0.000 
#    0.000    0.000    0.000    0.000    0.000    0.000 
#
# Total GULP energy -173526.297743 kJ/mol
# GULP energy per Si atom -12394.735553 kJ/mol
# Density = 2.282611 g / cm^3
# Si number density = 22.878178 Si / 1000 Ang^3
#
#
#
# Elastic Constant Matrix: (Units=GPa)
#
#
# Indices 1 2 3 4 5 6 
#
# 1 71.2596 22.0628 11.3667 -10.1923 -24.5505 -9.1053
# 2 22.0628 59.7446 29.8104 -17.5254 -9.9089 -10.7007
# 3 11.3667 29.8104 107.1946 -5.2731 -13.6273 -5.9538
# 4 -10.1923 -17.5254 -5.2731 37.6257 2.0194 -4.6593
# 5 -24.5505 -9.9089 -13.6273 2.0194 33.4607 -2.2589
# 6 -9.1053 -10.7007 -5.9538 -4.6593 -2.2589 30.2683
#
#
#
# Elastic Compliance Matrix: (Units=1/GPa)
#
#
# Indices 1 2 3 4 5 6 
#
# 1 0.021980 -0.003415 0.001284 0.004627 0.015869 0.007554
# 2 -0.003415 0.026242 -0.005485 0.011505 0.002956 0.009163
# 3 0.001284 -0.005485 0.011236 -0.000743 0.003995 0.000841
# 4 0.004627 0.011505 -0.000743 0.034165 0.005177 0.010959
# 5 0.015869 0.002956 0.003995 0.005177 0.044443 0.010718
# 6 0.007554 0.009163 0.000841 0.010959 0.010718 0.041202
#
#
# Mechanical properties :
#
#
# Convention : Reuss Voigt Hill
#
# Bulk Modulus (GPa) = 22.61164 40.51985 31.56574
# Shear Modulus (GPa) = 23.89565 31.93486 27.91525
#
# Velocity S-wave (km/s) = 3.23534 3.74018 3.49688
# Velocity P-wave (km/s) = 4.88482 6.03337 5.48922
#
# Compressibility (1/GPa) = 0.04422500
#
# Stress axis : x y z
#
# Youngs Moduli (GPa) = 45.49569 38.10645 88.99841
#
# Poissons Ratio (x) = 0.13014 -0.11424
# Poissons Ratio (y) = 0.15538 0.48816
# Poissons Ratio (z) = -0.05840 0.20902
#
# Static dielectric constant tensor:
#      x y z
#    x 3.869290 -0.166380 -0.101200 
#    y -0.166380 3.979170 0.099630 
#    z -0.101200 0.099630 4.200260 
# 
# 
# High freq. dielectric constant tensor:
#      x y z
#    x 1.872490 -0.031970 -0.003000 
#    y -0.031970 1.875440 0.003900 
#    z -0.003000 0.003900 1.930840 
# 
# From -- ./inp_files/313198.got.cif
#   From: 2010.06.25/outbox.cif.g09.slc.cpg/sg2_157_cif.got.tgz:313198.got - 2010.06.27 13:26:56.
