data_PCOD8003426
_publ_section_title
;
Structure prediction by ZEFSAII (Michael W. Deem and Ramdas Pophale) SiO2 
 PCOD8003426
Probable space group: P -1
;
_chemical_formula_sum "Si O2"
_cell_formula_units_Z 14
_cell_length_a 11.602107
_cell_length_b 17.939614
_cell_length_c 7.011833
_cell_angle_alpha 97.957482
_cell_angle_beta 78.041703
_cell_angle_gamma 39.235304
_cell_volume 790.696337
_symmetry_space_group_name_H-M "P -1"
_symmetry_group_IT_number 2
_symmetry_cell_setting 'triclinic'
loop_
_space_group_symop_operation_xyz
x,y,z
-x,-y,-z
loop_
_atom_site_type_symbol
_atom_site_label
_atom_site_fract_x
_atom_site_fract_y
_atom_site_fract_z
Si Si1 0.115025 0.826763 0.483763
Si Si2 0.102665 0.541880 0.112144
Si Si3 0.310550 0.322072 0.683749
Si Si4 0.405638 0.336268 0.251594
Si Si5 0.685568 0.133889 0.756672
Si Si6 0.629194 0.362806 0.319733
Si Si7 0.251772 0.631775 0.090051
O O1 0.235768 0.827208 0.328476
O O2 0.226472 0.756959 0.622492
O O3 0.126161 0.744318 0.331999
O O4 0.872667 0.975202 0.654844
O O5 0.196999 0.450694 0.233801
O O6 0.150883 0.603676 0.115336
O O7 0.852221 0.661131 0.240083
O O8 0.207598 0.451743 0.854175
O O9 0.365410 0.307806 0.440813
O O10 0.518430 0.188975 0.682788
O O11 0.465028 0.390282 0.300205
O O12 0.589336 0.197284 0.021336
O O13 0.500000 0.500000 0.500000
O O14 0.783059 0.312483 0.084749
O O15 0.500000 0.500000 0.000000
#
# Coordination Sequence:
#
# PCOD8003426 Si02
#       7
#     2   2   2   2   2   2   2
#     4  11  22  37  54  84 113 145 186 227 275 326
#     4  10  21  35  57  84 112 144 183 227 277 326
#     4  10  20  37  57  81 111 147 185 227 271 324
#     4  11  19  34  56  84 111 143 183 229 275 325
#     4  10  22  37  56  79 114 148 186 228 267 329
#     4  12  21  31  57  84 112 140 175 229 283 324
#     4  12  20  36  56  82 114 141 177 230 282 328
#
# _framework density 17.705912000000001
#
# number of rings (size 3 to 8) (size 9 to 14) (size 15 to 20)
#    0.000    1.143    5.714    2.143    0.000    1.714 
#    0.000    0.714    0.000    1.714    0.000    0.000 
#    0.000    0.000    0.000    0.000    0.000    0.000 
#
# Total GULP energy -173657.397699 kJ/mol
# GULP energy per Si atom -12404.099836 kJ/mol
# Density = 1.766561 g / cm^3
# Si number density = 17.705912 Si / 1000 Ang^3
#
#
#
# Elastic Constant Matrix: (Units=GPa)
#
#
# Indices 1 2 3 4 5 6 
#
# 1 113.0796 32.8652 33.2557 13.7409 1.6737 -5.3546
# 2 32.8652 80.8790 36.9619 7.8223 -1.9971 -9.8100
# 3 33.2557 36.9619 109.8603 -6.1091 1.5220 -5.8007
# 4 13.7409 7.8223 -6.1091 30.4597 0.8272 -1.3710
# 5 1.6737 -1.9971 1.5220 0.8272 23.0270 0.8500
# 6 -5.3546 -9.8100 -5.8007 -1.3710 0.8500 25.8073
#
#
#
# Elastic Compliance Matrix: (Units=1/GPa)
#
#
# Indices 1 2 3 4 5 6 
#
# 1 0.011036 -0.002789 -0.002635 -0.004753 -0.000714 0.000409
# 2 -0.002789 0.016621 -0.004755 -0.003818 0.001933 0.004404
# 3 -0.002635 -0.004755 0.011817 0.004840 -0.001198 0.000599
# 4 -0.004753 -0.003818 0.004840 0.037001 -0.001660 0.000670
# 5 -0.000714 0.001933 -0.001198 -0.001660 0.043830 -0.001214
# 6 0.000409 0.004404 0.000599 0.000670 -0.001214 0.040718
#
#
# Mechanical properties :
#
#
# Convention : Reuss Voigt Hill
#
# Bulk Modulus (GPa) = 52.30757 56.66495 54.48626
# Shear Modulus (GPa) = 26.63056 29.24122 27.93589
#
# Velocity S-wave (km/s) = 3.88241 4.06827 3.97643
# Velocity P-wave (km/s) = 7.05011 7.35803 7.20572
#
# Compressibility (1/GPa) = 0.01911769
#
# Stress axis : x y z
#
# Youngs Moduli (GPa) = 90.60946 60.16338 84.62223
#
# Poissons Ratio (x) = 0.16777 0.22302
# Poissons Ratio (y) = 0.25267 0.40235
# Poissons Ratio (z) = 0.23880 0.28605
#
# Static dielectric constant tensor:
#      x y z
#    x 3.292780 -0.139810 0.077660 
#    y -0.139810 3.230580 -0.125680 
#    z 0.077660 -0.125680 3.509490 
# 
# 
# High freq. dielectric constant tensor:
#      x y z
#    x 1.680330 -0.006910 0.007490 
#    y -0.006910 1.671900 -0.012340 
#    z 0.007490 -0.012340 1.698390 
# 
# From -- ./inp_files/65658.got.cif
#   From: 2010.06.25/outbox.cif.g09.slc.cpg/sg2_33_cif.got.tgz:65658.got - 2010.06.27 13:26:56.
