data_PCOD8003273
_publ_section_title
;
Structure prediction by ZEFSAII (Michael W. Deem and Ramdas Pophale) SiO2 
 PCOD8003273
Probable space group: P -1
;
_chemical_formula_sum "Si O2"
_cell_formula_units_Z 14
_cell_length_a 8.814125
_cell_length_b 13.937555
_cell_length_c 18.110416
_cell_angle_alpha 137.841800
_cell_angle_beta 136.171578
_cell_angle_gamma 29.693816
_cell_volume 719.346883
_symmetry_space_group_name_H-M "P -1"
_symmetry_group_IT_number 2
_symmetry_cell_setting 'triclinic'
loop_
_space_group_symop_operation_xyz
x,y,z
-x,-y,-z
loop_
_atom_site_type_symbol
_atom_site_label
_atom_site_fract_x
_atom_site_fract_y
_atom_site_fract_z
Si Si1 0.234072 0.517982 0.078247
Si Si2 0.350931 0.043831 0.894162
Si Si3 0.737444 0.918408 0.692553
Si Si4 0.395388 0.513166 0.680679
Si Si5 0.345721 0.883606 0.074425
Si Si6 0.789063 0.049913 0.522222
Si Si7 0.156159 0.832166 0.671557
O O1 0.426712 0.462267 0.188178
O O2 0.024631 0.751088 0.114095
O O3 0.460157 0.356241 0.999859
O O4 0.000000 0.500000 0.000000
O O5 0.526347 0.058938 0.904928
O O6 0.375644 0.868260 0.778085
O O7 0.500000 0.000000 0.000000
O O8 0.433000 0.975201 0.592697
O O9 0.031443 0.671991 0.673470
O O10 0.851905 0.974231 0.700586
O O11 0.628695 0.064233 0.805937
O O12 0.571040 0.280226 0.607298
O O13 0.378427 0.593399 0.638191
O O14 0.000000 0.000000 0.000000
O O15 0.000000 0.000000 0.500000
O O16 0.029716 0.879539 0.571227
#
# Coordination Sequence:
#
# PCOD8003273 Si02
#       7
#     2   2   2   2   2   2   2
#     4  10  20  36  65  90 127 167 201 258 317 373
#     4  11  21  38  63  93 129 167 209 260 319 375
#     4  10  23  41  64  90 128 169 207 262 312 377
#     4  10  22  42  66  89 128 168 207 256 327 368
#     4  11  20  39  64  94 127 165 212 256 314 378
#     4  12  24  42  67  93 123 166 217 262 314 375
#     4  10  22  41  65  90 127 160 214 253 320 371
#
# _framework density 19.462098000000001
#
# number of rings (size 3 to 8) (size 9 to 14) (size 15 to 20)
#    0.857    0.571    2.857    4.286    2.000    0.571 
#    0.000    4.286    0.000    0.000    0.000    0.000 
#    0.000    0.000    0.000    0.000    0.000    0.000 
#
# Total GULP energy -173482.384536 kJ/mol
# GULP energy per Si atom -12391.598895 kJ/mol
# Density = 1.941780 g / cm^3
# Si number density = 19.462098 Si / 1000 Ang^3
#
#
#
# Elastic Constant Matrix: (Units=GPa)
#
#
# Indices 1 2 3 4 5 6 
#
# 1 92.9872 10.6961 33.4479 -10.7307 -7.6111 -3.5669
# 2 10.6961 79.9121 27.5526 -11.6709 -10.2677 1.8772
# 3 33.4479 27.5526 135.8501 -25.2404 -5.2935 -1.3135
# 4 -10.7307 -11.6709 -25.2404 41.9125 -2.3232 -3.4333
# 5 -7.6111 -10.2677 -5.2935 -2.3232 40.4571 -4.2792
# 6 -3.5669 1.8772 -1.3135 -3.4333 -4.2792 32.4832
#
#
#
# Elastic Compliance Matrix: (Units=1/GPa)
#
#
# Indices 1 2 3 4 5 6 
#
# 1 0.012134 -0.000262 -0.002501 0.001789 0.002174 0.001722
# 2 -0.000262 0.014135 -0.002163 0.002738 0.003391 -0.000197
# 3 -0.002501 -0.002163 0.009266 0.004430 0.000528 0.000763
# 4 0.001789 0.002738 0.004430 0.028250 0.003623 0.003680
# 5 0.002174 0.003391 0.000528 0.003623 0.026683 0.003962
# 6 0.001722 -0.000197 0.000763 0.003680 0.003962 0.031927
#
#
# Mechanical properties :
#
#
# Convention : Reuss Voigt Hill
#
# Bulk Modulus (GPa) = 38.93461 50.23806 44.58633
# Shear Modulus (GPa) = 35.50905 38.77408 37.14156
#
# Velocity S-wave (km/s) = 4.27608 4.46835 4.37327
# Velocity P-wave (km/s) = 6.66548 7.24505 6.96130
#
# Compressibility (1/GPa) = 0.02568409
#
# Stress axis : x y z
#
# Youngs Moduli (GPa) = 82.41116 70.74664 107.91603
#
# Poissons Ratio (x) = 0.01852 0.26986
# Poissons Ratio (y) = 0.02157 0.23347
# Poissons Ratio (z) = 0.20608 0.15305
#
# Static dielectric constant tensor:
#      x y z
#    x 3.199830 0.284640 0.234660 
#    y 0.284640 3.690430 -0.216620 
#    z 0.234660 -0.216620 3.377090 
# 
# 
# High freq. dielectric constant tensor:
#      x y z
#    x 1.742420 -0.005440 0.006040 
#    y -0.005440 1.758770 -0.011900 
#    z 0.006040 -0.011900 1.772360 
# 
# From -- ./inp_files/186135.got.cif
#   From: 2010.06.25/outbox.cif.g09.slc.cpg/sg2_94_cif.got.tgz:186135.got - 2010.06.27 13:26:56.
