data_PCOD8003298
_publ_section_title
;
Structure prediction by ZEFSAII (Michael W. Deem and Ramdas Pophale) SiO2 
 PCOD8003298
Probable space group: P -1
;
_chemical_formula_sum "Si O2"
_cell_formula_units_Z 16
_cell_length_a 14.016479
_cell_length_b 14.060904
_cell_length_c 14.671437
_cell_angle_alpha 140.865725
_cell_angle_beta 139.417281
_cell_angle_gamma 22.027889
_cell_volume 674.408149
_symmetry_space_group_name_H-M "P -1"
_symmetry_group_IT_number 2
_symmetry_cell_setting 'triclinic'
loop_
_space_group_symop_operation_xyz
x,y,z
-x,-y,-z
loop_
_atom_site_type_symbol
_atom_site_label
_atom_site_fract_x
_atom_site_fract_y
_atom_site_fract_z
Si Si1 0.606533 0.580599 0.288148
Si Si2 0.157367 0.169536 0.475825
Si Si3 0.794680 0.452785 0.574667
Si Si4 0.460592 0.491570 0.255666
Si Si5 0.347539 0.991909 0.923793
Si Si6 0.316499 0.344480 0.779602
Si Si7 0.775724 0.811427 0.825949
Si Si8 0.944349 0.189273 0.661559
O O1 0.502150 0.504208 0.189487
O O2 0.595802 0.596968 0.182916
O O3 0.899674 0.361939 0.371500
O O4 0.399769 0.866055 0.396884
O O5 0.249853 0.263260 0.602746
O O6 0.083711 0.202288 0.553666
O O7 0.647288 0.439103 0.411466
O O8 0.689520 0.710645 0.669859
O O9 0.783365 0.438798 0.665225
O O10 0.489319 0.288805 0.133180
O O11 0.181879 0.758200 0.295905
O O12 0.192680 0.070898 0.781905
O O13 0.500000 0.000000 0.000000
O O14 0.187532 0.186967 0.039178
O O15 0.058177 0.612407 0.843955
O O16 0.553463 0.104858 0.840221
O O17 0.000000 0.000000 0.500000
#
# Coordination Sequence:
#
# PCOD8003298 Si02
#       8
#     2   2   2   2   2   2   2   2
#     4  11  22  39  70 103 144 188 242 298 356 414
#     4  10  20  36  66 107 146 182 237 302 355 414
#     4  10  22  42  70 108 142 189 237 299 359 431
#     4  11  25  44  69 106 143 183 245 301 357 424
#     4  12  30  48  72 105 145 190 235 301 362 438
#     4  11  22  43  67 103 144 196 237 291 356 429
#     4  11  27  45  71 105 151 188 240 291 361 429
#     4  12  25  44  77 105 140 186 242 297 366 429
#
# _framework density 23.724505000000001
#
# number of rings (size 3 to 8) (size 9 to 14) (size 15 to 20)
#    0.000    1.000    1.250    5.625    8.750    1.000 
#    0.000    1.250    0.000    0.000    0.000    0.000 
#    0.000    0.000    0.000    0.000    0.000    0.000 
#
# Total GULP energy -198245.599901 kJ/mol
# GULP energy per Si atom -12390.349994 kJ/mol
# Density = 2.367051 g / cm^3
# Si number density = 23.724505 Si / 1000 Ang^3
#
#
#
# Elastic Constant Matrix: (Units=GPa)
#
#
# Indices 1 2 3 4 5 6 
#
# 1 188.9354 50.2288 56.9866 5.2469 -0.1182 9.8201
# 2 50.2288 108.3601 27.4553 1.3555 4.1914 -2.9651
# 3 56.9866 27.4553 99.3511 10.5420 5.6568 -1.9436
# 4 5.2469 1.3555 10.5420 29.0506 1.2149 -4.6963
# 5 -0.1182 4.1914 5.6568 1.2149 31.1489 0.1694
# 6 9.8201 -2.9651 -1.9436 -4.6963 0.1694 36.4376
#
#
#
# Elastic Compliance Matrix: (Units=1/GPa)
#
#
# Indices 1 2 3 4 5 6 
#
# 1 0.007145 -0.002534 -0.003467 -0.000339 0.001024 -0.002365
# 2 -0.002534 0.010874 -0.001537 0.000818 -0.001234 0.001597
# 3 -0.003467 -0.001537 0.013014 -0.003774 -0.002028 0.001026
# 4 -0.000339 0.000818 -0.003774 0.036609 -0.000879 0.004679
# 5 0.001024 -0.001234 -0.002028 -0.000879 0.032681 -0.000750
# 6 -0.002365 0.001597 0.001026 0.004679 -0.000750 0.028873
#
#
# Mechanical properties :
#
#
# Convention : Reuss Voigt Hill
#
# Bulk Modulus (GPa) = 62.66177 73.99863 68.33020
# Shear Modulus (GPa) = 33.42493 36.79248 35.10871
#
# Velocity S-wave (km/s) = 3.75757 3.94232 3.85106
# Velocity P-wave (km/s) = 6.73019 7.20979 6.97411
#
# Compressibility (1/GPa) = 0.01595869
#
# Stress axis : x y z
#
# Youngs Moduli (GPa) = 139.95774 91.96640 76.83750
#
# Poissons Ratio (x) = 0.23301 0.26637
# Poissons Ratio (y) = 0.35461 0.11809
# Poissons Ratio (z) = 0.48519 0.14134
#
# Static dielectric constant tensor:
#      x y z
#    x 5.037310 0.093050 -0.042550 
#    y 0.093050 4.230260 0.009260 
#    z -0.042550 0.009260 4.178870 
# 
# 
# High freq. dielectric constant tensor:
#      x y z
#    x 1.963440 -0.003850 -0.000530 
#    y -0.003850 1.932470 0.007430 
#    z -0.000530 0.007430 1.925160 
# 
# From -- ./inp_files/97825.got.cif
#   From: 2010.06.25/outbox.cif.g09.slc.cpg/sg2_49_cif.got.tgz:97825.got - 2010.06.27 13:26:56.
