data_PCOD8003416
_publ_section_title
;
Structure prediction by ZEFSAII (Michael W. Deem and Ramdas Pophale) SiO2 
 PCOD8003416
Probable space group: P -1
;
_chemical_formula_sum "Si O2"
_cell_formula_units_Z 16
_cell_length_a 11.381897
_cell_length_b 9.814859
_cell_length_c 16.281426
_cell_angle_alpha 49.560079
_cell_angle_beta 32.767043
_cell_angle_gamma 57.849890
_cell_volume 748.818151
_symmetry_space_group_name_H-M "P -1"
_symmetry_group_IT_number 2
_symmetry_cell_setting 'triclinic'
loop_
_space_group_symop_operation_xyz
x,y,z
-x,-y,-z
loop_
_atom_site_type_symbol
_atom_site_label
_atom_site_fract_x
_atom_site_fract_y
_atom_site_fract_z
Si Si1 0.657963 0.226672 0.652198
Si Si2 0.521288 0.845327 0.376562
Si Si3 0.250897 0.998649 0.017460
Si Si4 0.647759 0.583973 0.694410
Si Si5 0.660845 0.222856 0.101892
Si Si6 0.097310 0.763534 0.341227
Si Si7 0.411983 0.566796 0.679687
Si Si8 0.099692 0.302991 0.889513
O O1 0.672547 0.149112 0.581284
O O2 0.870455 0.200717 0.593616
O O3 0.607789 0.436940 0.591083
O O4 0.463980 0.124791 0.856751
O O5 0.432756 0.757505 0.546432
O O6 0.709797 0.722110 0.279040
O O7 0.613670 0.047119 0.255632
O O8 0.154164 0.936988 0.185457
O O9 0.307628 0.831399 0.990399
O O10 0.072706 0.121274 0.030544
O O11 0.545865 0.649198 0.815299
O O12 0.737194 0.386151 0.728128
O O13 0.444412 0.600774 0.744352
O O14 0.846291 0.711548 0.495700
O O15 0.875613 0.333052 0.963039
O O16 0.175648 0.474442 0.833768
#
# Coordination Sequence:
#
# PCOD8003416 Si02
#       8
#     2   2   2   2   2   2   2   2
#     4   8  16  33  56  82 101 138 183 228 252 313
#     4   9  17  33  57  84 109 139 177 219 274 321
#     4   9  18  34  59  80 105 141 182 217 269 323
#     4  10  23  36  51  80 112 144 178 227 263 316
#     4  10  21  35  53  82 117 136 175 227 272 315
#     4  10  20  37  57  75 105 148 189 214 263 321
#     4   9  18  33  55  80 112 140 180 216 268 323
#     4   9  18  33  55  84 105 143 174 224 266 323
#
# _framework density 21.367003
#
# number of rings (size 3 to 8) (size 9 to 14) (size 15 to 20)
#    0.000    3.250    0.000    3.375    3.500    1.500 
#    2.250    2.500    2.750    0.000    0.000    0.000 
#    0.000    0.000    0.000    0.000    0.000    0.000 
#
# Total GULP energy -198250.087254 kJ/mol
# GULP energy per Si atom -12390.630453 kJ/mol
# Density = 2.131837 g / cm^3
# Si number density = 21.367003 Si / 1000 Ang^3
#
#
#
# Elastic Constant Matrix: (Units=GPa)
#
#
# Indices 1 2 3 4 5 6 
#
# 1 75.9195 15.5508 23.0612 -0.2948 -11.3103 3.9620
# 2 15.5508 22.5647 16.6248 8.4516 -7.4127 -2.5892
# 3 23.0612 16.6248 46.9295 -9.9609 0.5410 -3.3198
# 4 -0.2948 8.4516 -9.9609 23.8720 -1.6675 1.3766
# 5 -11.3103 -7.4127 0.5410 -1.6675 31.3546 -9.8753
# 6 3.9620 -2.5892 -3.3198 1.3766 -9.8753 13.7120
#
#
#
# Elastic Compliance Matrix: (Units=1/GPa)
#
#
# Indices 1 2 3 4 5 6 
#
# 1 0.017292 -0.007589 -0.006077 0.000902 0.002690 -0.006054
# 2 -0.007589 0.143041 -0.059620 -0.075616 0.045435 0.055082
# 3 -0.006077 -0.059620 0.053695 0.042929 -0.019642 -0.014957
# 4 0.000902 -0.075616 0.042929 0.086676 -0.022930 -0.029361
# 5 0.002690 0.045435 -0.019642 -0.022930 0.057438 0.046715
# 6 -0.006054 0.055082 -0.014957 -0.029361 0.046715 0.118049
#
#
# Mechanical properties :
#
#
# Convention : Reuss Voigt Hill
#
# Bulk Modulus (GPa) = 14.82433 28.43194 21.62813
# Shear Modulus (GPa) = 7.74893 19.79951 13.77422
#
# Velocity S-wave (km/s) = 1.90643 3.04738 2.54175
# Velocity P-wave (km/s) = 3.43496 5.07123 4.33107
#
# Compressibility (1/GPa) = 0.06745665
#
# Stress axis : x y z
#
# Youngs Moduli (GPa) = 57.82883 6.99099 18.62355
#
# Poissons Ratio (x) = 0.05305 0.11318
# Poissons Ratio (y) = 0.43885 1.11034
# Poissons Ratio (z) = 0.35143 0.41681
#
# Static dielectric constant tensor:
#      x y z
#    x 3.926700 0.151580 -0.182170 
#    y 0.151580 3.523940 -0.192330 
#    z -0.182170 -0.192330 3.482090 
# 
# 
# High freq. dielectric constant tensor:
#      x y z
#    x 1.837790 0.009820 -0.013220 
#    y 0.009820 1.803310 -0.019990 
#    z -0.013220 -0.019990 1.816210 
# 
# From -- ./inp_files/568552.got.cif
#   From: 2010.06.25/outbox.cif.g09.slc.cpg/sg2_285_cif.got.tgz:568552.got - 2010.06.27 13:26:56.
