data_PCOD8003109
_publ_section_title
;
Structure prediction by ZEFSAII (Michael W. Deem and Ramdas Pophale) SiO2 
 PCOD8003109
Probable space group: P -1
;
_chemical_formula_sum "Si O2"
_cell_formula_units_Z 16
_cell_length_a 18.478237
_cell_length_b 11.563438
_cell_length_c 12.092985
_cell_angle_alpha 100.166799
_cell_angle_beta 21.525298
_cell_angle_gamma 111.090763
_cell_volume 784.399875
_symmetry_space_group_name_H-M "P -1"
_symmetry_group_IT_number 2
_symmetry_cell_setting 'triclinic'
loop_
_space_group_symop_operation_xyz
x,y,z
-x,-y,-z
loop_
_atom_site_type_symbol
_atom_site_label
_atom_site_fract_x
_atom_site_fract_y
_atom_site_fract_z
Si Si1 0.831831 0.909823 0.403224
Si Si2 0.069954 0.345242 0.390216
Si Si3 0.133648 0.962596 0.389324
Si Si4 0.529125 0.612714 0.849932
Si Si5 0.015799 0.366860 0.718166
Si Si6 0.168651 0.644263 0.480192
Si Si7 0.257368 0.885364 0.774663
Si Si8 0.652788 0.086014 0.594513
O O1 0.655516 0.743260 0.606846
O O2 0.812345 0.947661 0.562691
O O3 0.761587 0.991096 0.433982
O O4 0.093369 0.947551 0.015597
O O5 0.946624 0.314196 0.680827
O O6 0.941708 0.386813 0.490770
O O7 0.038405 0.201818 0.368129
O O8 0.343375 0.470311 0.025803
O O9 0.000000 0.000000 0.500000
O O10 0.378592 0.994602 0.997014
O O11 0.720060 0.593421 0.634357
O O12 0.412638 0.654112 0.118772
O O13 0.010333 0.507905 0.760984
O O14 0.842357 0.253371 0.033491
O O15 0.204497 0.783164 0.504152
O O16 0.302377 0.852495 0.581950
O O17 0.500000 0.000000 0.500000
#
# Coordination Sequence:
#
# PCOD8003109 Si02
#       8
#     2   2   2   2   2   2   2   2
#     4  11  22  43  65  94 128 165 215 259 322 379
#     4  11  21  35  60  97 126 156 209 264 313 367
#     4  12  23  37  65 101 126 159 214 269 311 371
#     4  10  20  36  62  93 128 163 203 262 315 368
#     4  10  22  39  62  89 129 167 212 251 320 377
#     4  11  21  37  62  95 127 163 205 262 324 366
#     4  11  25  45  63  91 125 177 214 257 314 388
#     4  12  24  41  65  93 134 166 209 264 324 375
#
# _framework density 20.397758
#
# number of rings (size 3 to 8) (size 9 to 14) (size 15 to 20)
#    0.000    1.000    2.500    7.500    1.750    1.500 
#    0.000    0.000    0.000    3.750    0.000    0.000 
#    0.000    0.000    0.000    0.000    0.000    0.000 
#
# Total GULP energy -198379.978659 kJ/mol
# GULP energy per Si atom -12398.748666 kJ/mol
# Density = 2.035133 g / cm^3
# Si number density = 20.397758 Si / 1000 Ang^3
#
#
#
# Elastic Constant Matrix: (Units=GPa)
#
#
# Indices 1 2 3 4 5 6 
#
# 1 120.9217 39.5455 42.5376 -16.6884 2.8047 -4.3176
# 2 39.5455 112.4525 40.2735 -19.3256 -9.1812 -7.5521
# 3 42.5376 40.2735 107.5414 -11.0822 -5.3335 4.9851
# 4 -16.6884 -19.3256 -11.0822 26.8233 -0.1102 -3.3872
# 5 2.8047 -9.1812 -5.3335 -0.1102 23.7605 2.2357
# 6 -4.3176 -7.5521 4.9851 -3.3872 2.2357 32.6450
#
#
#
# Elastic Compliance Matrix: (Units=1/GPa)
#
#
# Indices 1 2 3 4 5 6 
#
# 1 0.010819 -0.001989 -0.003351 0.004169 -0.002978 0.002119
# 2 -0.001989 0.012472 -0.003134 0.006917 0.004049 0.003541
# 3 -0.003351 -0.003134 0.012079 0.000260 0.002192 -0.003136
# 4 0.004169 0.006917 0.000260 0.045825 0.001817 0.006742
# 5 -0.002978 0.004049 0.002192 0.001817 0.044754 -0.002668
# 6 0.002119 0.003541 -0.003136 0.006742 -0.002668 0.033093
#
#
# Mechanical properties :
#
#
# Convention : Reuss Voigt Hill
#
# Bulk Modulus (GPa) = 54.28490 65.06986 59.67738
# Shear Modulus (GPa) = 27.45273 31.21637 29.33455
#
# Velocity S-wave (km/s) = 3.67259 3.91625 3.79638
# Velocity P-wave (km/s) = 6.68243 7.24011 6.96685
#
# Compressibility (1/GPa) = 0.01842133
#
# Stress axis : x y z
#
# Youngs Moduli (GPa) = 92.42859 80.18101 82.78893
#
# Poissons Ratio (x) = 0.15948 0.27742
# Poissons Ratio (y) = 0.18384 0.25949
# Poissons Ratio (z) = 0.30972 0.25132
#
# Static dielectric constant tensor:
#      x y z
#    x 3.644480 -0.176770 -0.126410 
#    y -0.176770 3.910940 -0.196580 
#    z -0.126410 -0.196580 3.646900 
# 
# 
# High freq. dielectric constant tensor:
#      x y z
#    x 1.801630 -0.018270 -0.016100 
#    y -0.018270 1.809590 -0.018220 
#    z -0.016100 -0.018220 1.779270 
# 
# From -- ./inp_files/239821.got.cif
#   From: 2010.06.25/outbox.cif.g09.slc.cpg/sg2_120_cif.got.tgz:239821.got - 2010.06.27 13:26:56.
