data_PCOD8003594
_publ_section_title
;
Structure prediction by ZEFSAII (Michael W. Deem and Ramdas Pophale) SiO2 
 PCOD8003594
Probable space group: P -1
;
_chemical_formula_sum "Si O2"
_cell_formula_units_Z 16
_cell_length_a 15.819724
_cell_length_b 16.057876
_cell_length_c 12.506542
_cell_angle_alpha 38.356222
_cell_angle_beta 54.741643
_cell_angle_gamma 26.351377
_cell_volume 779.125591
_symmetry_space_group_name_H-M "P -1"
_symmetry_group_IT_number 2
_symmetry_cell_setting 'triclinic'
loop_
_space_group_symop_operation_xyz
x,y,z
-x,-y,-z
loop_
_atom_site_type_symbol
_atom_site_label
_atom_site_fract_x
_atom_site_fract_y
_atom_site_fract_z
Si Si1 0.195480 0.402567 0.556759
Si Si2 0.502842 0.475191 0.357173
Si Si3 0.214429 0.265156 0.452221
Si Si4 0.760145 0.052241 0.769538
Si Si5 0.455297 0.957868 0.977018
Si Si6 0.630477 0.643668 0.804090
Si Si7 0.747691 0.448995 0.141580
Si Si8 0.219839 0.671716 0.185242
O O1 0.215117 0.287427 0.555486
O O2 0.182295 0.574313 0.370442
O O3 0.980706 0.605806 0.572500
O O4 0.391695 0.137346 0.753135
O O5 0.611043 0.231747 0.591197
O O6 0.312223 0.755482 0.284270
O O7 0.700005 0.353596 0.314712
O O8 0.397055 0.549568 0.247796
O O9 0.197864 0.428560 0.241507
O O10 0.425225 0.941457 0.595982
O O11 0.727359 0.943097 0.956611
O O12 0.005537 0.803746 0.810438
O O13 0.667869 0.642298 0.096398
O O14 0.500000 0.000000 0.000000
O O15 0.699926 0.443178 0.878639
O O16 0.600572 0.626220 0.963719
O O17 0.000000 0.000000 0.000000
#
# Coordination Sequence:
#
# PCOD8003594 Si02
#       8
#     2   2   2   2   2   2   2   2
#     4  10  20  38  61  84 122 158 199 248 310 359
#     4  10  23  42  62  88 129 163 206 252 298 364
#     4   9  19  36  61  86 115 158 199 245 306 364
#     4  10  22  43  65  89 121 166 207 251 304 363
#     4  11  23  40  63  93 122 154 205 263 307 357
#     4  10  20  37  59  89 120 154 202 250 298 367
#     4  11  22  39  67  86 122 166 209 245 308 365
#     4  11  24  39  59  90 127 161 200 254 307 361
#
# _framework density 20.535841000000001
#
# number of rings (size 3 to 8) (size 9 to 14) (size 15 to 20)
#    0.000    1.750    1.250    2.625    1.750    3.000 
#    4.500    0.000    0.000    0.000    0.000    0.000 
#    0.000    0.000    0.000    0.000    0.000    0.000 
#
# Total GULP energy -198328.611294 kJ/mol
# GULP energy per Si atom -12395.538206 kJ/mol
# Density = 2.048910 g / cm^3
# Si number density = 20.535841 Si / 1000 Ang^3
#
#
#
# Elastic Constant Matrix: (Units=GPa)
#
#
# Indices 1 2 3 4 5 6 
#
# 1 79.7440 39.0354 20.5147 -11.5409 -8.0472 5.9413
# 2 39.0354 113.5582 15.0775 -7.5439 -12.8133 -4.8158
# 3 20.5147 15.0775 91.8810 1.8799 -11.5537 5.3640
# 4 -11.5409 -7.5439 1.8799 31.2679 2.0000 0.2765
# 5 -8.0472 -12.8133 -11.5537 2.0000 24.1909 2.2675
# 6 5.9413 -4.8158 5.3640 0.2765 2.2675 35.1617
#
#
#
# Elastic Compliance Matrix: (Units=1/GPa)
#
#
# Indices 1 2 3 4 5 6 
#
# 1 0.016834 -0.005063 -0.002647 0.005081 0.001541 -0.003273
# 2 -0.005063 0.011154 -0.000362 0.000582 0.003798 0.002189
# 3 -0.002647 -0.000362 0.012332 -0.002120 0.005161 -0.001800
# 4 0.005081 0.000582 -0.002120 0.034245 -0.001788 -0.000609
# 5 0.001541 0.003798 0.005161 -0.001788 0.046806 -0.003532
# 6 -0.003273 0.002189 -0.001800 -0.000609 -0.003532 0.029800
#
#
# Mechanical properties :
#
#
# Convention : Reuss Voigt Hill
#
# Bulk Modulus (GPa) = 41.36250 48.27092 44.81671
# Shear Modulus (GPa) = 28.51063 32.16114 30.33589
#
# Velocity S-wave (km/s) = 3.73008 3.96169 3.84763
# Velocity P-wave (km/s) = 6.22388 6.66958 6.45058
#
# Compressibility (1/GPa) = 0.02417649
#
# Stress axis : x y z
#
# Youngs Moduli (GPa) = 59.40340 89.65045 81.09297
#
# Poissons Ratio (x) = 0.45386 0.21465
# Poissons Ratio (y) = 0.30074 0.02937
# Poissons Ratio (z) = 0.15724 0.03247
#
# Static dielectric constant tensor:
#      x y z
#    x 3.608750 -0.061110 0.045000 
#    y -0.061110 3.874020 0.089180 
#    z 0.045000 0.089180 4.191550 
# 
# 
# High freq. dielectric constant tensor:
#      x y z
#    x 1.786790 -0.001140 -0.003960 
#    y -0.001140 1.806340 0.007180 
#    z -0.003960 0.007180 1.813510 
# 
# From -- ./inp_files/455461.got.cif
#   From: 2010.06.25/outbox.cif.g09.slc.cpg/sg2_228_cif.got.tgz:455461.got - 2010.06.27 13:26:56.
