data_PCOD8003288
_publ_section_title
;
Structure prediction by ZEFSAII (Michael W. Deem and Ramdas Pophale) SiO2 
 PCOD8003288
Probable space group: P -1
;
_chemical_formula_sum "Si O2"
_cell_formula_units_Z 14
_cell_length_a 9.139965
_cell_length_b 7.158611
_cell_length_c 15.580044
_cell_angle_alpha 88.855679
_cell_angle_beta 39.477173
_cell_angle_gamma 109.228425
_cell_volume 544.389255
_symmetry_space_group_name_H-M "P -1"
_symmetry_group_IT_number 2
_symmetry_cell_setting 'triclinic'
loop_
_space_group_symop_operation_xyz
x,y,z
-x,-y,-z
loop_
_atom_site_type_symbol
_atom_site_label
_atom_site_fract_x
_atom_site_fract_y
_atom_site_fract_z
Si Si1 0.422765 0.680389 0.716889
Si Si2 0.413297 0.374202 0.852003
Si Si3 0.942761 0.694458 0.699077
Si Si4 0.970903 0.112795 0.631022
Si Si5 0.261903 0.738766 0.399753
Si Si6 0.223993 0.335784 0.674367
Si Si7 0.890358 0.118285 0.200229
O O1 0.382071 0.574302 0.831124
O O2 0.729924 0.777026 0.547365
O O3 0.196316 0.472638 0.762143
O O4 0.349707 0.872173 0.743448
O O5 0.464697 0.262126 0.745708
O O6 0.672619 0.457567 0.797396
O O7 0.141619 0.185704 0.023302
O O8 0.220956 0.767496 0.519048
O O9 0.011166 0.703548 0.768291
O O10 0.853599 0.865904 0.717254
O O11 0.989680 0.254371 0.706647
O O12 0.758343 0.089309 0.655264
O O13 0.000000 0.500000 0.500000
O O14 0.500000 0.500000 0.500000
O O15 0.232118 0.126237 0.706028
#
# Coordination Sequence:
#
# PCOD8003288 Si02
#       7
#     2   2   2   2   2   2   2
#     4  11  23  40  67  95 134 172 222 271 321 396
#     4  11  24  43  63  99 137 172 215 269 336 397
#     4  10  22  41  68  96 124 174 227 270 320 390
#     4  10  20  40  63  99 124 166 231 275 318 375
#     4  10  20  36  65  94 127 167 219 274 317 380
#     4   9  23  42  65  97 131 171 225 269 321 392
#     4  11  25  45  66  98 137 176 212 272 342 387
#
# _framework density 25.716895999999998
#
# number of rings (size 3 to 8) (size 9 to 14) (size 15 to 20)
#    0.000    1.714    2.857    1.286    4.000    8.000 
#    2.571    1.429    0.000    0.000    0.000    0.000 
#    0.000    0.000    0.000    0.000    0.000    0.000 
#
# Total GULP energy -173550.357467 kJ/mol
# GULP energy per Si atom -12396.454105 kJ/mol
# Density = 2.565836 g / cm^3
# Si number density = 25.716896 Si / 1000 Ang^3
#
#
#
# Elastic Constant Matrix: (Units=GPa)
#
#
# Indices 1 2 3 4 5 6 
#
# 1 115.9989 8.9177 49.5325 2.6277 -1.4116 -19.5079
# 2 8.9177 47.9096 25.3001 -2.8707 1.1438 -20.0776
# 3 49.5325 25.3001 136.0998 5.5558 -3.1185 -9.6685
# 4 2.6277 -2.8707 5.5558 38.0444 -1.9807 11.4665
# 5 -1.4116 1.1438 -3.1185 -1.9807 28.5100 -2.5634
# 6 -19.5079 -20.0776 -9.6685 11.4665 -2.5634 45.2814
#
#
#
# Elastic Compliance Matrix: (Units=1/GPa)
#
#
# Indices 1 2 3 4 5 6 
#
# 1 0.011092 0.002162 -0.003987 -0.001602 0.000393 0.005314
# 2 0.002162 0.028454 -0.005141 -0.001107 -0.000532 0.012700
# 3 -0.003987 -0.005141 0.009699 -0.000994 0.000854 -0.001626
# 4 -0.001602 -0.001107 -0.000994 0.029140 0.001098 -0.008710
# 5 0.000393 -0.000532 0.000854 0.001098 0.035452 0.001845
# 6 0.005314 0.012700 -0.001626 -0.008710 0.001845 0.031968
#
#
# Mechanical properties :
#
#
# Convention : Reuss Voigt Hill
#
# Bulk Modulus (GPa) = 28.31812 51.94545 40.13179
# Shear Modulus (GPa) = 29.15356 36.78436 32.96896
#
# Velocity S-wave (km/s) = 3.37060 3.78611 3.58438
# Velocity P-wave (km/s) = 5.11696 6.27341 5.72446
#
# Compressibility (1/GPa) = 0.03531308
#
# Stress axis : x y z
#
# Youngs Moduli (GPa) = 90.15800 35.14471 103.10474
#
# Poissons Ratio (x) = -0.07599 0.41106
# Poissons Ratio (y) = -0.19495 0.53007
# Poissons Ratio (z) = 0.35944 0.18068
#
# Static dielectric constant tensor:
#      x y z
#    x 5.480400 0.425160 0.305300 
#    y 0.425160 5.448040 0.063160 
#    z 0.305300 0.063160 4.300190 
# 
# 
# High freq. dielectric constant tensor:
#      x y z
#    x 2.041370 0.015880 0.018830 
#    y 0.015880 2.047080 -0.013990 
#    z 0.018830 -0.013990 1.986930 
# 
# From -- ./inp_files/494609.got.cif
#   From: 2010.06.25/outbox.cif.g09.slc.cpg/sg2_248_cif.got.tgz:494609.got - 2010.06.27 13:26:56.
