data_PCOD8003604
_publ_section_title
;
Structure prediction by ZEFSAII (Michael W. Deem and Ramdas Pophale) SiO2 
 PCOD8003604
Probable space group: P -1
;
_chemical_formula_sum "Si O2"
_cell_formula_units_Z 14
_cell_length_a 6.466940
_cell_length_b 24.808305
_cell_length_c 5.156738
_cell_angle_alpha 97.582873
_cell_angle_beta 72.033054
_cell_angle_gamma 53.554954
_cell_volume 576.855454
_symmetry_space_group_name_H-M "P -1"
_symmetry_group_IT_number 2
_symmetry_cell_setting 'triclinic'
loop_
_space_group_symop_operation_xyz
x,y,z
-x,-y,-z
loop_
_atom_site_type_symbol
_atom_site_label
_atom_site_fract_x
_atom_site_fract_y
_atom_site_fract_z
Si Si1 0.064550 0.605591 0.847391
Si Si2 0.825573 0.878728 0.293246
Si Si3 0.084852 0.783761 0.634483
Si Si4 0.411057 0.332940 0.326449
Si Si5 0.148302 0.999798 0.693882
Si Si6 0.358345 0.448996 0.671593
Si Si7 0.796285 0.333584 0.802185
O O1 0.084743 0.537270 0.858195
O O2 0.388943 0.570487 0.626189
O O3 0.825582 0.658769 0.752298
O O4 0.983891 0.656344 0.163222
O O5 0.024176 0.830441 0.434791
O O6 0.900314 0.927818 0.227984
O O7 0.488907 0.926918 0.529593
O O8 0.876088 0.834207 0.987627
O O9 0.428796 0.732207 0.560445
O O10 0.042910 0.726774 0.531294
O O11 0.240265 0.411867 0.578425
O O12 0.691705 0.306826 0.035316
O O13 0.000000 0.000000 0.500000
O O14 0.000000 0.000000 0.000000
O O15 0.502770 0.414180 0.872506
#
# Coordination Sequence:
#
# PCOD8003604 Si02
#       7
#     2   2   2   2   2   2   2
#     4  10  20  37  59  90 123 174 230 296 350 401
#     4  11  24  46  77 100 151 188 215 291 339 395
#     4  11  22  44  67  97 137 193 222 265 359 408
#     4  10  21  38  60  90 131 174 231 287 338 422
#     4  11  24  47  76 116 141 176 236 276 331 408
#     4   9  20  36  58  86 127 168 231 292 365 401
#     4  10  21  38  59  88 133 172 229 289 336 419
#
# _framework density 24.269507999999998
#
# number of rings (size 3 to 8) (size 9 to 14) (size 15 to 20)
#    0.000    1.714    1.429    2.571    0.000    5.143 
#    2.571    7.143    0.000    0.000    0.000    0.000 
#    0.000    0.000    0.000    0.000    0.000    0.000 
#
# Total GULP energy -173549.349644 kJ/mol
# GULP energy per Si atom -12396.382117 kJ/mol
# Density = 2.421427 g / cm^3
# Si number density = 24.269508 Si / 1000 Ang^3
#
#
#
# Elastic Constant Matrix: (Units=GPa)
#
#
# Indices 1 2 3 4 5 6 
#
# 1 129.4685 61.3386 65.4178 12.9119 40.9807 -17.7674
# 2 61.3386 152.5199 74.9802 1.1794 17.2554 -23.4920
# 3 65.4178 74.9802 159.9580 2.9654 33.2272 -6.6260
# 4 12.9119 1.1794 2.9654 38.9393 -1.7171 9.0691
# 5 40.9807 17.2554 33.2272 -1.7171 43.3751 -11.1827
# 6 -17.7674 -23.4920 -6.6260 9.0691 -11.1827 25.0757
#
#
#
# Elastic Compliance Matrix: (Units=1/GPa)
#
#
# Indices 1 2 3 4 5 6 
#
# 1 0.014668 -0.002847 -0.002277 -0.006190 -0.009957 0.004922
# 2 -0.002847 0.010784 -0.004331 -0.000994 0.004023 0.009095
# 3 -0.002277 -0.004331 0.010044 0.001244 -0.005270 -0.005817
# 4 -0.006190 -0.000994 0.001244 0.031311 0.002626 -0.015141
# 5 -0.009957 0.004023 -0.005270 0.002626 0.037910 0.011278
# 6 0.004922 0.009095 -0.005817 -0.015141 0.011278 0.060856
#
#
# Mechanical properties :
#
#
# Convention : Reuss Voigt Hill
#
# Bulk Modulus (GPa) = 60.29521 93.93550 77.11535
# Shear Modulus (GPa) = 26.31415 37.49198 31.90307
#
# Velocity S-wave (km/s) = 3.29636 3.93468 3.62958
# Velocity P-wave (km/s) = 6.27582 7.70918 7.02913
#
# Compressibility (1/GPa) = 0.01658507
#
# Stress axis : x y z
#
# Youngs Moduli (GPa) = 68.17650 92.72901 99.56288
#
# Poissons Ratio (x) = 0.26399 0.22672
# Poissons Ratio (y) = 0.19409 0.43123
# Poissons Ratio (z) = 0.15525 0.40163
#
# Static dielectric constant tensor:
#      x y z
#    x 4.248750 0.039280 0.348480 
#    y 0.039280 4.577870 0.059640 
#    z 0.348480 0.059640 4.556280 
# 
# 
# High freq. dielectric constant tensor:
#      x y z
#    x 1.953620 -0.004650 0.018700 
#    y -0.004650 1.968030 -0.009120 
#    z 0.018700 -0.009120 1.977200 
# 
# From -- ./inp_files/13567.got.cif
#   From: 2010.06.25/outbox.cif.g09.slc.cpg/sg2_7_cif.got.tgz:13567.got - 2010.06.27 13:26:56.
