data_PCOD8003523
_publ_section_title
;
Structure prediction by ZEFSAII (Michael W. Deem and Ramdas Pophale) SiO2 
 PCOD8003523
Probable space group: P -1
;
_chemical_formula_sum "Si O2"
_cell_formula_units_Z 14
_cell_length_a 9.018316
_cell_length_b 12.110727
_cell_length_c 12.816130
_cell_angle_alpha 82.153582
_cell_angle_beta 42.299604
_cell_angle_gamma 106.750075
_cell_volume 757.736799
_symmetry_space_group_name_H-M "P -1"
_symmetry_group_IT_number 2
_symmetry_cell_setting 'triclinic'
loop_
_space_group_symop_operation_xyz
x,y,z
-x,-y,-z
loop_
_atom_site_type_symbol
_atom_site_label
_atom_site_fract_x
_atom_site_fract_y
_atom_site_fract_z
Si Si1 0.936814 0.712415 0.067346
Si Si2 0.257455 0.945964 0.714435
Si Si3 0.691405 0.795477 0.964443
Si Si4 0.579888 0.811012 0.253542
Si Si5 0.250551 0.648768 0.064596
Si Si6 0.565448 0.513420 0.125355
Si Si7 0.992769 0.561757 0.602307
O O1 0.798879 0.782573 0.177794
O O2 0.686690 0.563613 0.172598
O O3 0.090825 0.696504 0.080910
O O4 0.146503 0.802646 0.850838
O O5 0.009250 0.920897 0.776347
O O6 0.500000 0.000000 0.500000
O O7 0.331497 0.048643 0.757612
O O8 0.571960 0.812709 0.131379
O O9 0.520286 0.788263 0.955059
O O10 0.657382 0.650388 0.995498
O O11 0.277639 0.700272 0.466798
O O12 0.066839 0.547919 0.265522
O O13 0.317211 0.567244 0.964625
O O14 0.238843 0.412026 0.296397
O O15 0.000000 0.500000 0.500000
#
# Coordination Sequence:
#
# PCOD8003523 Si02
#       7
#     2   2   2   2   2   2   2
#     4  10  21  39  53  82 114 145 177 223 279 316
#     4  10  22  38  61  77 100 146 195 224 260 322
#     4   9  18  36  56  80 107 148 186 214 265 326
#     4  10  20  37  59  78 110 145 184 221 262 333
#     4  11  21  33  58  83 117 142 171 230 276 316
#     4   9  19  34  55  80 114 148 177 215 269 328
#     4  11  18  35  58  85 108 141 188 215 264 329
#
# _framework density 18.476071999999998
#
# number of rings (size 3 to 8) (size 9 to 14) (size 15 to 20)
#    0.000    2.286    4.286    3.857    6.000    0.571 
#    0.000    3.571    0.000    0.000    0.000    0.000 
#    0.000    0.000    0.000    0.000    0.000    0.000 
#
# Total GULP energy -173448.287087 kJ/mol
# GULP energy per Si atom -12389.163363 kJ/mol
# Density = 1.843402 g / cm^3
# Si number density = 18.476072 Si / 1000 Ang^3
#
#
#
# Elastic Constant Matrix: (Units=GPa)
#
#
# Indices 1 2 3 4 5 6 
#
# 1 151.9641 30.5562 37.6192 -3.4162 -11.5895 10.8877
# 2 30.5562 69.5302 24.4877 9.6366 -3.8228 11.5121
# 3 37.6192 24.4877 104.3859 -7.3132 -16.5846 3.2089
# 4 -3.4162 9.6366 -7.3132 29.1321 8.4876 -9.3739
# 5 -11.5895 -3.8228 -16.5846 8.4876 20.7904 -4.3075
# 6 10.8877 11.5121 3.2089 -9.3739 -4.3075 20.1486
#
#
#
# Elastic Compliance Matrix: (Units=1/GPa)
#
#
# Indices 1 2 3 4 5 6 
#
# 1 0.007820 -0.002264 -0.001908 -0.000123 0.002003 -0.002257
# 2 -0.002264 0.021917 -0.004579 -0.014595 0.001545 -0.017030
# 3 -0.001908 -0.004579 0.012677 0.003867 0.007678 0.005069
# 4 -0.000123 -0.014595 0.003867 0.054217 -0.015655 0.029667
# 5 0.002003 0.001545 0.007678 -0.015655 0.062620 0.002916
# 6 -0.002257 -0.017030 0.005069 0.029667 0.002916 0.074199
#
#
# Mechanical properties :
#
#
# Convention : Reuss Voigt Hill
#
# Bulk Modulus (GPa) = 40.14149 56.80070 48.47109
# Shear Modulus (GPa) = 19.28600 29.56204 24.42402
#
# Velocity S-wave (km/s) = 3.23435 4.00436 3.63978
# Velocity P-wave (km/s) = 5.97674 7.22423 6.62989
#
# Compressibility (1/GPa) = 0.02491188
#
# Stress axis : x y z
#
# Youngs Moduli (GPa) = 127.88138 45.62654 78.88493
#
# Poissons Ratio (x) = 0.10328 0.15052
# Poissons Ratio (y) = 0.28946 0.36123
# Poissons Ratio (z) = 0.24401 0.20893
#
# Static dielectric constant tensor:
#      x y z
#    x 3.629410 0.411750 -0.509370 
#    y 0.411750 3.313250 -0.057750 
#    z -0.509370 -0.057750 3.362270 
# 
# 
# High freq. dielectric constant tensor:
#      x y z
#    x 1.707980 0.034890 -0.024050 
#    y 0.034890 1.707330 0.008220 
#    z -0.024050 0.008220 1.708950 
# 
# From -- ./inp_files/167649.got.cif
#   From: 2010.06.25/outbox.cif.g09.slc.cpg/sg2_84_cif.got.tgz:167649.got - 2010.06.27 13:26:56.
