data_PCOD8003226
_publ_section_title
;
Structure prediction by ZEFSAII (Michael W. Deem and Ramdas Pophale) SiO2 
 PCOD8003226
Probable space group: P -1
;
_chemical_formula_sum "Si O2"
_cell_formula_units_Z 16
_cell_length_a 8.539282
_cell_length_b 15.080691
_cell_length_c 15.236406
_cell_angle_alpha 36.737005
_cell_angle_beta 87.603523
_cell_angle_gamma 61.091775
_cell_volume 771.839989
_symmetry_space_group_name_H-M "P -1"
_symmetry_group_IT_number 2
_symmetry_cell_setting 'triclinic'
loop_
_space_group_symop_operation_xyz
x,y,z
-x,-y,-z
loop_
_atom_site_type_symbol
_atom_site_label
_atom_site_fract_x
_atom_site_fract_y
_atom_site_fract_z
Si Si1 0.071720 0.117101 0.813176
Si Si2 0.706015 0.006413 0.574324
Si Si3 0.863715 0.749784 0.943245
Si Si4 0.968092 0.194256 0.945679
Si Si5 0.545194 0.192803 0.073953
Si Si6 0.188469 0.268936 0.362378
Si Si7 0.023534 0.753106 0.469343
Si Si8 0.570276 0.419901 0.290800
O O1 0.027450 0.220156 0.827443
O O2 0.943187 0.306933 0.588238
O O3 0.354722 0.904504 0.951303
O O4 0.965332 0.026169 0.882283
O O5 0.865904 0.857053 0.774529
O O6 0.835898 0.853710 0.605388
O O7 0.458075 0.097066 0.522583
O O8 0.664797 0.210797 0.401036
O O9 0.636488 0.805471 0.898978
O O10 0.862720 0.848220 0.953442
O O11 0.100433 0.480292 0.148134
O O12 0.692779 0.424176 0.789968
O O13 0.426013 0.440618 0.884972
O O14 0.775066 0.025197 0.267029
O O15 0.016767 0.363094 0.376241
O O16 0.252231 0.681641 0.551356
#
# Coordination Sequence:
#
# PCOD8003226 Si02
#       8
#     2   2   2   2   2   2   2   2
#     4   8  19  39  58  92 121 154 199 241 296 355
#     4  11  24  39  63  90 118 158 206 243 301 351
#     4  12  21  41  64  86 123 160 196 249 299 351
#     4  10  20  36  64  91 118 157 202 241 294 356
#     4   9  21  38  60  86 124 159 191 241 303 345
#     4  11  23  41  61  88 122 156 202 251 293 358
#     4  10  20  40  61  83 126 160 189 249 300 346
#     4  11  21  38  63  88 120 161 196 249 291 357
#
# _framework density 20.729683000000001
#
# number of rings (size 3 to 8) (size 9 to 14) (size 15 to 20)
#    0.750    1.000    3.750    1.125    0.000    1.500 
#    0.000    2.500    0.000    0.000    0.000    0.000 
#    0.000    0.000    0.000    0.000    0.000    0.000 
#
# Total GULP energy -198276.918786 kJ/mol
# GULP energy per Si atom -12392.307424 kJ/mol
# Density = 2.068250 g / cm^3
# Si number density = 20.729683 Si / 1000 Ang^3
#
#
#
# Elastic Constant Matrix: (Units=GPa)
#
#
# Indices 1 2 3 4 5 6 
#
# 1 52.7862 9.4974 22.8137 7.2501 -0.8644 2.1108
# 2 9.4974 47.2072 20.2659 9.9338 -4.1158 10.9991
# 3 22.8137 20.2659 108.3213 8.6532 0.6325 11.6687
# 4 7.2501 9.9338 8.6532 29.6425 2.8397 -1.3225
# 5 -0.8644 -4.1158 0.6325 2.8397 25.2118 0.8193
# 6 2.1108 10.9991 11.6687 -1.3225 0.8193 27.4641
#
#
#
# Elastic Compliance Matrix: (Units=1/GPa)
#
#
# Indices 1 2 3 4 5 6 
#
# 1 0.021473 -0.001953 -0.003949 -0.003503 0.000891 0.000614
# 2 -0.001953 0.027634 -0.002974 -0.008934 0.005858 -0.010258
# 3 -0.003949 -0.002974 0.011083 -0.001357 -0.000640 -0.003261
# 4 -0.003503 -0.008934 -0.001357 0.038858 -0.006132 0.006478
# 5 0.000891 0.005858 -0.000640 -0.006132 0.041477 -0.003675
# 6 0.000614 -0.010258 -0.003261 0.006478 -0.003675 0.042279
#
#
# Mechanical properties :
#
#
# Convention : Reuss Voigt Hill
#
# Bulk Modulus (GPa) = 23.56369 34.82986 29.19677
# Shear Modulus (GPa) = 23.28793 26.84620 25.06707
#
# Velocity S-wave (km/s) = 3.35537 3.60260 3.48118
# Velocity P-wave (km/s) = 5.13840 5.84323 5.50211
#
# Compressibility (1/GPa) = 0.04243818
#
# Stress axis : x y z
#
# Youngs Moduli (GPa) = 46.56904 36.18760 90.22619
#
# Poissons Ratio (x) = 0.07069 0.35627
# Poissons Ratio (y) = 0.09097 0.26834
# Poissons Ratio (z) = 0.18389 0.10763
#
# Static dielectric constant tensor:
#      x y z
#    x 3.563630 -0.023150 0.020400 
#    y -0.023150 3.547170 0.086640 
#    z 0.020400 0.086640 3.814370 
# 
# 
# High freq. dielectric constant tensor:
#      x y z
#    x 1.802530 -0.004210 0.001530 
#    y -0.004210 1.780770 0.008760 
#    z 0.001530 0.008760 1.818180 
# 
# From -- ./inp_files/505271.got.cif
#   From: 2010.06.25/outbox.cif.g09.slc.cpg/sg2_253_cif.got.tgz:505271.got - 2010.06.27 13:26:56.
