data_PCOD8003352
_publ_section_title
;
Structure prediction by ZEFSAII (Michael W. Deem and Ramdas Pophale) SiO2 
 PCOD8003352
Probable space group: P -1
;
_chemical_formula_sum "Si O2"
_cell_formula_units_Z 16
_cell_length_a 16.271798
_cell_length_b 12.508698
_cell_length_c 5.312023
_cell_angle_alpha 94.557558
_cell_angle_beta 66.839875
_cell_angle_gamma 121.074617
_cell_volume 840.872391
_symmetry_space_group_name_H-M "P -1"
_symmetry_group_IT_number 2
_symmetry_cell_setting 'triclinic'
loop_
_space_group_symop_operation_xyz
x,y,z
-x,-y,-z
loop_
_atom_site_type_symbol
_atom_site_label
_atom_site_fract_x
_atom_site_fract_y
_atom_site_fract_z
Si Si1 0.036556 0.407302 0.343880
Si Si2 0.230066 0.650781 0.073022
Si Si3 0.456020 0.839031 0.773738
Si Si4 0.785068 0.019774 0.158051
Si Si5 0.009026 0.831086 0.372216
Si Si6 0.907058 0.953887 0.294745
Si Si7 0.826269 0.258716 0.338496
Si Si8 0.578843 0.932988 0.138544
O O1 0.157290 0.497310 0.120624
O O2 0.000000 0.500000 0.500000
O O3 0.035698 0.314637 0.539098
O O4 0.952867 0.320899 0.214700
O O5 0.217163 0.701889 0.366339
O O6 0.352775 0.698197 0.899681
O O7 0.194067 0.701766 0.897627
O O8 0.508861 0.849122 0.443517
O O9 0.415227 0.935099 0.854359
O O10 0.534250 0.860769 0.914217
O O11 0.761170 0.104709 0.391208
O O12 0.797471 0.914011 0.273926
O O13 0.694749 0.955017 0.042973
O O14 0.900380 0.124144 0.935236
O O15 0.906801 0.840155 0.421713
O O16 0.067853 0.926977 0.546230
O O17 0.000000 0.000000 0.000000
#
# Coordination Sequence:
#
# PCOD8003352 Si02
#       8
#     2   2   2   2   2   2   2   2
#     4  10  21  34  54  83 112 153 183 219 265 342
#     4  11  22  36  51  74 116 153 183 223 274 320
#     4  10  21  35  47  76 107 147 186 232 268 325
#     4  11  20  32  57  79 107 149 180 232 281 328
#     4  10  20  37  53  81 117 142 184 225 274 336
#     4   9  20  35  55  78 111 144 182 231 277 324
#     4  11  21  33  52  80 112 146 189 217 262 341
#     4  10  22  32  54  73 106 143 190 228 280 318
#
# _framework density 19.027857000000001
#
# number of rings (size 3 to 8) (size 9 to 14) (size 15 to 20)
#    0.000    1.750    2.500    2.625    5.250    1.000 
#    0.000    0.000    0.000    0.000    0.000    1.750 
#    0.000    0.000    0.000    0.000    0.000    0.000 
#
# Total GULP energy -198215.069376 kJ/mol
# GULP energy per Si atom -12388.441836 kJ/mol
# Density = 1.898455 g / cm^3
# Si number density = 19.027857 Si / 1000 Ang^3
#
#
#
# Elastic Constant Matrix: (Units=GPa)
#
#
# Indices 1 2 3 4 5 6 
#
# 1 149.9600 48.0642 15.8144 -19.0836 22.0617 4.1138
# 2 48.0642 64.5357 20.7515 -17.5330 5.0366 -0.5431
# 3 15.8144 20.7515 55.3461 -5.0714 8.0762 1.5791
# 4 -19.0836 -17.5330 -5.0714 27.2302 5.2966 -0.9078
# 5 22.0617 5.0366 8.0762 5.2966 24.3820 -3.1927
# 6 4.1138 -0.5431 1.5791 -0.9078 -3.1927 33.9730
#
#
#
# Elastic Compliance Matrix: (Units=1/GPa)
#
#
# Indices 1 2 3 4 5 6 
#
# 1 0.010858 -0.006104 0.001340 0.005913 -0.010595 -0.002312
# 2 -0.006104 0.025073 -0.006821 0.010550 0.000546 0.001790
# 3 0.001340 -0.006821 0.021596 0.001991 -0.007643 -0.001940
# 4 0.005913 0.010550 0.001991 0.051804 -0.019586 -0.001096
# 5 -0.010595 0.000546 -0.007643 -0.019586 0.058137 0.006587
# 6 -0.002312 0.001790 -0.001940 -0.001096 0.006587 0.030424
#
#
# Mechanical properties :
#
#
# Convention : Reuss Voigt Hill
#
# Bulk Modulus (GPa) = 29.10596 48.78911 38.94754
# Shear Modulus (GPa) = 21.50410 29.46449 25.48430
#
# Velocity S-wave (km/s) = 3.36540 3.93936 3.66364
# Velocity P-wave (km/s) = 5.51642 6.81087 6.19753
#
# Compressibility (1/GPa) = 0.03435722
#
# Stress axis : x y z
#
# Youngs Moduli (GPa) = 92.09741 39.88346 46.30527
#
# Poissons Ratio (x) = 0.24344 -0.06204
# Poissons Ratio (y) = 0.56214 0.31584
# Poissons Ratio (z) = -0.12339 0.27204
#
# Static dielectric constant tensor:
#      x y z
#    x 4.000880 0.059440 0.212680 
#    y 0.059440 3.533860 -0.189590 
#    z 0.212680 -0.189590 3.503250 
# 
# 
# High freq. dielectric constant tensor:
#      x y z
#    x 1.739030 0.014370 0.022980 
#    y 0.014370 1.693200 0.001530 
#    z 0.022980 0.001530 1.742740 
# 
# From -- ./inp_files/93619.got.cif
#   From: 2010.06.25/outbox.cif.g09.slc.cpg/sg2_47_cif.got.tgz:93619.got - 2010.06.27 13:26:56.
