data_PCOD8003602
_publ_section_title
;
Structure prediction by ZEFSAII (Michael W. Deem and Ramdas Pophale) SiO2 
 PCOD8003602
Probable space group: P -1
;
_chemical_formula_sum "Si O2"
_cell_formula_units_Z 14
_cell_length_a 10.094682
_cell_length_b 17.670290
_cell_length_c 8.495409
_cell_angle_alpha 30.230818
_cell_angle_beta 133.284007
_cell_angle_gamma 131.455043
_cell_volume 545.291114
_symmetry_space_group_name_H-M "P -1"
_symmetry_group_IT_number 2
_symmetry_cell_setting 'triclinic'
loop_
_space_group_symop_operation_xyz
x,y,z
-x,-y,-z
loop_
_atom_site_type_symbol
_atom_site_label
_atom_site_fract_x
_atom_site_fract_y
_atom_site_fract_z
Si Si1 0.874562 0.180111 0.224250
Si Si2 0.044707 0.129999 0.150174
Si Si3 0.621826 0.790503 0.487390
Si Si4 0.735433 0.713109 0.216715
Si Si5 0.819924 0.576324 0.839357
Si Si6 0.547625 0.934820 0.863283
Si Si7 0.592664 0.283562 0.267242
O O1 0.668105 0.144824 0.187295
O O2 0.891091 0.188509 0.029585
O O3 0.972226 0.340535 0.094072
O O4 0.999791 0.051685 0.604872
O O5 0.235932 0.137451 0.390293
O O6 0.080043 0.228702 0.842913
O O7 0.673793 0.650766 0.684928
O O8 0.437137 0.718552 0.564465
O O9 0.593762 0.926050 0.102138
O O10 0.785217 0.587736 0.603117
O O11 0.682403 0.853264 0.018303
O O12 0.564761 0.645745 0.083502
O O13 0.786829 0.396570 0.181745
O O14 0.589505 0.109114 0.521905
#
# Coordination Sequence:
#
# PCOD8003602 Si02
#       7
#     2   2   2   2   2   2   2
#     4  10  20  37  59  90 119 150 194 252 289 343
#     4   9  19  37  62  85 117 154 203 235 288 349
#     4   9  19  37  62  85 111 160 202 235 278 363
#     4  10  21  39  62  86 114 163 198 235 283 367
#     4  10  22  37  58  86 124 154 193 238 305 347
#     4  11  21  37  66  89 115 148 209 243 286 339
#     4  11  20  36  60  89 115 156 198 245 283 353
#
# _framework density 25.674358000000002
#
# number of rings (size 3 to 8) (size 9 to 14) (size 15 to 20)
#    0.000    2.000    2.857    1.714    0.000    0.571 
#    0.000    4.286    0.000    3.429    0.000    0.000 
#    0.000    0.000    0.000    0.000    0.000    0.000 
#
# Total GULP energy -173511.081795 kJ/mol
# GULP energy per Si atom -12393.648700 kJ/mol
# Density = 2.561592 g / cm^3
# Si number density = 25.674358 Si / 1000 Ang^3
#
#
#
# Elastic Constant Matrix: (Units=GPa)
#
#
# Indices 1 2 3 4 5 6 
#
# 1 86.4240 22.4345 48.4072 -4.4809 -36.2519 -4.6018
# 2 22.4345 94.4858 43.9086 -13.9727 -19.8613 19.7443
# 3 48.4072 43.9086 87.4621 -13.7342 -40.0512 12.8880
# 4 -4.4809 -13.9727 -13.7342 35.8410 5.4266 -20.3805
# 5 -36.2519 -19.8613 -40.0512 5.4266 37.4172 3.0756
# 6 -4.6018 19.7443 12.8880 -20.3805 3.0756 28.4967
#
#
#
# Elastic Compliance Matrix: (Units=1/GPa)
#
#
# Indices 1 2 3 4 5 6 
#
# 1 0.020880 -0.000525 -0.006281 0.001846 0.012422 0.006556
# 2 -0.000525 0.015622 -0.004118 -0.002878 0.004748 -0.011617
# 3 -0.006281 -0.004118 0.032040 -0.005673 0.028473 -0.019782
# 4 0.001846 -0.002878 -0.005673 0.052645 -0.017092 0.044354
# 5 0.012422 0.004748 0.028473 -0.017092 0.077090 -0.034705
# 6 0.006556 -0.011617 -0.019782 0.044354 -0.034705 0.088613
#
#
# Mechanical properties :
#
#
# Convention : Reuss Voigt Hill
#
# Bulk Modulus (GPa) = 21.41577 55.31918 38.36748
# Shear Modulus (GPa) = 15.41773 30.59242 23.00507
#
# Velocity S-wave (km/s) = 2.45319 3.45564 2.99663
# Velocity P-wave (km/s) = 4.04767 6.12496 5.19128
#
# Compressibility (1/GPa) = 0.04669456
#
# Stress axis : x y z
#
# Youngs Moduli (GPa) = 47.89159 64.01261 31.21124
#
# Poissons Ratio (x) = 0.03359 0.19604
# Poissons Ratio (y) = 0.02513 0.12853
# Poissons Ratio (z) = 0.30081 0.26361
#
# Static dielectric constant tensor:
#      x y z
#    x 4.820950 -0.067200 -0.473230 
#    y -0.067200 4.376600 0.141030 
#    z -0.473230 0.141030 4.439460 
# 
# 
# High freq. dielectric constant tensor:
#      x y z
#    x 2.041420 -0.008010 -0.025080 
#    y -0.008010 2.010050 0.000980 
#    z -0.025080 0.000980 2.001720 
# 
# From -- ./inp_files/277269.got.cif
#   From: 2010.06.25/outbox.cif.g09.slc.cpg/sg2_139_cif.got.tgz:277269.got - 2010.06.27 13:26:56.
