data_PCOD8003645
_publ_section_title
;
Structure prediction by ZEFSAII (Michael W. Deem and Ramdas Pophale) SiO2 
 PCOD8003645
Probable space group: P -1
;
_chemical_formula_sum "Si O2"
_cell_formula_units_Z 16
_cell_length_a 21.008632
_cell_length_b 11.564558
_cell_length_c 7.396710
_cell_angle_alpha 107.281802
_cell_angle_beta 60.626396
_cell_angle_gamma 150.116324
_cell_volume 745.470015
_symmetry_space_group_name_H-M "P -1"
_symmetry_group_IT_number 2
_symmetry_cell_setting 'triclinic'
loop_
_space_group_symop_operation_xyz
x,y,z
-x,-y,-z
loop_
_atom_site_type_symbol
_atom_site_label
_atom_site_fract_x
_atom_site_fract_y
_atom_site_fract_z
Si Si1 0.573331 0.919750 0.889463
Si Si2 0.045328 0.204442 0.523438
Si Si3 0.272831 0.228195 0.153965
Si Si4 0.386216 0.227094 0.523414
Si Si5 0.726868 0.380482 0.889420
Si Si6 0.151709 0.340214 0.818321
Si Si7 0.182462 0.137754 0.845978
Si Si8 0.536864 0.725385 0.181642
O O1 0.603002 0.838816 0.700010
O O2 0.692637 0.192651 0.795509
O O3 0.410832 0.732472 0.000201
O O4 0.585199 0.910463 0.082697
O O5 0.132784 0.368591 0.300033
O O6 0.151775 0.382528 0.629169
O O7 0.000000 0.000000 0.500000
O O8 0.886876 0.042631 0.673050
O O9 0.362508 0.447758 0.264139
O O10 0.256294 0.269003 0.000021
O O11 0.367597 0.246045 0.013118
O O12 0.500000 0.500000 0.500000
O O13 0.231105 0.075305 0.673023
O O14 0.421033 0.190277 0.629108
O O15 0.759704 0.434486 0.082880
O O16 0.222677 0.307819 0.735747
O O17 0.989243 0.110920 0.013277
#
# Coordination Sequence:
#
# PCOD8003645 Si02
#       8
#     2   2   2   2   2   2   2   2
#     4  11  25  42  58  83 120 159 201 245 293 357
#     4  11  22  36  61  92 118 150 199 250 293 344
#     4   9  18  34  58  90 119 145 189 244 292 348
#     4  11  22  36  61  92 118 150 199 250 293 344
#     4  11  25  42  58  83 120 159 201 245 293 357
#     4  10  20  37  60  84 119 156 186 235 303 352
#     4   9  18  34  58  90 119 145 189 244 292 348
#     4  10  20  37  60  84 119 156 186 235 303 352
#
# _framework density 21.462966999999999
#
# number of rings (size 3 to 8) (size 9 to 14) (size 15 to 20)
#    0.000    1.750    0.000    6.750    0.000    8.000 
#    0.000    5.000    0.000    4.500    0.000    0.000 
#    0.000    0.000    0.000    0.000    0.000    0.000 
#
# Total GULP energy -198291.482267 kJ/mol
# GULP energy per Si atom -12393.217642 kJ/mol
# Density = 2.141412 g / cm^3
# Si number density = 21.462967 Si / 1000 Ang^3
#
#
#
# Elastic Constant Matrix: (Units=GPa)
#
#
# Indices 1 2 3 4 5 6 
#
# 1 87.7288 48.5268 36.3732 7.3808 2.2903 20.4740
# 2 48.5268 72.0323 33.8780 -4.9508 2.2096 -7.0494
# 3 36.3732 33.8780 84.0610 1.3476 3.6793 -0.0052
# 4 7.3808 -4.9508 1.3476 22.6499 4.9328 -2.2437
# 5 2.2903 2.2096 3.6793 4.9328 29.9752 4.0362
# 6 20.4740 -7.0494 -0.0052 -2.2437 4.0362 28.6994
#
#
#
# Elastic Compliance Matrix: (Units=1/GPa)
#
#
# Indices 1 2 3 4 5 6 
#
# 1 0.045539 -0.034661 -0.005738 -0.028802 0.010543 -0.044736
# 2 -0.034661 0.044671 -0.003001 0.027315 -0.010056 0.039248
# 3 -0.005738 -0.003001 0.015656 0.001073 -0.001939 0.003716
# 4 -0.028802 0.027315 0.001073 0.066249 -0.015508 0.034617
# 5 0.010543 -0.010056 -0.001939 -0.015508 0.038321 -0.016594
# 6 -0.044736 0.039248 0.003716 0.034617 -0.016594 0.081439
#
#
# Mechanical properties :
#
#
# Convention : Reuss Voigt Hill
#
# Bulk Modulus (GPa) = 52.44796 53.48646 52.96721
# Shear Modulus (GPa) = 12.98599 24.60118 18.79358
#
# Velocity S-wave (km/s) = 2.46243 3.38925 2.96231
# Velocity P-wave (km/s) = 5.70739 6.34748 6.03592
#
# Compressibility (1/GPa) = 0.01906652
#
# Stress axis : x y z
#
# Youngs Moduli (GPa) = 21.95940 22.38586 63.87191
#
# Poissons Ratio (x) = 0.77591 0.36651
# Poissons Ratio (y) = 0.76113 0.19167
# Poissons Ratio (z) = 0.12601 0.06718
#
# Static dielectric constant tensor:
#      x y z
#    x 4.673320 0.644130 -0.093550 
#    y 0.644130 3.909930 -0.098440 
#    z -0.093550 -0.098440 4.250120 
# 
# 
# High freq. dielectric constant tensor:
#      x y z
#    x 1.850250 0.032410 -0.000010 
#    y 0.032410 1.811190 -0.003440 
#    z -0.000010 -0.003440 1.846450 
# 
# From -- ./inp_files/345434.got.cif
#   From: 2010.06.25/outbox.cif.g09.slc.cpg/sg2_173_cif.got.tgz:345434.got - 2010.06.27 13:26:56.
