data_PCOD8003672
_publ_section_title
;
Structure prediction by ZEFSAII (Michael W. Deem and Ramdas Pophale) SiO2 
 PCOD8003672
Probable space group: P -1
;
_chemical_formula_sum "Si O2"
_cell_formula_units_Z 12
_cell_length_a 23.141807
_cell_length_b 6.711096
_cell_length_c 13.528787
_cell_angle_alpha 58.233964
_cell_angle_beta 159.379318
_cell_angle_gamma 123.293004
_cell_volume 617.945549
_symmetry_space_group_name_H-M "P -1"
_symmetry_group_IT_number 2
_symmetry_cell_setting 'triclinic'
loop_
_space_group_symop_operation_xyz
x,y,z
-x,-y,-z
loop_
_atom_site_type_symbol
_atom_site_label
_atom_site_fract_x
_atom_site_fract_y
_atom_site_fract_z
Si Si1 0.927306 0.584894 0.758340
Si Si2 0.824617 0.079187 0.709594
Si Si3 0.463598 0.382946 0.364823
Si Si4 0.258496 0.883509 0.204982
Si Si5 0.489492 0.816483 0.161873
Si Si6 0.408120 0.272843 0.855299
O O1 0.859147 0.345829 0.647988
O O2 0.772274 0.719351 0.482224
O O3 0.000000 0.500000 0.000000
O O4 0.077738 0.768779 0.899458
O O5 0.754093 0.100544 0.701410
O O6 0.686824 0.894667 0.480004
O O7 0.000000 0.000000 0.000000
O O8 0.500000 0.500000 0.500000
O O9 0.621115 0.294873 0.590410
O O10 0.407740 0.590172 0.155756
O O11 0.314662 0.153531 0.186032
O O12 0.467162 0.745206 0.030609
O O13 0.396545 0.041912 0.969684
O O14 0.500000 0.500000 0.000000
#
# Coordination Sequence:
#
# PCOD8003672 Si02
#       6
#     2   2   2   2   2   2
#     4  10  20  37  60  87 122 158 205 261 309 359
#     4  11  19  34  63  94 125 155 205 267 308 363
#     4  11  22  39  63  92 126 167 215 256 303 377
#     4  10  22  37  60  93 125 162 209 260 309 356
#     4  11  22  37  61  92 123 166 207 254 316 373
#     4  11  23  40  61  92 130 162 202 262 325 372
#
# _framework density 19.419187000000001
#
# number of rings (size 3 to 8) (size 9 to 14) (size 15 to 20)
#    0.000    1.333    3.333    5.000    0.000    0.000 
#    0.000    0.833    0.000    2.000    0.000    0.000 
#    0.000    0.000    0.000    0.000    0.000    0.000 
#
# Total GULP energy -148667.813228 kJ/mol
# GULP energy per Si atom -12388.984436 kJ/mol
# Density = 1.937499 g / cm^3
# Si number density = 19.419187 Si / 1000 Ang^3
#
#
#
# Elastic Constant Matrix: (Units=GPa)
#
#
# Indices 1 2 3 4 5 6 
#
# 1 87.5774 54.7309 28.3348 -7.1394 5.3730 -4.0238
# 2 54.7309 168.8778 47.5919 -6.8184 2.1133 24.5293
# 3 28.3348 47.5919 104.1092 -11.6413 4.9433 14.3432
# 4 -7.1394 -6.8184 -11.6413 43.2129 3.4885 0.6118
# 5 5.3730 2.1133 4.9433 3.4885 25.6892 -5.2806
# 6 -4.0238 24.5293 14.3432 0.6118 -5.2806 39.5960
#
#
#
# Elastic Compliance Matrix: (Units=1/GPa)
#
#
# Indices 1 2 3 4 5 6 
#
# 1 0.015913 -0.005184 -0.002524 0.001169 -0.001437 0.005533
# 2 -0.005184 0.008935 -0.001886 0.000156 -0.000427 -0.005438
# 3 -0.002524 -0.001886 0.012146 0.002842 -0.002844 -0.003911
# 4 0.001169 0.000156 0.002842 0.024520 -0.004543 -0.001993
# 5 -0.001437 -0.000427 -0.002844 -0.004543 0.041824 0.006796
# 6 0.005533 -0.005438 -0.003911 -0.001993 0.006796 0.031540
#
#
# Mechanical properties :
#
#
# Convention : Reuss Voigt Hill
#
# Bulk Modulus (GPa) = 56.16830 69.09774 62.63302
# Shear Modulus (GPa) = 31.24960 37.02675 34.13817
#
# Velocity S-wave (km/s) = 4.01585 4.37133 4.19735
# Velocity P-wave (km/s) = 7.10561 7.81904 7.47085
#
# Compressibility (1/GPa) = 0.01780364
#
# Stress axis : x y z
#
# Youngs Moduli (GPa) = 62.84267 111.92321 82.32875
#
# Poissons Ratio (x) = 0.58024 0.20783
# Poissons Ratio (y) = 0.32579 0.15531
# Poissons Ratio (z) = 0.15864 0.21114
#
# Static dielectric constant tensor:
#      x y z
#    x 3.460440 0.011380 0.099730 
#    y 0.011380 4.358300 0.126180 
#    z 0.099730 0.126180 3.622160 
# 
# 
# High freq. dielectric constant tensor:
#      x y z
#    x 1.728930 -0.011080 0.005730 
#    y -0.011080 1.791730 -0.000040 
#    z 0.005730 -0.000040 1.739350 
# 
# From -- ./inp_files/71445.got.cif
#   From: 2010.06.25/outbox.cif.g09.slc.cpg/sg2_36_cif.got.tgz:71445.got - 2010.06.27 13:26:56.
