data_PCOD8003762
_publ_section_title
;
Structure prediction by ZEFSAII (Michael W. Deem and Ramdas Pophale) SiO2 
 PCOD8003762
Probable space group: P -1
;
_chemical_formula_sum "Si O2"
_cell_formula_units_Z 16
_cell_length_a 12.194492
_cell_length_b 20.149709
_cell_length_c 14.016629
_cell_angle_alpha 149.899431
_cell_angle_beta 150.102789
_cell_angle_gamma 31.433028
_cell_volume 784.108180
_symmetry_space_group_name_H-M "P -1"
_symmetry_group_IT_number 2
_symmetry_cell_setting 'triclinic'
loop_
_space_group_symop_operation_xyz
x,y,z
-x,-y,-z
loop_
_atom_site_type_symbol
_atom_site_label
_atom_site_fract_x
_atom_site_fract_y
_atom_site_fract_z
Si Si1 0.247192 0.007851 0.789760
Si Si2 0.148938 0.546119 0.946526
Si Si3 0.888594 0.633222 0.152087
Si Si4 0.911432 0.227378 0.664338
Si Si5 0.036395 0.782212 0.015785
Si Si6 0.118398 0.166841 0.251399
Si Si7 0.464827 0.276897 0.750651
Si Si8 0.367550 0.838061 0.069704
O O1 0.274273 0.846340 0.583651
O O2 0.147920 0.113314 0.755203
O O3 0.079779 0.063992 0.826888
O O4 0.500000 0.000000 0.000000
O O5 0.032642 0.439943 0.773737
O O6 0.387581 0.437749 0.936878
O O7 0.216099 0.628299 0.187271
O O8 0.979871 0.663995 0.889414
O O9 0.594000 0.719095 0.034332
O O10 0.005434 0.741905 0.340008
O O11 0.000000 0.500000 0.000000
O O12 0.320906 0.743702 0.186219
O O13 0.936649 0.782696 0.836347
O O14 0.242866 0.262707 0.511852
O O15 0.302495 0.998067 0.179032
O O16 0.870917 0.196085 0.158515
O O17 0.561068 0.159041 0.761870
#
# Coordination Sequence:
#
# PCOD8003762 Si02
#       8
#     2   2   2   2   2   2   2   2
#     4  10  22  38  58  89 119 147 194 246 294 351
#     4   9  19  39  58  86 119 152 204 239 285 359
#     4   9  18  36  64  84 113 164 199 238 294 353
#     4   9  20  39  62  83 114 157 192 242 295 341
#     4  10  22  36  57  89 119 152 201 243 295 359
#     4  10  21  36  57  90 122 158 191 252 304 342
#     4  10  20  37  61  85 115 163 197 241 297 353
#     4   9  20  37  56  88 124 149 204 247 291 363
#
# _framework density 20.405348
#
# number of rings (size 3 to 8) (size 9 to 14) (size 15 to 20)
#    0.000    2.500    0.000    0.750    3.500    2.500 
#    4.500   10.000    0.000    9.750    0.000    0.000 
#    0.000    0.000    0.000    0.000    0.000    0.000 
#
# Total GULP energy -198227.487130 kJ/mol
# GULP energy per Si atom -12389.217946 kJ/mol
# Density = 2.035890 g / cm^3
# Si number density = 20.405348 Si / 1000 Ang^3
#
#
#
# Elastic Constant Matrix: (Units=GPa)
#
#
# Indices 1 2 3 4 5 6 
#
# 1 113.2820 51.8991 49.8248 8.7243 4.2923 -1.2624
# 2 51.8991 96.0830 52.4892 11.9681 3.5850 -4.3768
# 3 49.8248 52.4892 126.6895 -2.2930 2.9299 2.3750
# 4 8.7243 11.9681 -2.2930 26.4774 2.1130 -3.5655
# 5 4.2923 3.5850 2.9299 2.1130 18.0157 5.1706
# 6 -1.2624 -4.3768 2.3750 -3.5655 5.1706 41.5629
#
#
#
# Elastic Compliance Matrix: (Units=1/GPa)
#
#
# Indices 1 2 3 4 5 6 
#
# 1 0.012559 -0.004876 -0.002927 -0.002081 -0.001307 0.000019
# 2 -0.004876 0.016705 -0.005118 -0.006100 -0.001048 0.001511
# 3 -0.002927 -0.005118 0.011265 0.004164 -0.000355 -0.000870
# 4 -0.002081 -0.006100 0.004164 0.042407 -0.004889 0.003303
# 5 -0.001307 -0.001048 -0.000355 -0.004889 0.058920 -0.007879
# 6 0.000019 0.001511 -0.000870 0.003303 -0.007879 0.025533
#
#
# Mechanical properties :
#
#
# Convention : Reuss Voigt Hill
#
# Bulk Modulus (GPa) = 68.08674 71.60898 69.84786
# Shear Modulus (GPa) = 25.23663 29.33396 27.28529
#
# Velocity S-wave (km/s) = 3.52058 3.79563 3.66069
# Velocity P-wave (km/s) = 7.06863 7.37418 7.22302
#
# Compressibility (1/GPa) = 0.01468715
#
# Stress axis : x y z
#
# Youngs Moduli (GPa) = 79.62661 59.86200 88.77264
#
# Poissons Ratio (x) = 0.29188 0.25982
# Poissons Ratio (y) = 0.38825 0.45434
# Poissons Ratio (z) = 0.23305 0.30638
#
# Static dielectric constant tensor:
#      x y z
#    x 4.352560 0.029330 0.094040 
#    y 0.029330 3.964460 0.200840 
#    z 0.094040 0.200840 3.383760 
# 
# 
# High freq. dielectric constant tensor:
#      x y z
#    x 1.812820 0.004300 0.001630 
#    y 0.004300 1.802700 0.019450 
#    z 0.001630 0.019450 1.759710 
# 
# From -- ./inp_files/118638.got.cif
#   From: 2010.06.25/outbox.cif.g09.slc.cpg/sg2_60_cif.got.tgz:118638.got - 2010.06.27 13:26:56.
