data_PCOD8003400
_publ_section_title
;
Structure prediction by ZEFSAII (Michael W. Deem and Ramdas Pophale) SiO2 
 PCOD8003400
Probable space group: P -1
;
_chemical_formula_sum "Si O2"
_cell_formula_units_Z 16
_cell_length_a 20.127592
_cell_length_b 10.039470
_cell_length_c 11.947646
_cell_angle_alpha 77.626185
_cell_angle_beta 41.848545
_cell_angle_gamma 43.954281
_cell_volume 803.513352
_symmetry_space_group_name_H-M "P -1"
_symmetry_group_IT_number 2
_symmetry_cell_setting 'triclinic'
loop_
_space_group_symop_operation_xyz
x,y,z
-x,-y,-z
loop_
_atom_site_type_symbol
_atom_site_label
_atom_site_fract_x
_atom_site_fract_y
_atom_site_fract_z
Si Si1 0.605713 0.955394 0.132228
Si Si2 0.693286 0.085516 0.627359
Si Si3 0.580099 0.760395 0.904995
Si Si4 0.529441 0.163970 0.605945
Si Si5 0.596631 0.177881 0.282144
Si Si6 0.084164 0.533867 0.332653
Si Si7 0.777944 0.235217 0.112233
Si Si8 0.778133 0.244005 0.366568
O O1 0.516125 0.942631 0.323936
O O2 0.449772 0.210532 0.196812
O O3 0.688617 0.974590 0.107305
O O4 0.778455 0.678919 0.900039
O O5 0.672904 0.011036 0.559226
O O6 0.670887 0.266554 0.581575
O O7 0.535216 0.229164 0.893939
O O8 0.910146 0.825900 0.449281
O O9 0.804953 0.497854 0.711065
O O10 0.500000 0.000000 0.000000
O O11 0.641923 0.064995 0.368300
O O12 0.338900 0.485190 0.807170
O O13 0.682433 0.229618 0.157664
O O14 0.360187 0.459407 0.510049
O O15 0.000000 0.500000 0.500000
O O16 0.772008 0.192894 0.256462
O O17 0.999864 0.988804 0.835494
#
# Coordination Sequence:
#
# PCOD8003400 Si02
#       8
#     2   2   2   2   2   2   2   2
#     4  11  22  39  60  90 124 154 189 251 302 347
#     4  12  19  35  65  88 109 151 213 241 280 338
#     4  10  20  37  56  85 113 153 198 244 286 342
#     4  11  19  38  64  89 118 160 193 241 288 357
#     4  11  22  40  58  89 131 153 184 244 310 346
#     4  11  20  36  59  85 113 154 206 243 281 342
#     4  10  20  39  61  87 118 156 209 230 281 360
#     4  10  21  36  63  86 114 162 200 239 280 357
#
# _framework density 19.912551000000001
#
# number of rings (size 3 to 8) (size 9 to 14) (size 15 to 20)
#    0.000    1.250    7.500    1.875    0.000    0.000 
#    4.500    1.250    0.000    1.500    0.000    0.000 
#    0.000    0.000    0.000    0.000    0.000    0.000 
#
# Total GULP energy -198310.045556 kJ/mol
# GULP energy per Si atom -12394.377847 kJ/mol
# Density = 1.986723 g / cm^3
# Si number density = 19.912551 Si / 1000 Ang^3
#
#
#
# Elastic Constant Matrix: (Units=GPa)
#
#
# Indices 1 2 3 4 5 6 
#
# 1 101.1332 34.5847 24.7946 -1.6381 -12.2148 -4.0321
# 2 34.5847 82.4440 28.1061 -21.1743 -10.7545 -10.1791
# 3 24.7946 28.1061 70.0358 -14.7418 -20.7620 -6.5579
# 4 -1.6381 -21.1743 -14.7418 32.5103 -8.7043 -7.5670
# 5 -12.2148 -10.7545 -20.7620 -8.7043 26.0090 5.6150
# 6 -4.0321 -10.1791 -6.5579 -7.5670 5.6150 26.4556
#
#
#
# Elastic Compliance Matrix: (Units=1/GPa)
#
#
# Indices 1 2 3 4 5 6 
#
# 1 0.012536 -0.005944 -0.003871 -0.005927 -0.001037 -0.002811
# 2 -0.005944 0.022593 0.002878 0.022164 0.013689 0.011935
# 3 -0.003871 0.002878 0.029065 0.024617 0.028951 0.008618
# 4 -0.005927 0.022164 0.024617 0.074092 0.045368 0.025290
# 5 -0.001037 0.013689 0.028951 0.045368 0.080134 0.008254
# 6 -0.002811 0.011935 0.008618 0.025290 0.008254 0.049581
#
#
# Mechanical properties :
#
#
# Convention : Reuss Voigt Hill
#
# Bulk Modulus (GPa) = 19.87215 47.62042 33.74629
# Shear Modulus (GPa) = 16.74213 28.07015 22.40614
#
# Velocity S-wave (km/s) = 2.90277 3.75863 3.35808
# Velocity P-wave (km/s) = 4.60827 6.54241 5.65859
#
# Compressibility (1/GPa) = 0.05032168
#
# Stress axis : x y z
#
# Youngs Moduli (GPa) = 79.76854 44.26116 34.40570
#
# Poissons Ratio (x) = 0.26307 0.13319
# Poissons Ratio (y) = 0.47412 -0.09903
# Poissons Ratio (z) = 0.30879 -0.12740
#
# Static dielectric constant tensor:
#      x y z
#    x 3.708600 -0.419650 -0.252720 
#    y -0.419650 3.750390 -0.131550 
#    z -0.252720 -0.131550 3.500240 
# 
# 
# High freq. dielectric constant tensor:
#      x y z
#    x 1.759950 -0.025020 -0.021480 
#    y -0.025020 1.779460 -0.020230 
#    z -0.021480 -0.020230 1.759580 
# 
# From -- ./inp_files/448314.got.cif
#   From: 2010.06.25/outbox.cif.g09.slc.cpg/sg2_225_cif.got.tgz:448314.got - 2010.06.27 13:26:56.
