data_PCOD8003950
_publ_section_title
;
Structure prediction by ZEFSAII (Michael W. Deem and Ramdas Pophale) SiO2 
 PCOD8003950
Probable space group: P -1
;
_chemical_formula_sum "Si O2"
_cell_formula_units_Z 12
_cell_length_a 5.921634
_cell_length_b 17.644710
_cell_length_c 5.789179
_cell_angle_alpha 120.525411
_cell_angle_beta 107.387156
_cell_angle_gamma 69.806688
_cell_volume 483.284001
_symmetry_space_group_name_H-M "P -1"
_symmetry_group_IT_number 2
_symmetry_cell_setting 'triclinic'
loop_
_space_group_symop_operation_xyz
x,y,z
-x,-y,-z
loop_
_atom_site_type_symbol
_atom_site_label
_atom_site_fract_x
_atom_site_fract_y
_atom_site_fract_z
Si Si1 0.186693 0.562237 0.377208
Si Si2 0.074709 0.291107 0.175823
Si Si3 0.429089 0.694931 0.420641
Si Si4 0.633110 0.002668 0.793613
Si Si5 0.255634 0.373428 0.969042
Si Si6 0.088030 0.850800 0.806971
O O1 0.373017 0.601040 0.338849
O O2 0.298688 0.453813 0.279818
O O3 0.136018 0.619576 0.686061
O O4 0.915875 0.576738 0.209551
O O5 0.336161 0.285379 0.357117
O O6 0.118773 0.302190 0.934193
O O7 0.991893 0.200287 0.074925
O O8 0.202985 0.778858 0.532384
O O9 0.487132 0.683270 0.145207
O O10 0.500000 0.000000 0.500000
O O11 0.719102 0.095810 0.957924
O O12 0.859133 0.916844 0.720455
O O13 0.500000 0.000000 0.000000
#
# Coordination Sequence:
#
# PCOD8003950 Si02
#       6
#     2   2   2   2   2   2
#     4   9  20  37  58  90 136 186 238 287 339 408
#     4  10  21  40  59 101 134 182 233 289 352 413
#     4  10  21  40  58  99 135 179 236 286 353 415
#     4  11  26  55  81 111 142 189 236 293 370 453
#     4  10  20  37  62  91 135 186 236 287 344 411
#     4  10  24  48  72 108 145 179 234 298 362 439
#
# _framework density 24.830120000000001
#
# number of rings (size 3 to 8) (size 9 to 14) (size 15 to 20)
#    0.000    2.000    0.000    2.000    0.000    6.000 
#   39.000    0.000    0.000    0.000    0.000    0.000 
#    0.000    0.000    0.000    0.000    0.000    0.000 
#
# Total GULP energy -148671.960800 kJ/mol
# GULP energy per Si atom -12389.330067 kJ/mol
# Density = 2.477361 g / cm^3
# Si number density = 24.830120 Si / 1000 Ang^3
#
#
#
# Elastic Constant Matrix: (Units=GPa)
#
#
# Indices 1 2 3 4 5 6 
#
# 1 135.5780 61.9719 58.1898 11.4131 -22.0039 41.0868
# 2 61.9719 119.2126 58.1346 20.5554 -10.0733 26.5875
# 3 58.1898 58.1346 98.4286 -4.4639 -8.1669 10.2342
# 4 11.4131 20.5554 -4.4639 36.3227 4.5131 3.6851
# 5 -22.0039 -10.0733 -8.1669 4.5131 52.0025 -5.0133
# 6 41.0868 26.5875 10.2342 3.6851 -5.0133 49.4244
#
#
#
# Elastic Compliance Matrix: (Units=1/GPa)
#
#
# Indices 1 2 3 4 5 6 
#
# 1 0.014858 -0.000997 -0.007037 -0.004553 0.004462 -0.009566
# 2 -0.000997 0.016053 -0.008652 -0.009520 0.001660 -0.005137
# 3 -0.007037 -0.008652 0.019095 0.009114 -0.001898 0.005678
# 4 -0.004553 -0.009520 0.009114 0.035709 -0.005068 0.003842
# 5 0.004462 0.001660 -0.001898 -0.005068 0.021421 -0.001658
# 6 -0.009566 -0.005137 0.005678 0.003842 -0.001658 0.029319
#
#
# Mechanical properties :
#
#
# Convention : Reuss Voigt Hill
#
# Bulk Modulus (GPa) = 60.11277 78.86798 69.49037
# Shear Modulus (GPa) = 28.51083 39.21143 33.86113
#
# Velocity S-wave (km/s) = 3.39224 3.97821 3.69685
# Velocity P-wave (km/s) = 6.29327 7.27554 6.80216
#
# Compressibility (1/GPa) = 0.01663540
#
# Stress axis : x y z
#
# Youngs Moduli (GPa) = 67.30333 62.29274 52.36869
#
# Poissons Ratio (x) = 0.06209 0.36851
# Poissons Ratio (y) = 0.06708 0.45310
# Poissons Ratio (z) = 0.47361 0.53896
#
# Static dielectric constant tensor:
#      x y z
#    x 4.945550 0.163160 -0.382380 
#    y 0.163160 4.402040 0.170140 
#    z -0.382380 0.170140 4.917630 
# 
# 
# High freq. dielectric constant tensor:
#      x y z
#    x 2.014350 0.002660 -0.002280 
#    y 0.002660 1.976820 0.011390 
#    z -0.002280 0.011390 1.982370 
# 
# From -- ./inp_files/4378.got.cif
#   From: 2010.06.25/outbox.cif.g09.slc.cpg/sg2_3_cif.got.tgz:4378.got - 2010.06.27 13:26:56.
