data_PCOD8003540
_publ_section_title
;
Structure prediction by ZEFSAII (Michael W. Deem and Ramdas Pophale) SiO2 
 PCOD8003540
Probable space group: P -1
;
_chemical_formula_sum "Si O2"
_cell_formula_units_Z 16
_cell_length_a 13.283984
_cell_length_b 16.140019
_cell_length_c 8.553848
_cell_angle_alpha 88.735319
_cell_angle_beta 86.874132
_cell_angle_gamma 154.770621
_cell_volume 769.495384
_symmetry_space_group_name_H-M "P -1"
_symmetry_group_IT_number 2
_symmetry_cell_setting 'triclinic'
loop_
_space_group_symop_operation_xyz
x,y,z
-x,-y,-z
loop_
_atom_site_type_symbol
_atom_site_label
_atom_site_fract_x
_atom_site_fract_y
_atom_site_fract_z
Si Si1 0.243055 0.332166 0.097591
Si Si2 0.982494 0.446669 0.253141
Si Si3 0.472620 0.105334 0.257914
Si Si4 0.190392 0.012323 0.080063
Si Si5 0.816951 0.858451 0.661875
Si Si6 0.107931 0.701421 0.404977
Si Si7 0.643399 0.400405 0.315841
Si Si8 0.321611 0.571515 0.056263
O O1 0.166888 0.218741 0.253881
O O2 0.242873 0.427165 0.150675
O O3 0.500000 0.500000 0.000000
O O4 0.051427 0.182910 0.982213
O O5 0.742199 0.279010 0.174188
O O6 0.894212 0.334621 0.420062
O O7 0.105511 0.625840 0.280263
O O8 0.174199 0.537206 0.139185
O O9 0.306415 0.012430 0.132345
O O10 0.518578 0.217377 0.367378
O O11 0.344617 0.933520 0.360706
O O12 0.125933 0.025933 0.226066
O O13 0.393773 0.204853 0.943619
O O14 0.547078 0.669500 0.625541
O O15 0.000000 0.000000 0.500000
O O16 0.872991 0.583472 0.399515
O O17 0.719023 0.462101 0.125043
#
# Coordination Sequence:
#
# PCOD8003540 Si02
#       8
#     2   2   2   2   2   2   2   2
#     4  12  22  41  67  86 122 168 208 250 311 365
#     4  10  22  37  58  90 118 159 196 253 297 366
#     4   9  19  36  61  83 118 153 195 243 301 359
#     4  10  23  40  64  90 121 163 201 260 309 358
#     4  10  22  40  63  92 126 158 205 262 307 362
#     4  10  20  37  59  82 122 158 196 242 315 358
#     4   9  20  38  55  84 119 155 195 254 296 360
#     4  10  22  39  60  89 121 155 209 248 300 366
#
# _framework density 20.792846999999998
#
# number of rings (size 3 to 8) (size 9 to 14) (size 15 to 20)
#    0.000    2.250    2.500    1.500    0.000    8.500 
#    0.000    4.375    0.000    0.000    0.000    0.000 
#    0.000    0.000    0.000    0.000    0.000    0.000 
#
# Total GULP energy -198329.529359 kJ/mol
# GULP energy per Si atom -12395.595585 kJ/mol
# Density = 2.074552 g / cm^3
# Si number density = 20.792847 Si / 1000 Ang^3
#
#
#
# Elastic Constant Matrix: (Units=GPa)
#
#
# Indices 1 2 3 4 5 6 
#
# 1 112.9755 43.0629 60.1537 -6.7512 -5.2370 11.4994
# 2 43.0629 109.4710 37.7399 -10.2304 -0.8470 11.6965
# 3 60.1537 37.7399 87.4124 -24.7460 -8.1960 0.1843
# 4 -6.7512 -10.2304 -24.7460 19.9509 3.5164 10.8548
# 5 -5.2370 -0.8470 -8.1960 3.5164 28.1325 -11.6790
# 6 11.4994 11.6965 0.1843 10.8548 -11.6790 41.0205
#
#
#
# Elastic Compliance Matrix: (Units=1/GPa)
#
#
# Indices 1 2 3 4 5 6 
#
# 1 0.016563 -0.002974 -0.013736 -0.012979 0.000556 -0.000141
# 2 -0.002974 0.012040 -0.001535 0.006926 -0.003789 -0.005504
# 3 -0.013736 -0.001535 0.032268 0.037945 -0.000447 -0.006025
# 4 -0.012979 0.006926 0.037945 0.119792 -0.021168 -0.036233
# 5 0.000556 -0.003789 -0.000447 -0.021168 0.046225 0.019689
# 6 -0.000141 -0.005504 -0.006025 -0.036233 0.019689 0.041208
#
#
# Mechanical properties :
#
#
# Convention : Reuss Voigt Hill
#
# Bulk Modulus (GPa) = 41.01309 65.75243 53.38276
# Shear Modulus (GPa) = 15.98916 29.08093 22.53504
#
# Velocity S-wave (km/s) = 2.77605 3.74385 3.29567
# Velocity P-wave (km/s) = 5.48112 7.09787 6.34123
#
# Compressibility (1/GPa) = 0.02438246
#
# Stress axis : x y z
#
# Youngs Moduli (GPa) = 60.37461 83.05870 30.99029
#
# Poissons Ratio (x) = 0.24698 0.42569
# Poissons Ratio (y) = 0.17953 0.04756
# Poissons Ratio (z) = 0.82932 0.12746
#
# Static dielectric constant tensor:
#      x y z
#    x 4.231420 0.041860 0.217080 
#    y 0.041860 3.864330 -0.119290 
#    z 0.217080 -0.119290 3.350350 
# 
# 
# High freq. dielectric constant tensor:
#      x y z
#    x 1.833800 0.009500 0.017830 
#    y 0.009500 1.817770 -0.013960 
#    z 0.017830 -0.013960 1.775000 
# 
# From -- ./inp_files/273146.got.cif
#   From: 2010.06.25/outbox.cif.g09.slc.cpg/sg2_137_cif.got.tgz:273146.got - 2010.06.27 13:26:56.
