data_PCOD8003713
_publ_section_title
;
Structure prediction by ZEFSAII (Michael W. Deem and Ramdas Pophale) SiO2 
 PCOD8003713
Probable space group: P -1
;
_chemical_formula_sum "Si O2"
_cell_formula_units_Z 16
_cell_length_a 13.024177
_cell_length_b 9.447185
_cell_length_c 14.664147
_cell_angle_alpha 143.431979
_cell_angle_beta 43.923025
_cell_angle_gamma 120.025792
_cell_volume 732.256942
_symmetry_space_group_name_H-M "P -1"
_symmetry_group_IT_number 2
_symmetry_cell_setting 'triclinic'
loop_
_space_group_symop_operation_xyz
x,y,z
-x,-y,-z
loop_
_atom_site_type_symbol
_atom_site_label
_atom_site_fract_x
_atom_site_fract_y
_atom_site_fract_z
Si Si1 0.619032 0.666974 0.284506
Si Si2 0.812033 0.052208 0.558921
Si Si3 0.896316 0.265338 0.291701
Si Si4 0.226021 0.821787 0.003348
Si Si5 0.118751 0.191318 0.425443
Si Si6 0.512239 0.135064 0.705300
Si Si7 0.771675 0.959347 0.072755
Si Si8 0.097447 0.150057 0.790257
O O1 0.553803 0.852988 0.502426
O O2 0.782524 0.713183 0.166912
O O3 0.504945 0.698908 0.288534
O O4 0.638910 0.393027 0.165263
O O5 0.938192 0.219974 0.571757
O O6 0.796746 0.911029 0.589246
O O7 0.646206 0.204613 0.717648
O O8 0.863864 0.859215 0.346030
O O9 0.842504 0.549783 0.490651
O O10 0.785296 0.184892 0.246215
O O11 0.886773 0.120181 0.316951
O O12 0.067522 0.220817 0.122106
O O13 0.075836 0.713251 0.015209
O O14 0.180589 0.012815 0.211757
O O15 0.281443 0.949026 0.946401
O O16 0.356592 0.181655 0.884086
#
# Coordination Sequence:
#
# PCOD8003713 Si02
#       8
#     2   2   2   2   2   2   2   2
#     4  10  20  37  60  90 124 152 202 258 300 355
#     4   9  21  39  61  90 114 165 206 238 306 357
#     4  10  21  39  64  92 123 156 202 254 299 359
#     4  10  22  37  60  92 124 160 200 249 302 355
#     4  10  22  43  63  89 125 159 203 248 301 366
#     4  10  21  39  61  88 123 161 203 251 304 354
#     4  10  22  38  61  97 118 158 205 249 305 352
#     4   9  18  36  62  93 115 154 204 255 302 338
#
# _framework density 21.850252999999999
#
# number of rings (size 3 to 8) (size 9 to 14) (size 15 to 20)
#    0.000    2.250    1.250    0.375    3.500    8.000 
#    0.000    3.125    0.000    0.000    0.000    0.000 
#    0.000    0.000    0.000    0.000    0.000    0.000 
#
# Total GULP energy -198360.310547 kJ/mol
# GULP energy per Si atom -12397.519409 kJ/mol
# Density = 2.180052 g / cm^3
# Si number density = 21.850253 Si / 1000 Ang^3
#
#
#
# Elastic Constant Matrix: (Units=GPa)
#
#
# Indices 1 2 3 4 5 6 
#
# 1 118.0407 28.1963 17.2874 2.1985 -11.1587 -24.5223
# 2 28.1963 49.3234 13.9812 -0.5732 1.4564 -22.7552
# 3 17.2874 13.9812 53.1327 9.0057 0.2165 -12.8037
# 4 2.1985 -0.5732 9.0057 36.1465 0.1481 -3.0881
# 5 -11.1587 1.4564 0.2165 0.1481 25.4860 -1.9771
# 6 -24.5223 -22.7552 -12.8037 -3.0881 -1.9771 31.9495
#
#
#
# Elastic Compliance Matrix: (Units=1/GPa)
#
#
# Indices 1 2 3 4 5 6 
#
# 1 0.011270 -0.003455 -0.001348 0.000086 0.005609 0.006005
# 2 -0.003455 0.032060 -0.003245 0.003164 -0.001856 0.019073
# 3 -0.001348 -0.003245 0.022189 -0.005066 -0.000172 0.005046
# 4 0.000086 0.003164 -0.005066 0.029238 -0.000029 0.003113
# 5 0.005609 -0.001856 -0.000172 -0.000029 0.042229 0.005524
# 6 0.006005 0.019073 0.005046 0.003113 0.005524 0.052157
#
#
# Mechanical properties :
#
#
# Convention : Reuss Voigt Hill
#
# Bulk Modulus (GPa) = 20.23352 37.71406 28.97379
# Shear Modulus (GPa) = 22.55158 29.45185 26.00171
#
# Velocity S-wave (km/s) = 3.21611 3.67535 3.45337
# Velocity P-wave (km/s) = 4.80326 5.94211 5.40278
#
# Compressibility (1/GPa) = 0.04942295
#
# Stress axis : x y z
#
# Youngs Moduli (GPa) = 88.72723 31.19161 45.06830
#
# Poissons Ratio (x) = 0.10777 0.06076
# Poissons Ratio (y) = 0.30656 0.14623
# Poissons Ratio (z) = 0.11962 0.10121
#
# Static dielectric constant tensor:
#      x y z
#    x 4.169100 -0.065760 -0.231020 
#    y -0.065760 3.750770 -0.191540 
#    z -0.231020 -0.191540 3.603520 
# 
# 
# High freq. dielectric constant tensor:
#      x y z
#    x 1.863140 -0.017000 -0.012830 
#    y -0.017000 1.846290 -0.012370 
#    z -0.012830 -0.012370 1.830490 
# 
# From -- ./inp_files/308406.got.cif
#   From: 2010.06.25/outbox.cif.g09.slc.cpg/sg2_155_cif.got.tgz:308406.got - 2010.06.27 13:26:56.
