data_PCOD8003292
_publ_section_title
;
Structure prediction by ZEFSAII (Michael W. Deem and Ramdas Pophale) SiO2 
 PCOD8003292
Probable space group: P -1
;
_chemical_formula_sum "Si O2"
_cell_formula_units_Z 16
_cell_length_a 9.464539
_cell_length_b 14.920915
_cell_length_c 12.774570
_cell_angle_alpha 69.453201
_cell_angle_beta 46.309179
_cell_angle_gamma 40.997103
_cell_volume 798.638682
_symmetry_space_group_name_H-M "P -1"
_symmetry_group_IT_number 2
_symmetry_cell_setting 'triclinic'
loop_
_space_group_symop_operation_xyz
x,y,z
-x,-y,-z
loop_
_atom_site_type_symbol
_atom_site_label
_atom_site_fract_x
_atom_site_fract_y
_atom_site_fract_z
Si Si1 0.960998 0.248510 0.466952
Si Si2 0.417022 0.348211 0.594357
Si Si3 0.247671 0.135298 0.948673
Si Si4 0.679264 0.816894 0.884507
Si Si5 0.364354 0.568993 0.929230
Si Si6 0.296625 0.943752 0.399935
Si Si7 0.211203 0.508239 0.423986
Si Si8 0.850586 0.551457 0.944912
O O1 0.642243 0.317785 0.572504
O O2 0.949546 0.331022 0.532033
O O3 0.076638 0.257579 0.299632
O O4 0.200355 0.078229 0.452069
O O5 0.514692 0.203671 0.570177
O O6 0.401740 0.412045 0.468565
O O7 0.093819 0.457515 0.767050
O O8 0.519359 0.099625 0.781659
O O9 0.358929 0.983431 0.952439
O O10 0.177427 0.191107 0.080535
O O11 0.957431 0.258028 0.974152
O O12 0.630142 0.722131 0.965449
O O13 0.576331 0.556230 0.756868
O O14 0.500000 0.500000 0.000000
O O15 0.344940 0.470401 0.933897
O O16 0.000000 0.000000 0.500000
O O17 0.000000 0.500000 0.500000
O O18 0.000000 0.500000 0.000000
#
# Coordination Sequence:
#
# PCOD8003292 Si02
#       8
#     2   2   2   2   2   2   2   2
#     4  10  21  37  65  96 125 161 209 262 324 377
#     4  11  20  37  65  94 126 159 211 262 318 379
#     4  10  20  38  62  97 133 165 203 264 328 375
#     4  10  20  36  65  96 130 158 208 266 322 374
#     4  12  26  43  64  90 129 173 214 264 320 385
#     4   9  19  36  63  97 131 158 202 262 326 378
#     4  12  26  42  62  88 125 171 219 261 313 373
#     4  12  21  36  64  97 127 162 214 265 319 373
#
# _framework density 20.034091
#
# number of rings (size 3 to 8) (size 9 to 14) (size 15 to 20)
#    0.000    1.250    3.750    2.625    0.000    2.000 
#    0.000    1.250    0.000    0.000    0.000    0.000 
#    0.000    0.000    0.000    0.000    0.000    0.000 
#
# Total GULP energy -198288.695893 kJ/mol
# GULP energy per Si atom -12393.043493 kJ/mol
# Density = 1.998849 g / cm^3
# Si number density = 20.034091 Si / 1000 Ang^3
#
#
#
# Elastic Constant Matrix: (Units=GPa)
#
#
# Indices 1 2 3 4 5 6 
#
# 1 95.1964 44.7756 28.7502 3.0641 -7.4092 6.7322
# 2 44.7756 176.2137 33.6048 -2.1885 -4.0590 14.1571
# 3 28.7502 33.6048 107.9668 -3.7345 -7.1430 -3.3691
# 4 3.0641 -2.1885 -3.7345 27.9641 2.7944 -0.1414
# 5 -7.4092 -4.0590 -7.1430 2.7944 28.0880 -8.5292
# 6 6.7322 14.1571 -3.3691 -0.1414 -8.5292 36.4029
#
#
#
# Elastic Compliance Matrix: (Units=1/GPa)
#
#
# Indices 1 2 3 4 5 6 
#
# 1 0.012851 -0.002669 -0.002551 -0.002188 0.002253 -0.001055
# 2 -0.002669 0.006836 -0.001534 0.000704 -0.000943 -0.002525
# 3 -0.002551 -0.001534 0.010714 0.001354 0.002500 0.002651
# 4 -0.002188 0.000704 0.001354 0.036626 -0.003934 -0.000523
# 5 0.002253 -0.000943 0.002500 -0.003934 0.039983 0.009534
# 6 -0.001055 -0.002525 0.002651 -0.000523 0.009534 0.031125
#
#
# Mechanical properties :
#
#
# Convention : Reuss Voigt Hill
#
# Bulk Modulus (GPa) = 59.19759 65.95977 62.57868
# Shear Modulus (GPa) = 31.79206 36.64076 34.21641
#
# Velocity S-wave (km/s) = 3.98791 4.28123 4.13717
# Velocity P-wave (km/s) = 7.12861 7.57851 7.35700
#
# Compressibility (1/GPa) = 0.01689258
#
# Stress axis : x y z
#
# Youngs Moduli (GPa) = 77.81552 146.29382 93.33909
#
# Poissons Ratio (x) = 0.39053 0.23808
# Poissons Ratio (y) = 0.20773 0.14314
# Poissons Ratio (z) = 0.19849 0.22435
#
# Static dielectric constant tensor:
#      x y z
#    x 3.243820 0.425160 0.006230 
#    y 0.425160 5.189300 0.185530 
#    z 0.006230 0.185530 3.695440 
# 
# 
# High freq. dielectric constant tensor:
#      x y z
#    x 1.737570 0.018110 -0.004980 
#    y 0.018110 1.806890 -0.007980 
#    z -0.004980 -0.007980 1.790040 
# 
# From -- ./inp_files/315167.got.cif
#   From: 2010.06.25/outbox.cif.g09.slc.cpg/sg2_158_cif.got.tgz:315167.got - 2010.06.27 13:26:56.
