data_PCOD8003629
_publ_section_title
;
Structure prediction by ZEFSAII (Michael W. Deem and Ramdas Pophale) SiO2 
 PCOD8003629
Probable space group: P -1
;
_chemical_formula_sum "Si O2"
_cell_formula_units_Z 14
_cell_length_a 14.397644
_cell_length_b 12.451861
_cell_length_c 24.023770
_cell_angle_alpha 27.505114
_cell_angle_beta 18.837976
_cell_angle_gamma 34.773589
_cell_volume 637.531390
_symmetry_space_group_name_H-M "P -1"
_symmetry_group_IT_number 2
_symmetry_cell_setting 'triclinic'
loop_
_space_group_symop_operation_xyz
x,y,z
-x,-y,-z
loop_
_atom_site_type_symbol
_atom_site_label
_atom_site_fract_x
_atom_site_fract_y
_atom_site_fract_z
Si Si1 0.621436 0.483781 0.523477
Si Si2 0.285515 0.126727 0.423902
Si Si3 0.206914 0.119365 0.110291
Si Si4 0.317971 0.108856 0.932325
Si Si5 0.146584 0.712394 0.623294
Si Si6 0.092317 0.028657 0.869517
Si Si7 0.439540 0.375493 0.960514
O O1 0.333469 0.594741 0.617710
O O2 0.711907 0.303450 0.509254
O O3 0.878053 0.695169 0.289306
O O4 0.570210 0.328054 0.680132
O O5 0.305157 0.409050 0.279152
O O6 0.147022 0.989079 0.511174
O O7 0.613523 0.071000 0.268502
O O8 0.077835 0.045402 0.631130
O O9 0.142122 0.173912 0.057250
O O10 0.279495 0.349129 0.002575
O O11 0.500000 0.000000 0.000000
O O12 0.433798 0.861988 0.987461
O O13 0.142469 0.109062 0.974166
O O14 0.817049 0.584984 0.868717
O O15 0.000000 0.000000 0.000000
#
# Coordination Sequence:
#
# PCOD8003629 Si02
#       7
#     2   2   2   2   2   2   2
#     4  10  20  37  60  82 117 156 191 241 290 337
#     4  10  20  38  63  86 117 156 192 238 293 340
#     4   9  22  40  58  85 118 154 196 238 287 344
#     4  11  23  37  58  88 116 152 196 237 288 344
#     4   9  19  38  60  83 113 155 194 236 292 347
#     4  11  23  40  62  88 118 154 195 237 288 349
#     4  10  21  38  61  86 116 151 193 242 290 345
#
# _framework density 21.959703999999999
#
# number of rings (size 3 to 8) (size 9 to 14) (size 15 to 20)
#    0.000    2.000    0.000    4.286    0.000    8.000 
#    0.000   16.429    0.000    0.000    0.000    0.000 
#    0.000    0.000    0.000    0.000    0.000    0.000 
#
# Total GULP energy -173467.327782 kJ/mol
# GULP energy per Si atom -12390.523413 kJ/mol
# Density = 2.190972 g / cm^3
# Si number density = 21.959704 Si / 1000 Ang^3
#
#
#
# Elastic Constant Matrix: (Units=GPa)
#
#
# Indices 1 2 3 4 5 6 
#
# 1 70.0572 13.8683 33.7368 2.4824 10.0558 7.9621
# 2 13.8683 76.5818 52.2289 -2.4384 16.5732 9.1277
# 3 33.7368 52.2289 167.6817 -13.9348 23.2220 11.4942
# 4 2.4824 -2.4384 -13.9348 52.2134 -1.3195 0.5637
# 5 10.0558 16.5732 23.2220 -1.3195 30.2842 -1.8351
# 6 7.9621 9.1277 11.4942 0.5637 -1.8351 7.6041
#
#
#
# Elastic Compliance Matrix: (Units=1/GPa)
#
#
# Indices 1 2 3 4 5 6 
#
# 1 0.018139 0.001877 -0.002064 -0.001283 -0.006715 -0.019652
# 2 0.001877 0.020197 -0.003673 -0.000136 -0.010267 -0.023125
# 3 -0.002064 -0.003673 0.008896 0.002274 -0.004520 -0.008136
# 4 -0.001283 -0.000136 0.002274 0.019837 -0.000594 -0.003545
# 5 -0.006715 -0.010267 -0.004520 -0.000594 0.046579 0.037472
# 6 -0.019652 -0.023125 -0.008136 -0.003545 0.037472 0.201448
#
#
# Mechanical properties :
#
#
# Convention : Reuss Voigt Hill
#
# Bulk Modulus (GPa) = 25.30836 57.10984 41.20910
# Shear Modulus (GPa) = 14.88162 32.31946 23.60054
#
# Velocity S-wave (km/s) = 2.60605 3.84052 3.28185
# Velocity P-wave (km/s) = 4.53930 6.76234 5.75910
#
# Compressibility (1/GPa) = 0.03951264
#
# Stress axis : x y z
#
# Youngs Moduli (GPa) = 55.12961 49.51326 112.41606
#
# Poissons Ratio (x) = -0.09295 0.23201
# Poissons Ratio (y) = -0.10350 0.41288
# Poissons Ratio (z) = 0.11378 0.18185
#
# Static dielectric constant tensor:
#      x y z
#    x 4.014880 0.424060 -0.058720 
#    y 0.424060 4.137850 -0.074580 
#    z -0.058720 -0.074580 4.276200 
# 
# 
# High freq. dielectric constant tensor:
#      x y z
#    x 1.828510 0.018020 0.000460 
#    y 0.018020 1.867120 0.002520 
#    z 0.000460 0.002520 1.881410 
# 
# From -- ./inp_files/390712.got.cif
#   From: 2010.06.25/outbox.cif.g09.slc.cpg/sg2_196_cif.got.tgz:390712.got - 2010.06.27 13:26:56.
