data_PCOD8003113
_publ_section_title
;
Structure prediction by ZEFSAII (Michael W. Deem and Ramdas Pophale) SiO2 
 PCOD8003113
Probable space group: P -1
;
_chemical_formula_sum "Si O2"
_cell_formula_units_Z 16
_cell_length_a 15.579037
_cell_length_b 8.816860
_cell_length_c 7.131928
_cell_angle_alpha 129.803837
_cell_angle_beta 91.366978
_cell_angle_gamma 61.319267
_cell_volume 599.058659
_symmetry_space_group_name_H-M "P -1"
_symmetry_group_IT_number 2
_symmetry_cell_setting 'triclinic'
loop_
_space_group_symop_operation_xyz
x,y,z
-x,-y,-z
loop_
_atom_site_type_symbol
_atom_site_label
_atom_site_fract_x
_atom_site_fract_y
_atom_site_fract_z
Si Si1 0.051204 0.489077 0.690823
Si Si2 0.737729 0.647575 0.997752
Si Si3 0.629060 0.163024 0.117813
Si Si4 0.985158 0.249997 0.744215
Si Si5 0.382835 0.505708 0.326507
Si Si6 0.367380 0.473329 0.804959
Si Si7 0.612166 0.129329 0.599100
Si Si8 0.720672 0.713975 0.579824
O O1 0.158838 0.457358 0.622518
O O2 0.000000 0.500000 0.500000
O O3 0.068180 0.262025 0.629653
O O4 0.990507 0.730056 0.018932
O O5 0.866518 0.493292 0.869070
O O6 0.693571 0.582136 0.761691
O O7 0.717913 0.522069 0.067883
O O8 0.673768 0.939263 0.273773
O O9 0.503479 0.275658 0.210977
O O10 0.663911 0.256586 0.359889
O O11 0.647739 0.270843 0.014751
O O12 0.707681 0.856187 0.890425
O O13 0.000000 0.000000 0.500000
O O14 0.382017 0.633813 0.227522
O O15 0.487980 0.239181 0.670343
O O16 0.338565 0.415357 0.547684
O O17 0.654441 0.974139 0.668371
#
# Coordination Sequence:
#
# PCOD8003113 Si02
#       8
#     2   2   2   2   2   2   2   2
#     4  11  27  49  71 100 137 177 234 295 350 405
#     4  11  21  39  63  88 121 164 215 260 329 382
#     4  10  22  36  55  94 135 166 207 258 321 402
#     4  11  27  47  72 100 135 176 235 296 342 410
#     4  10  22  36  57  93 134 168 205 258 325 397
#     4  10  20  36  62  94 124 161 212 255 312 393
#     4  10  20  36  63  92 123 165 209 256 313 390
#     4  11  21  39  65  87 123 167 215 262 328 388
#
# _framework density 26.708569000000001
#
# number of rings (size 3 to 8) (size 9 to 14) (size 15 to 20)
#    0.000    1.500    2.500    3.750    3.500    6.500 
#    0.000    3.750    0.000    0.000    0.000    0.000 
#    0.000    0.000    0.000    0.000    0.000    0.000 
#
# Total GULP energy -198274.746069 kJ/mol
# GULP energy per Si atom -12392.171629 kJ/mol
# Density = 2.664778 g / cm^3
# Si number density = 26.708569 Si / 1000 Ang^3
#
#
#
# Elastic Constant Matrix: (Units=GPa)
#
#
# Indices 1 2 3 4 5 6 
#
# 1 113.0185 25.6383 27.9960 20.7662 24.6114 -1.1940
# 2 25.6383 61.2201 29.9062 1.1479 17.4617 2.3771
# 3 27.9960 29.9062 135.9004 5.5514 31.3253 3.9741
# 4 20.7662 1.1479 5.5514 40.3303 4.7987 8.8549
# 5 24.6114 17.4617 31.3253 4.7987 49.5779 3.0874
# 6 -1.1940 2.3771 3.9741 8.8549 3.0874 37.5726
#
#
#
# Elastic Compliance Matrix: (Units=1/GPa)
#
#
# Indices 1 2 3 4 5 6 
#
# 1 0.011733 -0.003525 -0.000597 -0.005929 -0.003779 0.002367
# 2 -0.003525 0.020311 -0.002952 0.002376 -0.003685 -0.001342
# 3 -0.000597 -0.002952 0.009169 -0.000263 -0.004408 -0.000378
# 4 -0.005929 0.002376 -0.000263 0.029420 -0.000125 -0.007234
# 5 -0.003779 -0.003685 -0.004408 -0.000125 0.026238 -0.001547
# 6 0.002367 -0.001342 -0.000378 -0.007234 -0.001547 0.028647
#
#
# Mechanical properties :
#
#
# Convention : Reuss Voigt Hill
#
# Bulk Modulus (GPa) = 36.94763 53.02444 44.98604
# Shear Modulus (GPa) = 33.62753 40.60273 37.11513
#
# Velocity S-wave (km/s) = 3.55216 3.90322 3.73182
# Velocity P-wave (km/s) = 5.53963 6.34110 5.95387
#
# Compressibility (1/GPa) = 0.02706534
#
# Stress axis : x y z
#
# Youngs Moduli (GPa) = 85.22980 49.23353 109.06504
#
# Poissons Ratio (x) = 0.17353 0.06515
# Poissons Ratio (y) = 0.30040 0.32195
# Poissons Ratio (z) = 0.05091 0.14534
#
# Static dielectric constant tensor:
#      x y z
#    x 4.991660 0.225610 0.321680 
#    y 0.225610 5.432470 -0.881060 
#    z 0.321680 -0.881060 5.635260 
# 
# 
# High freq. dielectric constant tensor:
#      x y z
#    x 2.081420 0.041690 0.031810 
#    y 0.041690 2.087860 -0.049230 
#    z 0.031810 -0.049230 2.113560 
# 
# From -- ./inp_files/306016.got.cif
#   From: 2010.06.25/outbox.cif.g09.slc.cpg/sg2_154_cif.got.tgz:306016.got - 2010.06.27 13:26:56.
