data_PCOD8003364
_publ_section_title
;
Structure prediction by ZEFSAII (Michael W. Deem and Ramdas Pophale) SiO2 
 PCOD8003364
Probable space group: P -1
;
_chemical_formula_sum "Si O2"
_cell_formula_units_Z 14
_cell_length_a 21.300489
_cell_length_b 5.869427
_cell_length_c 7.215584
_cell_angle_alpha 53.814106
_cell_angle_beta 50.665983
_cell_angle_gamma 62.161374
_cell_volume 556.902615
_symmetry_space_group_name_H-M "P -1"
_symmetry_group_IT_number 2
_symmetry_cell_setting 'triclinic'
loop_
_space_group_symop_operation_xyz
x,y,z
-x,-y,-z
loop_
_atom_site_type_symbol
_atom_site_label
_atom_site_fract_x
_atom_site_fract_y
_atom_site_fract_z
Si Si1 0.471033 0.307141 0.310699
Si Si2 0.469500 0.223300 0.786939
Si Si3 0.883145 0.578156 0.329664
Si Si4 0.317814 0.323965 0.803381
Si Si5 0.174795 0.818697 0.877124
Si Si6 0.055787 0.428988 0.180181
Si Si7 0.185262 0.937374 0.225503
O O1 0.496134 0.474757 0.373863
O O2 0.373056 0.316477 0.515208
O O3 0.506664 0.969765 0.356646
O O4 0.500000 0.500000 0.000000
O O5 0.371208 0.312262 0.900808
O O6 0.500000 0.000000 0.000000
O O7 0.823771 0.345201 0.502896
O O8 0.957695 0.461656 0.389955
O O9 0.826582 0.868443 0.365179
O O10 0.927140 0.662387 0.021205
O O11 0.254259 0.610527 0.758673
O O12 0.271597 0.048269 0.035805
O O13 0.089344 0.720219 0.024674
O O14 0.179442 0.825648 0.083835
O O15 0.108757 0.173394 0.319273
#
# Coordination Sequence:
#
# PCOD8003364 Si02
#       7
#     2   2   2   2   2   2   2
#     4   8  15  26  47  76 103 146 189 223 266 328
#     4   8  15  26  47  76 103 146 189 223 266 328
#     4  10  20  37  55  73 107 140 181 225 272 329
#     4   9  18  29  46  74 114 133 175 225 269 331
#     4  10  21  32  51  81 104 140 177 224 278 326
#     4   9  20  38  54  73 103 143 183 223 267 332
#     4  10  21  32  52  82 105 139 177 226 278 325
#
# _framework density 25.139046
#
# number of rings (size 3 to 8) (size 9 to 14) (size 15 to 20)
#    0.857    2.000    0.000    0.857    4.000    2.857 
#    0.000    0.000    0.000    0.000    0.000    8.000 
#    0.000    0.000    0.000    0.000    0.000    0.000 
#
# Total GULP energy -173462.430058 kJ/mol
# GULP energy per Si atom -12390.173576 kJ/mol
# Density = 2.508183 g / cm^3
# Si number density = 25.139046 Si / 1000 Ang^3
#
#
#
# Elastic Constant Matrix: (Units=GPa)
#
#
# Indices 1 2 3 4 5 6 
#
# 1 129.8522 55.9814 51.9038 -10.5583 -29.0333 0.5806
# 2 55.9814 164.6080 85.6435 -40.3055 -24.9020 0.2486
# 3 51.9038 85.6435 128.5677 -29.9359 -29.3807 -10.6038
# 4 -10.5583 -40.3055 -29.9359 53.7060 10.2996 -3.2316
# 5 -29.0333 -24.9020 -29.3807 10.2996 45.1286 6.6622
# 6 0.5806 0.2486 -10.6038 -3.2316 6.6622 37.2323
#
#
#
# Elastic Compliance Matrix: (Units=1/GPa)
#
#
# Indices 1 2 3 4 5 6 
#
# 1 0.010443 -0.002063 -0.002330 -0.001813 0.004746 -0.001819
# 2 -0.002063 0.010664 -0.005246 0.004548 0.000279 -0.001188
# 3 -0.002330 -0.005246 0.014008 0.002963 0.003506 0.003691
# 4 -0.001813 0.004548 0.002963 0.024056 -0.002722 0.003417
# 5 0.004746 0.000279 0.003506 -0.002722 0.028933 -0.004491
# 6 -0.001819 -0.001188 0.003691 0.003417 -0.004491 0.029046
#
#
# Mechanical properties :
#
#
# Convention : Reuss Voigt Hill
#
# Bulk Modulus (GPa) = 63.13551 90.00948 76.57250
# Shear Modulus (GPa) = 35.28413 42.51333 38.89873
#
# Velocity S-wave (km/s) = 3.75047 4.11679 3.93790
# Velocity P-wave (km/s) = 6.62750 7.64720 7.15554
#
# Compressibility (1/GPa) = 0.01583895
#
# Stress axis : x y z
#
# Youngs Moduli (GPa) = 95.75377 93.77664 71.38599
#
# Poissons Ratio (x) = 0.19345 0.16630
# Poissons Ratio (y) = 0.19753 0.37448
# Poissons Ratio (z) = 0.22306 0.49193
#
# Static dielectric constant tensor:
#      x y z
#    x 4.764620 0.208240 0.124160 
#    y 0.208240 5.141290 -0.284780 
#    z 0.124160 -0.284780 4.528000 
# 
# 
# High freq. dielectric constant tensor:
#      x y z
#    x 2.004870 0.013850 0.009810 
#    y 0.013850 2.028710 -0.022430 
#    z 0.009810 -0.022430 2.005200 
# 
# From -- ./inp_files/350894.got.cif
#   From: 2010.06.25/outbox.cif.g09.slc.cpg/sg2_176_cif.got.tgz:350894.got - 2010.06.27 13:26:56.
