data_PCOD8003313
_publ_section_title
;
Structure prediction by ZEFSAII (Michael W. Deem and Ramdas Pophale) SiO2 
 PCOD8003313
Probable space group: P -1
;
_chemical_formula_sum "Si O2"
_cell_formula_units_Z 14
_cell_length_a 16.919855
_cell_length_b 11.695448
_cell_length_c 9.039519
_cell_angle_alpha 129.981534
_cell_angle_beta 109.414261
_cell_angle_gamma 34.045413
_cell_volume 678.856194
_symmetry_space_group_name_H-M "P -1"
_symmetry_group_IT_number 2
_symmetry_cell_setting 'triclinic'
loop_
_space_group_symop_operation_xyz
x,y,z
-x,-y,-z
loop_
_atom_site_type_symbol
_atom_site_label
_atom_site_fract_x
_atom_site_fract_y
_atom_site_fract_z
Si Si1 0.516364 0.674515 0.890649
Si Si2 0.820185 0.263982 0.545769
Si Si3 0.746018 0.693309 0.717946
Si Si4 0.976617 0.580650 0.720096
Si Si5 0.288757 0.246566 0.605403
Si Si6 0.268384 0.807886 0.831730
Si Si7 0.406905 0.375375 0.786767
O O1 0.693128 0.417802 0.721438
O O2 0.424833 0.666699 0.765297
O O3 0.533368 0.620538 0.032484
O O4 0.412587 0.981974 0.050425
O O5 0.763716 0.504984 0.641386
O O6 0.811778 0.144916 0.321854
O O7 0.000000 0.000000 0.500000
O O8 0.903944 0.551350 0.742249
O O9 0.739958 0.693937 0.538008
O O10 0.000000 0.500000 0.500000
O O11 0.148020 0.376609 0.716211
O O12 0.854776 0.900956 0.918530
O O13 0.305608 0.388110 0.798035
O O14 0.446265 0.911748 0.456917
O O15 0.303082 0.628499 0.822707
#
# Coordination Sequence:
#
# PCOD8003313 Si02
#       7
#     2   2   2   2   2   2   2
#     4  10  23  41  64  88 125 163 205 247 309 371
#     4  12  26  41  60  91 126 163 211 254 298 361
#     4   9  19  42  61  84 122 169 197 246 307 370
#     4   9  20  37  62  90 124 157 199 252 311 361
#     4   9  18  35  61  96 123 150 200 253 310 359
#     4  11  23  42  64  92 125 163 203 256 308 360
#     4  10  20  36  66  95 119 156 205 254 305 367
#
# _framework density 20.622924999999999
#
# number of rings (size 3 to 8) (size 9 to 14) (size 15 to 20)
#    0.000    2.000    1.429    2.143    2.000    4.000 
#    0.000    2.857    0.000    0.000    0.000    0.000 
#    0.000    0.000    0.000    0.000    0.000    0.000 
#
# Total GULP energy -173541.288401 kJ/mol
# GULP energy per Si atom -12395.806314 kJ/mol
# Density = 2.057599 g / cm^3
# Si number density = 20.622925 Si / 1000 Ang^3
#
#
#
# Elastic Constant Matrix: (Units=GPa)
#
#
# Indices 1 2 3 4 5 6 
#
# 1 91.8466 30.3396 49.5408 5.5514 0.6891 -32.1870
# 2 30.3396 68.5012 36.2316 -6.2799 7.2375 -21.5601
# 3 49.5408 36.2316 101.5479 6.6221 3.2521 -8.1591
# 4 5.5514 -6.2799 6.6221 21.2379 -8.7429 -3.3289
# 5 0.6891 7.2375 3.2521 -8.7429 31.6071 6.1489
# 6 -32.1870 -21.5601 -8.1591 -3.3289 6.1489 39.5253
#
#
#
# Elastic Compliance Matrix: (Units=1/GPa)
#
#
# Indices 1 2 3 4 5 6 
#
# 1 0.021461 0.000763 -0.009240 -0.001264 -0.003228 0.016381
# 2 0.000763 0.024509 -0.008505 0.009932 -0.004691 0.013801
# 3 -0.009240 -0.008505 0.017075 -0.006740 0.000329 -0.009258
# 4 -0.001264 0.009932 -0.006740 0.058979 0.013624 0.005844
# 5 -0.003228 -0.004691 0.000329 0.013624 0.038454 -0.009955
# 6 0.016381 0.013801 -0.009258 0.005844 -0.009955 0.046298
#
#
# Mechanical properties :
#
#
# Convention : Reuss Voigt Hill
#
# Bulk Modulus (GPa) = 34.38786 54.90219 44.64503
# Shear Modulus (GPa) = 19.96533 28.19297 24.07915
#
# Velocity S-wave (km/s) = 3.11483 3.70140 3.42071
# Velocity P-wave (km/s) = 5.44490 6.70424 6.10712
#
# Compressibility (1/GPa) = 0.02908003
#
# Stress axis : x y z
#
# Youngs Moduli (GPa) = 46.59642 40.80164 58.56454
#
# Poissons Ratio (x) = -0.03113 0.54114
# Poissons Ratio (y) = -0.03556 0.49811
# Poissons Ratio (z) = 0.43055 0.34703
#
# Static dielectric constant tensor:
#      x y z
#    x 4.174900 -0.579610 0.149330 
#    y -0.579610 3.692610 0.101260 
#    z 0.149330 0.101260 3.740930 
# 
# 
# High freq. dielectric constant tensor:
#      x y z
#    x 1.816320 -0.026800 0.014450 
#    y -0.026800 1.788620 0.009340 
#    z 0.014450 0.009340 1.805500 
# 
# From -- ./inp_files/159724.got.cif
#   From: 2010.06.25/outbox.cif.g09.slc.cpg/sg2_80_cif.got.tgz:159724.got - 2010.06.27 13:26:56.
