data_PCOD8003438
_publ_section_title
;
Structure prediction by ZEFSAII (Michael W. Deem and Ramdas Pophale) SiO2 
 PCOD8003438
Probable space group: P -1
;
_chemical_formula_sum "Si O2"
_cell_formula_units_Z 14
_cell_length_a 11.268320
_cell_length_b 10.938701
_cell_length_c 13.743464
_cell_angle_alpha 30.638922
_cell_angle_beta 112.959932
_cell_angle_gamma 93.623729
_cell_volume 647.248107
_symmetry_space_group_name_H-M "P -1"
_symmetry_group_IT_number 2
_symmetry_cell_setting 'triclinic'
loop_
_space_group_symop_operation_xyz
x,y,z
-x,-y,-z
loop_
_atom_site_type_symbol
_atom_site_label
_atom_site_fract_x
_atom_site_fract_y
_atom_site_fract_z
Si Si1 0.073293 0.082978 0.181715
Si Si2 0.741772 0.857876 0.340162
Si Si3 0.955940 0.007311 0.371761
Si Si4 0.820723 0.234185 0.754992
Si Si5 0.570597 0.923832 0.430770
Si Si6 0.279078 0.714946 0.112994
Si Si7 0.749496 0.681746 0.841836
O O1 0.109398 0.319381 0.061111
O O2 0.098494 0.901274 0.413757
O O3 0.201092 0.859421 0.294819
O O4 0.891196 0.239816 0.982353
O O5 0.778549 0.560245 0.511541
O O6 0.613163 0.995417 0.291459
O O7 0.900126 0.795573 0.482142
O O8 0.691792 0.080944 0.081386
O O9 0.813731 0.347006 0.066018
O O10 0.000000 0.000000 0.500000
O O11 0.712432 0.224339 0.810401
O O12 0.000000 0.000000 0.000000
O O13 0.581472 0.622798 0.633879
O O14 0.686779 0.878097 0.588372
O O15 0.392640 0.194077 0.211912
#
# Coordination Sequence:
#
# PCOD8003438 Si02
#       7
#     2   2   2   2   2   2   2
#     4  10  20  37  57  85 117 148 194 236 290 336
#     4  10  20  38  59  84 118 147 197 236 282 348
#     4  11  23  34  58  93 118 151 187 244 293 332
#     4   9  20  34  60  85 112 155 188 242 288 334
#     4  10  21  39  61  85 115 159 189 234 289 346
#     4   9  19  38  61  86 112 154 192 239 290 332
#     4  11  22  38  58  87 121 153 191 233 292 348
#
# _framework density 21.630036
#
# number of rings (size 3 to 8) (size 9 to 14) (size 15 to 20)
#    0.000    2.000    2.857    1.286    6.000    5.714 
#    2.571    2.857    0.000    1.714    0.000    0.000 
#    0.000    0.000    0.000    0.000    0.000    0.000 
#
# Total GULP energy -173454.435159 kJ/mol
# GULP energy per Si atom -12389.602511 kJ/mol
# Density = 2.158081 g / cm^3
# Si number density = 21.630036 Si / 1000 Ang^3
#
#
#
# Elastic Constant Matrix: (Units=GPa)
#
#
# Indices 1 2 3 4 5 6 
#
# 1 79.7781 37.7285 35.3425 -0.1239 -23.1476 -28.1575
# 2 37.7285 124.6433 22.4117 -5.5000 -11.7870 -41.5643
# 3 35.3425 22.4117 56.8160 -1.2406 -17.7292 -14.9209
# 4 -0.1239 -5.5000 -1.2406 29.2845 -4.2975 -5.1422
# 5 -23.1476 -11.7870 -17.7292 -4.2975 30.1491 5.7384
# 6 -28.1575 -41.5643 -14.9209 -5.1422 5.7384 41.2047
#
#
#
# Elastic Compliance Matrix: (Units=1/GPa)
#
#
# Indices 1 2 3 4 5 6 
#
# 1 0.023770 -0.000704 -0.007759 0.003379 0.011702 0.011515
# 2 -0.000704 0.013049 -0.000429 0.005057 0.002594 0.012796
# 3 -0.007759 -0.000429 0.026276 0.002850 0.009190 0.002856
# 4 0.003379 0.005057 0.002850 0.038724 0.009492 0.011953
# 5 0.011702 0.002594 0.009190 0.009492 0.048326 0.008395
# 6 0.011515 0.012796 0.002856 0.011953 0.008395 0.046403
#
#
# Mechanical properties :
#
#
# Convention : Reuss Voigt Hill
#
# Bulk Modulus (GPa) = 22.06980 50.24474 36.15727
# Shear Modulus (GPa) = 21.79265 31.17796 26.48531
#
# Velocity S-wave (km/s) = 3.17759 3.80072 3.50304
# Velocity P-wave (km/s) = 4.86705 6.52229 5.75450
#
# Compressibility (1/GPa) = 0.04531079
#
# Stress axis : x y z
#
# Youngs Moduli (GPa) = 42.06986 76.63680 38.05730
#
# Poissons Ratio (x) = 0.05396 0.29529
# Poissons Ratio (y) = 0.02962 0.01632
# Poissons Ratio (z) = 0.32642 0.03287
#
# Static dielectric constant tensor:
#      x y z
#    x 3.731790 -0.482490 -0.270700 
#    y -0.482490 4.522140 0.114670 
#    z -0.270700 0.114670 3.704450 
# 
# 
# High freq. dielectric constant tensor:
#      x y z
#    x 1.831910 -0.032660 -0.016250 
#    y -0.032660 1.872800 -0.003700 
#    z -0.016250 -0.003700 1.817020 
# 
# From -- ./inp_files/253295.got.cif
#   From: 2010.06.25/outbox.cif.g09.slc.cpg/sg2_127_cif.got.tgz:253295.got - 2010.06.27 13:26:56.
