data_PCOD8003809
_publ_section_title
;
Structure prediction by ZEFSAII (Michael W. Deem and Ramdas Pophale) SiO2 
 PCOD8003809
Probable space group: P -1
;
_chemical_formula_sum "Si O2"
_cell_formula_units_Z 16
_cell_length_a 12.869328
_cell_length_b 20.904847
_cell_length_c 5.193162
_cell_angle_alpha 92.823904
_cell_angle_beta 76.283229
_cell_angle_gamma 37.890259
_cell_volume 765.348583
_symmetry_space_group_name_H-M "P -1"
_symmetry_group_IT_number 2
_symmetry_cell_setting 'triclinic'
loop_
_space_group_symop_operation_xyz
x,y,z
-x,-y,-z
loop_
_atom_site_type_symbol
_atom_site_label
_atom_site_fract_x
_atom_site_fract_y
_atom_site_fract_z
Si Si1 0.598015 0.881923 0.170622
Si Si2 0.206631 0.851566 0.081406
Si Si3 0.082824 0.280449 0.682017
Si Si4 0.180717 0.335120 0.253106
Si Si5 0.350935 0.383999 0.195620
Si Si6 0.209178 0.107046 0.274483
Si Si7 0.006819 0.080516 0.275251
Si Si8 0.839912 0.477683 0.183016
O O1 0.696368 0.826715 0.379723
O O2 0.371235 0.999568 0.352464
O O3 0.644008 0.795534 0.963086
O O4 0.688087 0.901201 0.000727
O O5 0.089145 0.875855 0.380996
O O6 0.425341 0.730741 0.973872
O O7 0.148552 0.849719 0.842819
O O8 0.167452 0.946902 0.122877
O O9 0.054209 0.357783 0.537756
O O10 0.054950 0.226892 0.541090
O O11 0.926987 0.364833 0.020044
O O12 0.261172 0.360435 0.330253
O O13 0.030956 0.424224 0.128109
O O14 0.291589 0.463390 0.472071
O O15 0.282863 0.433113 0.958213
O O16 0.102786 0.102167 0.194777
#
# Coordination Sequence:
#
# PCOD8003809 Si02
#       8
#     2   2   2   2   2   2   2   2
#     4   9  20  35  57  94 125 151 199 238 297 368
#     4  10  23  43  61  94 117 152 202 247 292 350
#     4  10  21  37  55  90 126 157 197 239 292 367
#     4  10  21  36  56  92 125 158 193 241 300 365
#     4  12  23  37  63  86 122 162 199 246 294 347
#     4  10  20  37  61  89 120 162 193 243 301 358
#     4  10  22  43  66  87 122 153 194 246 303 351
#     4  11  23  37  58  89 124 160 199 239 298 355
#
# _framework density 20.905505999999999
#
# number of rings (size 3 to 8) (size 9 to 14) (size 15 to 20)
#    0.000    1.750    1.250    2.625    5.250    0.000 
#    6.750    0.000    0.000    4.500    0.000    0.000 
#    0.000    0.000    0.000    0.000    0.000    0.000 
#
# Total GULP energy -198316.287861 kJ/mol
# GULP energy per Si atom -12394.767991 kJ/mol
# Density = 2.085792 g / cm^3
# Si number density = 20.905506 Si / 1000 Ang^3
#
#
#
# Elastic Constant Matrix: (Units=GPa)
#
#
# Indices 1 2 3 4 5 6 
#
# 1 91.8173 36.9087 25.0876 8.1844 13.6508 -1.1090
# 2 36.9087 117.4180 30.7511 2.6607 3.4640 -18.7314
# 3 25.0876 30.7511 79.1618 5.1297 17.0562 0.5508
# 4 8.1844 2.6607 5.1297 36.9248 -4.5154 -0.2068
# 5 13.6508 3.4640 17.0562 -4.5154 18.7187 4.0457
# 6 -1.1090 -18.7314 0.5508 -0.2068 4.0457 16.8789
#
#
#
# Elastic Compliance Matrix: (Units=1/GPa)
#
#
# Indices 1 2 3 4 5 6 
#
# 1 0.014601 -0.004292 -0.000517 -0.004094 -0.010063 -0.001425
# 2 -0.004292 0.013157 -0.004291 0.000897 0.001787 0.014041
# 3 -0.000517 -0.004291 0.018196 -0.004075 -0.016048 -0.001594
# 4 -0.004094 0.000897 -0.004075 0.030227 0.014300 -0.002198
# 5 -0.010063 0.001787 -0.016048 0.014300 0.082330 -0.017713
# 6 -0.001425 0.014041 -0.001594 -0.002198 -0.017713 0.079005
#
#
# Mechanical properties :
#
#
# Convention : Reuss Voigt Hill
#
# Bulk Modulus (GPa) = 36.03183 52.65464 44.34324
# Shear Modulus (GPa) = 18.87017 27.54778 23.20897
#
# Velocity S-wave (km/s) = 3.00766 3.63399 3.33556
# Velocity P-wave (km/s) = 5.41612 6.54595 6.00765
#
# Compressibility (1/GPa) = 0.02775324
#
# Stress axis : x y z
#
# Youngs Moduli (GPa) = 68.48616 76.00755 54.95719
#
# Poissons Ratio (x) = 0.32624 0.02840
# Poissons Ratio (y) = 0.29395 0.23584
# Poissons Ratio (z) = 0.03540 0.32618
#
# Static dielectric constant tensor:
#      x y z
#    x 3.423270 0.010710 0.346250 
#    y 0.010710 4.076250 0.078040 
#    z 0.346250 0.078040 3.807880 
# 
# 
# High freq. dielectric constant tensor:
#      x y z
#    x 1.776690 -0.003530 0.033480 
#    y -0.003530 1.836780 0.004250 
#    z 0.033480 0.004250 1.820280 
# 
# From -- ./inp_files/82706.got.cif
#   From: 2010.06.25/outbox.cif.g09.slc.cpg/sg2_42_cif.got.tgz:82706.got - 2010.06.27 13:26:56.
