data_PCOD8003084
_publ_section_title
;
Structure prediction by ZEFSAII (Michael W. Deem and Ramdas Pophale) SiO2 
 PCOD8003084
Probable space group: P -1
;
_chemical_formula_sum "Si O2"
_cell_formula_units_Z 16
_cell_length_a 12.393755
_cell_length_b 18.308773
_cell_length_c 21.231817
_cell_angle_alpha 27.825574
_cell_angle_beta 20.687422
_cell_angle_gamma 29.714880
_cell_volume 769.316532
_symmetry_space_group_name_H-M "P -1"
_symmetry_group_IT_number 2
_symmetry_cell_setting 'triclinic'
loop_
_space_group_symop_operation_xyz
x,y,z
-x,-y,-z
loop_
_atom_site_type_symbol
_atom_site_label
_atom_site_fract_x
_atom_site_fract_y
_atom_site_fract_z
Si Si1 0.294940 0.301620 0.605980
Si Si2 0.690304 0.393221 0.065083
Si Si3 0.266233 0.991575 0.912290
Si Si4 0.342765 0.790274 0.261529
Si Si5 0.928992 0.565123 0.700265
Si Si6 0.834640 0.931976 0.947271
Si Si7 0.656590 0.535894 0.189692
Si Si8 0.333597 0.651466 0.156281
O O1 0.445936 0.123655 0.688686
O O2 0.591640 0.363518 0.373439
O O3 0.103866 0.414062 0.678589
O O4 0.041944 0.305493 0.684901
O O5 0.914288 0.495585 0.831724
O O6 0.427197 0.364496 0.182343
O O7 0.531464 0.489517 0.139262
O O8 0.886428 0.217688 0.113563
O O9 0.126943 0.035945 0.024456
O O10 0.471160 0.805431 0.943176
O O11 0.000000 0.000000 0.000000
O O12 0.618721 0.651874 0.182809
O O13 0.108168 0.707877 0.491425
O O14 0.146487 0.912605 0.223075
O O15 0.499534 0.889278 0.149959
O O16 0.382753 0.626600 0.222632
O O17 0.000000 0.500000 0.000000
#
# Coordination Sequence:
#
# PCOD8003084 Si02
#       8
#     2   2   2   2   2   2   2   2
#     4   9  19  37  61  86 112 155 200 237 296 350
#     4  10  20  36  62  90 117 152 203 250 279 341
#     4  10  20  38  62  89 114 157 196 242 295 346
#     4  10  23  39  60  86 120 164 193 236 300 356
#     4   9  19  37  59  89 119 150 202 245 290 345
#     4  11  21  40  62  85 120 158 200 238 290 358
#     4  11  21  38  58  87 121 154 197 241 291 352
#     4  10  20  37  60  87 121 154 190 246 298 337
#
# _framework density 20.797681000000001
#
# number of rings (size 3 to 8) (size 9 to 14) (size 15 to 20)
#    0.000    2.000    2.500    1.125    1.750    1.000 
#    2.250    4.375    0.000    0.000    0.000    0.000 
#    0.000    0.000    0.000    0.000    0.000    0.000 
#
# Total GULP energy -198333.404803 kJ/mol
# GULP energy per Si atom -12395.837800 kJ/mol
# Density = 2.075034 g / cm^3
# Si number density = 20.797681 Si / 1000 Ang^3
#
#
#
# Elastic Constant Matrix: (Units=GPa)
#
#
# Indices 1 2 3 4 5 6 
#
# 1 69.5919 4.7788 1.6638 -3.3635 -0.6911 11.1933
# 2 4.7788 100.6557 29.6874 -15.5538 0.6696 -6.3957
# 3 1.6638 29.6874 105.7774 -11.3629 7.6384 0.3619
# 4 -3.3635 -15.5538 -11.3629 33.0333 0.2908 3.5395
# 5 -0.6911 0.6696 7.6384 0.2908 18.3231 -5.1887
# 6 11.1933 -6.3957 0.3619 3.5395 -5.1887 19.1503
#
#
#
# Elastic Compliance Matrix: (Units=1/GPa)
#
#
# Indices 1 2 3 4 5 6 
#
# 1 0.016337 -0.001261 0.000607 0.002504 -0.002803 -0.011203
# 2 -0.001261 0.011760 -0.003027 0.003862 0.002013 0.004553
# 3 0.000607 -0.003027 0.011012 0.002859 -0.005521 -0.003598
# 4 0.002504 0.003862 0.002859 0.034179 -0.003936 -0.007611
# 5 -0.002803 0.002013 -0.005521 -0.003936 0.062442 0.020060
# 6 -0.011203 0.004553 -0.003598 -0.007611 0.020060 0.067197
#
#
# Mechanical properties :
#
#
# Convention : Reuss Voigt Hill
#
# Bulk Modulus (GPa) = 31.49950 38.69833 35.09891
# Shear Modulus (GPa) = 22.63759 30.09433 26.36596
#
# Velocity S-wave (km/s) = 3.30277 3.80808 3.56439
# Velocity P-wave (km/s) = 5.45188 6.16301 5.81832
#
# Compressibility (1/GPa) = 0.03174654
#
# Stress axis : x y z
#
# Youngs Moduli (GPa) = 61.21183 85.03274 90.81118
#
# Poissons Ratio (x) = 0.10722 -0.05508
# Poissons Ratio (y) = 0.07718 0.27487
# Poissons Ratio (z) = -0.03713 0.25738
#
# Static dielectric constant tensor:
#      x y z
#    x 3.837160 -0.110620 0.032920 
#    y -0.110620 3.917680 -0.512540 
#    z 0.032920 -0.512540 3.749280 
# 
# 
# High freq. dielectric constant tensor:
#      x y z
#    x 1.818590 -0.003490 0.002310 
#    y -0.003490 1.811300 -0.029000 
#    z 0.002310 -0.029000 1.793710 
# 
# From -- ./inp_files/277766.got.cif
#   From: 2010.06.25/outbox.cif.g09.slc.cpg/sg2_139_cif.got.tgz:277766.got - 2010.06.27 13:26:56.
