data_PCOD8003414
_publ_section_title
;
Structure prediction by ZEFSAII (Michael W. Deem and Ramdas Pophale) SiO2 
 PCOD8003414
Probable space group: P -1
;
_chemical_formula_sum "Si O2"
_cell_formula_units_Z 12
_cell_length_a 19.243522
_cell_length_b 12.702256
_cell_length_c 8.928206
_cell_angle_alpha 81.787761
_cell_angle_beta 62.641124
_cell_angle_gamma 27.048502
_cell_volume 662.378047
_symmetry_space_group_name_H-M "P -1"
_symmetry_group_IT_number 2
_symmetry_cell_setting 'triclinic'
loop_
_space_group_symop_operation_xyz
x,y,z
-x,-y,-z
loop_
_atom_site_type_symbol
_atom_site_label
_atom_site_fract_x
_atom_site_fract_y
_atom_site_fract_z
Si Si1 0.078823 0.496486 0.524011
Si Si2 0.996150 0.260716 0.718096
Si Si3 0.432867 0.094671 0.876434
Si Si4 0.179299 0.837776 0.764073
Si Si5 0.363515 0.817213 0.660002
Si Si6 0.814797 0.789173 0.019125
O O1 0.045560 0.646694 0.428422
O O2 0.000000 0.500000 0.500000
O O3 0.344009 0.145420 0.380796
O O4 0.932497 0.690863 0.778161
O O5 0.783514 0.551200 0.983353
O O6 0.051621 0.063440 0.707909
O O7 0.208326 0.055027 0.624527
O O8 0.370149 0.061068 0.876296
O O9 0.500000 0.000000 0.000000
O O10 0.296404 0.778673 0.766790
O O11 0.370503 0.514708 0.576077
O O12 0.000000 0.000000 0.000000
O O13 0.319325 0.945026 0.822144
O O14 0.000000 0.500000 0.000000
#
# Coordination Sequence:
#
# PCOD8003414 Si02
#       6
#     2   2   2   2   2   2
#     4  11  21  36  57  84 123 158 184 233 297 351
#     4   9  18  38  57  85 113 153 198 225 292 352
#     4  10  20  37  56  90 117 152 195 227 296 365
#     4   9  19  38  61  82 113 156 199 238 289 336
#     4   9  20  37  57  90 114 145 206 242 279 348
#     4  12  21  37  59  89 124 148 192 249 288 340
#
# _framework density 18.116543
#
# number of rings (size 3 to 8) (size 9 to 14) (size 15 to 20)
#    1.000    1.000    5.000    0.000    0.000    4.667 
#    0.000    0.833    0.000    5.000    0.000    0.000 
#    0.000    0.000    0.000    0.000    0.000    0.000 
#
# Total GULP energy -148676.647271 kJ/mol
# GULP energy per Si atom -12389.720606 kJ/mol
# Density = 1.807531 g / cm^3
# Si number density = 18.116543 Si / 1000 Ang^3
#
#
#
# Elastic Constant Matrix: (Units=GPa)
#
#
# Indices 1 2 3 4 5 6 
#
# 1 94.5510 27.6601 59.1704 12.6728 7.7696 -3.6904
# 2 27.6601 97.3614 59.9069 15.5358 3.3170 3.2516
# 3 59.1704 59.9069 155.4767 23.8979 -0.2293 3.8120
# 4 12.6728 15.5358 23.8979 37.3135 1.4669 2.5820
# 5 7.7696 3.3170 -0.2293 1.4669 36.2554 5.3906
# 6 -3.6904 3.2516 3.8120 2.5820 5.3906 17.8822
#
#
#
# Elastic Compliance Matrix: (Units=1/GPa)
#
#
# Indices 1 2 3 4 5 6 
#
# 1 0.014855 -0.000794 -0.005249 -0.001596 -0.003934 0.005745
# 2 -0.000794 0.013785 -0.004614 -0.002406 -0.000862 -0.001079
# 3 -0.005249 -0.004614 0.010751 -0.003076 0.002147 -0.002739
# 4 -0.001596 -0.002406 -0.003076 0.030569 -0.000159 -0.003602
# 5 -0.003934 -0.000862 0.002147 -0.000159 0.030032 -0.010143
# 6 0.005745 -0.001079 -0.002739 -0.003602 -0.010143 0.061465
#
#
# Mechanical properties :
#
#
# Convention : Reuss Voigt Hill
#
# Bulk Modulus (GPa) = 55.32122 71.20709 63.26415
# Shear Modulus (GPa) = 26.48356 31.66700 29.07528
#
# Velocity S-wave (km/s) = 3.82755 4.18540 4.01047
# Velocity P-wave (km/s) = 7.08069 7.92130 7.51276
#
# Compressibility (1/GPa) = 0.01807625
#
# Stress axis : x y z
#
# Youngs Moduli (GPa) = 67.31931 72.54169 93.01836
#
# Poissons Ratio (x) = 0.05758 0.48823
# Poissons Ratio (y) = 0.05343 0.42923
# Poissons Ratio (z) = 0.35335 0.33474
#
# Static dielectric constant tensor:
#      x y z
#    x 3.225690 -0.135750 -0.112200 
#    y -0.135750 3.604960 0.406260 
#    z -0.112200 0.406260 3.657940 
# 
# 
# High freq. dielectric constant tensor:
#      x y z
#    x 1.681940 -0.000200 -0.008740 
#    y -0.000200 1.696320 0.021910 
#    z -0.008740 0.021910 1.701500 
# 
# From -- ./inp_files/229277.got.cif
#   From: 2010.06.25/outbox.cif.g09.slc.cpg/sg2_115_cif.got.tgz:229277.got - 2010.06.27 13:26:56.
