data_PCOD8003360
_publ_section_title
;
Structure prediction by ZEFSAII (Michael W. Deem and Ramdas Pophale) SiO2 
 PCOD8003360
Probable space group: P -1
;
_chemical_formula_sum "Si O2"
_cell_formula_units_Z 16
_cell_length_a 28.164337
_cell_length_b 5.346123
_cell_length_c 15.724147
_cell_angle_alpha 60.970865
_cell_angle_beta 158.286929
_cell_angle_gamma 118.556183
_cell_volume 763.159564
_symmetry_space_group_name_H-M "P -1"
_symmetry_group_IT_number 2
_symmetry_cell_setting 'triclinic'
loop_
_space_group_symop_operation_xyz
x,y,z
-x,-y,-z
loop_
_atom_site_type_symbol
_atom_site_label
_atom_site_fract_x
_atom_site_fract_y
_atom_site_fract_z
Si Si1 0.964614 0.177396 0.783185
Si Si2 0.334172 0.715838 0.009660
Si Si3 0.412998 0.100748 0.669023
Si Si4 0.638713 0.527123 0.328759
Si Si5 0.845173 0.162613 0.764705
Si Si6 0.013859 0.251018 0.363304
Si Si7 0.194894 0.132535 0.832497
Si Si8 0.223817 0.045772 0.624960
O O1 0.027600 0.445328 0.789056
O O2 0.936818 0.252524 0.822058
O O3 0.825884 0.082501 0.526958
O O4 0.066526 0.931058 0.994593
O O5 0.283312 0.380991 0.987559
O O6 0.277770 0.911997 0.955968
O O7 0.299483 0.821577 0.840262
O O8 0.490326 0.748669 0.266369
O O9 0.437744 0.269341 0.771466
O O10 0.263346 0.103330 0.391584
O O11 0.447037 0.766838 0.790606
O O12 0.679860 0.677534 0.282882
O O13 0.767366 0.440822 0.609037
O O14 0.097406 0.286582 0.583176
O O15 0.097217 0.115663 0.452604
O O16 0.885306 0.044517 0.199184
#
# Coordination Sequence:
#
# PCOD8003360 Si02
#       8
#     2   2   2   2   2   2   2   2
#     4  11  19  38  57  87 121 152 189 238 287 350
#     4  11  23  38  60  84 116 155 193 241 285 339
#     4  10  21  39  56  81 116 161 191 229 283 339
#     4  10  20  37  54  86 114 150 195 224 280 346
#     4   9  22  35  58  86 118 158 190 231 282 349
#     4  10  21  36  59  86 121 147 190 241 299 343
#     4  10  23  38  60  88 115 151 195 241 293 339
#     4  11  21  33  58  87 121 146 192 233 299 344
#
# _framework density 20.965471000000001
#
# number of rings (size 3 to 8) (size 9 to 14) (size 15 to 20)
#    0.750    1.000    3.750    0.750    1.750    4.000 
#    0.000    0.000    0.000    1.500    0.000    0.000 
#    0.000    0.000    0.000    0.000    0.000    0.000 
#
# Total GULP energy -198278.061687 kJ/mol
# GULP energy per Si atom -12392.378855 kJ/mol
# Density = 2.091775 g / cm^3
# Si number density = 20.965471 Si / 1000 Ang^3
#
#
#
# Elastic Constant Matrix: (Units=GPa)
#
#
# Indices 1 2 3 4 5 6 
#
# 1 59.1797 26.3698 6.3669 0.3037 22.6301 -0.0698
# 2 26.3698 112.2583 6.9122 16.7425 14.7820 -0.9338
# 3 6.3669 6.9122 39.8957 4.7153 10.0502 6.8489
# 4 0.3037 16.7425 4.7153 30.1041 9.3047 6.2909
# 5 22.6301 14.7820 10.0502 9.3047 32.1262 2.3248
# 6 -0.0698 -0.9338 6.8489 6.2909 2.3248 39.4615
#
#
#
# Elastic Compliance Matrix: (Units=1/GPa)
#
#
# Indices 1 2 3 4 5 6 
#
# 1 0.026140 -0.004948 0.000471 0.008256 -0.018648 -0.000370
# 2 -0.004948 0.011026 -0.000697 -0.006375 0.000378 0.001367
# 3 0.000471 -0.000697 0.028005 -0.000538 -0.008305 -0.004301
# 4 0.008256 -0.006375 -0.000538 0.042523 -0.014598 -0.005962
# 5 -0.018648 0.000378 -0.008305 -0.014598 0.050861 0.000748
# 6 -0.000370 0.001367 -0.004301 -0.005962 0.000748 0.027026
#
#
# Mechanical properties :
#
#
# Convention : Reuss Voigt Hill
#
# Bulk Modulus (GPa) = 18.24057 32.29240 25.26648
# Shear Modulus (GPa) = 23.34236 31.78402 27.56319
#
# Velocity S-wave (km/s) = 3.34034 3.89783 3.62981
# Velocity P-wave (km/s) = 4.85761 5.97441 5.44472
#
# Compressibility (1/GPa) = 0.05482286
#
# Stress axis : x y z
#
# Youngs Moduli (GPa) = 38.25544 90.69698 35.70785
#
# Poissons Ratio (x) = 0.44878 -0.01682
# Poissons Ratio (y) = 0.18929 0.02489
# Poissons Ratio (z) = -0.01803 0.06322
#
# Static dielectric constant tensor:
#      x y z
#    x 3.457630 0.110470 0.141240 
#    y 0.110470 3.808300 0.027400 
#    z 0.141240 0.027400 3.668380 
# 
# 
# High freq. dielectric constant tensor:
#      x y z
#    x 1.796110 0.000870 0.023560 
#    y 0.000870 1.826580 0.008210 
#    z 0.023560 0.008210 1.797420 
# 
# From -- ./inp_files/580037.got.cif
#   From: 2010.06.25/outbox.cif.g09.slc.cpg/sg2_291_cif.got.tgz:580037.got - 2010.06.27 13:26:56.
