data_PCOD8003869
_publ_section_title
;
Structure prediction by ZEFSAII (Michael W. Deem and Ramdas Pophale) SiO2 
 PCOD8003869
Probable space group: P -1
;
_chemical_formula_sum "Si O2"
_cell_formula_units_Z 16
_cell_length_a 13.469287
_cell_length_b 14.116171
_cell_length_c 10.581557
_cell_angle_alpha 37.908763
_cell_angle_beta 143.564358
_cell_angle_gamma 120.694850
_cell_volume 690.262214
_symmetry_space_group_name_H-M "P -1"
_symmetry_group_IT_number 2
_symmetry_cell_setting 'triclinic'
loop_
_space_group_symop_operation_xyz
x,y,z
-x,-y,-z
loop_
_atom_site_type_symbol
_atom_site_label
_atom_site_fract_x
_atom_site_fract_y
_atom_site_fract_z
Si Si1 0.399739 0.224951 0.763341
Si Si2 0.587389 0.625408 0.899264
Si Si3 0.740771 0.782921 0.108554
Si Si4 0.979463 0.222775 0.090339
Si Si5 0.737657 0.030535 0.205066
Si Si6 0.712948 0.435688 0.787808
Si Si7 0.739527 0.111004 0.830798
Si Si8 0.890456 0.488289 0.157463
O O1 0.394762 0.176306 0.955096
O O2 0.350999 0.111164 0.730730
O O3 0.255190 0.405668 0.409062
O O4 0.608246 0.198464 0.966460
O O5 0.449377 0.750403 0.532287
O O6 0.500000 0.500000 0.000000
O O7 0.638067 0.734324 0.941481
O O8 0.763460 0.526172 0.108576
O O9 0.923732 0.640070 0.474162
O O10 0.773993 0.955941 0.934553
O O11 0.090513 0.046905 0.449264
O O12 0.817247 0.284578 0.963013
O O13 0.895161 0.193835 0.898734
O O14 0.084806 0.346648 0.044312
O O15 0.765587 0.048291 0.067421
O O16 0.500000 0.500000 0.500000
O O17 0.799230 0.407640 0.044673
#
# Coordination Sequence:
#
# PCOD8003869 Si02
#       8
#     2   2   2   2   2   2   2   2
#     4  10  20  37  62 100 136 176 222 272 345 406
#     4  12  28  51  72  97 133 186 243 291 337 399
#     4  11  25  46  71  97 139 183 233 285 335 404
#     4  12  23  42  70 109 146 176 224 282 351 422
#     4  10  21  38  67 102 143 178 213 279 351 418
#     4  12  23  38  68 106 144 180 221 279 351 419
#     4  11  25  46  68 102 141 182 229 283 348 410
#     4  12  25  45  73 103 138 183 230 287 346 407
#
# _framework density 23.179597000000001
#
# number of rings (size 3 to 8) (size 9 to 14) (size 15 to 20)
#    0.000    0.750    2.500    6.000    5.250    1.000 
#    0.000    1.250    0.000    0.000    0.000    0.000 
#    0.000    0.000    0.000    0.000    0.000    0.000 
#
# Total GULP energy -198303.497511 kJ/mol
# GULP energy per Si atom -12393.968594 kJ/mol
# Density = 2.312684 g / cm^3
# Si number density = 23.179597 Si / 1000 Ang^3
#
#
#
# Elastic Constant Matrix: (Units=GPa)
#
#
# Indices 1 2 3 4 5 6 
#
# 1 88.3169 25.0858 21.5770 7.1029 17.5678 -1.7757
# 2 25.0858 133.6237 37.8366 14.0936 5.6365 -22.4941
# 3 21.5770 37.8366 151.7588 1.6133 3.2376 -5.1178
# 4 7.1029 14.0936 1.6133 45.8515 -3.0171 0.4890
# 5 17.5678 5.6365 3.2376 -3.0171 24.5144 -0.4113
# 6 -1.7757 -22.4941 -5.1178 0.4890 -0.4113 27.6586
#
#
#
# Elastic Compliance Matrix: (Units=1/GPa)
#
#
# Indices 1 2 3 4 5 6 
#
# 1 0.014313 -0.001788 -0.001383 -0.002265 -0.009958 -0.000899
# 2 -0.001788 0.010008 -0.001929 -0.002879 -0.000990 0.007704
# 3 -0.001383 -0.001929 0.007238 0.000592 0.000546 -0.000321
# 4 -0.002265 -0.002879 0.000592 0.023385 0.005039 -0.002715
# 5 -0.009958 -0.000990 0.000546 0.005039 0.048692 -0.000708
# 6 -0.000899 0.007704 -0.000321 -0.002715 -0.000708 0.042341
#
#
# Mechanical properties :
#
#
# Convention : Reuss Voigt Hill
#
# Bulk Modulus (GPa) = 46.81953 60.29979 53.55966
# Shear Modulus (GPa) = 30.61891 38.88490 34.75191
#
# Velocity S-wave (km/s) = 3.63842 4.10023 3.87621
# Velocity P-wave (km/s) = 6.15575 6.96323 6.57190
#
# Compressibility (1/GPa) = 0.02135861
#
# Stress axis : x y z
#
# Youngs Moduli (GPa) = 69.86447 99.92112 138.15338
#
# Poissons Ratio (x) = 0.17865 0.19108
# Poissons Ratio (y) = 0.12491 0.26656
# Poissons Ratio (z) = 0.09663 0.19279
#
# Static dielectric constant tensor:
#      x y z
#    x 3.993620 0.363560 0.047910 
#    y 0.363560 5.208780 -0.242610 
#    z 0.047910 -0.242610 4.522270 
# 
# 
# High freq. dielectric constant tensor:
#      x y z
#    x 1.891440 0.017270 0.005680 
#    y 0.017270 1.948800 -0.004840 
#    z 0.005680 -0.004840 1.932840 
# 
# From -- ./inp_files/455510.got.cif
#   From: 2010.06.25/outbox.cif.g09.slc.cpg/sg2_228_cif.got.tgz:455510.got - 2010.06.27 13:26:56.
