data_PCOD8003947
_publ_section_title
;
Structure prediction by ZEFSAII (Michael W. Deem and Ramdas Pophale) SiO2 
 PCOD8003947
Probable space group: P -1
;
_chemical_formula_sum "Si O2"
_cell_formula_units_Z 16
_cell_length_a 13.861218
_cell_length_b 11.490606
_cell_length_c 8.605090
_cell_angle_alpha 60.245380
_cell_angle_beta 95.011842
_cell_angle_gamma 134.631293
_cell_volume 767.298725
_symmetry_space_group_name_H-M "P -1"
_symmetry_group_IT_number 2
_symmetry_cell_setting 'triclinic'
loop_
_space_group_symop_operation_xyz
x,y,z
-x,-y,-z
loop_
_atom_site_type_symbol
_atom_site_label
_atom_site_fract_x
_atom_site_fract_y
_atom_site_fract_z
Si Si1 0.654697 0.238890 0.848457
Si Si2 0.464210 0.279536 0.781390
Si Si3 0.659104 0.720731 0.524557
Si Si4 0.033656 0.252368 0.913527
Si Si5 0.781449 0.133016 0.788098
Si Si6 0.101447 0.158282 0.713758
Si Si7 0.874721 0.086902 0.539917
Si Si8 0.911121 0.538995 0.917961
O O1 0.613721 0.347603 0.727668
O O2 0.749703 0.259264 0.716791
O O3 0.750480 0.334607 0.957756
O O4 0.500000 0.000000 0.000000
O O5 0.512637 0.479968 0.713404
O O6 0.379952 0.204571 0.654409
O O7 0.357441 0.101801 0.013172
O O8 0.764089 0.715750 0.470022
O O9 0.733424 0.869608 0.582553
O O10 0.143773 0.308078 0.758917
O O11 0.929444 0.258804 0.824706
O O12 0.122944 0.408542 0.967774
O O13 0.926962 0.018663 0.105007
O O14 0.808915 0.133433 0.610412
O O15 0.954117 0.056630 0.673241
O O16 0.990505 0.269461 0.313019
O O17 0.000000 0.500000 0.000000
#
# Coordination Sequence:
#
# PCOD8003947 Si02
#       8
#     2   2   2   2   2   2   2   2
#     4  10  23  41  65  86 123 171 204 251 308 373
#     4  10  22  39  63  83 124 172 207 244 319 376
#     4  11  21  39  61  91 123 164 207 258 306 373
#     4  10  20  37  64  91 122 157 201 257 317 353
#     4  10  20  43  59  90 126 164 203 259 309 362
#     4  10  20  37  62  91 125 154 193 269 309 361
#     4  11  24  36  65  92 123 155 214 266 307 362
#     4  12  23  41  67  93 122 163 213 258 307 370
#
# _framework density 20.852371999999999
#
# number of rings (size 3 to 8) (size 9 to 14) (size 15 to 20)
#    0.000    1.500    3.750    1.125    3.500    1.000 
#    2.250    5.625    0.000    0.000    0.000    0.000 
#    0.000    0.000    0.000    0.000    0.000    0.000 
#
# Total GULP energy -198344.484064 kJ/mol
# GULP energy per Si atom -12396.530254 kJ/mol
# Density = 2.080491 g / cm^3
# Si number density = 20.852372 Si / 1000 Ang^3
#
#
#
# Elastic Constant Matrix: (Units=GPa)
#
#
# Indices 1 2 3 4 5 6 
#
# 1 108.2610 47.3958 1.7062 25.9559 0.6801 -3.2479
# 2 47.3958 159.5098 27.6038 29.3830 -10.6027 -7.0860
# 3 1.7062 27.6038 38.3193 14.0132 -0.7445 -4.5555
# 4 25.9559 29.3830 14.0132 31.9703 -5.5847 -3.9434
# 5 0.6801 -10.6027 -0.7445 -5.5847 26.5087 6.7561
# 6 -3.2479 -7.0860 -4.5555 -3.9434 6.7561 28.5436
#
#
#
# Elastic Compliance Matrix: (Units=1/GPa)
#
#
# Indices 1 2 3 4 5 6 
#
# 1 0.013180 -0.003111 0.005690 -0.010901 -0.003993 0.001075
# 2 -0.003111 0.008785 -0.005112 -0.002813 0.002872 -0.000057
# 3 0.005690 -0.005112 0.035796 -0.016079 -0.005645 0.004206
# 4 -0.010901 -0.002813 -0.016079 0.051458 0.009450 0.000367
# 5 -0.003993 0.002872 -0.005645 0.009450 0.043247 -0.009573
# 6 0.001075 -0.000057 0.004206 0.000367 -0.009573 0.038130
#
#
# Mechanical properties :
#
#
# Convention : Reuss Voigt Hill
#
# Bulk Modulus (GPa) = 18.97669 51.05575 35.01622
# Shear Modulus (GPa) = 23.44941 32.69683 28.07312
#
# Velocity S-wave (km/s) = 3.35706 3.96411 3.67315
# Velocity P-wave (km/s) = 4.91393 6.74461 5.90070
#
# Compressibility (1/GPa) = 0.05269623
#
# Stress axis : x y z
#
# Youngs Moduli (GPa) = 75.87334 113.83504 27.93616
#
# Poissons Ratio (x) = 0.35410 -0.15897
# Poissons Ratio (y) = 0.23601 0.14281
# Poissons Ratio (z) = -0.43175 0.58192
#
# Static dielectric constant tensor:
#      x y z
#    x 4.232860 -0.095660 0.092640 
#    y -0.095660 3.810980 0.149900 
#    z 0.092640 0.149900 3.696300 
# 
# 
# High freq. dielectric constant tensor:
#      x y z
#    x 1.826580 -0.006010 0.011170 
#    y -0.006010 1.815320 0.000880 
#    z 0.011170 0.000880 1.800060 
# 
# From -- ./inp_files/306741.got.cif
#   From: 2010.06.25/outbox.cif.g09.slc.cpg/sg2_154_cif.got.tgz:306741.got - 2010.06.27 13:26:56.
