data_PCOD8003992
_publ_section_title
;
Structure prediction by ZEFSAII (Michael W. Deem and Ramdas Pophale) SiO2 
 PCOD8003992
Probable space group: P -1
;
_chemical_formula_sum "Si O2"
_cell_formula_units_Z 16
_cell_length_a 7.408501
_cell_length_b 7.437819
_cell_length_c 14.996868
_cell_angle_alpha 72.430730
_cell_angle_beta 96.052534
_cell_angle_gamma 86.822828
_cell_volume 780.109032
_symmetry_space_group_name_H-M "P -1"
_symmetry_group_IT_number 2
_symmetry_cell_setting 'triclinic'
loop_
_space_group_symop_operation_xyz
x,y,z
-x,-y,-z
loop_
_atom_site_type_symbol
_atom_site_label
_atom_site_fract_x
_atom_site_fract_y
_atom_site_fract_z
Si Si1 0.911079 0.589566 0.716827
Si Si2 0.097127 0.209093 0.602215
Si Si3 0.648285 0.864100 0.758755
Si Si4 0.990797 0.646657 0.087888
Si Si5 0.102021 0.823438 0.231679
Si Si6 0.315812 0.431983 0.041891
Si Si7 0.614576 0.073528 0.415101
Si Si8 0.178606 0.607965 0.571763
O O1 0.764938 0.766013 0.698522
O O2 0.022293 0.541060 0.822529
O O3 0.818843 0.396383 0.713326
O O4 0.038408 0.654492 0.637407
O O5 0.225927 0.382077 0.597063
O O6 0.048861 0.117534 0.708794
O O7 0.907091 0.298392 0.536776
O O8 0.193440 0.054333 0.563673
O O9 0.613526 0.711342 0.854923
O O10 0.466307 0.943435 0.686183
O O11 0.739046 0.038830 0.781005
O O12 0.009358 0.828701 0.126644
O O13 0.175803 0.607588 0.043387
O O14 0.803514 0.680038 0.017627
O O15 0.500000 0.500000 0.000000
O O16 0.641962 0.290885 0.408813
O O17 0.500000 0.000000 0.500000
#
# Coordination Sequence:
#
# PCOD8003992 Si02
#       8
#     2   2   2   2   2   2   2   2
#     4   8  18  37  61  82 108 159 201 241 294 361
#     4  10  21  38  60  87 113 158 208 246 286 368
#     4  11  22  36  60  88 119 160 190 246 317 347
#     4   8  19  40  62  85 118 159 191 261 305 338
#     4   9  19  39  60  85 116 151 203 248 291 365
#     4  10  21  39  64  91 121 154 210 250 299 380
#     4  12  25  36  54  90 129 155 192 250 301 357
#     4  10  20  37  63  81 112 164 205 237 300 354
#
# _framework density 20.509955000000001
#
# number of rings (size 3 to 8) (size 9 to 14) (size 15 to 20)
#    0.750    1.500    0.000    2.625    1.750    2.000 
#    4.500    0.625    0.000    0.000    0.000    0.000 
#    0.000    0.000    0.000    0.000    0.000    0.000 
#
# Total GULP energy -198255.437366 kJ/mol
# GULP energy per Si atom -12390.964835 kJ/mol
# Density = 2.046327 g / cm^3
# Si number density = 20.509955 Si / 1000 Ang^3
#
#
#
# Elastic Constant Matrix: (Units=GPa)
#
#
# Indices 1 2 3 4 5 6 
#
# 1 81.7648 31.9093 42.4276 4.8958 -5.9386 21.5204
# 2 31.9093 71.2745 19.5632 10.4658 -2.5504 25.1982
# 3 42.4276 19.5632 101.8889 12.3003 -5.0731 11.7149
# 4 4.8958 10.4658 12.3003 30.9910 -0.1383 -0.0841
# 5 -5.9386 -2.5504 -5.0731 -0.1383 29.9892 2.3748
# 6 21.5204 25.1982 11.7149 -0.0841 2.3748 36.6860
#
#
#
# Elastic Compliance Matrix: (Units=1/GPa)
#
#
# Indices 1 2 3 4 5 6 
#
# 1 0.019109 -0.004706 -0.006340 0.001083 0.002802 -0.006132
# 2 -0.004706 0.021419 0.000125 -0.006564 0.001841 -0.012126
# 3 -0.006340 0.000125 0.013060 -0.004221 0.000993 -0.000611
# 4 0.001083 -0.006564 -0.004221 0.035997 -0.001319 0.005390
# 5 0.002802 0.001841 0.000993 -0.001319 0.034652 -0.005471
# 6 -0.006132 -0.012126 -0.000611 0.005390 -0.005471 0.039746
#
#
# Mechanical properties :
#
#
# Convention : Reuss Voigt Hill
#
# Bulk Modulus (GPa) = 31.49854 49.19205 40.34529
# Shear Modulus (GPa) = 25.45739 30.26844 27.86292
#
# Velocity S-wave (km/s) = 3.52692 3.84577 3.68979
# Velocity P-wave (km/s) = 5.65478 6.61487 6.15358
#
# Compressibility (1/GPa) = 0.03174750
#
# Stress axis : x y z
#
# Youngs Moduli (GPa) = 52.33161 46.68676 76.57028
#
# Poissons Ratio (x) = 0.21970 0.48544
# Poissons Ratio (y) = 0.24626 -0.00959
# Poissons Ratio (z) = 0.33177 -0.00585
#
# Static dielectric constant tensor:
#      x y z
#    x 3.355710 0.082500 -0.055850 
#    y 0.082500 3.695850 0.215190 
#    z -0.055850 0.215190 3.796220 
# 
# 
# High freq. dielectric constant tensor:
#      x y z
#    x 1.767770 0.007600 -0.012380 
#    y 0.007600 1.797930 0.014200 
#    z -0.012380 0.014200 1.810580 
# 
# From -- ./inp_files/480353.got.cif
#   From: 2010.06.25/outbox.cif.g09.slc.cpg/sg2_241_cif.got.tgz:480353.got - 2010.06.27 13:26:56.
