data_PCOD8003325
_publ_section_title
;
Structure prediction by ZEFSAII (Michael W. Deem and Ramdas Pophale) SiO2 
 PCOD8003325
Probable space group: P -1
;
_chemical_formula_sum "Si O2"
_cell_formula_units_Z 14
_cell_length_a 9.091510
_cell_length_b 25.842618
_cell_length_c 14.450816
_cell_angle_alpha 18.834439
_cell_angle_beta 130.950640
_cell_angle_gamma 140.640851
_cell_volume 644.934957
_symmetry_space_group_name_H-M "P -1"
_symmetry_group_IT_number 2
_symmetry_cell_setting 'triclinic'
loop_
_space_group_symop_operation_xyz
x,y,z
-x,-y,-z
loop_
_atom_site_type_symbol
_atom_site_label
_atom_site_fract_x
_atom_site_fract_y
_atom_site_fract_z
Si Si1 0.261453 0.195723 0.367085
Si Si2 0.449905 0.119004 0.104176
Si Si3 0.055929 0.347503 0.315783
Si Si4 0.286027 0.031561 0.476500
Si Si5 0.528210 0.619012 0.676266
Si Si6 0.713427 0.399135 0.568667
Si Si7 0.494962 0.613614 0.168784
O O1 0.292389 0.060862 0.540891
O O2 0.432878 0.259198 0.420064
O O3 0.316208 0.380132 0.015861
O O4 0.983767 0.073381 0.499176
O O5 0.631478 0.109623 0.261777
O O6 0.574072 0.208819 0.903645
O O7 0.438358 0.282946 0.876922
O O8 0.191875 0.889024 0.374348
O O9 0.221601 0.346028 0.308494
O O10 0.204552 0.415398 0.362048
O O11 0.000000 0.500000 0.000000
O O12 0.475335 0.241552 0.145286
O O13 0.429473 0.688745 0.439477
O O14 0.687309 0.566863 0.312057
O O15 0.000000 0.500000 0.500000
#
# Coordination Sequence:
#
# PCOD8003325 Si02
#       7
#     2   2   2   2   2   2   2
#     4  10  20  36  67  95 130 171 222 279 339 375
#     4  12  25  42  73  99 138 186 221 273 358 400
#     4  11  22  41  65 103 139 168 230 285 328 412
#     4  11  21  39  67 100 130 171 228 278 334 402
#     4  10  21  40  62  94 134 172 222 281 329 396
#     4  11  25  48  67  99 139 181 230 280 335 416
#     4  11  24  44  69 100 138 179 227 283 338 402
#
# _framework density 21.707614
#
# number of rings (size 3 to 8) (size 9 to 14) (size 15 to 20)
#    0.000    1.143    4.286    2.571    4.000    2.286 
#    2.571    2.143    0.000    0.000    0.000    0.000 
#    0.000    0.000    0.000    0.000    0.000    0.000 
#
# Total GULP energy -173518.299517 kJ/mol
# GULP energy per Si atom -12394.164251 kJ/mol
# Density = 2.165821 g / cm^3
# Si number density = 21.707614 Si / 1000 Ang^3
#
#
#
# Elastic Constant Matrix: (Units=GPa)
#
#
# Indices 1 2 3 4 5 6 
#
# 1 80.8109 53.3644 37.4780 -6.7961 -6.3064 11.4255
# 2 53.3644 106.3004 43.1234 -4.4967 -7.5883 -6.6511
# 3 37.4780 43.1234 93.3339 -2.2191 -9.5530 -3.2225
# 4 -6.7961 -4.4967 -2.2191 35.4006 3.2665 6.1707
# 5 -6.3064 -7.5883 -9.5530 3.2665 33.1990 3.1950
# 6 11.4255 -6.6511 -3.2225 6.1707 3.1950 26.6472
#
#
#
# Elastic Compliance Matrix: (Units=1/GPa)
#
#
# Indices 1 2 3 4 5 6 
#
# 1 0.024786 -0.010984 -0.005109 0.005587 0.001668 -0.015481
# 2 -0.010984 0.016628 -0.002990 -0.001748 0.000171 0.008882
# 3 -0.005109 -0.002990 0.014466 -0.001226 0.002321 0.003199
# 4 0.005587 -0.001748 -0.001226 0.030916 -0.001777 -0.009926
# 5 0.001668 0.000171 0.002321 -0.001777 0.031684 -0.003779
# 6 -0.015481 0.008882 0.003199 -0.009926 -0.003779 0.049521
#
#
# Mechanical properties :
#
#
# Convention : Reuss Voigt Hill
#
# Bulk Modulus (GPa) = 56.44721 60.93076 58.68899
# Shear Modulus (GPa) = 23.57715 28.81466 26.19591
#
# Velocity S-wave (km/s) = 3.29921 3.64730 3.47762
# Velocity P-wave (km/s) = 6.36969 6.77251 6.57418
#
# Compressibility (1/GPa) = 0.01771567
#
# Stress axis : x y z
#
# Youngs Moduli (GPa) = 40.34567 60.13929 69.12791
#
# Poissons Ratio (x) = 0.66054 0.35317
# Poissons Ratio (y) = 0.44314 0.20667
# Poissons Ratio (z) = 0.20612 0.17980
#
# Static dielectric constant tensor:
#      x y z
#    x 3.999010 -0.012670 -0.030450 
#    y -0.012670 3.873450 -0.087000 
#    z -0.030450 -0.087000 3.884530 
# 
# 
# High freq. dielectric constant tensor:
#      x y z
#    x 1.856790 -0.001600 -0.004950 
#    y -0.001600 1.852840 -0.005640 
#    z -0.004950 -0.005640 1.845430 
# 
# From -- ./inp_files/269351.got.cif
#   From: 2010.06.25/outbox.cif.g09.slc.cpg/sg2_135_cif.got.tgz:269351.got - 2010.06.27 13:26:56.
