data_PCOD8003686
_publ_section_title
;
Structure prediction by ZEFSAII (Michael W. Deem and Ramdas Pophale) SiO2 
 PCOD8003686
Probable space group: P -1
;
_chemical_formula_sum "Si O2"
_cell_formula_units_Z 14
_cell_length_a 9.387476
_cell_length_b 9.237856
_cell_length_c 16.289180
_cell_angle_alpha 136.260807
_cell_angle_beta 40.888638
_cell_angle_gamma 128.652029
_cell_volume 629.634475
_symmetry_space_group_name_H-M "P -1"
_symmetry_group_IT_number 2
_symmetry_cell_setting 'triclinic'
loop_
_space_group_symop_operation_xyz
x,y,z
-x,-y,-z
loop_
_atom_site_type_symbol
_atom_site_label
_atom_site_fract_x
_atom_site_fract_y
_atom_site_fract_z
Si Si1 0.298499 0.841254 0.416717
Si Si2 0.210983 0.021745 0.687504
Si Si3 0.607156 0.166192 0.807358
Si Si4 0.916731 0.304076 0.013186
Si Si5 0.090970 0.367740 0.306298
Si Si6 0.201941 0.357700 0.064564
Si Si7 0.432660 0.146524 0.158792
O O1 0.225026 0.022226 0.581258
O O2 0.275093 0.891167 0.351253
O O3 0.133719 0.616773 0.413276
O O4 0.561432 0.844062 0.321235
O O5 0.159564 0.766455 0.628316
O O6 0.994562 0.108804 0.849851
O O7 0.693830 0.399445 0.902732
O O8 0.648416 0.987835 0.779915
O O9 0.351624 0.179185 0.905488
O O10 0.660072 0.305430 0.140750
O O11 0.000000 0.500000 0.000000
O O12 0.996835 0.305514 0.072294
O O13 0.149265 0.336840 0.174297
O O14 0.246206 0.272248 0.263206
O O15 0.500000 0.000000 0.000000
#
# Coordination Sequence:
#
# PCOD8003686 Si02
#       7
#     2   2   2   2   2   2   2
#     4  10  23  41  63  91 120 170 209 251 290 380
#     4  11  22  39  67  86 125 166 212 242 309 365
#     4  10  20  37  60  88 126 156 205 250 309 361
#     4  12  24  37  63  96 127 155 203 262 312 363
#     4  11  23  42  65  93 124 160 208 257 309 362
#     4  10  21  36  62  90 122 158 201 257 308 361
#     4  12  22  36  61  93 125 154 197 261 315 357
#
# _framework density 22.235120999999999
#
# number of rings (size 3 to 8) (size 9 to 14) (size 15 to 20)
#    0.000    1.143    4.286    2.143    4.000    1.143 
#    0.000    0.714    3.143    2.571    0.000    0.000 
#    0.000    0.000    0.000    0.000    0.000    0.000 
#
# Total GULP energy -173445.714663 kJ/mol
# GULP energy per Si atom -12388.979619 kJ/mol
# Density = 2.218451 g / cm^3
# Si number density = 22.235121 Si / 1000 Ang^3
#
#
#
# Elastic Constant Matrix: (Units=GPa)
#
#
# Indices 1 2 3 4 5 6 
#
# 1 100.4686 38.2486 14.8949 4.3692 13.7248 -11.6581
# 2 38.2486 106.4626 8.4187 -6.2119 12.2743 -9.0422
# 3 14.8949 8.4187 59.5631 5.4652 21.7313 -8.3496
# 4 4.3692 -6.2119 5.4652 15.1944 3.5062 1.4293
# 5 13.7248 12.2743 21.7313 3.5062 30.7476 -8.7167
# 6 -11.6581 -9.0422 -8.3496 1.4293 -8.7167 43.4916
#
#
#
# Elastic Compliance Matrix: (Units=1/GPa)
#
#
# Indices 1 2 3 4 5 6 
#
# 1 0.012440 -0.004256 -0.001073 -0.004658 -0.001998 0.001996
# 2 -0.004256 0.011748 0.000131 0.006760 -0.003541 0.000395
# 3 -0.001073 0.000131 0.023126 -0.004615 -0.015018 0.001321
# 4 -0.004658 0.006760 -0.004615 0.073632 -0.007047 -0.004561
# 5 -0.001998 -0.003541 -0.015018 -0.007047 0.047853 0.005667
# 6 0.001996 0.000395 0.001321 -0.004561 0.005667 0.025150
#
#
# Mechanical properties :
#
#
# Convention : Reuss Voigt Hill
#
# Bulk Modulus (GPa) = 27.08697 43.29097 35.18897
# Shear Modulus (GPa) = 23.07860 31.54885 27.31372
#
# Velocity S-wave (km/s) = 3.22519 3.77088 3.50866
# Velocity P-wave (km/s) = 5.10663 6.20252 5.68106
#
# Compressibility (1/GPa) = 0.03691812
#
# Stress axis : x y z
#
# Youngs Moduli (GPa) = 80.38577 85.12088 43.24047
#
# Poissons Ratio (x) = 0.36230 0.04639
# Poissons Ratio (y) = 0.34215 -0.00567
# Poissons Ratio (z) = 0.08625 -0.01115
#
# Static dielectric constant tensor:
#      x y z
#    x -10.414230 -3.891380 11.955240 
#    y -3.891380 2.991590 3.287140 
#    z 11.955240 3.287140 -5.580220 
# 
# 
# High freq. dielectric constant tensor:
#      x y z
#    x 1.871130 0.013340 0.027670 
#    y 0.013340 1.884140 -0.016650 
#    z 0.027670 -0.016650 1.863500 
# 
# From -- ./inp_files/156977.got.cif
#   From: 2010.06.25/outbox.cif.g09.slc.cpg/sg2_79_cif.got.tgz:156977.got - 2010.06.27 13:26:56.
