data_PCOD8003865
_publ_section_title
;
Structure prediction by ZEFSAII (Michael W. Deem and Ramdas Pophale) SiO2 
 PCOD8003865
Probable space group: P -1
;
_chemical_formula_sum "Si O2"
_cell_formula_units_Z 16
_cell_length_a 9.439277
_cell_length_b 11.913130
_cell_length_c 9.445429
_cell_angle_alpha 82.023729
_cell_angle_beta 85.980217
_cell_angle_gamma 130.294857
_cell_volume 784.123927
_symmetry_space_group_name_H-M "P -1"
_symmetry_group_IT_number 2
_symmetry_cell_setting 'triclinic'
loop_
_space_group_symop_operation_xyz
x,y,z
-x,-y,-z
loop_
_atom_site_type_symbol
_atom_site_label
_atom_site_fract_x
_atom_site_fract_y
_atom_site_fract_z
Si Si1 0.798809 0.016703 0.381563
Si Si2 0.115893 0.485066 0.602496
Si Si3 0.808586 0.389984 0.114651
Si Si4 0.519630 0.718595 0.578495
Si Si5 0.121823 0.862025 0.341981
Si Si6 0.072220 0.057946 0.140694
Si Si7 0.528272 0.630704 0.891322
Si Si8 0.547681 0.083565 0.284730
O O1 0.705526 0.841421 0.447612
O O2 0.905128 0.120594 0.494189
O O3 0.629351 0.015318 0.363801
O O4 0.945966 0.084269 0.229561
O O5 0.130638 0.555518 0.738108
O O6 0.336923 0.583986 0.520562
O O7 0.000000 0.500000 0.500000
O O8 0.016228 0.312557 0.657817
O O9 0.664709 0.404851 0.056784
O O10 0.704740 0.211412 0.137096
O O11 0.000000 0.500000 0.000000
O O12 0.556383 0.644825 0.714124
O O13 0.479888 0.821545 0.630281
O O14 0.053603 0.931346 0.245252
O O15 0.337471 0.941879 0.267384
O O16 0.288952 0.211616 0.084179
O O17 0.000000 0.000000 0.000000
O O18 0.500000 0.500000 0.000000
#
# Coordination Sequence:
#
# PCOD8003865 Si02
#       8
#     2   2   2   2   2   2   2   2
#     4  11  21  40  68  89 118 165 212 245 318 381
#     4  10  20  37  61  97 126 148 199 264 314 350
#     4  10  22  41  63  90 123 166 209 243 312 383
#     4   9  19  39  64  92 125 157 206 255 310 369
#     4  11  20  41  65  89 126 159 201 268 308 358
#     4  12  27  42  60  93 127 166 212 256 306 367
#     4  10  22  43  63  83 129 171 203 253 310 367
#     4   9  18  37  65  91 117 159 202 260 308 360
#
# _framework density 20.404938999999999
#
# number of rings (size 3 to 8) (size 9 to 14) (size 15 to 20)
#    0.000    2.000    3.750    4.125    5.250    0.000 
#    4.500    1.875    0.000    0.000    0.000    0.000 
#    0.000    0.000    0.000    0.000    0.000    0.000 
#
# Total GULP energy -198216.578115 kJ/mol
# GULP energy per Si atom -12388.536132 kJ/mol
# Density = 2.035850 g / cm^3
# Si number density = 20.404939 Si / 1000 Ang^3
#
#
#
# Elastic Constant Matrix: (Units=GPa)
#
#
# Indices 1 2 3 4 5 6 
#
# 1 81.1849 25.1373 50.5193 1.4831 17.4835 11.5736
# 2 25.1373 114.8238 15.0501 -10.8454 6.6387 19.7360
# 3 50.5193 15.0501 81.0553 -2.5842 10.9788 4.4577
# 4 1.4831 -10.8454 -2.5842 35.8891 4.7035 10.5746
# 5 17.4835 6.6387 10.9788 4.7035 40.7659 -11.7273
# 6 11.5736 19.7360 4.4577 10.5746 -11.7273 38.1280
#
#
#
# Elastic Compliance Matrix: (Units=1/GPa)
#
#
# Indices 1 2 3 4 5 6 
#
# 1 0.023871 -0.001528 -0.012903 0.001160 -0.008956 -0.008023
# 2 -0.001528 0.011412 0.000136 0.006676 -0.004512 -0.008699
# 3 -0.012903 0.000136 0.020334 0.001716 0.000135 0.001035
# 4 0.001160 0.006676 0.001716 0.036651 -0.011358 -0.017667
# 5 -0.008956 -0.004512 0.000135 -0.011358 0.035913 0.019234
# 6 -0.008023 -0.008699 0.001035 -0.017667 0.019234 0.043860
#
#
# Mechanical properties :
#
#
# Convention : Reuss Voigt Hill
#
# Bulk Modulus (GPa) = 37.00127 50.94195 43.97161
# Shear Modulus (GPa) = 23.85024 35.38042 29.61533
#
# Velocity S-wave (km/s) = 3.42255 4.16855 3.81383
# Velocity P-wave (km/s) = 5.81303 6.94181 6.40235
#
# Compressibility (1/GPa) = 0.02702610
#
# Stress axis : x y z
#
# Youngs Moduli (GPa) = 41.89127 87.62414 49.17948
#
# Poissons Ratio (x) = 0.13392 0.63458
# Poissons Ratio (y) = 0.06403 -0.00669
# Poissons Ratio (z) = 0.54053 -0.01192
#
# Static dielectric constant tensor:
#      x y z
#    x 4.002790 0.740700 -0.100730 
#    y 0.740700 4.871430 -0.882520 
#    z -0.100730 -0.882520 4.019800 
# 
# 
# High freq. dielectric constant tensor:
#      x y z
#    x 1.792770 0.025510 0.023830 
#    y 0.025510 1.808670 -0.026050 
#    z 0.023830 -0.026050 1.779600 
# 
# From -- ./inp_files/186813.got.cif
#   From: 2010.06.25/outbox.cif.g09.slc.cpg/sg2_94_cif.got.tgz:186813.got - 2010.06.27 13:26:56.
