data_PCOD8003277
_publ_section_title
;
Structure prediction by ZEFSAII (Michael W. Deem and Ramdas Pophale) SiO2 
 PCOD8003277
Probable space group: P -1
;
_chemical_formula_sum "Si O2"
_cell_formula_units_Z 16
_cell_length_a 8.661995
_cell_length_b 11.583951
_cell_length_c 15.314948
_cell_angle_alpha 48.858289
_cell_angle_beta 46.434954
_cell_angle_gamma 41.811738
_cell_volume 708.473352
_symmetry_space_group_name_H-M "P -1"
_symmetry_group_IT_number 2
_symmetry_cell_setting 'triclinic'
loop_
_space_group_symop_operation_xyz
x,y,z
-x,-y,-z
loop_
_atom_site_type_symbol
_atom_site_label
_atom_site_fract_x
_atom_site_fract_y
_atom_site_fract_z
Si Si1 0.319183 0.783179 0.893819
Si Si2 0.394008 0.595967 0.126997
Si Si3 0.697719 0.158602 0.384836
Si Si4 0.519649 0.035880 0.366686
Si Si5 0.108091 0.096515 0.126871
Si Si6 0.965473 0.338728 0.615155
Si Si7 0.509205 0.474797 0.612833
Si Si8 0.378178 0.286971 0.882765
O O1 0.471866 0.589549 0.884745
O O2 0.048336 0.909421 0.890821
O O3 0.469054 0.888588 0.770469
O O4 0.287344 0.764407 0.017571
O O5 0.161382 0.623724 0.259154
O O6 0.603663 0.592061 0.109198
O O7 0.713167 0.995322 0.519742
O O8 0.575776 0.335135 0.403848
O O9 0.961411 0.120964 0.263026
O O10 0.508271 0.184018 0.366157
O O11 0.774150 0.850661 0.387843
O O12 0.367551 0.908188 0.124471
O O13 0.148947 0.262172 0.008945
O O14 0.790998 0.330509 0.611049
O O15 0.000000 0.500000 0.500000
O O16 0.500000 0.500000 0.500000
O O17 0.337914 0.395681 0.752302
#
# Coordination Sequence:
#
# PCOD8003277 Si02
#       8
#     2   2   2   2   2   2   2   2
#     4  10  21  38  61  94 120 153 201 252 302 350
#     4  10  22  38  60  92 124 152 199 252 299 364
#     4  10  20  37  63  90 116 161 200 244 305 356
#     4  10  20  36  65  92 119 161 201 249 303 361
#     4  10  21  40  65  88 115 161 205 245 301 362
#     4  11  21  37  60  90 120 161 202 245 303 358
#     4  11  23  40  59  91 125 160 201 251 302 360
#     4  10  22  41  62  85 120 162 202 245 304 364
#
# _framework density 22.583770000000001
#
# number of rings (size 3 to 8) (size 9 to 14) (size 15 to 20)
#    0.000    1.750    1.250    6.000    1.750    5.000 
#    4.500    3.750    0.000    0.000    0.000    0.000 
#    0.000    0.000    0.000    0.000    0.000    0.000 
#
# Total GULP energy -198232.689642 kJ/mol
# GULP energy per Si atom -12389.543103 kJ/mol
# Density = 2.253237 g / cm^3
# Si number density = 22.583770 Si / 1000 Ang^3
#
#
#
# Elastic Constant Matrix: (Units=GPa)
#
#
# Indices 1 2 3 4 5 6 
#
# 1 39.7168 18.0687 62.7053 4.9053 2.8725 4.9660
# 2 18.0687 59.0005 39.9164 3.3619 6.9266 7.2924
# 3 62.7053 39.9164 268.5699 -17.1194 -6.9795 11.0711
# 4 4.9053 3.3619 -17.1194 35.7871 2.8705 -4.3721
# 5 2.8725 6.9266 -6.9795 2.8705 45.6967 -1.8911
# 6 4.9660 7.2924 11.0711 -4.3721 -1.8911 15.4471
#
#
#
# Elastic Compliance Matrix: (Units=1/GPa)
#
#
# Indices 1 2 3 4 5 6 
#
# 1 0.047358 -0.004997 -0.010801 -0.012002 -0.003486 -0.008948
# 2 -0.004997 0.021401 -0.001949 -0.003008 -0.003385 -0.008366
# 3 -0.010801 -0.001949 0.006850 0.004933 0.001756 0.001094
# 4 -0.012002 -0.003008 0.004933 0.033584 0.000321 0.011288
# 5 -0.003486 -0.003385 0.001756 0.000321 0.023045 0.004372
# 6 -0.008948 -0.008366 0.001094 0.011288 0.004372 0.074509
#
#
# Mechanical properties :
#
#
# Convention : Reuss Voigt Hill
#
# Bulk Modulus (GPa) = 24.92847 67.62978 46.27913
# Shear Modulus (GPa) = 19.56103 35.82597 27.69350
#
# Velocity S-wave (km/s) = 2.94624 3.98723 3.50559
# Velocity P-wave (km/s) = 4.75773 7.15602 6.07637
#
# Compressibility (1/GPa) = 0.04011478
#
# Stress axis : x y z
#
# Youngs Moduli (GPa) = 21.11595 46.72788 145.98753
#
# Poissons Ratio (x) = 0.23348 1.57683
# Poissons Ratio (y) = 0.10551 0.28452
# Poissons Ratio (z) = 0.22808 0.09107
#
# Static dielectric constant tensor:
#      x y z
#    x 3.947520 0.065160 -0.218400 
#    y 0.065160 4.093240 -0.256550 
#    z -0.218400 -0.256550 5.225590 
# 
# 
# High freq. dielectric constant tensor:
#      x y z
#    x 1.831210 0.006580 -0.013670 
#    y 0.006580 1.895380 -0.011190 
#    z -0.013670 -0.011190 1.932710 
# 
# From -- ./inp_files/499998.got.cif
#   From: 2010.06.25/outbox.cif.g09.slc.cpg/sg2_250_cif.got.tgz:499998.got - 2010.06.27 13:26:56.
