data_PCOD8003922
_publ_section_title
;
Structure prediction by ZEFSAII (Michael W. Deem and Ramdas Pophale) SiO2 
 PCOD8003922
Probable space group: P -1
;
_chemical_formula_sum "Si O2"
_cell_formula_units_Z 16
_cell_length_a 22.036772
_cell_length_b 8.920599
_cell_length_c 17.481767
_cell_angle_alpha 141.953787
_cell_angle_beta 18.915167
_cell_angle_gamma 140.555315
_cell_volume 680.156968
_symmetry_space_group_name_H-M "P -1"
_symmetry_group_IT_number 2
_symmetry_cell_setting 'triclinic'
loop_
_space_group_symop_operation_xyz
x,y,z
-x,-y,-z
loop_
_atom_site_type_symbol
_atom_site_label
_atom_site_fract_x
_atom_site_fract_y
_atom_site_fract_z
Si Si1 0.673089 0.352653 0.729836
Si Si2 0.729282 0.490571 0.406209
Si Si3 0.390493 0.757863 0.397981
Si Si4 0.197840 0.388069 0.174628
Si Si5 0.481140 0.070244 0.162545
Si Si6 0.414569 0.731994 0.662932
Si Si7 0.810958 0.144868 0.701966
Si Si8 0.937385 0.104253 0.795967
O O1 0.743699 0.356247 0.558653
O O2 0.824809 0.474493 0.660391
O O3 0.583575 0.067538 0.737063
O O4 0.500000 0.500000 0.000000
O O5 0.716964 0.314069 0.423896
O O6 0.555932 0.649009 0.677491
O O7 0.715976 0.330930 0.281327
O O8 0.927026 0.666258 0.240096
O O9 0.421409 0.053265 0.471501
O O10 0.588190 0.649871 0.114648
O O11 0.126383 0.559940 0.262230
O O12 0.067344 0.123762 0.229665
O O13 0.353599 0.915187 0.188881
O O14 0.706299 0.071262 0.877771
O O15 0.500000 0.500000 0.500000
O O16 0.273868 0.823425 0.932023
O O17 0.981796 0.984340 0.417586
#
# Coordination Sequence:
#
# PCOD8003922 Si02
#       8
#     2   2   2   2   2   2   2   2
#     4   9  18  30  55  83 128 162 198 230 297 363
#     4  11  21  39  66  91 118 156 212 254 296 354
#     4  10  20  37  62  90 115 159 209 248 298 365
#     4   9  17  34  55  91 128 160 191 239 305 370
#     4   9  17  30  56  90 116 158 192 241 300 361
#     4  11  24  43  64  84 119 163 209 254 304 356
#     4   9  16  30  56  88 124 148 196 241 296 357
#     4  10  22  35  62  93 124 159 201 248 302 358
#
# _framework density 23.523983000000001
#
# number of rings (size 3 to 8) (size 9 to 14) (size 15 to 20)
#    0.000    2.250    1.250    1.875    5.250    0.000 
#    0.000    1.250    5.500    0.000    0.000    0.000 
#    0.000    0.000    0.000    0.000    0.000    0.000 
#
# Total GULP energy -198269.943720 kJ/mol
# GULP energy per Si atom -12391.871483 kJ/mol
# Density = 2.347044 g / cm^3
# Si number density = 23.523983 Si / 1000 Ang^3
#
#
#
# Elastic Constant Matrix: (Units=GPa)
#
#
# Indices 1 2 3 4 5 6 
#
# 1 67.8411 33.3912 10.6493 -9.6848 12.9213 -10.0754
# 2 33.3912 138.5230 35.1723 -2.3083 -0.1695 -10.7424
# 3 10.6493 35.1723 96.2103 -5.8064 4.9797 -16.5008
# 4 -9.6848 -2.3083 -5.8064 37.3868 -6.3160 -3.0627
# 5 12.9213 -0.1695 4.9797 -6.3160 21.3961 -2.2238
# 6 -10.0754 -10.7424 -16.5008 -3.0627 -2.2238 30.5462
#
#
#
# Elastic Compliance Matrix: (Units=1/GPa)
#
#
# Indices 1 2 3 4 5 6 
#
# 1 0.020271 -0.004729 0.001173 0.003727 -0.010908 0.005236
# 2 -0.004729 0.009132 -0.002985 -0.000514 0.003497 0.000242
# 3 0.001173 -0.002985 0.012681 0.002196 -0.002387 0.006233
# 4 0.003727 -0.000514 0.002196 0.029596 0.006561 0.005680
# 5 -0.010908 0.003497 -0.002387 0.006561 0.055956 0.001074
# 6 0.005236 0.000242 0.006233 0.005680 0.001074 0.038564
#
#
# Mechanical properties :
#
#
# Convention : Reuss Voigt Hill
#
# Bulk Modulus (GPa) = 34.48332 51.22222 42.85277
# Shear Modulus (GPa) = 26.46192 32.75659 29.60925
#
# Velocity S-wave (km/s) = 3.35758 3.73564 3.55164
# Velocity P-wave (km/s) = 5.45176 6.35833 5.92242
#
# Compressibility (1/GPa) = 0.02899953
#
# Stress axis : x y z
#
# Youngs Moduli (GPa) = 49.33060 109.51102 78.86041
#
# Poissons Ratio (x) = 0.51792 -0.09248
# Poissons Ratio (y) = 0.23330 0.23543
# Poissons Ratio (z) = -0.05785 0.32693
#
# Static dielectric constant tensor:
#      x y z
#    x 3.794840 0.149280 0.028610 
#    y 0.149280 4.345900 0.059170 
#    z 0.028610 0.059170 4.037580 
# 
# 
# High freq. dielectric constant tensor:
#      x y z
#    x 1.898410 -0.006830 0.005870 
#    y -0.006830 1.944630 -0.003640 
#    z 0.005870 -0.003640 1.916850 
# 
# From -- ./inp_files/579011.got.cif
#   From: 2010.06.25/outbox.cif.g09.slc.cpg/sg2_290_cif.got.tgz:579011.got - 2010.06.27 13:26:56.
