data_PCOD8003909
_publ_section_title
;
Structure prediction by ZEFSAII (Michael W. Deem and Ramdas Pophale) SiO2 
 PCOD8003909
Probable space group: P -1
;
_chemical_formula_sum "Si O2"
_cell_formula_units_Z 14
_cell_length_a 9.011523
_cell_length_b 9.270399
_cell_length_c 17.669827
_cell_angle_alpha 37.556057
_cell_angle_beta 51.596785
_cell_angle_gamma 63.610114
_cell_volume 701.543126
_symmetry_space_group_name_H-M "P -1"
_symmetry_group_IT_number 2
_symmetry_cell_setting 'triclinic'
loop_
_space_group_symop_operation_xyz
x,y,z
-x,-y,-z
loop_
_atom_site_type_symbol
_atom_site_label
_atom_site_fract_x
_atom_site_fract_y
_atom_site_fract_z
Si Si1 0.692096 0.697476 0.611184
Si Si2 0.418605 0.985068 0.357724
Si Si3 0.893741 0.736382 0.940881
Si Si4 0.790254 0.830941 0.356637
Si Si5 0.890425 0.326053 0.488087
Si Si6 0.441494 0.203083 0.880339
Si Si7 0.659317 0.956101 0.801860
O O1 0.722430 0.819037 0.469749
O O2 0.581291 0.440129 0.747119
O O3 0.890809 0.688813 0.595754
O O4 0.573403 0.859345 0.634047
O O5 0.612080 0.861749 0.346377
O O6 0.241995 0.774546 0.498857
O O7 0.405354 0.146735 0.218077
O O8 0.738043 0.755507 0.914240
O O9 0.775291 0.741500 0.055599
O O10 0.050846 0.954944 0.797127
O O11 0.000000 0.500000 0.000000
O O12 0.873377 0.595681 0.401154
O O13 0.832846 0.166571 0.647493
O O14 0.477688 0.086613 0.835624
O O15 0.500000 0.000000 0.000000
#
# Coordination Sequence:
#
# PCOD8003909 Si02
#       7
#     2   2   2   2   2   2   2
#     4  12  20  38  65  92 116 161 205 248 296 355
#     4  10  23  36  59  96 125 150 194 261 306 341
#     4  11  23  40  62  91 122 157 203 253 296 354
#     4  12  21  39  64  91 119 160 205 246 295 362
#     4  10  20  37  62  88 121 149 201 247 301 343
#     4  10  21  39  63  87 117 162 203 241 296 362
#     4   9  20  42  60  84 125 156 194 246 304 349
#
# _framework density 19.956007
#
# number of rings (size 3 to 8) (size 9 to 14) (size 15 to 20)
#    0.857    0.571    2.857    4.286    0.000    0.000 
#    0.000    8.571    0.000    1.714    0.000    0.000 
#    0.000    0.000    0.000    0.000    0.000    0.000 
#
# Total GULP energy -173462.305806 kJ/mol
# GULP energy per Si atom -12390.164700 kJ/mol
# Density = 1.991059 g / cm^3
# Si number density = 19.956007 Si / 1000 Ang^3
#
#
#
# Elastic Constant Matrix: (Units=GPa)
#
#
# Indices 1 2 3 4 5 6 
#
# 1 88.2562 17.0506 21.8145 2.3318 -0.8694 -8.4420
# 2 17.0506 104.1817 26.5141 4.0379 6.7853 -10.3115
# 3 21.8145 26.5141 81.7556 14.2789 -6.4052 -5.3353
# 4 2.3318 4.0379 14.2789 22.0788 -10.5500 -0.8317
# 5 -0.8694 6.7853 -6.4052 -10.5500 17.5763 1.8285
# 6 -8.4420 -10.3115 -5.3353 -0.8317 1.8285 36.2873
#
#
#
# Elastic Compliance Matrix: (Units=1/GPa)
#
#
# Indices 1 2 3 4 5 6 
#
# 1 0.012467 -0.001139 -0.002976 0.001090 0.000403 0.002144
# 2 -0.001139 0.011581 -0.003260 -0.003723 -0.008249 0.002877
# 3 -0.002976 -0.003260 0.015714 -0.008398 0.001754 0.000411
# 4 0.001090 -0.003723 -0.008398 0.070906 0.041250 -0.002493
# 5 0.000403 -0.008249 0.001754 0.041250 0.086059 -0.005383
# 6 0.002144 0.002877 0.000411 -0.002493 -0.005383 0.029149
#
#
# Mechanical properties :
#
#
# Convention : Reuss Voigt Hill
#
# Bulk Modulus (GPa) = 39.98242 44.99467 42.48855
# Shear Modulus (GPa) = 20.08335 29.10944 24.59639
#
# Velocity S-wave (km/s) = 3.17579 3.82341 3.51455
# Velocity P-wave (km/s) = 5.79019 6.48746 6.14872
#
# Compressibility (1/GPa) = 0.02501099
#
# Stress axis : x y z
#
# Youngs Moduli (GPa) = 80.21495 86.34781 63.63772
#
# Poissons Ratio (x) = 0.09837 0.18937
# Poissons Ratio (y) = 0.09139 0.20747
# Poissons Ratio (z) = 0.23870 0.28152
#
# Static dielectric constant tensor:
#      x y z
#    x 3.496130 -0.173090 -0.035860 
#    y -0.173090 3.854120 0.298850 
#    z -0.035860 0.298850 3.872740 
# 
# 
# High freq. dielectric constant tensor:
#      x y z
#    x 1.764910 -0.012370 -0.006780 
#    y -0.012370 1.785520 0.005730 
#    z -0.006780 0.005730 1.774350 
# 
# From -- ./inp_files/218583.got.cif
#   From: 2010.06.25/outbox.cif.g09.slc.cpg/sg2_110_cif.got.tgz:218583.got - 2010.06.27 13:26:56.
