data_PCOD8003275
_publ_section_title
;
Structure prediction by ZEFSAII (Michael W. Deem and Ramdas Pophale) SiO2 
 PCOD8003275
Probable space group: P -1
;
_chemical_formula_sum "Si O2"
_cell_formula_units_Z 16
_cell_length_a 9.956283
_cell_length_b 17.498575
_cell_length_c 8.937147
_cell_angle_alpha 113.525883
_cell_angle_beta 112.801072
_cell_angle_gamma 34.034523
_cell_volume 794.125255
_symmetry_space_group_name_H-M "P -1"
_symmetry_group_IT_number 2
_symmetry_cell_setting 'triclinic'
loop_
_space_group_symop_operation_xyz
x,y,z
-x,-y,-z
loop_
_atom_site_type_symbol
_atom_site_label
_atom_site_fract_x
_atom_site_fract_y
_atom_site_fract_z
Si Si1 0.420682 0.443332 0.952622
Si Si2 0.766219 0.858086 0.672190
Si Si3 0.933981 0.001179 0.207356
Si Si4 0.562964 0.799834 0.718240
Si Si5 0.146636 0.808607 0.872600
Si Si6 0.640454 0.824749 0.299130
Si Si7 0.919602 0.623909 0.996198
Si Si8 0.547124 0.240937 0.652385
O O1 0.460634 0.372746 0.762031
O O2 0.500000 0.500000 0.000000
O O3 0.578431 0.330823 0.066319
O O4 0.142051 0.570620 0.976616
O O5 0.673983 0.835900 0.738878
O O6 0.782227 0.808068 0.477890
O O7 0.032743 0.770356 0.755401
O O8 0.591663 0.017063 0.724945
O O9 0.712650 0.058473 0.241668
O O10 0.857637 0.129558 0.225742
O O11 0.162168 0.899422 0.338500
O O12 0.991313 0.919856 0.024672
O O13 0.567448 0.728923 0.533375
O O14 0.718138 0.695287 0.841232
O O15 0.816198 0.732554 0.162793
O O16 0.549251 0.776353 0.273881
O O17 0.000000 0.500000 0.000000
#
# Coordination Sequence:
#
# PCOD8003275 Si02
#       8
#     2   2   2   2   2   2   2   2
#     4  11  24  41  60  87 124 164 208 250 296 351
#     4  10  21  40  64  96 122 151 203 261 314 352
#     4  10  20  36  65  91 121 157 197 248 316 367
#     4  11  24  37  64  96 120 157 205 257 306 357
#     4  10  20  38  63  87 121 164 198 244 308 367
#     4  10  21  40  66  90 124 161 198 255 310 363
#     4  12  24  43  64  87 123 171 213 240 292 376
#     4  10  21  42  62  88 126 160 196 256 311 364
#
# _framework density 20.147955
#
# number of rings (size 3 to 8) (size 9 to 14) (size 15 to 20)
#    0.000    1.500    2.500    2.625    1.750    4.500 
#    4.500    0.625    0.000    0.000    0.000    0.000 
#    0.000    0.000    0.000    0.000    0.000    0.000 
#
# Total GULP energy -198484.375214 kJ/mol
# GULP energy per Si atom -12405.273451 kJ/mol
# Density = 2.010210 g / cm^3
# Si number density = 20.147955 Si / 1000 Ang^3
#
#
#
# Elastic Constant Matrix: (Units=GPa)
#
#
# Indices 1 2 3 4 5 6 
#
# 1 91.6554 31.8240 42.4439 3.2357 10.3131 -11.6705
# 2 31.8240 79.6101 56.0336 7.1071 -1.0095 -7.2095
# 3 42.4439 56.0336 103.3978 1.2761 5.7979 -3.9112
# 4 3.2357 7.1071 1.2761 27.8902 0.0980 4.3464
# 5 10.3131 -1.0095 5.7979 0.0980 32.7126 1.4999
# 6 -11.6705 -7.2095 -3.9112 4.3464 1.4999 40.2447
#
#
#
# Elastic Compliance Matrix: (Units=1/GPa)
#
#
# Indices 1 2 3 4 5 6 
#
# 1 0.014759 -0.002415 -0.004359 -0.001465 -0.004122 0.003735
# 2 -0.002415 0.021968 -0.010934 -0.005237 0.003273 0.002616
# 3 -0.004359 -0.010934 0.017396 0.002777 -0.001974 -0.001759
# 4 -0.001465 -0.005237 0.002777 0.038043 -0.000067 -0.005199
# 5 -0.004122 0.003273 -0.001974 -0.000067 0.032411 -0.002001
# 6 0.003735 0.002616 -0.001759 -0.005199 -0.002001 0.026865
#
#
# Mechanical properties :
#
#
# Convention : Reuss Voigt Hill
#
# Bulk Modulus (GPa) = 53.45473 59.47403 56.46438
# Shear Modulus (GPa) = 25.89425 29.79363 27.84394
#
# Velocity S-wave (km/s) = 3.58886 3.84961 3.72152
# Velocity P-wave (km/s) = 6.61528 7.02439 6.82290
#
# Compressibility (1/GPa) = 0.01870742
#
# Stress axis : x y z
#
# Youngs Moduli (GPa) = 67.75695 45.52049 57.48468
#
# Poissons Ratio (x) = 0.10992 0.25059
# Poissons Ratio (y) = 0.16361 0.62852
# Poissons Ratio (z) = 0.29537 0.49771
#
# Static dielectric constant tensor:
#      x y z
#    x 3.715590 -0.115940 0.100190 
#    y -0.115940 3.726980 -0.114670 
#    z 0.100190 -0.114670 3.703800 
# 
# 
# High freq. dielectric constant tensor:
#      x y z
#    x 1.791210 -0.003340 0.010940 
#    y -0.003340 1.779250 -0.006800 
#    z 0.010940 -0.006800 1.790620 
# 
# From -- ./inp_files/208468.got.cif
#   From: 2010.06.25/outbox.cif.g09.slc.cpg/sg2_105_cif.got.tgz:208468.got - 2010.06.27 13:26:56.
