data_PCOD8003744
_publ_section_title
;
Structure prediction by ZEFSAII (Michael W. Deem and Ramdas Pophale) SiO2 
 PCOD8003744
Probable space group: P -1
;
_chemical_formula_sum "Si O2"
_cell_formula_units_Z 16
_cell_length_a 8.149359
_cell_length_b 13.496125
_cell_length_c 13.482567
_cell_angle_alpha 61.856844
_cell_angle_beta 106.621554
_cell_angle_gamma 145.635144
_cell_volume 721.994716
_symmetry_space_group_name_H-M "P -1"
_symmetry_group_IT_number 2
_symmetry_cell_setting 'triclinic'
loop_
_space_group_symop_operation_xyz
x,y,z
-x,-y,-z
loop_
_atom_site_type_symbol
_atom_site_label
_atom_site_fract_x
_atom_site_fract_y
_atom_site_fract_z
Si Si1 0.702209 0.996369 0.692883
Si Si2 0.623754 0.698143 0.849818
Si Si3 0.632529 0.926948 0.500937
Si Si4 0.213146 0.435938 0.574365
Si Si5 0.232389 0.259664 0.358772
Si Si6 0.983372 0.730095 0.025907
Si Si7 0.466693 0.979936 0.150830
Si Si8 0.740638 0.320946 0.631285
O O1 0.738634 0.885943 0.775685
O O2 0.525774 0.957349 0.770843
O O3 0.533310 0.927159 0.590595
O O4 0.026345 0.224015 0.622180
O O5 0.715488 0.677527 0.776674
O O6 0.262988 0.500183 0.893253
O O7 0.795904 0.737683 0.954867
O O8 0.916960 0.138315 0.398179
O O9 0.740825 0.859789 0.574629
O O10 0.365253 0.788607 0.442140
O O11 0.522440 0.554850 0.613498
O O12 0.268011 0.547883 0.434290
O O13 0.070124 0.441978 0.632333
O O14 0.169999 0.858587 0.097058
O O15 0.231432 0.824876 0.944188
O O16 0.448522 0.833734 0.237262
#
# Coordination Sequence:
#
# PCOD8003744 Si02
#       8
#     2   2   2   2   2   2   2   2
#     4  10  21  35  57  87 116 139 176 236 281 317
#     4  10  20  37  61  82 107 145 189 233 274 317
#     4   9  18  31  52  80 109 141 175 212 270 338
#     4   9  18  31  52  80 111 142 173 210 271 339
#     4   9  17  33  53  76 108 144 176 212 268 340
#     4  10  22  39  59  79 104 152 199 225 269 330
#     4  10  21  38  58  81 111 146 189 233 271 317
#     4   9  17  33  54  76 110 148 175 209 268 342
#
# _framework density 22.160826
#
# number of rings (size 3 to 8) (size 9 to 14) (size 15 to 20)
#    0.000    2.500    0.000    2.250    0.000    5.500 
#    0.000    0.000    0.000    7.500    0.000    0.000 
#    0.000    0.000    0.000    0.000    0.000    0.000 
#
# Total GULP energy -198230.562358 kJ/mol
# GULP energy per Si atom -12389.410147 kJ/mol
# Density = 2.211039 g / cm^3
# Si number density = 22.160826 Si / 1000 Ang^3
#
#
#
# Elastic Constant Matrix: (Units=GPa)
#
#
# Indices 1 2 3 4 5 6 
#
# 1 44.3752 33.7499 34.7247 -2.2250 -9.1561 4.7611
# 2 33.7499 99.6817 42.6579 -15.3541 4.1054 9.6448
# 3 34.7247 42.6579 123.8322 -4.5726 -4.0613 -3.4364
# 4 -2.2250 -15.3541 -4.5726 29.7009 0.5756 1.0559
# 5 -9.1561 4.1054 -4.0613 0.5756 35.9491 -5.9475
# 6 4.7611 9.6448 -3.4364 1.0559 -5.9475 22.7266
#
#
#
# Elastic Compliance Matrix: (Units=1/GPa)
#
#
# Indices 1 2 3 4 5 6 
#
# 1 0.038179 -0.010868 -0.006825 -0.003945 0.009989 -0.001621
# 2 -0.010868 0.017235 -0.003014 0.008025 -0.006455 -0.007555
# 3 -0.006825 -0.003014 0.011156 -0.000527 0.000633 0.004586
# 4 -0.003945 0.008025 -0.000527 0.037697 -0.003464 -0.005317
# 5 0.009989 -0.006455 0.000633 -0.003464 0.032795 0.009486
# 6 -0.001621 -0.007555 0.004586 -0.005317 0.009486 0.050970
#
#
# Mechanical properties :
#
#
# Convention : Reuss Voigt Hill
#
# Bulk Modulus (GPa) = 39.75429 54.46158 47.10794
# Shear Modulus (GPa) = 21.02325 28.12575 24.57450
#
# Velocity S-wave (km/s) = 3.08339 3.56640 3.33365
# Velocity P-wave (km/s) = 5.53663 6.44887 6.01008
#
# Compressibility (1/GPa) = 0.02515452
#
# Stress axis : x y z
#
# Youngs Moduli (GPa) = 26.19253 58.02309 89.63478
#
# Poissons Ratio (x) = 0.63059 0.61178
# Poissons Ratio (y) = 0.28466 0.27020
# Poissons Ratio (z) = 0.17877 0.17491
#
# Static dielectric constant tensor:
#      x y z
#    x 3.486670 0.093230 0.029730 
#    y 0.093230 4.122790 -0.113480 
#    z 0.029730 -0.113480 4.452410 
# 
# 
# High freq. dielectric constant tensor:
#      x y z
#    x 1.827410 0.018790 0.004580 
#    y 0.018790 1.875580 -0.006450 
#    z 0.004580 -0.006450 1.887250 
# 
# From -- ./inp_files/505414.got.cif
#   From: 2010.06.25/outbox.cif.g09.slc.cpg/sg2_253_cif.got.tgz:505414.got - 2010.06.27 13:26:56.
