data_PCOD8003550
_publ_section_title
;
Structure prediction by ZEFSAII (Michael W. Deem and Ramdas Pophale) SiO2 
 PCOD8003550
Probable space group: P -1
;
_chemical_formula_sum "Si O2"
_cell_formula_units_Z 14
_cell_length_a 13.598749
_cell_length_b 8.884618
_cell_length_c 6.849686
_cell_angle_alpha 130.087328
_cell_angle_beta 89.236422
_cell_angle_gamma 89.684587
_cell_volume 632.985625
_symmetry_space_group_name_H-M "P -1"
_symmetry_group_IT_number 2
_symmetry_cell_setting 'triclinic'
loop_
_space_group_symop_operation_xyz
x,y,z
-x,-y,-z
loop_
_atom_site_type_symbol
_atom_site_label
_atom_site_fract_x
_atom_site_fract_y
_atom_site_fract_z
Si Si1 0.576853 0.909810 0.632615
Si Si2 0.275840 0.482190 0.301734
Si Si3 0.609317 0.474392 0.267965
Si Si4 0.567544 0.809418 0.981799
Si Si5 0.048821 0.803916 0.252112
Si Si6 0.726284 0.209414 0.751992
Si Si7 0.948232 0.548133 0.742934
O O1 0.566567 0.686899 0.371518
O O2 0.598085 0.924010 0.878741
O O3 0.666346 0.009582 0.600153
O O4 0.525892 0.959487 0.278387
O O5 0.323363 0.492195 0.519984
O O6 0.339935 0.316675 0.041508
O O7 0.277638 0.699913 0.389926
O O8 0.166009 0.403406 0.251423
O O9 0.517365 0.340654 0.206392
O O10 0.680649 0.381179 0.028993
O O11 0.162535 0.839591 0.228406
O O12 0.035979 0.637825 0.274732
O O13 0.000000 0.000000 0.500000
O O14 0.995279 0.740141 0.000605
O O15 0.000000 0.500000 0.500000
#
# Coordination Sequence:
#
# PCOD8003550 Si02
#       7
#     2   2   2   2   2   2   2
#     4   9  18  34  57  81 111 151 188 227 284 344
#     4  10  20  37  59  84 116 149 193 243 287 346
#     4  10  20  39  60  80 118 158 187 236 293 342
#     4   9  19  37  56  83 118 152 191 236 286 344
#     4  10  23  42  61  87 123 154 195 253 302 352
#     4  10  22  37  57  85 113 148 194 240 291 348
#     4  10  22  41  64  88 117 158 201 245 300 356
#
# _framework density 22.117405000000002
#
# number of rings (size 3 to 8) (size 9 to 14) (size 15 to 20)
#    0.000    2.286    0.000    2.571    0.000    8.571 
#    0.000   29.286    0.000    0.000    0.000    0.000 
#    0.000    0.000    0.000    0.000    0.000    0.000 
#
# Total GULP energy -173608.510556 kJ/mol
# GULP energy per Si atom -12400.607897 kJ/mol
# Density = 2.206707 g / cm^3
# Si number density = 22.117405 Si / 1000 Ang^3
#
#
#
# Elastic Constant Matrix: (Units=GPa)
#
#
# Indices 1 2 3 4 5 6 
#
# 1 160.7270 53.0266 45.8814 7.5401 -4.3489 -7.3848
# 2 53.0266 77.2127 22.8732 23.0767 1.0139 5.9371
# 3 45.8814 22.8732 106.5038 22.2513 -7.8799 -5.3355
# 4 7.5401 23.0767 22.2513 32.7303 -3.3328 -8.4818
# 5 -4.3489 1.0139 -7.8799 -3.3328 28.7607 0.0595
# 6 -7.3848 5.9371 -5.3355 -8.4818 0.0595 34.5851
#
#
#
# Elastic Compliance Matrix: (Units=1/GPa)
#
#
# Indices 1 2 3 4 5 6 
#
# 1 0.009965 -0.008405 -0.003705 0.007575 0.001656 0.004854
# 2 -0.008405 0.025133 0.001576 -0.020059 -0.004027 -0.010778
# 3 -0.003705 0.001576 0.012589 -0.008976 0.001796 -0.001324
# 4 0.007575 -0.020059 -0.008976 0.054007 0.005617 0.016911
# 5 0.001656 -0.004027 0.001796 0.005617 0.036300 0.002637
# 6 0.004854 -0.010778 -0.001324 0.016911 0.002637 0.035740
#
#
# Mechanical properties :
#
#
# Convention : Reuss Voigt Hill
#
# Bulk Modulus (GPa) = 37.56677 65.33399 51.45038
# Shear Modulus (GPa) = 24.54913 34.05935 29.30424
#
# Velocity S-wave (km/s) = 3.33520 3.92846 3.64392
# Velocity P-wave (km/s) = 5.64389 7.08384 6.40446
#
# Compressibility (1/GPa) = 0.02661927
#
# Stress axis : x y z
#
# Youngs Moduli (GPa) = 100.35466 39.78794 79.43599
#
# Poissons Ratio (x) = 0.33442 0.29428
# Poissons Ratio (y) = 0.84348 -0.12519
# Poissons Ratio (z) = 0.37178 -0.06270
#
# Static dielectric constant tensor:
#      x y z
#    x 76.087870 -2.061960 2.998610 
#    y -2.061960 4.143480 0.052840 
#    z 2.998610 0.052840 4.089310 
# 
# 
# High freq. dielectric constant tensor:
#      x y z
#    x 1.871880 -0.003170 -0.014140 
#    y -0.003170 1.877880 0.001750 
#    z -0.014140 0.001750 1.869700 
# 
# From -- ./inp_files/91243.got.cif
#   From: 2010.06.25/outbox.cif.g09.slc.cpg/sg2_46_cif.got.tgz:91243.got - 2010.06.27 13:26:56.
