data_PCOD8003814
_publ_section_title
;
Structure prediction by ZEFSAII (Michael W. Deem and Ramdas Pophale) SiO2 
 PCOD8003814
Probable space group: P -1
;
_chemical_formula_sum "Si O2"
_cell_formula_units_Z 16
_cell_length_a 14.868820
_cell_length_b 11.423496
_cell_length_c 11.314357
_cell_angle_alpha 134.763843
_cell_angle_beta 144.905148
_cell_angle_gamma 63.942791
_cell_volume 739.063294
_symmetry_space_group_name_H-M "P -1"
_symmetry_group_IT_number 2
_symmetry_cell_setting 'triclinic'
loop_
_space_group_symop_operation_xyz
x,y,z
-x,-y,-z
loop_
_atom_site_type_symbol
_atom_site_label
_atom_site_fract_x
_atom_site_fract_y
_atom_site_fract_z
Si Si1 0.178207 0.884690 0.301932
Si Si2 0.316266 0.103292 0.948271
Si Si3 0.682385 0.748966 0.181342
Si Si4 0.191540 0.122323 0.081646
Si Si5 0.683288 0.126753 0.806704
Si Si6 0.682212 0.486205 0.166487
Si Si7 0.687017 0.505130 0.438943
Si Si8 0.303897 0.757568 0.563962
O O1 0.224752 0.821903 0.182552
O O2 0.193609 0.750468 0.324107
O O3 0.304249 0.079015 0.605084
O O4 0.991817 0.881310 0.091083
O O5 0.239843 0.189885 0.821414
O O6 0.300615 0.907520 0.757876
O O7 0.208270 0.098883 0.943966
O O8 0.508710 0.214143 0.258149
O O9 0.772081 0.632064 0.266688
O O10 0.491311 0.639181 0.876704
O O11 0.321905 0.308259 0.396461
O O12 0.219689 0.964409 0.069658
O O13 0.500000 0.000000 0.500000
O O14 0.676030 0.298888 0.984088
O O15 0.780012 0.530108 0.428602
O O16 0.500000 0.500000 0.000000
O O17 0.773328 0.426231 0.578469
#
# Coordination Sequence:
#
# PCOD8003814 Si02
#       8
#     2   2   2   2   2   2   2   2
#     4  11  24  41  61  92 128 160 200 254 310 365
#     4   9  19  37  61  88 118 163 210 251 298 361
#     4   9  19  38  62  86 120 160 206 249 293 362
#     4  12  25  39  60  93 130 160 199 255 313 361
#     4  12  23  40  67  90 120 164 208 249 302 370
#     4  10  20  37  63  92 115 147 203 260 300 345
#     4  10  20  37  61  89 122 159 205 252 295 359
#     4   9  19  37  62  88 119 163 214 251 294 361
#
# _framework density 21.649028000000001
#
# number of rings (size 3 to 8) (size 9 to 14) (size 15 to 20)
#    0.000    1.750    0.000    6.375    0.000    6.500 
#    0.000    3.750    0.000    0.000    0.000    0.000 
#    0.000    0.000    0.000    0.000    0.000    0.000 
#
# Total GULP energy -198343.961248 kJ/mol
# GULP energy per Si atom -12396.497578 kJ/mol
# Density = 2.159975 g / cm^3
# Si number density = 21.649028 Si / 1000 Ang^3
#
#
#
# Elastic Constant Matrix: (Units=GPa)
#
#
# Indices 1 2 3 4 5 6 
#
# 1 130.6102 65.7163 31.3893 -10.2549 -33.5184 5.9712
# 2 65.7163 176.3739 29.5056 3.7013 -21.8267 32.2453
# 3 31.3893 29.5056 48.6719 9.2875 -14.3567 0.8524
# 4 -10.2549 3.7013 9.2875 31.1785 -7.3870 -5.6564
# 5 -33.5184 -21.8267 -14.3567 -7.3870 30.3004 -9.5893
# 6 5.9712 32.2453 0.8524 -5.6564 -9.5893 41.1201
#
#
#
# Elastic Compliance Matrix: (Units=1/GPa)
#
#
# Indices 1 2 3 4 5 6 
#
# 1 0.016617 -0.004724 -0.005162 0.013202 0.018105 0.007437
# 2 -0.004724 0.008891 -0.002427 -0.004056 -0.003358 -0.007576
# 3 -0.005162 -0.002427 0.028240 -0.008402 0.004494 0.001960
# 4 0.013202 -0.004056 -0.008402 0.047410 0.023514 0.013443
# 5 0.018105 -0.003358 0.004494 0.023514 0.064208 0.018119
# 6 0.007437 -0.007576 0.001960 0.013443 0.018119 0.035214
#
#
# Mechanical properties :
#
#
# Convention : Reuss Voigt Hill
#
# Bulk Modulus (GPa) = 34.33756 67.65313 50.99534
# Shear Modulus (GPa) = 21.28457 35.78948 28.53703
#
# Velocity S-wave (km/s) = 3.13895 4.07033 3.63460
# Velocity P-wave (km/s) = 5.38821 7.30807 6.42031
#
# Compressibility (1/GPa) = 0.02912263
#
# Stress axis : x y z
#
# Youngs Moduli (GPa) = 60.18111 112.47836 35.41025
#
# Poissons Ratio (x) = 0.53133 0.18278
# Poissons Ratio (y) = 0.28429 0.08593
# Poissons Ratio (z) = 0.31064 0.27297
#
# Static dielectric constant tensor:
#      x y z
#    x 4.189560 0.759950 -0.181760 
#    y 0.759950 4.687460 0.119900 
#    z -0.181760 0.119900 4.066410 
# 
# 
# High freq. dielectric constant tensor:
#      x y z
#    x 1.843030 0.030130 -0.023220 
#    y 0.030130 1.863590 0.004780 
#    z -0.023220 0.004780 1.832810 
# 
# From -- ./inp_files/452658.got.cif
#   From: 2010.06.25/outbox.cif.g09.slc.cpg/sg2_227_cif.got.tgz:452658.got - 2010.06.27 13:26:56.
