data_PCOD8003402
_publ_section_title
;
Structure prediction by ZEFSAII (Michael W. Deem and Ramdas Pophale) SiO2 
 PCOD8003402
Probable space group: P -1
;
_chemical_formula_sum "Si O2"
_cell_formula_units_Z 14
_cell_length_a 8.913430
_cell_length_b 7.110168
_cell_length_c 15.258506
_cell_angle_alpha 123.286271
_cell_angle_beta 66.441970
_cell_angle_gamma 121.841534
_cell_volume 678.411561
_symmetry_space_group_name_H-M "P -1"
_symmetry_group_IT_number 2
_symmetry_cell_setting 'triclinic'
loop_
_space_group_symop_operation_xyz
x,y,z
-x,-y,-z
loop_
_atom_site_type_symbol
_atom_site_label
_atom_site_fract_x
_atom_site_fract_y
_atom_site_fract_z
Si Si1 0.157020 0.673217 0.894657
Si Si2 0.258597 0.551724 0.515551
Si Si3 0.605082 0.825214 0.595045
Si Si4 0.537641 0.731320 0.782037
Si Si5 0.279632 0.616076 0.330754
Si Si6 0.089854 0.864861 0.137828
Si Si7 0.938706 0.246416 0.249177
O O1 0.360970 0.703301 0.869760
O O2 0.150226 0.799749 0.836888
O O3 0.009406 0.393305 0.855394
O O4 0.111476 0.823116 0.019644
O O5 0.473011 0.701580 0.513179
O O6 0.230116 0.266412 0.467777
O O7 0.195834 0.580181 0.439454
O O8 0.168853 0.665987 0.634124
O O9 0.501369 0.746262 0.691417
O O10 0.668544 0.111785 0.643136
O O11 0.561371 0.478467 0.731956
O O12 0.714007 0.974421 0.827586
O O13 0.136572 0.457322 0.252232
O O14 0.954743 0.999148 0.214931
#
# Coordination Sequence:
#
# PCOD8003402 Si02
#       7
#     2   2   2   2   2   2   2
#     4  11  22  40  63  84 115 156 189 238 297 334
#     4  10  21  35  56  84 117 150 190 235 281 341
#     4  10  20  37  56  85 117 147 193 233 278 348
#     4  10  21  39  61  87 117 151 191 236 287 343
#     4  10  22  36  58  86 117 151 189 235 283 342
#     4  10  24  40  59  89 116 146 198 242 282 347
#     4  11  22  39  58  85 116 150 193 238 286 339
#
# _framework density 20.636441999999999
#
# number of rings (size 3 to 8) (size 9 to 14) (size 15 to 20)
#    0.000    1.714    1.429    2.571    2.000    1.714 
#    0.000    0.000    0.000    9.429    0.000    0.000 
#    0.000    0.000    0.000    0.000    0.000    0.000 
#
# Total GULP energy -173538.020120 kJ/mol
# GULP energy per Si atom -12395.572866 kJ/mol
# Density = 2.058947 g / cm^3
# Si number density = 20.636442 Si / 1000 Ang^3
#
#
#
# Elastic Constant Matrix: (Units=GPa)
#
#
# Indices 1 2 3 4 5 6 
#
# 1 67.7600 12.8446 32.0019 1.2968 -10.2431 -2.4117
# 2 12.8446 58.5922 27.7239 24.9847 -17.2454 -5.0746
# 3 32.0019 27.7239 74.2870 6.4926 -5.3253 -8.1300
# 4 1.2968 24.9847 6.4926 31.6939 0.9231 0.1400
# 5 -10.2431 -17.2454 -5.3253 0.9231 31.3093 2.5227
# 6 -2.4117 -5.0746 -8.1300 0.1400 2.5227 25.6684
#
#
#
# Elastic Compliance Matrix: (Units=1/GPa)
#
#
# Indices 1 2 3 4 5 6 
#
# 1 0.019380 0.001717 -0.008644 -0.000543 0.005925 -0.001157
# 2 0.001717 0.043236 -0.012089 -0.032361 0.023049 0.002791
# 3 -0.008644 -0.012089 0.021189 0.005711 -0.006382 0.004105
# 4 -0.000543 -0.032361 0.005711 0.056466 -0.018443 -0.003135
# 5 0.005925 0.023049 -0.006382 -0.018443 0.046140 -0.001342
# 6 -0.001157 0.002791 0.004105 -0.003135 -0.001342 0.040851
#
#
# Mechanical properties :
#
#
# Convention : Reuss Voigt Hill
#
# Bulk Modulus (GPa) = 21.84705 38.42001 30.13353
# Shear Modulus (GPa) = 17.82208 26.27225 22.04716
#
# Velocity S-wave (km/s) = 2.94193 3.57192 3.27212
# Velocity P-wave (km/s) = 4.70633 5.97239 5.37676
#
# Compressibility (1/GPa) = 0.04577277
#
# Stress axis : x y z
#
# Youngs Moduli (GPa) = 51.60067 23.12885 47.19393
#
# Poissons Ratio (x) = -0.03970 0.40792
# Poissons Ratio (y) = -0.08858 0.57053
# Poissons Ratio (z) = 0.44601 0.27961
#
# Static dielectric constant tensor:
#      x y z
#    x 3.943090 -0.213720 0.083520 
#    y -0.213720 3.571440 0.224670 
#    z 0.083520 0.224670 3.857790 
# 
# 
# High freq. dielectric constant tensor:
#      x y z
#    x 1.814020 -0.014420 0.006010 
#    y -0.014420 1.790780 0.017190 
#    z 0.006010 0.017190 1.816280 
# 
# From -- ./inp_files/31416.got.cif
#   From: 2010.06.25/outbox.cif.g09.slc.cpg/sg2_16_cif.got.tgz:31416.got - 2010.06.27 13:26:56.
