data_PCOD8003321
_publ_section_title
;
Structure prediction by ZEFSAII (Michael W. Deem and Ramdas Pophale) SiO2 
 PCOD8003321
Probable space group: P -1
;
_chemical_formula_sum "Si O2"
_cell_formula_units_Z 16
_cell_length_a 12.980622
_cell_length_b 13.997198
_cell_length_c 7.761351
_cell_angle_alpha 66.591518
_cell_angle_beta 34.458642
_cell_angle_gamma 61.651046
_cell_volume 702.157593
_symmetry_space_group_name_H-M "P -1"
_symmetry_group_IT_number 2
_symmetry_cell_setting 'triclinic'
loop_
_space_group_symop_operation_xyz
x,y,z
-x,-y,-z
loop_
_atom_site_type_symbol
_atom_site_label
_atom_site_fract_x
_atom_site_fract_y
_atom_site_fract_z
Si Si1 0.898531 0.793882 0.379723
Si Si2 0.800483 0.575743 0.652557
Si Si3 0.385361 0.389126 0.766464
Si Si4 0.267468 0.800510 0.661525
Si Si5 0.022987 0.071253 0.261485
Si Si6 0.921955 0.738728 0.770725
Si Si7 0.814694 0.473035 0.344625
Si Si8 0.324281 0.992001 0.636468
O O1 0.810528 0.697061 0.517819
O O2 0.952847 0.787097 0.509314
O O3 0.739161 0.907844 0.482090
O O4 0.090134 0.779952 0.020226
O O5 0.740999 0.533407 0.584048
O O6 0.000000 0.500000 0.500000
O O7 0.645627 0.573914 0.016860
O O8 0.596447 0.315421 0.495823
O O9 0.345761 0.490804 0.611722
O O10 0.242204 0.319514 0.965682
O O11 0.189619 0.868831 0.548901
O O12 0.377894 0.873716 0.559393
O O13 0.132493 0.160748 0.094527
O O14 0.000000 0.000000 0.500000
O O15 0.142479 0.995409 0.003177
O O16 0.123644 0.655889 0.612559
O O17 0.000000 0.500000 0.000000
O O18 0.500000 0.000000 0.500000
#
# Coordination Sequence:
#
# PCOD8003321 Si02
#       8
#     2   2   2   2   2   2   2   2
#     4  10  22  40  65  89 126 166 199 265 310 372
#     4  11  20  40  66  94 121 167 216 252 311 366
#     4  10  23  39  64  93 127 162 210 264 298 379
#     4  11  24  42  58  93 130 159 204 258 324 365
#     4  11  23  40  64  88 125 164 199 256 317 374
#     4  10  20  40  65  91 115 166 214 246 309 370
#     4  10  20  36  67  91 123 159 215 257 299 367
#     4  11  24  40  64  91 119 165 210 253 307 376
#
# _framework density 22.786905999999998
#
# number of rings (size 3 to 8) (size 9 to 14) (size 15 to 20)
#    0.000    1.500    3.750    3.750    8.750    2.000 
#    2.250    7.500    0.000    0.000    0.000    0.000 
#    0.000    0.000    0.000    0.000    0.000    0.000 
#
# Total GULP energy -198389.211008 kJ/mol
# GULP energy per Si atom -12399.325688 kJ/mol
# Density = 2.273504 g / cm^3
# Si number density = 22.786906 Si / 1000 Ang^3
#
#
#
# Elastic Constant Matrix: (Units=GPa)
#
#
# Indices 1 2 3 4 5 6 
#
# 1 102.3790 27.4118 31.3751 4.4337 27.4735 -29.0655
# 2 27.4118 99.8745 37.1276 6.4336 18.1836 -19.1722
# 3 31.3751 37.1276 67.2671 8.6541 17.1121 -18.5822
# 4 4.4337 6.4336 8.6541 38.7511 -4.0911 0.8263
# 5 27.4735 18.1836 17.1121 -4.0911 30.7738 1.9960
# 6 -29.0655 -19.1722 -18.5822 0.8263 1.9960 55.1619
#
#
#
# Elastic Compliance Matrix: (Units=1/GPa)
#
#
# Indices 1 2 3 4 5 6 
#
# 1 0.017151 0.000756 -0.001170 -0.003743 -0.016224 0.009548
# 2 0.000756 0.013683 -0.004949 -0.002021 -0.006519 0.003753
# 3 -0.001170 -0.004949 0.022957 -0.005339 -0.009885 0.005834
# 4 -0.003743 -0.002021 -0.005339 0.029113 0.011721 -0.005333
# 5 -0.016224 -0.006519 -0.009885 0.011721 0.058953 -0.016453
# 6 0.009548 0.003753 0.005834 -0.005333 -0.016453 0.027105
#
#
# Mechanical properties :
#
#
# Convention : Reuss Voigt Hill
#
# Bulk Modulus (GPa) = 23.22211 51.26106 37.24158
# Shear Modulus (GPa) = 25.76760 36.51109 31.13935
#
# Velocity S-wave (km/s) = 3.36640 4.00720 3.70069
# Velocity P-wave (km/s) = 5.03222 6.62984 5.88550
#
# Compressibility (1/GPa) = 0.04306241
#
# Stress axis : x y z
#
# Youngs Moduli (GPa) = 58.30722 73.08588 43.56025
#
# Poissons Ratio (x) = -0.05523 0.05097
# Poissons Ratio (y) = -0.04406 0.21559
# Poissons Ratio (z) = 0.06822 0.36173
#
# Static dielectric constant tensor:
#      x y z
#    x 4.471910 -0.219960 0.288650 
#    y -0.219960 4.541150 0.027680 
#    z 0.288650 0.027680 3.861270 
# 
# 
# High freq. dielectric constant tensor:
#      x y z
#    x 1.908450 -0.001630 0.015170 
#    y -0.001630 1.916060 -0.005340 
#    z 0.015170 -0.005340 1.879710 
# 
# From -- ./inp_files/312596.got.cif
#   From: 2010.06.25/outbox.cif.g09.slc.cpg/sg2_157_cif.got.tgz:312596.got - 2010.06.27 13:26:56.
