data_PCOD8003065
_publ_section_title
;
Structure prediction by ZEFSAII (Michael W. Deem and Ramdas Pophale) SiO2 
 PCOD8003065
Probable space group: P -1
;
_chemical_formula_sum "Si O2"
_cell_formula_units_Z 16
_cell_length_a 9.188058
_cell_length_b 18.099182
_cell_length_c 9.613767
_cell_angle_alpha 51.231554
_cell_angle_beta 55.585141
_cell_angle_gamma 39.962493
_cell_volume 788.929847
_symmetry_space_group_name_H-M "P -1"
_symmetry_group_IT_number 2
_symmetry_cell_setting 'triclinic'
loop_
_space_group_symop_operation_xyz
x,y,z
-x,-y,-z
loop_
_atom_site_type_symbol
_atom_site_label
_atom_site_fract_x
_atom_site_fract_y
_atom_site_fract_z
Si Si1 0.360432 0.951479 0.146844
Si Si2 0.540029 0.280637 0.721954
Si Si3 0.046088 0.802150 0.594202
Si Si4 0.777684 0.317712 0.773829
Si Si5 0.348218 0.913539 0.513342
Si Si6 0.871760 0.194579 0.151228
Si Si7 0.116925 0.516481 0.540919
Si Si8 0.836025 0.764729 0.522322
O O1 0.438980 0.841016 0.128374
O O2 0.403971 0.893988 0.343606
O O3 0.096292 0.064411 0.126000
O O4 0.500000 0.000000 0.000000
O O5 0.590406 0.316654 0.797968
O O6 0.277595 0.392260 0.689976
O O7 0.710824 0.259592 0.534955
O O8 0.917017 0.759372 0.641380
O O9 0.073476 0.764998 0.785472
O O10 0.885044 0.949904 0.490459
O O11 0.724192 0.449016 0.636857
O O12 0.026059 0.214565 0.686308
O O13 0.777344 0.294791 0.964109
O O14 0.319820 0.816067 0.693617
O O15 0.566606 0.879643 0.517944
O O16 0.000000 0.500000 0.500000
O O17 0.905551 0.631293 0.611979
#
# Coordination Sequence:
#
# PCOD8003065 Si02
#       8
#     2   2   2   2   2   2   2   2
#     4  11  22  36  64  92 123 164 205 254 299 364
#     4  11  20  42  64  89 121 163 208 251 296 365
#     4  10  20  36  62  87 120 165 194 248 311 362
#     4   9  23  39  61  93 119 159 210 250 297 357
#     4  11  19  38  60  90 128 160 196 246 319 361
#     4  11  21  38  59  91 129 152 200 248 319 363
#     4  10  22  38  69  87 117 162 215 249 294 354
#     4   9  21  38  61  86 116 160 210 244 289 364
#
# _framework density 20.280636999999999
#
# number of rings (size 3 to 8) (size 9 to 14) (size 15 to 20)
#    0.750    1.000    2.500    3.000    1.750    0.500 
#    6.750    0.625    0.000    1.500    0.000    0.000 
#    0.000    0.000    0.000    0.000    0.000    0.000 
#
# Total GULP energy -198322.073235 kJ/mol
# GULP energy per Si atom -12395.129577 kJ/mol
# Density = 2.023448 g / cm^3
# Si number density = 20.280637 Si / 1000 Ang^3
#
#
#
# Elastic Constant Matrix: (Units=GPa)
#
#
# Indices 1 2 3 4 5 6 
#
# 1 138.9265 18.3434 27.8664 -5.4400 14.9968 15.8764
# 2 18.3434 43.7791 10.9103 -6.0547 13.2314 2.4444
# 3 27.8664 10.9103 79.4836 -2.0764 9.2739 4.2193
# 4 -5.4400 -6.0547 -2.0764 18.8322 1.6424 -1.4419
# 5 14.9968 13.2314 9.2739 1.6424 37.8645 -0.7601
# 6 15.8764 2.4444 4.2193 -1.4419 -0.7601 42.3461
#
#
#
# Elastic Compliance Matrix: (Units=1/GPa)
#
#
# Indices 1 2 3 4 5 6 
#
# 1 0.008544 -0.001951 -0.002270 0.001570 -0.002271 -0.002852
# 2 -0.001951 0.028121 -0.001861 0.009014 -0.009001 -0.000561
# 3 -0.002270 -0.001861 0.013886 0.000407 -0.001878 -0.000445
# 4 0.001570 0.009014 0.000407 0.057102 -0.006335 0.000681
# 5 -0.002271 -0.009001 -0.001878 -0.006335 0.031228 0.001903
# 6 -0.002852 -0.000561 -0.000445 0.000681 0.001903 0.024818
#
#
# Mechanical properties :
#
#
# Convention : Reuss Voigt Hill
#
# Bulk Modulus (GPa) = 26.05035 41.82548 33.93792
# Shear Modulus (GPa) = 26.50300 33.47983 29.99142
#
# Velocity S-wave (km/s) = 3.61891 4.06745 3.84972
# Velocity P-wave (km/s) = 5.50771 6.53659 6.04408
#
# Compressibility (1/GPa) = 0.03838719
#
# Stress axis : x y z
#
# Youngs Moduli (GPa) = 117.04701 35.56006 72.01564
#
# Poissons Ratio (x) = 0.06938 0.16348
# Poissons Ratio (y) = 0.22838 0.13399
# Poissons Ratio (z) = 0.26571 0.06616
#
# Static dielectric constant tensor:
#      x y z
#    x 3.823950 0.083940 0.057220 
#    y 0.083940 3.548080 0.069170 
#    z 0.057220 0.069170 3.367990 
# 
# 
# High freq. dielectric constant tensor:
#      x y z
#    x 1.807850 0.000610 0.007900 
#    y 0.000610 1.778240 -0.001590 
#    z 0.007900 -0.001590 1.756800 
# 
# From -- ./inp_files/223162.got.cif
#   From: 2010.06.25/outbox.cif.g09.slc.cpg/sg2_112_cif.got.tgz:223162.got - 2010.06.27 13:26:56.
