data_PCOD8003890
_publ_section_title
;
Structure prediction by ZEFSAII (Michael W. Deem and Ramdas Pophale) SiO2 
 PCOD8003890
Probable space group: P -1
;
_chemical_formula_sum "Si O2"
_cell_formula_units_Z 16
_cell_length_a 16.822947
_cell_length_b 9.398061
_cell_length_c 16.710267
_cell_angle_alpha 43.926184
_cell_angle_beta 24.667085
_cell_angle_gamma 46.534756
_cell_volume 759.801921
_symmetry_space_group_name_H-M "P -1"
_symmetry_group_IT_number 2
_symmetry_cell_setting 'triclinic'
loop_
_space_group_symop_operation_xyz
x,y,z
-x,-y,-z
loop_
_atom_site_type_symbol
_atom_site_label
_atom_site_fract_x
_atom_site_fract_y
_atom_site_fract_z
Si Si1 0.918310 0.580905 0.646996
Si Si2 0.539231 0.211044 0.280285
Si Si3 0.241965 0.201918 0.693277
Si Si4 0.456476 0.271109 0.148279
Si Si5 0.849368 0.199675 0.764984
Si Si6 0.290985 0.444944 0.699793
Si Si7 0.069749 0.259390 0.106131
Si Si8 0.863925 0.465032 0.914767
O O1 0.752024 0.744463 0.692508
O O2 0.901202 0.341031 0.736159
O O3 0.919968 0.598536 0.733474
O O4 0.114085 0.661280 0.402751
O O5 0.349250 0.213916 0.506059
O O6 0.463385 0.210087 0.259682
O O7 0.695015 0.015309 0.234155
O O8 0.649014 0.408200 0.120566
O O9 0.297703 0.380951 0.627406
O O10 0.011934 0.253674 0.871639
O O11 0.500000 0.500000 0.000000
O O12 0.630219 0.142068 0.993273
O O13 0.968301 0.974517 0.745141
O O14 0.500000 0.500000 0.500000
O O15 0.137185 0.643383 0.776128
O O16 0.230368 0.265957 0.886876
O O17 0.135563 0.386702 0.069794
#
# Coordination Sequence:
#
# PCOD8003890 Si02
#       8
#     2   2   2   2   2   2   2   2
#     4  10  23  38  63  89 120 161 205 248 303 350
#     4  11  21  38  59  90 121 153 205 247 302 356
#     4  10  24  36  60  92 118 158 197 254 299 356
#     4  10  20  37  62  86 119 155 200 251 294 353
#     4  10  21  39  59  89 114 160 203 247 295 354
#     4  10  21  42  60  85 123 163 201 242 306 365
#     4  10  23  39  62  87 122 160 201 247 302 365
#     4  11  22  40  59  87 126 156 194 252 303 354
#
# _framework density 21.058119000000001
#
# number of rings (size 3 to 8) (size 9 to 14) (size 15 to 20)
#    0.000    1.750    2.500    1.875    5.250    2.500 
#    4.500    0.625    0.000    0.000    0.000    0.000 
#    0.000    0.000    0.000    0.000    0.000    0.000 
#
# Total GULP energy -198304.006423 kJ/mol
# GULP energy per Si atom -12394.000401 kJ/mol
# Density = 2.101019 g / cm^3
# Si number density = 21.058119 Si / 1000 Ang^3
#
#
#
# Elastic Constant Matrix: (Units=GPa)
#
#
# Indices 1 2 3 4 5 6 
#
# 1 91.7211 15.5546 26.3716 8.9614 13.9238 -15.9532
# 2 15.5546 82.7481 25.8326 -1.9435 5.7047 -5.3623
# 3 26.3716 25.8326 65.2098 8.3715 8.8493 0.7501
# 4 8.9614 -1.9435 8.3715 22.7976 -2.3848 5.2437
# 5 13.9238 5.7047 8.8493 -2.3848 36.9663 -5.5137
# 6 -15.9532 -5.3623 0.7501 5.2437 -5.5137 16.8205
#
#
#
# Elastic Compliance Matrix: (Units=1/GPa)
#
#
# Indices 1 2 3 4 5 6 
#
# 1 0.017019 -0.000361 -0.005361 -0.009242 -0.002956 0.018177
# 2 -0.000361 0.014295 -0.005914 0.002697 0.000065 0.003659
# 3 -0.005361 -0.005914 0.021022 -0.004741 -0.003538 -0.007589
# 4 -0.009242 0.002697 -0.004741 0.055329 0.004257 -0.023547
# 5 -0.002956 0.000065 -0.003538 0.004257 0.030162 0.005935
# 6 0.018177 0.003659 -0.007589 -0.023547 0.005935 0.087482
#
#
# Mechanical properties :
#
#
# Convention : Reuss Voigt Hill
#
# Bulk Modulus (GPa) = 34.40731 41.68852 38.04792
# Shear Modulus (GPa) = 19.35966 26.77824 23.06895
#
# Velocity S-wave (km/s) = 3.03536 3.56987 3.31341
# Velocity P-wave (km/s) = 5.35343 6.06892 5.72237
#
# Compressibility (1/GPa) = 0.02906359
#
# Stress axis : x y z
#
# Youngs Moduli (GPa) = 58.75957 69.95455 47.56880
#
# Poissons Ratio (x) = 0.02524 0.25502
# Poissons Ratio (y) = 0.02120 0.28133
# Poissons Ratio (z) = 0.31501 0.41373
#
# Static dielectric constant tensor:
#      x y z
#    x 3.938000 -0.447910 -0.134730 
#    y -0.447910 4.215920 0.798110 
#    z -0.134730 0.798110 4.516840 
# 
# 
# High freq. dielectric constant tensor:
#      x y z
#    x 1.813890 -0.016370 0.011720 
#    y -0.016370 1.810620 0.012910 
#    z 0.011720 0.012910 1.837430 
# 
# From -- ./inp_files/529352.got.cif
#   From: 2010.06.25/outbox.cif.g09.slc.cpg/sg2_265_cif.got.tgz:529352.got - 2010.06.27 13:26:56.
