data_PCOD8003889
_publ_section_title
;
Structure prediction by ZEFSAII (Michael W. Deem and Ramdas Pophale) SiO2 
 PCOD8003889
Probable space group: P -1
;
_chemical_formula_sum "Si O2"
_cell_formula_units_Z 16
_cell_length_a 7.599239
_cell_length_b 9.464604
_cell_length_c 11.266353
_cell_angle_alpha 98.890951
_cell_angle_beta 97.903090
_cell_angle_gamma 72.775042
_cell_volume 761.054390
_symmetry_space_group_name_H-M "P -1"
_symmetry_group_IT_number 2
_symmetry_cell_setting 'triclinic'
loop_
_space_group_symop_operation_xyz
x,y,z
-x,-y,-z
loop_
_atom_site_type_symbol
_atom_site_label
_atom_site_fract_x
_atom_site_fract_y
_atom_site_fract_z
Si Si1 0.442785 0.541865 0.367390
Si Si2 0.499301 0.332788 0.957212
Si Si3 0.827131 0.629281 0.656512
Si Si4 0.202175 0.208238 0.815721
Si Si5 0.205193 0.382028 0.623483
Si Si6 0.205925 0.782498 0.235093
Si Si7 0.266971 0.930567 0.930024
Si Si8 0.875796 0.913541 0.827852
O O1 0.500000 0.500000 0.500000
O O2 0.338112 0.421476 0.299782
O O3 0.631300 0.541646 0.316630
O O4 0.289442 0.703851 0.356985
O O5 0.293258 0.322881 0.906680
O O6 0.641454 0.278142 0.857306
O O7 0.500000 0.500000 0.000000
O O8 0.567807 0.221838 0.061807
O O9 0.782787 0.666922 0.518800
O O10 0.839770 0.769285 0.749741
O O11 0.015825 0.497572 0.661492
O O12 0.231450 0.229355 0.680371
O O13 0.301198 0.036079 0.839685
O O14 0.983246 0.252626 0.829035
O O15 0.166584 0.960600 0.263181
O O16 0.251231 0.029816 0.061302
O O17 0.086655 0.876084 0.884179
#
# Coordination Sequence:
#
# PCOD8003889 Si02
#       8
#     2   2   2   2   2   2   2   2
#     4  10  20  37  62  86 118 155 199 251 299 348
#     4  11  24  38  62  90 119 155 208 252 292 359
#     4  10  21  39  66  88 119 157 208 249 299 354
#     4  11  21  40  63  84 127 164 190 250 311 355
#     4  10  21  38  63  91 121 158 199 253 301 355
#     4  10  21  40  60  84 122 158 193 245 306 355
#     4   9  21  40  60  89 124 160 197 247 306 355
#     4   9  20  40  64  86 120 162 200 248 297 362
#
# _framework density 21.023464000000001
#
# number of rings (size 3 to 8) (size 9 to 14) (size 15 to 20)
#    0.000    2.000    2.500    1.125    1.750    1.500 
#    0.000   10.000    2.750    0.000    0.000    0.000 
#    0.000    0.000    0.000    0.000    0.000    0.000 
#
# Total GULP energy -198232.841710 kJ/mol
# GULP energy per Si atom -12389.552607 kJ/mol
# Density = 2.097561 g / cm^3
# Si number density = 21.023464 Si / 1000 Ang^3
#
#
#
# Elastic Constant Matrix: (Units=GPa)
#
#
# Indices 1 2 3 4 5 6 
#
# 1 110.7108 38.4648 37.1485 -3.2704 16.3519 21.8387
# 2 38.4648 128.4530 76.5790 -20.6687 7.5593 18.0922
# 3 37.1485 76.5790 78.8727 -17.2645 14.7463 7.4589
# 4 -3.2704 -20.6687 -17.2645 51.3181 3.0716 4.9397
# 5 16.3519 7.5593 14.7463 3.0716 27.3382 -4.4353
# 6 21.8387 18.0922 7.4589 4.9397 -4.4353 32.6335
#
#
#
# Elastic Compliance Matrix: (Units=1/GPa)
#
#
# Indices 1 2 3 4 5 6 
#
# 1 0.013240 0.000420 -0.004176 0.000945 -0.007396 -0.009287
# 2 0.000420 0.020439 -0.019502 0.002183 0.003228 -0.007047
# 3 -0.004176 -0.019502 0.036521 0.004590 -0.011845 0.002955
# 4 0.000945 0.002183 0.004590 0.023128 -0.007444 -0.007404
# 5 -0.007396 0.003228 -0.011845 -0.007444 0.049563 0.013730
# 6 -0.009287 -0.007047 0.002955 -0.007404 0.013730 0.043077
#
#
# Mechanical properties :
#
#
# Convention : Reuss Voigt Hill
#
# Bulk Modulus (GPa) = 42.22310 69.15791 55.69051
# Shear Modulus (GPa) = 20.80046 33.31426 27.05736
#
# Velocity S-wave (km/s) = 3.14887 3.98505 3.59138
# Velocity P-wave (km/s) = 5.77477 7.35807 6.61397
#
# Compressibility (1/GPa) = 0.02368372
#
# Stress axis : x y z
#
# Youngs Moduli (GPa) = 75.52861 48.92488 27.38182
#
# Poissons Ratio (x) = -0.02057 0.11436
# Poissons Ratio (y) = -0.03175 0.53401
# Poissons Ratio (z) = 0.31543 0.95414
#
# Static dielectric constant tensor:
#      x y z
#    x 4.249920 0.184920 0.258280 
#    y 0.184920 4.198960 -0.715150 
#    z 0.258280 -0.715150 3.797700 
# 
# 
# High freq. dielectric constant tensor:
#      x y z
#    x 1.840630 0.019860 0.023250 
#    y 0.019860 1.817870 -0.046180 
#    z 0.023250 -0.046180 1.800850 
# 
# From -- ./inp_files/379645.got.cif
#   From: 2010.06.25/outbox.cif.g09.slc.cpg/sg2_190_cif.got.tgz:379645.got - 2010.06.27 13:26:56.
