data_PCOD8003403
_publ_section_title
;
Structure prediction by ZEFSAII (Michael W. Deem and Ramdas Pophale) SiO2 
 PCOD8003403
Probable space group: P -1
;
_chemical_formula_sum "Si O2"
_cell_formula_units_Z 14
_cell_length_a 17.902608
_cell_length_b 9.568029
_cell_length_c 14.477157
_cell_angle_alpha 102.096693
_cell_angle_beta 21.643058
_cell_angle_gamma 115.589346
_cell_volume 673.792824
_symmetry_space_group_name_H-M "P -1"
_symmetry_group_IT_number 2
_symmetry_cell_setting 'triclinic'
loop_
_space_group_symop_operation_xyz
x,y,z
-x,-y,-z
loop_
_atom_site_type_symbol
_atom_site_label
_atom_site_fract_x
_atom_site_fract_y
_atom_site_fract_z
Si Si1 0.689040 0.131190 0.883018
Si Si2 0.515710 0.677195 0.896758
Si Si3 0.601884 0.068959 0.182947
Si Si4 0.890306 0.957538 0.222303
Si Si5 0.659178 0.782660 0.119048
Si Si6 0.809893 0.668747 0.402615
Si Si7 0.227499 0.253611 0.211708
O O1 0.970635 0.190266 0.551277
O O2 0.705157 0.312829 0.884629
O O3 0.571069 0.032753 0.103627
O O4 0.500000 0.000000 0.000000
O O5 0.740896 0.757977 0.570721
O O6 0.635956 0.786068 0.873080
O O7 0.403218 0.469541 0.013458
O O8 0.384966 0.081106 0.469209
O O9 0.545300 0.890855 0.273425
O O10 0.901420 0.265402 0.892317
O O11 0.832624 0.768354 0.295372
O O12 0.000000 0.000000 0.000000
O O13 0.114243 0.140563 0.053734
O O14 0.413239 0.558396 0.382357
O O15 0.812658 0.847298 0.852073
#
# Coordination Sequence:
#
# PCOD8003403 Si02
#       7
#     2   2   2   2   2   2   2
#     4  12  22  32  57  89 124 167 209 244 299 365
#     4  10  20  37  56  85 125 168 203 243 299 360
#     4  11  23  41  64  92 126 164 210 261 313 368
#     4  11  25  46  68  92 123 161 210 268 322 374
#     4  10  24  42  64  96 129 165 209 254 312 375
#     4  10  22  43  66  91 130 166 205 260 314 371
#     4  10  21  36  57  87 127 164 201 245 294 367
#
# _framework density 20.777899000000001
#
# number of rings (size 3 to 8) (size 9 to 14) (size 15 to 20)
#    0.000    1.429    2.857    2.143    2.000    5.143 
#    2.571    1.429    0.000    0.000    0.000    0.000 
#    0.000    0.000    0.000    0.000    0.000    0.000 
#
# Total GULP energy -173539.905696 kJ/mol
# GULP energy per Si atom -12395.707550 kJ/mol
# Density = 2.073061 g / cm^3
# Si number density = 20.777899 Si / 1000 Ang^3
#
#
#
# Elastic Constant Matrix: (Units=GPa)
#
#
# Indices 1 2 3 4 5 6 
#
# 1 135.0089 21.2808 71.4687 18.9687 2.8124 -9.6969
# 2 21.2808 70.9724 32.0260 -13.9179 -7.6737 -7.8015
# 3 71.4687 32.0260 140.4115 20.2819 -7.8567 -4.2759
# 4 18.9687 -13.9179 20.2819 41.3877 -7.0763 -6.1592
# 5 2.8124 -7.6737 -7.8567 -7.0763 41.9572 3.6019
# 6 -9.6969 -7.8015 -4.2759 -6.1592 3.6019 33.6889
#
#
#
# Elastic Compliance Matrix: (Units=1/GPa)
#
#
# Indices 1 2 3 4 5 6 
#
# 1 0.010867 -0.001950 -0.004672 -0.003553 -0.002707 0.001723
# 2 -0.001950 0.020199 -0.004886 0.011603 0.004425 0.005144
# 3 -0.004672 -0.004886 0.011354 -0.005232 0.000842 -0.002082
# 4 -0.003553 0.011603 -0.005232 0.034365 0.006612 0.006576
# 5 -0.002707 0.004425 0.000842 0.006612 0.026204 -0.001240
# 6 0.001723 0.005144 -0.002082 0.006576 -0.001240 0.032441
#
#
# Mechanical properties :
#
#
# Convention : Reuss Voigt Hill
#
# Bulk Modulus (GPa) = 51.53935 66.21600 58.87768
# Shear Modulus (GPa) = 30.31874 38.18126 34.25000
#
# Velocity S-wave (km/s) = 3.82407 4.29136 4.06444
# Velocity P-wave (km/s) = 6.66009 7.51612 7.10101
#
# Compressibility (1/GPa) = 0.01940265
#
# Stress axis : x y z
#
# Youngs Moduli (GPa) = 92.02196 49.50764 88.07544
#
# Poissons Ratio (x) = 0.09655 0.41150
# Poissons Ratio (y) = 0.17946 0.43035
# Poissons Ratio (z) = 0.42994 0.24190
#
# Static dielectric constant tensor:
#      x y z
#    x 4.027610 -0.204950 -0.058930 
#    y -0.204950 3.845400 0.142840 
#    z -0.058930 0.142840 3.705880 
# 
# 
# High freq. dielectric constant tensor:
#      x y z
#    x 1.818620 -0.017180 -0.005970 
#    y -0.017180 1.812090 -0.001750 
#    z -0.005970 -0.001750 1.809360 
# 
# From -- ./inp_files/35384.got.cif
#   From: 2010.06.25/outbox.cif.g09.slc.cpg/sg2_18_cif.got.tgz:35384.got - 2010.06.27 13:26:56.
