data_PCOD8003392
_publ_section_title
;
Structure prediction by ZEFSAII (Michael W. Deem and Ramdas Pophale) SiO2 
 PCOD8003392
Probable space group: P -1
;
_chemical_formula_sum "Si O2"
_cell_formula_units_Z 16
_cell_length_a 20.186523
_cell_length_b 6.851928
_cell_length_c 16.843020
_cell_angle_alpha 79.146504
_cell_angle_beta 30.472259
_cell_angle_gamma 101.445167
_cell_volume 800.046581
_symmetry_space_group_name_H-M "P -1"
_symmetry_group_IT_number 2
_symmetry_cell_setting 'triclinic'
loop_
_space_group_symop_operation_xyz
x,y,z
-x,-y,-z
loop_
_atom_site_type_symbol
_atom_site_label
_atom_site_fract_x
_atom_site_fract_y
_atom_site_fract_z
Si Si1 0.106536 0.190394 0.485058
Si Si2 0.350562 0.710994 0.726108
Si Si3 0.553970 0.517500 0.765395
Si Si4 0.801425 0.155557 0.844829
Si Si5 0.180479 0.189472 0.848512
Si Si6 0.232780 0.422734 0.167617
Si Si7 0.444153 0.424661 0.416169
Si Si8 0.757508 0.059940 0.075044
O O1 0.268251 0.343338 0.373439
O O2 0.213065 0.294634 0.283113
O O3 0.990227 0.270097 0.601923
O O4 0.943901 0.839841 0.686080
O O5 0.223499 0.459396 0.811713
O O6 0.426045 0.628249 0.715943
O O7 0.229586 0.724592 0.904654
O O8 0.500000 0.000000 0.500000
O O9 0.647569 0.661209 0.570262
O O10 0.439110 0.586719 0.907751
O O11 0.393384 0.169409 0.953687
O O12 0.773094 0.348834 0.832111
O O13 0.852428 0.200378 0.881747
O O14 0.328089 0.257313 0.629117
O O15 0.137395 0.998658 0.981497
O O16 0.000000 0.000000 0.000000
O O17 0.545146 0.746905 0.303201
#
# Coordination Sequence:
#
# PCOD8003392 Si02
#       8
#     2   2   2   2   2   2   2   2
#     4  10  22  39  63  88 121 153 188 240 295 349
#     4  11  18  37  60  74 102 155 194 223 277 337
#     4  10  22  38  60  87 119 156 192 240 292 343
#     4  10  22  38  60  88 118 154 196 240 287 346
#     4  11  23  35  54  83 114 146 186 238 283 326
#     4  10  21  41  61  90 119 151 194 237 291 352
#     4  10  20  37  56  80 112 148 191 233 281 336
#     4  10  20  38  58  78 110 152 192 230 280 337
#
# _framework density 19.998836000000001
#
# number of rings (size 3 to 8) (size 9 to 14) (size 15 to 20)
#    0.000    1.750    2.500    2.250    1.750    3.000 
#    0.000    0.000    0.000    0.000    0.000    0.000 
#    0.000    0.000    0.000    0.000    0.000    0.000 
#
# Total GULP energy -198226.600485 kJ/mol
# GULP energy per Si atom -12389.162530 kJ/mol
# Density = 1.995332 g / cm^3
# Si number density = 19.998836 Si / 1000 Ang^3
#
#
#
# Elastic Constant Matrix: (Units=GPa)
#
#
# Indices 1 2 3 4 5 6 
#
# 1 119.0943 30.2873 28.4055 -12.3252 -18.2029 20.3818
# 2 30.2873 129.4570 21.8171 0.4559 -14.5135 0.5796
# 3 28.4055 21.8171 40.7238 -0.0110 -12.1930 5.1470
# 4 -12.3252 0.4559 -0.0110 21.6313 4.6550 4.1069
# 5 -18.2029 -14.5135 -12.1930 4.6550 35.0807 -1.3181
# 6 20.3818 0.5796 5.1470 4.1069 -1.3181 28.2889
#
#
#
# Elastic Compliance Matrix: (Units=1/GPa)
#
#
# Indices 1 2 3 4 5 6 
#
# 1 0.013295 -0.001750 -0.006405 0.008905 0.002408 -0.009558
# 2 -0.001750 0.008896 -0.003206 -0.002005 0.002002 0.002046
# 3 -0.006405 -0.003206 0.033013 -0.005134 0.007498 -0.000232
# 4 0.008905 -0.002005 -0.005134 0.055205 -0.005835 -0.013727
# 5 0.002408 0.002002 0.007498 -0.005835 0.033936 -0.000712
# 6 -0.009558 0.002046 -0.000232 -0.013727 -0.000712 0.044196
#
#
# Mechanical properties :
#
#
# Convention : Reuss Voigt Hill
#
# Bulk Modulus (GPa) = 30.78387 50.03277 40.40832
# Shear Modulus (GPa) = 22.51345 30.91785 26.71565
#
# Velocity S-wave (km/s) = 3.35884 3.93616 3.65891
# Velocity P-wave (km/s) = 5.51984 6.76240 6.17247
#
# Compressibility (1/GPa) = 0.03248455
#
# Stress axis : x y z
#
# Youngs Moduli (GPa) = 75.21820 112.40452 30.29108
#
# Poissons Ratio (x) = 0.19667 0.19400
# Poissons Ratio (y) = 0.13161 0.09710
# Poissons Ratio (z) = 0.48174 0.36032
#
# Static dielectric constant tensor:
#      x y z
#    x 3.628560 0.214900 0.112390 
#    y 0.214900 3.736890 0.012650 
#    z 0.112390 0.012650 3.374440 
# 
# 
# High freq. dielectric constant tensor:
#      x y z
#    x 1.785520 0.009850 0.015400 
#    y 0.009850 1.789950 0.006910 
#    z 0.015400 0.006910 1.759580 
# 
# From -- ./inp_files/44861.got.cif
#   From: 2010.06.25/outbox.cif.g09.slc.cpg/sg2_23_cif.got.tgz:44861.got - 2010.06.27 13:26:56.
