data_PCOD8003453
_publ_section_title
;
Structure prediction by ZEFSAII (Michael W. Deem and Ramdas Pophale) SiO2 
 PCOD8003453
Probable space group: P -1
;
_chemical_formula_sum "Si O2"
_cell_formula_units_Z 16
_cell_length_a 22.832913
_cell_length_b 13.518666
_cell_length_c 9.286171
_cell_angle_alpha 111.343693
_cell_angle_beta 41.837701
_cell_angle_gamma 145.882979
_cell_volume 790.384497
_symmetry_space_group_name_H-M "P -1"
_symmetry_group_IT_number 2
_symmetry_cell_setting 'triclinic'
loop_
_space_group_symop_operation_xyz
x,y,z
-x,-y,-z
loop_
_atom_site_type_symbol
_atom_site_label
_atom_site_fract_x
_atom_site_fract_y
_atom_site_fract_z
Si Si1 0.673549 0.645981 0.152424
Si Si2 0.250253 0.981843 0.591088
Si Si3 0.042138 0.665640 0.548430
Si Si4 0.692127 0.441995 0.113692
Si Si5 0.747694 0.956018 0.840346
Si Si6 0.325091 0.499855 0.513823
Si Si7 0.050887 0.863892 0.149186
Si Si8 0.327188 0.260336 0.402606
O O1 0.500000 0.500000 0.500000
O O2 0.771176 0.642526 0.024466
O O3 0.565595 0.512517 0.124631
O O4 0.851705 0.919153 0.956010
O O5 0.475910 0.189116 0.307239
O O6 0.225531 0.069907 0.603114
O O7 0.133743 0.769472 0.596245
O O8 0.152310 0.882842 0.875461
O O9 0.000000 0.500000 0.500000
O O10 0.204431 0.887800 0.257951
O O11 0.838607 0.510564 0.825203
O O12 0.692189 0.441634 0.286447
O O13 0.726904 0.831524 0.708951
O O14 0.923593 0.131093 0.725968
O O15 0.546843 0.751885 0.187089
O O16 0.264055 0.313798 0.572607
O O17 0.181599 0.384972 0.589775
#
# Coordination Sequence:
#
# PCOD8003453 Si02
#       8
#     2   2   2   2   2   2   2   2
#     4  11  18  34  61  97 136 172 210 241 299 383
#     4  10  20  40  67  93 126 163 215 256 302 383
#     4  11  27  48  69  91 116 161 223 277 323 365
#     4  11  21  40  69  93 124 175 214 249 307 381
#     4  11  25  43  57  93 139 158 203 277 310 362
#     4  12  22  36  64  93 136 174 207 237 316 381
#     4  12  22  34  64  97 133 171 204 247 313 386
#     4  10  20  37  57  91 139 177 197 246 302 370
#
# _framework density 20.243313000000001
#
# number of rings (size 3 to 8) (size 9 to 14) (size 15 to 20)
#    0.000    1.000    7.500    0.375    3.500    5.000 
#    0.000    1.250    0.000    0.000    0.000    0.000 
#    0.000    0.000    0.000    0.000    0.000    0.000 
#
# Total GULP energy -198392.183951 kJ/mol
# GULP energy per Si atom -12399.511497 kJ/mol
# Density = 2.019724 g / cm^3
# Si number density = 20.243313 Si / 1000 Ang^3
#
#
#
# Elastic Constant Matrix: (Units=GPa)
#
#
# Indices 1 2 3 4 5 6 
#
# 1 96.2866 44.9135 27.9064 11.0864 -5.2380 31.0311
# 2 44.9135 118.0065 28.7518 16.5259 -6.6709 8.3847
# 3 27.9064 28.7518 50.3020 15.2678 -4.8519 -4.0879
# 4 11.0864 16.5259 15.2678 24.6306 5.0291 -2.8879
# 5 -5.2380 -6.6709 -4.8519 5.0291 28.0024 1.2980
# 6 31.0311 8.3847 -4.0879 -2.8879 1.2980 40.7195
#
#
#
# Elastic Compliance Matrix: (Units=1/GPa)
#
#
# Indices 1 2 3 4 5 6 
#
# 1 0.020599 -0.003799 -0.009270 -0.003426 0.002707 -0.016176
# 2 -0.003799 0.011398 -0.002751 -0.004736 0.002385 -0.000140
# 3 -0.009270 -0.002751 0.032068 -0.013781 0.005192 0.009707
# 4 -0.003426 -0.004736 -0.013781 0.057683 -0.014830 0.006766
# 5 0.002707 0.002385 0.005192 -0.014830 0.040552 -0.004377
# 6 -0.016176 -0.000140 0.009707 0.006766 -0.004377 0.038508
#
#
# Mechanical properties :
#
#
# Convention : Reuss Voigt Hill
#
# Bulk Modulus (GPa) = 30.84111 51.97095 41.40603
# Shear Modulus (GPa) = 20.55428 29.53872 25.04650
#
# Velocity S-wave (km/s) = 3.18993 3.82407 3.52130
# Velocity P-wave (km/s) = 5.36990 6.72510 6.08534
#
# Compressibility (1/GPa) = 0.03242425
#
# Stress axis : x y z
#
# Youngs Moduli (GPa) = 48.54503 87.73107 31.18378
#
# Poissons Ratio (x) = 0.33333 0.28907
# Poissons Ratio (y) = 0.18445 0.08580
# Poissons Ratio (z) = 0.45001 0.24137
#
# Static dielectric constant tensor:
#      x y z
#    x 3.785070 0.461070 0.049690 
#    y 0.461070 3.670620 -0.001740 
#    z 0.049690 -0.001740 3.508210 
# 
# 
# High freq. dielectric constant tensor:
#      x y z
#    x 1.786180 0.042380 0.000310 
#    y 0.042380 1.771960 -0.002960 
#    z 0.000310 -0.002960 1.778670 
# 
# From -- ./inp_files/217607.got.cif
#   From: 2010.06.25/outbox.cif.g09.slc.cpg/sg2_109_cif.got.tgz:217607.got - 2010.06.27 13:26:56.
