data_PCOD8003075
_publ_section_title
;
Structure prediction by ZEFSAII (Michael W. Deem and Ramdas Pophale) SiO2 
 PCOD8003075
Probable space group: P -1
;
_chemical_formula_sum "Si O2"
_cell_formula_units_Z 12
_cell_length_a 9.414370
_cell_length_b 8.828887
_cell_length_c 8.998592
_cell_angle_alpha 89.556778
_cell_angle_beta 58.220068
_cell_angle_gamma 111.041829
_cell_volume 574.865268
_symmetry_space_group_name_H-M "P -1"
_symmetry_group_IT_number 2
_symmetry_cell_setting 'triclinic'
loop_
_space_group_symop_operation_xyz
x,y,z
-x,-y,-z
loop_
_atom_site_type_symbol
_atom_site_label
_atom_site_fract_x
_atom_site_fract_y
_atom_site_fract_z
Si Si1 0.136990 0.759374 0.005579
Si Si2 0.818369 0.576627 0.988284
Si Si3 0.457324 0.421822 0.363520
Si Si4 0.186062 0.499877 0.331324
Si Si5 0.678084 0.132345 0.816746
Si Si6 0.482251 0.077047 0.355345
O O1 0.322558 0.887177 0.825381
O O2 0.957046 0.737539 0.008650
O O3 0.133203 0.578012 0.012534
O O4 0.143577 0.827185 0.172136
O O5 0.845182 0.617599 0.796981
O O6 0.612007 0.530857 0.157822
O O7 0.500000 0.500000 0.500000
O O8 0.266731 0.421611 0.413871
O O9 0.440312 0.236457 0.392988
O O10 0.331042 0.689835 0.207957
O O11 0.000000 0.500000 0.500000
O O12 0.686207 0.054519 0.652260
O O13 0.500000 0.000000 0.000000
O O14 0.500000 0.000000 0.500000
#
# Coordination Sequence:
#
# PCOD8003075 Si02
#       6
#     2   2   2   2   2   2
#     4   8  17  33  60  88 112 165 201 248 308 373
#     4   9  19  36  61  87 125 152 211 256 306 360
#     4  11  24  39  63  95 124 164 216 256 307 380
#     4  11  24  39  68  95 123 167 213 261 309 376
#     4   9  19  37  61  87 123 167 203 248 322 373
#     4  10  20  36  62  88 128 164 199 259 321 370
#
# _framework density 20.874454
#
# number of rings (size 3 to 8) (size 9 to 14) (size 15 to 20)
#    0.000    2.333    0.000    2.500   11.667    0.000 
#    0.000    0.833    3.667    4.000    0.000    0.000 
#    0.000    0.000    0.000    0.000    0.000    0.000 
#
# Total GULP energy -148659.281855 kJ/mol
# GULP energy per Si atom -12388.273488 kJ/mol
# Density = 2.082694 g / cm^3
# Si number density = 20.874454 Si / 1000 Ang^3
#
#
#
# Elastic Constant Matrix: (Units=GPa)
#
#
# Indices 1 2 3 4 5 6 
#
# 1 156.1645 56.9947 76.4107 15.4984 23.8717 17.0516
# 2 56.9947 89.2550 43.1473 8.2124 14.5927 19.6861
# 3 76.4107 43.1473 104.4243 20.4157 29.0817 9.4561
# 4 15.4984 8.2124 20.4157 36.0460 6.8399 14.8513
# 5 23.8717 14.5927 29.0817 6.8399 39.5221 11.5730
# 6 17.0516 19.6861 9.4561 14.8513 11.5730 40.1094
#
#
#
# Elastic Compliance Matrix: (Units=1/GPa)
#
#
# Indices 1 2 3 4 5 6 
#
# 1 0.011039 -0.003591 -0.006478 0.000394 -0.000207 -0.001489
# 2 -0.003591 0.016806 -0.004490 0.002991 0.000800 -0.007002
# 3 -0.006478 -0.004490 0.019824 -0.008110 -0.009366 0.005990
# 4 0.000394 0.002991 -0.008110 0.036820 0.002364 -0.014039
# 5 -0.000207 0.000800 -0.009366 0.002364 0.034204 -0.008841
# 6 -0.001489 -0.007002 0.005990 -0.014039 -0.008841 0.035338
#
#
# Mechanical properties :
#
#
# Convention : Reuss Voigt Hill
#
# Bulk Modulus (GPa) = 53.90955 78.10545 66.00750
# Shear Modulus (GPa) = 26.40847 34.68824 30.54835
#
# Velocity S-wave (km/s) = 3.56070 4.08089 3.82963
# Velocity P-wave (km/s) = 6.54113 7.72676 7.15854
#
# Compressibility (1/GPa) = 0.01854959
#
# Stress axis : x y z
#
# Youngs Moduli (GPa) = 90.58604 59.50326 50.44516
#
# Poissons Ratio (x) = 0.21370 0.32680
# Poissons Ratio (y) = 0.32533 0.22648
# Poissons Ratio (z) = 0.58685 0.26715
#
# Static dielectric constant tensor:
#      x y z
#    x 4.059920 0.567410 0.339920 
#    y 0.567410 3.899250 0.032970 
#    z 0.339920 0.032970 3.723580 
# 
# 
# High freq. dielectric constant tensor:
#      x y z
#    x 1.811570 0.031370 0.029820 
#    y 0.031370 1.803980 0.000610 
#    z 0.029820 0.000610 1.814740 
# 
# From -- ./inp_files/147404.got.cif
#   From: 2010.06.25/outbox.cif.g09.slc.cpg/sg2_74_cif.got.tgz:147404.got - 2010.06.27 13:26:56.
