data_PCOD8003501
_publ_section_title
;
Structure prediction by ZEFSAII (Michael W. Deem and Ramdas Pophale) SiO2 
 PCOD8003501
Probable space group: P -1
;
_chemical_formula_sum "Si O2"
_cell_formula_units_Z 16
_cell_length_a 22.049117
_cell_length_b 9.919415
_cell_length_c 8.671944
_cell_angle_alpha 53.464444
_cell_angle_beta 60.594353
_cell_angle_gamma 33.329007
_cell_volume 837.243744
_symmetry_space_group_name_H-M "P -1"
_symmetry_group_IT_number 2
_symmetry_cell_setting 'triclinic'
loop_
_space_group_symop_operation_xyz
x,y,z
-x,-y,-z
loop_
_atom_site_type_symbol
_atom_site_label
_atom_site_fract_x
_atom_site_fract_y
_atom_site_fract_z
Si Si1 0.109516 0.716345 0.482829
Si Si2 0.094004 0.431690 0.502005
Si Si3 0.717088 0.067571 0.202799
Si Si4 0.274950 0.557766 0.135000
Si Si5 0.493531 0.011132 0.812478
Si Si6 0.727666 0.755811 0.170424
Si Si7 0.240525 0.315378 0.158300
Si Si8 0.437572 0.772845 0.459599
O O1 0.060574 0.636861 0.526199
O O2 0.178590 0.700584 0.284444
O O3 0.200773 0.506851 0.640503
O O4 0.000000 0.000000 0.500000
O O5 0.137340 0.446491 0.290756
O O6 0.000000 0.500000 0.500000
O O7 0.178476 0.147683 0.670425
O O8 0.610870 0.197518 0.337671
O O9 0.722447 0.948019 0.123176
O O10 0.713062 0.268791 0.028004
O O11 0.397610 0.262823 0.226048
O O12 0.249651 0.499646 0.049792
O O13 0.392702 0.090831 0.822170
O O14 0.476919 0.233175 0.620550
O O15 0.500000 0.000000 0.000000
O O16 0.788466 0.668326 0.992305
O O17 0.347550 0.013205 0.288635
O O18 0.500000 0.500000 0.500000
#
# Coordination Sequence:
#
# PCOD8003501 Si02
#       8
#     2   2   2   2   2   2   2   2
#     4  10  24  43  60  88 122 157 204 256 302 350
#     4   9  20  41  62  82 116 158 201 248 297 356
#     4  10  23  37  59  91 121 152 200 252 297 349
#     4  10  21  41  62  87 124 160 203 240 299 370
#     4  11  20  38  65  89 123 163 197 241 300 368
#     4  11  22  40  62  89 124 157 197 252 305 347
#     4   9  20  38  61  86 119 158 197 241 296 366
#     4  10  20  37  58  86 124 157 199 237 291 363
#
# _framework density 19.110323999999999
#
# number of rings (size 3 to 8) (size 9 to 14) (size 15 to 20)
#    0.000    2.000    2.500    3.000    0.000    5.500 
#    4.500    5.000    0.000    0.000    0.000    0.000 
#    0.000    0.000    0.000    0.000    0.000    0.000 
#
# Total GULP energy -198223.809863 kJ/mol
# GULP energy per Si atom -12388.988116 kJ/mol
# Density = 1.906683 g / cm^3
# Si number density = 19.110324 Si / 1000 Ang^3
#
#
#
# Elastic Constant Matrix: (Units=GPa)
#
#
# Indices 1 2 3 4 5 6 
#
# 1 129.0970 40.7976 47.0085 -3.2313 -3.5747 5.9246
# 2 40.7976 122.7467 46.2835 3.5576 -7.8401 12.9928
# 3 47.0085 46.2835 107.6716 -3.0887 -12.8358 24.4851
# 4 -3.2313 3.5576 -3.0887 24.9744 15.1532 -3.5278
# 5 -3.5747 -7.8401 -12.8358 15.1532 32.7715 1.1007
# 6 5.9246 12.9928 24.4851 -3.5278 1.1007 29.7836
#
#
#
# Elastic Compliance Matrix: (Units=1/GPa)
#
#
# Indices 1 2 3 4 5 6 
#
# 1 0.009873 -0.002256 -0.004246 0.003111 -0.002664 0.002978
# 2 -0.002256 0.010532 -0.002669 -0.004574 0.003432 -0.002621
# 3 -0.004246 -0.002669 0.015719 -0.004429 0.007496 -0.011716
# 4 0.003111 -0.004574 -0.004429 0.061483 -0.031371 0.013459
# 5 -0.002664 0.003432 0.007496 -0.031371 0.048911 -0.012653
# 6 0.002978 -0.002621 -0.011716 0.013459 -0.012653 0.045820
#
#
# Mechanical properties :
#
#
# Convention : Reuss Voigt Hill
#
# Bulk Modulus (GPa) = 56.23458 69.74383 62.98920
# Shear Modulus (GPa) = 23.08333 32.53428 27.80881
#
# Velocity S-wave (km/s) = 3.47925 4.13055 3.81881
# Velocity P-wave (km/s) = 6.75503 7.70215 7.24409
#
# Compressibility (1/GPa) = 0.01778265
#
# Stress axis : x y z
#
# Youngs Moduli (GPa) = 101.29036 94.94850 63.61603
#
# Poissons Ratio (x) = 0.21419 0.27013
# Poissons Ratio (y) = 0.22850 0.16977
# Poissons Ratio (z) = 0.43010 0.25338
#
# Static dielectric constant tensor:
#      x y z
#    x 3.118210 0.152770 0.027780 
#    y 0.152770 3.556780 0.152400 
#    z 0.027780 0.152400 3.602130 
# 
# 
# High freq. dielectric constant tensor:
#      x y z
#    x 1.742300 0.007390 -0.012900 
#    y 0.007390 1.746530 0.010750 
#    z -0.012900 0.010750 1.744730 
# 
# From -- ./inp_files/215736.got.cif
#   From: 2010.06.25/outbox.cif.g09.slc.cpg/sg2_108_cif.got.tgz:215736.got - 2010.06.27 13:26:56.
