data_PCOD8003887
_publ_section_title
;
Structure prediction by ZEFSAII (Michael W. Deem and Ramdas Pophale) SiO2 
 PCOD8003887
Probable space group: P -1
;
_chemical_formula_sum "Si O2"
_cell_formula_units_Z 12
_cell_length_a 8.318306
_cell_length_b 9.639480
_cell_length_c 16.097907
_cell_angle_alpha 51.102586
_cell_angle_beta 36.345345
_cell_angle_gamma 71.718894
_cell_volume 541.283192
_symmetry_space_group_name_H-M "P -1"
_symmetry_group_IT_number 2
_symmetry_cell_setting 'triclinic'
loop_
_space_group_symop_operation_xyz
x,y,z
-x,-y,-z
loop_
_atom_site_type_symbol
_atom_site_label
_atom_site_fract_x
_atom_site_fract_y
_atom_site_fract_z
Si Si1 0.611667 0.243729 0.082842
Si Si2 0.700160 0.479407 0.675866
Si Si3 0.223367 0.141941 0.557512
Si Si4 0.442774 0.927176 0.142346
Si Si5 0.517272 0.041595 0.612621
Si Si6 0.888768 0.619673 0.728837
O O1 0.291792 0.255176 0.212696
O O2 0.641355 0.090829 0.062451
O O3 0.650137 0.153817 0.189129
O O4 0.861946 0.459791 0.872508
O O5 0.570491 0.630468 0.637743
O O6 0.473198 0.260618 0.824018
O O7 0.744940 0.502737 0.748298
O O8 0.000000 0.500000 0.500000
O O9 0.268431 0.101481 0.650997
O O10 0.898821 0.122186 0.675869
O O11 0.297585 0.994510 0.525480
O O12 0.500000 0.000000 0.000000
O O13 0.765127 0.228840 0.488098
#
# Coordination Sequence:
#
# PCOD8003887 Si02
#       6
#     2   2   2   2   2   2
#     4  11  22  38  63  93 117 160 209 246 296 358
#     4  10  20  37  62  86 116 158 205 242 295 363
#     4  10  22  39  60  92 118 163 197 248 314 353
#     4  11  21  40  62  87 122 157 204 249 296 362
#     4  11  21  40  63  89 129 151 200 258 304 355
#     4  11  21  38  63  92 118 157 211 247 292 360
#
# _framework density 22.169543000000001
#
# number of rings (size 3 to 8) (size 9 to 14) (size 15 to 20)
#    0.000    1.333    5.000    2.500    0.000    0.000 
#    3.000   10.000    0.000    0.000    0.000    0.000 
#    0.000    0.000    0.000    0.000    0.000    0.000 
#
# Total GULP energy -148661.253417 kJ/mol
# GULP energy per Si atom -12388.437785 kJ/mol
# Density = 2.211908 g / cm^3
# Si number density = 22.169543 Si / 1000 Ang^3
#
#
#
# Elastic Constant Matrix: (Units=GPa)
#
#
# Indices 1 2 3 4 5 6 
#
# 1 68.8368 19.8679 17.3542 -17.2959 32.5898 -6.1302
# 2 19.8679 93.8823 10.8615 -20.8990 7.6851 17.2033
# 3 17.3542 10.8615 80.3092 -22.6962 36.1651 -7.5585
# 4 -17.2959 -20.8990 -22.6962 41.7394 -6.6121 13.8668
# 5 32.5898 7.6851 36.1651 -6.6121 36.6155 -3.7829
# 6 -6.1302 17.2033 -7.5585 13.8668 -3.7829 27.2602
#
#
#
# Elastic Compliance Matrix: (Units=1/GPa)
#
#
# Indices 1 2 3 4 5 6 
#
# 1 0.037832 -0.002325 0.018961 0.017180 -0.048839 -0.000284
# 2 -0.002325 0.018103 0.001692 0.015080 -0.002695 -0.019523
# 3 0.018961 0.001692 0.036238 0.022198 -0.049523 -0.004920
# 4 0.017180 0.015080 0.022198 0.056265 -0.033608 -0.032783
# 5 -0.048839 -0.002695 -0.049523 -0.033608 0.115232 0.010073
# 6 -0.000284 -0.019523 -0.004920 -0.032783 0.010073 0.065649
#
#
# Mechanical properties :
#
#
# Convention : Reuss Voigt Hill
#
# Bulk Modulus (GPa) = 7.76228 37.68837 22.72533
# Shear Modulus (GPa) = 14.89846 34.11935 24.50890
#
# Velocity S-wave (km/s) = 2.59515 3.92729 3.32855
# Velocity P-wave (km/s) = 3.53393 6.13203 5.00452
#
# Compressibility (1/GPa) = 0.12882815
#
# Stress axis : x y z
#
# Youngs Moduli (GPa) = 26.43291 55.24006 27.59571
#
# Poissons Ratio (x) = 0.12845 -0.52325
# Poissons Ratio (y) = 0.06146 -0.04669
# Poissons Ratio (z) = -0.50121 -0.09346
#
# Static dielectric constant tensor:
#      x y z
#    x 3.428870 -0.268620 0.404960 
#    y -0.268620 3.684360 -0.480130 
#    z 0.404960 -0.480130 4.292160 
# 
# 
# High freq. dielectric constant tensor:
#      x y z
#    x 1.828900 0.007820 0.034940 
#    y 0.007820 1.887400 -0.018800 
#    z 0.034940 -0.018800 1.871370 
# 
# From -- ./inp_files/145562.got.cif
#   From: 2010.06.25/outbox.cif.g09.slc.cpg/sg2_73_cif.got.tgz:145562.got - 2010.06.27 13:26:56.
