data_PCOD8003609
_publ_section_title
;
Structure prediction by ZEFSAII (Michael W. Deem and Ramdas Pophale) SiO2 
 PCOD8003609
Probable space group: P -1
;
_chemical_formula_sum "Si O2"
_cell_formula_units_Z 14
_cell_length_a 13.909526
_cell_length_b 9.665330
_cell_length_c 16.823418
_cell_angle_alpha 67.239691
_cell_angle_beta 157.223440
_cell_angle_gamma 98.450795
_cell_volume 653.362129
_symmetry_space_group_name_H-M "P -1"
_symmetry_group_IT_number 2
_symmetry_cell_setting 'triclinic'
loop_
_space_group_symop_operation_xyz
x,y,z
-x,-y,-z
loop_
_atom_site_type_symbol
_atom_site_label
_atom_site_fract_x
_atom_site_fract_y
_atom_site_fract_z
Si Si1 0.298812 0.970063 0.264526
Si Si2 0.697417 0.677178 0.337919
Si Si3 0.783142 0.113903 0.208834
Si Si4 0.210075 0.196483 0.458119
Si Si5 0.709278 0.696986 0.764931
Si Si6 0.568583 0.544984 0.835693
Si Si7 0.817598 0.282357 0.344545
O O1 0.527365 0.922141 0.378333
O O2 0.445271 0.797943 0.475008
O O3 0.193387 0.164960 0.178901
O O4 0.000000 0.000000 0.000000
O O5 0.646366 0.765454 0.366412
O O6 0.642011 0.519254 0.339703
O O7 0.043265 0.598767 0.589011
O O8 0.455709 0.827921 0.056446
O O9 0.653879 0.280453 0.139009
O O10 0.100537 0.070381 0.427605
O O11 0.872541 0.925175 0.358765
O O12 0.923056 0.382523 0.157366
O O13 0.557259 0.677738 0.731378
O O14 0.000000 0.500000 0.000000
O O15 0.424482 0.650156 0.785154
#
# Coordination Sequence:
#
# PCOD8003609 Si02
#       7
#     2   2   2   2   2   2   2
#     4  11  26  44  72  99 132 171 224 281 330 394
#     4  10  22  36  62  91 127 166 210 267 317 388
#     4   9  20  38  61  84 129 165 213 264 317 390
#     4  10  22  40  59  93 127 170 211 265 329 386
#     4  11  25  47  71  97 132 175 220 274 339 394
#     4  11  23  39  63  90 131 167 215 267 323 393
#     4  10  20  37  59  91 122 168 213 262 319 380
#
# _framework density 21.427626
#
# number of rings (size 3 to 8) (size 9 to 14) (size 15 to 20)
#    0.000    1.714    1.429    1.714    2.000   10.286 
#    0.000    0.000    0.000    0.000    0.000    0.000 
#    0.000    0.000    0.000    0.000    0.000    0.000 
#
# Total GULP energy -173556.295242 kJ/mol
# GULP energy per Si atom -12396.878232 kJ/mol
# Density = 2.137886 g / cm^3
# Si number density = 21.427626 Si / 1000 Ang^3
#
#
#
# Elastic Constant Matrix: (Units=GPa)
#
#
# Indices 1 2 3 4 5 6 
#
# 1 129.6576 33.8169 50.5954 -1.6138 2.3135 -4.4087
# 2 33.8169 83.1256 62.4382 5.3355 -5.4358 -1.2217
# 3 50.5954 62.4382 112.4865 7.2420 -6.2196 -6.7532
# 4 -1.6138 5.3355 7.2420 26.3370 -4.2608 -2.7581
# 5 2.3135 -5.4358 -6.2196 -4.2608 42.2082 -5.2896
# 6 -4.4087 -1.2217 -6.7532 -2.7581 -5.2896 36.9068
#
#
#
# Elastic Compliance Matrix: (Units=1/GPa)
#
#
# Indices 1 2 3 4 5 6 
#
# 1 0.009554 -0.001240 -0.003754 0.001747 -0.001010 0.000399
# 2 -0.001240 0.020924 -0.011014 -0.001304 0.000826 -0.001450
# 3 -0.003754 -0.011014 0.017051 -0.002221 0.001369 0.002337
# 4 0.001747 -0.001304 -0.002221 0.039920 0.003852 0.003294
# 5 -0.001010 0.000826 0.001369 0.003852 0.024948 0.004021
# 6 0.000399 -0.001450 0.002337 0.003294 0.004021 0.028345
#
#
# Mechanical properties :
#
#
# Convention : Reuss Voigt Hill
#
# Bulk Modulus (GPa) = 64.45730 68.77451 66.61590
# Shear Modulus (GPa) = 28.10143 32.98502 30.54322
#
# Velocity S-wave (km/s) = 3.62533 3.92774 3.77956
# Velocity P-wave (km/s) = 6.90440 7.26191 7.08541
#
# Compressibility (1/GPa) = 0.01551415
#
# Stress axis : x y z
#
# Youngs Moduli (GPa) = 104.66810 47.79283 58.64827
#
# Poissons Ratio (x) = 0.05924 0.22014
# Poissons Ratio (y) = 0.12975 0.64595
# Poissons Ratio (z) = 0.39288 0.52639
#
# Static dielectric constant tensor:
#      x y z
#    x 3.990830 0.027680 -0.214490 
#    y 0.027680 3.897250 0.066990 
#    z -0.214490 0.066990 3.694170 
# 
# 
# High freq. dielectric constant tensor:
#      x y z
#    x 1.855420 0.001480 -0.010020 
#    y 0.001480 1.841760 0.005760 
#    z -0.010020 0.005760 1.836730 
# 
# From -- ./inp_files/106425.got.cif
#   From: 2010.06.25/outbox.cif.g09.slc.cpg/sg2_54_cif.got.tgz:106425.got - 2010.06.27 13:26:56.
