data_PCOD8003605
_publ_section_title
;
Structure prediction by ZEFSAII (Michael W. Deem and Ramdas Pophale) SiO2 
 PCOD8003605
Probable space group: P -1
;
_chemical_formula_sum "Si O2"
_cell_formula_units_Z 16
_cell_length_a 11.524019
_cell_length_b 13.138051
_cell_length_c 5.889661
_cell_angle_alpha 78.978302
_cell_angle_beta 128.724701
_cell_angle_gamma 124.450536
_cell_volume 555.017578
_symmetry_space_group_name_H-M "P -1"
_symmetry_group_IT_number 2
_symmetry_cell_setting 'triclinic'
loop_
_space_group_symop_operation_xyz
x,y,z
-x,-y,-z
loop_
_atom_site_type_symbol
_atom_site_label
_atom_site_fract_x
_atom_site_fract_y
_atom_site_fract_z
Si Si1 0.280146 0.823135 0.977923
Si Si2 0.162670 0.935028 0.425321
Si Si3 0.995338 0.692135 0.049272
Si Si4 0.494217 0.401906 0.199197
Si Si5 0.590898 0.933220 0.722252
Si Si6 0.721437 0.313498 0.363136
Si Si7 0.653932 0.652266 0.497591
Si Si8 0.189297 0.143821 0.739220
O O1 0.267748 0.897602 0.725084
O O2 0.088724 0.720418 0.904166
O O3 0.338943 0.742835 0.945909
O O4 0.416045 0.943136 0.270492
O O5 0.026669 0.953773 0.403894
O O6 0.309226 0.056465 0.398120
O O7 0.037889 0.822080 0.146194
O O8 0.779696 0.608517 0.770960
O O9 0.065932 0.627254 0.333175
O O10 0.663060 0.408137 0.286426
O O11 0.542380 0.549407 0.189683
O O12 0.495773 0.380011 0.483346
O O13 0.290111 0.276110 0.946858
O O14 0.389659 0.799933 0.535401
O O15 0.708357 0.924751 0.071147
O O16 0.775106 0.800182 0.499474
#
# Coordination Sequence:
#
# PCOD8003605 Si02
#       8
#     2   2   2   2   2   2   2   2
#     4  10  21  38  61  89 123 169 204 247 301 368
#     4  10  20  37  59  90 125 166 199 253 303 358
#     4  10  21  39  64  87 127 162 204 251 307 363
#     4  10  24  42  65  95 121 156 209 259 313 362
#     4  10  23  36  59  95 124 165 207 247 300 365
#     4  10  23  41  61  89 129 161 203 257 303 360
#     4  11  22  42  69  91 120 163 203 259 315 363
#     4  11  21  39  63  91 128 158 205 257 304 364
#
# _framework density 28.827915999999998
#
# number of rings (size 3 to 8) (size 9 to 14) (size 15 to 20)
#    0.000    1.750    2.500    1.125    0.000   10.500 
#    0.000    0.625    0.000    0.000    0.000    0.000 
#    0.000    0.000    0.000    0.000    0.000    0.000 
#
# Total GULP energy -198255.139674 kJ/mol
# GULP energy per Si atom -12390.946230 kJ/mol
# Density = 2.876230 g / cm^3
# Si number density = 28.827916 Si / 1000 Ang^3
#
#
#
# Elastic Constant Matrix: (Units=GPa)
#
#
# Indices 1 2 3 4 5 6 
#
# 1 174.0682 32.5040 37.4147 -4.0850 -23.9673 -17.2780
# 2 32.5040 86.3208 10.1981 -15.0223 -12.1327 -6.8829
# 3 37.4147 10.1981 117.0369 -3.3715 5.1185 -12.0477
# 4 -4.0850 -15.0223 -3.3715 38.1486 -11.0860 2.8874
# 5 -23.9673 -12.1327 5.1185 -11.0860 55.2278 2.6490
# 6 -17.2780 -6.8829 -12.0477 2.8874 2.6490 40.6356
#
#
#
# Elastic Compliance Matrix: (Units=1/GPa)
#
#
# Indices 1 2 3 4 5 6 
#
# 1 0.007117 -0.001777 -0.002036 0.000586 0.002914 0.001890
# 2 -0.001777 0.013966 -0.000545 0.006238 0.003563 0.000773
# 3 -0.002036 -0.000545 0.009531 -0.000340 -0.002052 0.002026
# 4 0.000586 0.006238 -0.000340 0.031137 0.007980 -0.001528
# 5 0.002914 0.003563 -0.002052 0.007980 0.021983 -0.000766
# 6 0.001890 0.000773 0.002026 -0.001528 -0.000766 0.026302
#
#
# Mechanical properties :
#
#
# Convention : Reuss Voigt Hill
#
# Bulk Modulus (GPa) = 45.66873 59.73995 52.70434
# Shear Modulus (GPa) = 39.66580 46.62302 43.14441
#
# Velocity S-wave (km/s) = 3.71341 4.02591 3.87281
# Velocity P-wave (km/s) = 5.85338 6.50988 6.19034
#
# Compressibility (1/GPa) = 0.02189682
#
# Stress axis : x y z
#
# Youngs Moduli (GPa) = 140.50976 71.60126 104.91759
#
# Poissons Ratio (x) = 0.12724 0.21365
# Poissons Ratio (y) = 0.24969 0.05722
# Poissons Ratio (z) = 0.28613 0.03905
#
# Static dielectric constant tensor:
#      x y z
#    x 5.492930 -0.054120 -0.491990 
#    y -0.054120 5.109370 0.042870 
#    z -0.491990 0.042870 5.932670 
# 
# 
# High freq. dielectric constant tensor:
#      x y z
#    x 2.176340 -0.000610 -0.022460 
#    y -0.000610 2.155610 -0.007540 
#    z -0.022460 -0.007540 2.210560 
# 
# From -- ./inp_files/78000.got.cif
#   From: 2010.06.25/outbox.cif.g09.slc.cpg/sg2_39_cif.got.tgz:78000.got - 2010.06.27 13:26:56.
