data_PCOD8003030
_publ_section_title
;
Structure prediction by ZEFSAII (Michael W. Deem and Ramdas Pophale) SiO2 
 PCOD8003030
Probable space group: P -1
;
_chemical_formula_sum "Si O2"
_cell_formula_units_Z 12
_cell_length_a 15.886629
_cell_length_b 10.248280
_cell_length_c 21.559220
_cell_angle_alpha 138.460808
_cell_angle_beta 160.704610
_cell_angle_gamma 32.768815
_cell_volume 607.465193
_symmetry_space_group_name_H-M "P -1"
_symmetry_group_IT_number 2
_symmetry_cell_setting 'triclinic'
loop_
_space_group_symop_operation_xyz
x,y,z
-x,-y,-z
loop_
_atom_site_type_symbol
_atom_site_label
_atom_site_fract_x
_atom_site_fract_y
_atom_site_fract_z
Si Si1 0.732195 0.663785 0.535267
Si Si2 0.867785 0.758159 0.968740
Si Si3 0.881896 0.881363 0.418130
Si Si4 0.863719 0.343235 0.355818
Si Si5 0.247247 0.753011 0.123177
Si Si6 0.128263 0.007779 0.303005
O O1 0.494801 0.751411 0.340915
O O2 0.507803 0.764237 0.476767
O O3 0.013575 0.370090 0.632659
O O4 0.912343 0.787828 0.699309
O O5 0.040750 0.698183 0.001130
O O6 0.915969 0.925537 0.104654
O O7 0.000000 0.500000 0.000000
O O8 0.489999 0.920632 0.755135
O O9 0.057503 0.802202 0.577425
O O10 0.000000 0.000000 0.500000
O O11 0.472171 0.538711 0.151735
O O12 0.000000 0.500000 0.500000
O O13 0.010374 0.127972 0.330857
O O14 0.000000 0.000000 0.000000
#
# Coordination Sequence:
#
# PCOD8003030 Si02
#       6
#     2   2   2   2   2   2
#     4   9  20  38  60  90 124 158 200 245 300 357
#     4  11  24  42  61  87 124 161 201 250 304 356
#     4  11  22  41  65  87 123 164 198 247 308 358
#     4  11  20  39  63  91 122 158 204 242 299 360
#     4  10  20  36  61  92 122 156 198 250 296 355
#     4  10  20  39  63  88 124 155 203 249 295 357
#
# _framework density 19.754218999999999
#
# number of rings (size 3 to 8) (size 9 to 14) (size 15 to 20)
#    0.000    1.667    3.333    4.000    0.000    0.667 
#    6.000    6.667    0.000    0.000    0.000    0.000 
#    0.000    0.000    0.000    0.000    0.000    0.000 
#
# Total GULP energy -148691.830006 kJ/mol
# GULP energy per Si atom -12390.985834 kJ/mol
# Density = 1.970926 g / cm^3
# Si number density = 19.754219 Si / 1000 Ang^3
#
#
#
# Elastic Constant Matrix: (Units=GPa)
#
#
# Indices 1 2 3 4 5 6 
#
# 1 143.6318 51.8582 35.3264 -14.4107 26.4962 -8.3792
# 2 51.8582 114.4183 46.7582 -19.1654 7.6552 0.4054
# 3 35.3264 46.7582 76.4800 -16.4592 22.8336 6.9680
# 4 -14.4107 -19.1654 -16.4592 43.6338 -6.0274 6.7226
# 5 26.4962 7.6552 22.8336 -6.0274 32.6627 -5.2845
# 6 -8.3792 0.4054 6.9680 6.7226 -5.2845 51.6345
#
#
#
# Elastic Compliance Matrix: (Units=1/GPa)
#
#
# Indices 1 2 3 4 5 6 
#
# 1 0.009699 -0.003824 -0.000150 0.000412 -0.006647 0.000890
# 2 -0.003824 0.013734 -0.007939 0.002506 0.005998 0.000630
# 3 -0.000150 -0.007939 0.023768 0.004202 -0.014702 -0.005221
# 4 0.000412 0.002506 0.004202 0.026396 0.000378 -0.003918
# 5 -0.006647 0.005998 -0.014702 0.000378 0.045840 0.005501
# 6 0.000890 0.000630 -0.005221 -0.003918 0.005501 0.021284
#
#
# Mechanical properties :
#
#
# Convention : Reuss Voigt Hill
#
# Bulk Modulus (GPa) = 42.78179 66.93508 54.85844
# Shear Modulus (GPa) = 29.01267 38.95867 33.98567
#
# Velocity S-wave (km/s) = 3.83650 4.44573 4.15230
# Velocity P-wave (km/s) = 6.42876 7.76596 7.12879
#
# Compressibility (1/GPa) = 0.02337443
#
# Stress axis : x y z
#
# Youngs Moduli (GPa) = 103.10011 72.81391 42.07351
#
# Poissons Ratio (x) = 0.27845 0.00632
# Poissons Ratio (y) = 0.39427 0.33401
# Poissons Ratio (z) = 0.01549 0.57806
#
# Static dielectric constant tensor:
#      x y z
#    x 4.015190 -0.301180 0.484870 
#    y -0.301180 3.766960 -0.268980 
#    z 0.484870 -0.268980 3.656090 
# 
# 
# High freq. dielectric constant tensor:
#      x y z
#    x 1.778970 -0.011830 0.032810 
#    y -0.011830 1.775050 -0.013190 
#    z 0.032810 -0.013190 1.750720 
# 
# From -- ./inp_files/145412.got.cif
#   From: 2010.06.25/outbox.cif.g09.slc.cpg/sg2_73_cif.got.tgz:145412.got - 2010.06.27 13:26:56.
