data_PCOD8003331
_publ_section_title
;
Structure prediction by ZEFSAII (Michael W. Deem and Ramdas Pophale) SiO2 
 PCOD8003331
Probable space group: P -1
;
_chemical_formula_sum "Si O2"
_cell_formula_units_Z 14
_cell_length_a 14.567416
_cell_length_b 8.990404
_cell_length_c 8.427509
_cell_angle_alpha 62.581467
_cell_angle_beta 127.412453
_cell_angle_gamma 134.884275
_cell_volume 620.160347
_symmetry_space_group_name_H-M "P -1"
_symmetry_group_IT_number 2
_symmetry_cell_setting 'triclinic'
loop_
_space_group_symop_operation_xyz
x,y,z
-x,-y,-z
loop_
_atom_site_type_symbol
_atom_site_label
_atom_site_fract_x
_atom_site_fract_y
_atom_site_fract_z
Si Si1 0.851339 0.710823 0.607810
Si Si2 0.811966 0.980860 0.211418
Si Si3 0.708304 0.287015 0.493305
Si Si4 0.219059 0.205930 0.179039
Si Si5 0.602967 0.869644 0.762935
Si Si6 0.974165 0.737420 0.229210
Si Si7 0.869024 0.299355 0.340919
O O1 0.813610 0.495831 0.605599
O O2 0.775261 0.678656 0.713488
O O3 0.022299 0.869650 0.748980
O O4 0.790367 0.796553 0.382785
O O5 0.773059 0.115124 0.205514
O O6 0.696468 0.881694 0.000376
O O7 0.565333 0.266014 0.302781
O O8 0.778682 0.280779 0.408156
O O9 0.663548 0.099139 0.654703
O O10 0.375245 0.257887 0.284878
O O11 0.170667 0.280701 0.941777
O O12 0.109496 0.950702 0.189799
O O13 0.949538 0.528840 0.231106
O O14 0.008598 0.731285 0.455497
#
# Coordination Sequence:
#
# PCOD8003331 Si02
#       7
#     2   2   2   2   2   2   2
#     4  11  24  40  67 101 127 161 218 272 320 375
#     4  11  24  40  67 101 127 161 218 272 320 375
#     4  11  26  45  64  92 134 177 213 256 320 390
#     4  11  22  41  63  95 131 169 208 270 317 382
#     4  11  26  45  64  92 134 177 213 256 320 390
#     4  10  20  36  68  92 128 166 208 262 334 360
#     4  11  22  41  63  95 131 169 208 270 317 382
#
# _framework density 22.574808999999998
#
# number of rings (size 3 to 8) (size 9 to 14) (size 15 to 20)
#    0.000    1.143    2.857    3.429    8.000    2.286 
#    0.000    0.000    0.000    0.000    0.000    0.000 
#    0.000    0.000    0.000    0.000    0.000    0.000 
#
# Total GULP energy -173501.071974 kJ/mol
# GULP energy per Si atom -12392.933712 kJ/mol
# Density = 2.252343 g / cm^3
# Si number density = 22.574809 Si / 1000 Ang^3
#
#
#
# Elastic Constant Matrix: (Units=GPa)
#
#
# Indices 1 2 3 4 5 6 
#
# 1 104.5020 10.1309 23.8876 7.8312 -2.0768 -21.0935
# 2 10.1309 49.5474 10.7386 -10.5789 -5.4300 -17.1919
# 3 23.8876 10.7386 109.8494 -4.0262 17.8288 1.5121
# 4 7.8312 -10.5789 -4.0262 33.5105 -5.0059 3.4102
# 5 -2.0768 -5.4300 17.8288 -5.0059 28.1132 0.5491
# 6 -21.0935 -17.1919 1.5121 3.4102 0.5491 21.7287
#
#
#
# Elastic Compliance Matrix: (Units=1/GPa)
#
#
# Indices 1 2 3 4 5 6 
#
# 1 0.014087 0.003645 -0.004367 -0.003916 0.003477 0.017389
# 2 0.003645 0.033816 -0.006076 0.007837 0.011479 0.029196
# 3 -0.004367 -0.006076 0.012256 0.000212 -0.009041 -0.009704
# 4 -0.003916 0.007837 0.000212 0.034681 0.007329 -0.003244
# 5 0.003477 0.011479 -0.009041 0.007329 0.044872 0.010803
# 6 0.017389 0.029196 -0.009704 -0.003244 0.010803 0.086914
#
#
# Mechanical properties :
#
#
# Convention : Reuss Voigt Hill
#
# Bulk Modulus (GPa) = 21.47669 39.26812 30.37240
# Shear Modulus (GPa) = 19.55084 31.27992 25.41538
#
# Velocity S-wave (km/s) = 2.94606 3.72642 3.35898
# Velocity P-wave (km/s) = 4.59419 5.99561 5.34106
#
# Compressibility (1/GPa) = 0.04656212
#
# Stress axis : x y z
#
# Youngs Moduli (GPa) = 70.98966 29.57159 81.59476
#
# Poissons Ratio (x) = -0.10778 0.35630
# Poissons Ratio (y) = -0.25873 0.49578
# Poissons Ratio (z) = 0.30999 0.17968
#
# Static dielectric constant tensor:
#      x y z
#    x 4.220580 -0.230040 0.222340 
#    y -0.230040 4.096980 -0.264630 
#    z 0.222340 -0.264630 4.208920 
# 
# 
# High freq. dielectric constant tensor:
#      x y z
#    x 1.890540 -0.025780 0.007200 
#    y -0.025780 1.878450 -0.019590 
#    z 0.007200 -0.019590 1.890440 
# 
# From -- ./inp_files/240886.got.cif
#   From: 2010.06.25/outbox.cif.g09.slc.cpg/sg2_121_cif.got.tgz:240886.got - 2010.06.27 13:26:56.
