data_PCOD8003327
_publ_section_title
;
Structure prediction by ZEFSAII (Michael W. Deem and Ramdas Pophale) SiO2 
 PCOD8003327
Probable space group: P -1
;
_chemical_formula_sum "Si O2"
_cell_formula_units_Z 16
_cell_length_a 11.526645
_cell_length_b 9.056562
_cell_length_c 14.274766
_cell_angle_alpha 109.237105
_cell_angle_beta 154.082786
_cell_angle_gamma 73.944713
_cell_volume 614.237138
_symmetry_space_group_name_H-M "P -1"
_symmetry_group_IT_number 2
_symmetry_cell_setting 'triclinic'
loop_
_space_group_symop_operation_xyz
x,y,z
-x,-y,-z
loop_
_atom_site_type_symbol
_atom_site_label
_atom_site_fract_x
_atom_site_fract_y
_atom_site_fract_z
Si Si1 0.088247 0.859168 0.974337
Si Si2 0.505006 0.615549 0.719929
Si Si3 0.326525 0.702346 0.790786
Si Si4 0.218876 0.387799 0.725573
Si Si5 0.203683 0.438038 0.250315
Si Si6 0.908737 0.055576 0.208712
Si Si7 0.000865 0.710217 0.267172
Si Si8 0.598640 0.718116 0.352180
O O1 0.858000 0.721508 0.769118
O O2 0.201995 0.927473 0.972954
O O3 0.315728 0.782460 0.184751
O O4 0.000000 0.000000 0.000000
O O5 0.567854 0.702157 0.886650
O O6 0.781416 0.601738 0.859201
O O7 0.291695 0.712727 0.527651
O O8 0.366577 0.444256 0.602886
O O9 0.319907 0.572775 0.842563
O O10 0.085169 0.639001 0.534872
O O11 0.292488 0.874072 0.845502
O O12 0.397208 0.301000 0.762109
O O13 0.233013 0.317808 0.827561
O O14 0.500000 0.500000 0.500000
O O15 0.993169 0.568305 0.154872
O O16 0.179776 0.158165 0.427393
O O17 0.969745 0.878780 0.235778
#
# Coordination Sequence:
#
# PCOD8003327 Si02
#       8
#     2   2   2   2   2   2   2   2
#     4  12  29  47  67 101 139 177 228 284 335 407
#     4   9  19  38  65 100 126 178 230 272 325 396
#     4   8  15  33  65  94 131 169 225 273 325 400
#     4   8  15  34  62  99 127 175 229 272 327 396
#     4  10  22  43  69  94 132 182 225 270 327 402
#     4  11  23  42  68 100 139 180 219 278 349 397
#     4  10  20  36  68 102 134 177 227 275 329 407
#     4  10  23  43  71  96 135 182 225 278 337 405
#
# _framework density 26.048572
#
# number of rings (size 3 to 8) (size 9 to 14) (size 15 to 20)
#    0.000    2.250    0.000    4.500    5.250    5.500 
#    0.000    6.250    0.000    0.000    0.000    0.000 
#    0.000    0.000    0.000    0.000    0.000    0.000 
#
# Total GULP energy -198374.581222 kJ/mol
# GULP energy per Si atom -12398.411326 kJ/mol
# Density = 2.598928 g / cm^3
# Si number density = 26.048572 Si / 1000 Ang^3
#
#
#
# Elastic Constant Matrix: (Units=GPa)
#
#
# Indices 1 2 3 4 5 6 
#
# 1 166.4158 71.8718 4.3526 -14.0107 -1.5824 -13.5640
# 2 71.8718 206.8701 24.5995 -11.9791 -1.7248 -9.4827
# 3 4.3526 24.5995 31.8147 -5.3774 -1.9324 2.7444
# 4 -14.0107 -11.9791 -5.3774 23.6135 0.3515 -0.5188
# 5 -1.5824 -1.7248 -1.9324 0.3515 44.0191 -6.2433
# 6 -13.5640 -9.4827 2.7444 -0.5188 -6.2433 52.0535
#
#
#
# Elastic Compliance Matrix: (Units=1/GPa)
#
#
# Indices 1 2 3 4 5 6 
#
# 1 0.007468 -0.002484 0.001388 0.003514 0.000418 0.001505
# 2 -0.002484 0.006306 -0.004475 0.000722 0.000062 0.000752
# 3 0.001388 -0.004475 0.036089 0.006708 0.001099 -0.002157
# 4 0.003514 0.000722 0.006708 0.046350 0.000247 0.001185
# 5 0.000418 0.000062 0.001099 0.000247 0.023185 0.002845
# 6 0.001505 0.000752 -0.002157 0.001185 0.002845 0.020207
#
#
# Mechanical properties :
#
#
# Convention : Reuss Voigt Hill
#
# Bulk Modulus (GPa) = 25.82538 67.41648 46.62093
# Shear Modulus (GPa) = 30.55257 44.22234 37.38745
#
# Velocity S-wave (km/s) = 3.42849 4.12477 3.79264
# Velocity P-wave (km/s) = 5.06049 6.97296 6.09224
#
# Compressibility (1/GPa) = 0.03872160
#
# Stress axis : x y z
#
# Youngs Moduli (GPa) = 133.90665 158.58540 27.70932
#
# Poissons Ratio (x) = 0.39387 -0.03846
# Poissons Ratio (y) = 0.33257 0.12400
# Poissons Ratio (z) = -0.18588 0.70967
#
# Static dielectric constant tensor:
#      x y z
#    x 5.904940 -0.303260 0.011900 
#    y -0.303260 4.447020 -0.082200 
#    z 0.011900 -0.082200 4.726850 
# 
# 
# High freq. dielectric constant tensor:
#      x y z
#    x 2.066800 -0.008770 -0.000420 
#    y -0.008770 2.027660 -0.008820 
#    z -0.000420 -0.008820 2.065870 
# 
# From -- ./inp_files/516028.got.cif
#   From: 2010.06.25/outbox.cif.g09.slc.cpg/sg2_259_cif.got.tgz:516028.got - 2010.06.27 13:26:56.
