data_PCOD8003388
_publ_section_title
;
Structure prediction by ZEFSAII (Michael W. Deem and Ramdas Pophale) SiO2 
 PCOD8003388
Probable space group: P -1
;
_chemical_formula_sum "Si O2"
_cell_formula_units_Z 16
_cell_length_a 14.554388
_cell_length_b 8.422632
_cell_length_c 10.582667
_cell_angle_alpha 136.556323
_cell_angle_beta 90.709467
_cell_angle_gamma 69.204636
_cell_volume 770.805482
_symmetry_space_group_name_H-M "P -1"
_symmetry_group_IT_number 2
_symmetry_cell_setting 'triclinic'
loop_
_space_group_symop_operation_xyz
x,y,z
-x,-y,-z
loop_
_atom_site_type_symbol
_atom_site_label
_atom_site_fract_x
_atom_site_fract_y
_atom_site_fract_z
Si Si1 0.799364 0.890518 0.496235
Si Si2 0.310040 0.579388 0.350232
Si Si3 0.588997 0.543140 0.466526
Si Si4 0.414106 0.943330 0.285903
Si Si5 0.117249 0.559097 0.283151
Si Si6 0.469184 0.569958 0.846817
Si Si7 0.957529 0.015010 0.690654
Si Si8 0.019694 0.601467 0.927527
O O1 0.873628 0.614897 0.266919
O O2 0.755508 0.114907 0.516528
O O3 0.702744 0.879952 0.554738
O O4 0.859120 0.960098 0.647706
O O5 0.313520 0.574603 0.500967
O O6 0.244830 0.433016 0.218533
O O7 0.426684 0.426175 0.201268
O O8 0.500000 0.500000 0.500000
O O9 0.613392 0.397854 0.246536
O O10 0.541247 0.859104 0.626406
O O11 0.495055 0.710091 0.244784
O O12 0.404934 0.816502 0.081135
O O13 0.059004 0.771505 0.293117
O O14 0.081728 0.336861 0.129747
O O15 0.066204 0.731497 0.509677
O O16 0.967671 0.138532 0.896351
O O17 0.000000 0.500000 0.000000
#
# Coordination Sequence:
#
# PCOD8003388 Si02
#       8
#     2   2   2   2   2   2   2   2
#     4   9  18  31  50  77 106 134 170 217 259 302
#     4   9  17  32  50  75 107 134 167 215 263 307
#     4  10  21  36  54  77 106 138 175 220 265 311
#     4  10  20  37  56  76 104 139 178 217 259 312
#     4   8  14  26  43  69 103 131 160 207 255 297
#     4   9  20  37  56  75 101 139 179 217 260 308
#     4   8  14  26  44  70 102 130 164 208 251 297
#     4   9  15  26  48  77 104 132 169 213 259 300
#
# _framework density 20.757507
#
# number of rings (size 3 to 8) (size 9 to 14) (size 15 to 20)
#    0.000    3.000    0.000    2.625    0.000    3.000 
#    0.000   22.500    0.000    3.000    0.000    7.875 
#    0.000    0.000    0.000    0.000    0.000    0.000 
#
# Total GULP energy -198213.745638 kJ/mol
# GULP energy per Si atom -12388.359102 kJ/mol
# Density = 2.071026 g / cm^3
# Si number density = 20.757507 Si / 1000 Ang^3
#
#
#
# Elastic Constant Matrix: (Units=GPa)
#
#
# Indices 1 2 3 4 5 6 
#
# 1 97.1244 39.9520 57.5381 -5.2692 15.3207 -5.0742
# 2 39.9520 58.9450 34.7726 -22.0255 9.9875 -4.7559
# 3 57.5381 34.7726 125.3323 -22.4029 20.3587 0.8480
# 4 -5.2692 -22.0255 -22.4029 20.7517 -3.4939 8.2066
# 5 15.3207 9.9875 20.3587 -3.4939 32.5674 -5.3604
# 6 -5.0742 -4.7559 0.8480 8.2066 -5.3604 25.9584
#
#
#
# Elastic Compliance Matrix: (Units=1/GPa)
#
#
# Indices 1 2 3 4 5 6 
#
# 1 0.024890 -0.021908 -0.011649 -0.034221 0.000625 0.012180
# 2 -0.021908 0.049579 0.008418 0.061507 -0.006229 -0.016205
# 3 -0.011649 0.008418 0.017150 0.027910 -0.006722 -0.011507
# 4 -0.034221 0.061507 0.027910 0.151380 -0.011640 -0.046593
# 5 0.000625 -0.006229 -0.006722 -0.011640 0.037007 0.010522
# 6 0.012180 -0.016205 -0.011507 -0.046593 0.010522 0.055214
#
#
# Mechanical properties :
#
#
# Convention : Reuss Voigt Hill
#
# Bulk Modulus (GPa) = 24.18952 60.65857 42.42405
# Shear Modulus (GPa) = 12.52258 25.79810 19.16034
#
# Velocity S-wave (km/s) = 2.45884 3.52921 3.04148
# Velocity P-wave (km/s) = 4.44296 6.77444 5.72856
#
# Compressibility (1/GPa) = 0.04134021
#
# Stress axis : x y z
#
# Youngs Moduli (GPa) = 40.17599 20.16988 58.30953
#
# Poissons Ratio (x) = 0.44189 0.67927
# Poissons Ratio (y) = 0.88019 -0.49087
# Poissons Ratio (z) = 0.46802 -0.16980
#
# Static dielectric constant tensor:
#      x y z
#    x 3.980870 -0.193120 0.436350 
#    y -0.193120 3.716230 -0.397220 
#    z 0.436350 -0.397220 3.971100 
# 
# 
# High freq. dielectric constant tensor:
#      x y z
#    x 1.814380 -0.004150 0.019830 
#    y -0.004150 1.774600 -0.019990 
#    z 0.019830 -0.019990 1.801270 
# 
# From -- ./inp_files/448348.got.cif
#   From: 2010.06.25/outbox.cif.g09.slc.cpg/sg2_225_cif.got.tgz:448348.got - 2010.06.27 13:26:56.
