data_PCOD8003125
_publ_section_title
;
Structure prediction by ZEFSAII (Michael W. Deem and Ramdas Pophale) SiO2 
 PCOD8003125
Probable space group: P -1
;
_chemical_formula_sum "Si O2"
_cell_formula_units_Z 16
_cell_length_a 8.075678
_cell_length_b 15.338607
_cell_length_c 26.881068
_cell_angle_alpha 18.557086
_cell_angle_beta 135.431942
_cell_angle_gamma 128.441255
_cell_volume 721.856098
_symmetry_space_group_name_H-M "P -1"
_symmetry_group_IT_number 2
_symmetry_cell_setting 'triclinic'
loop_
_space_group_symop_operation_xyz
x,y,z
-x,-y,-z
loop_
_atom_site_type_symbol
_atom_site_label
_atom_site_fract_x
_atom_site_fract_y
_atom_site_fract_z
Si Si1 0.425431 0.565847 0.030386
Si Si2 0.034432 0.138050 0.803455
Si Si3 0.867200 0.695147 0.517921
Si Si4 0.318818 0.421013 0.632664
Si Si5 0.377561 0.115675 0.186556
Si Si6 0.924314 0.897142 0.318181
Si Si7 0.851047 0.223636 0.885711
Si Si8 0.887896 0.314585 0.322872
O O1 0.327890 0.345702 0.095201
O O2 0.603522 0.405147 0.198607
O O3 0.559525 0.752407 0.923391
O O4 0.195723 0.773688 0.897218
O O5 0.216233 0.253978 0.744650
O O6 0.861095 0.386048 0.664267
O O7 0.867697 0.987835 0.815879
O O8 0.195688 0.918919 0.995463
O O9 0.953791 0.875799 0.395446
O O10 0.070691 0.665317 0.620317
O O11 0.597945 0.855055 0.391852
O O12 0.257152 0.297091 0.633761
O O13 0.603268 0.378301 0.721953
O O14 0.187804 0.759031 0.424286
O O15 0.985915 0.467502 0.796111
O O16 0.000000 0.000000 0.000000
O O17 0.000000 0.000000 0.500000
#
# Coordination Sequence:
#
# PCOD8003125 Si02
#       8
#     2   2   2   2   2   2   2   2
#     4  10  20  38  63  91 131 173 220 263 320 388
#     4  11  22  39  65 100 132 172 217 269 335 386
#     4  10  21  35  63  98 131 167 220 269 327 377
#     4  10  23  42  64  96 136 168 214 274 330 390
#     4  10  20  36  62  96 131 169 217 275 311 384
#     4   9  21  41  64  88 130 174 216 266 324 386
#     4  12  24  40  68  99 131 169 218 273 326 388
#     4  12  23  39  62 102 136 170 213 276 332 384
#
# _framework density 22.165082999999999
#
# number of rings (size 3 to 8) (size 9 to 14) (size 15 to 20)
#    0.000    1.500    3.750    1.500    1.750    3.000 
#    0.000    0.625    2.750    3.750    0.000    0.000 
#    0.000    0.000    0.000    0.000    0.000    0.000 
#
# Total GULP energy -198381.904423 kJ/mol
# GULP energy per Si atom -12398.869026 kJ/mol
# Density = 2.211463 g / cm^3
# Si number density = 22.165083 Si / 1000 Ang^3
#
#
#
# Elastic Constant Matrix: (Units=GPa)
#
#
# Indices 1 2 3 4 5 6 
#
# 1 36.4913 24.9707 26.0541 -1.1630 12.2334 -8.8375
# 2 24.9707 117.5756 58.8897 2.3302 19.0972 -10.4849
# 3 26.0541 58.8897 157.7939 2.9093 28.3956 -9.2223
# 4 -1.1630 2.3302 2.9093 51.9571 -5.7527 -4.7662
# 5 12.2334 19.0972 28.3956 -5.7527 43.5063 5.0077
# 6 -8.8375 -10.4849 -9.2223 -4.7662 5.0077 27.9687
#
#
#
# Elastic Compliance Matrix: (Units=1/GPa)
#
#
# Indices 1 2 3 4 5 6 
#
# 1 0.037682 -0.004488 -0.002461 0.001300 -0.008124 0.011089
# 2 -0.004488 0.011534 -0.003042 -0.000481 -0.002133 0.002203
# 3 -0.002461 -0.003042 0.008685 -0.000698 -0.003909 0.001526
# 4 0.001300 -0.000481 -0.000698 0.019892 0.002595 0.002926
# 5 -0.008124 -0.002133 -0.003909 0.002595 0.030207 -0.009622
# 6 0.011089 0.002203 0.001526 0.002926 -0.009622 0.042809
#
#
# Mechanical properties :
#
#
# Convention : Reuss Voigt Hill
#
# Bulk Modulus (GPa) = 26.37177 59.07666 42.72421
# Shear Modulus (GPa) = 27.25817 38.14950 32.70384
#
# Velocity S-wave (km/s) = 3.51063 4.15318 3.84535
# Velocity P-wave (km/s) = 5.32507 7.05049 6.24763
#
# Compressibility (1/GPa) = 0.03791934
#
# Stress axis : x y z
#
# Youngs Moduli (GPa) = 26.53768 86.69691 115.14594
#
# Poissons Ratio (x) = 0.38907 0.28337
# Poissons Ratio (y) = 0.11909 0.35031
# Poissons Ratio (z) = 0.06531 0.26376
#
# Static dielectric constant tensor:
#      x y z
#    x 3.583090 -0.206570 0.019050 
#    y -0.206570 3.942250 0.001080 
#    z 0.019050 0.001080 4.432460 
# 
# 
# High freq. dielectric constant tensor:
#      x y z
#    x 1.840460 -0.019990 -0.003280 
#    y -0.019990 1.871300 0.005820 
#    z -0.003280 0.005820 1.896900 
# 
# From -- ./inp_files/273900.got.cif
#   From: 2010.06.25/outbox.cif.g09.slc.cpg/sg2_137_cif.got.tgz:273900.got - 2010.06.27 13:26:56.
