data_PCOD8003517
_publ_section_title
;
Structure prediction by ZEFSAII (Michael W. Deem and Ramdas Pophale) SiO2 
 PCOD8003517
Probable space group: P -1
;
_chemical_formula_sum "Si O2"
_cell_formula_units_Z 16
_cell_length_a 19.354947
_cell_length_b 9.454910
_cell_length_c 11.838234
_cell_angle_alpha 106.415561
_cell_angle_beta 30.803581
_cell_angle_gamma 84.663868
_cell_volume 776.831761
_symmetry_space_group_name_H-M "P -1"
_symmetry_group_IT_number 2
_symmetry_cell_setting 'triclinic'
loop_
_space_group_symop_operation_xyz
x,y,z
-x,-y,-z
loop_
_atom_site_type_symbol
_atom_site_label
_atom_site_fract_x
_atom_site_fract_y
_atom_site_fract_z
Si Si1 0.449361 0.280412 0.906286
Si Si2 0.741505 0.437238 0.568244
Si Si3 0.091798 0.148708 0.533950
Si Si4 0.931874 0.387036 0.593616
Si Si5 0.143010 0.378807 0.674489
Si Si6 0.022135 0.064568 0.240357
Si Si7 0.789638 0.157006 0.287106
Si Si8 0.533137 0.036035 0.086215
O O1 0.653187 0.141806 0.535153
O O2 0.415515 0.132983 0.938454
O O3 0.437564 0.374774 0.066275
O O4 0.285052 0.465070 0.099794
O O5 0.871415 0.482764 0.369851
O O6 0.696311 0.386622 0.501537
O O7 0.848833 0.234183 0.443578
O O8 0.113395 0.240520 0.631221
O O9 0.950037 0.328951 0.685767
O O10 0.020908 0.042921 0.645497
O O11 0.295755 0.978044 0.153084
O O12 0.000000 0.500000 0.500000
O O13 0.057559 0.179611 0.296403
O O14 0.338677 0.257121 0.437799
O O15 0.000000 0.500000 0.000000
O O16 0.199428 0.889682 0.872653
O O17 0.000000 0.000000 0.000000
O O18 0.500000 0.000000 0.000000
#
# Coordination Sequence:
#
# PCOD8003517 Si02
#       8
#     2   2   2   2   2   2   2   2
#     4  11  21  40  61  94 121 170 210 249 302 375
#     4  10  20  37  58  92 123 167 198 249 309 375
#     4  11  21  42  63  90 123 166 207 253 306 365
#     4  11  22  44  66  87 120 164 222 254 295 374
#     4  11  23  36  61  94 130 155 201 259 314 365
#     4  10  23  38  62  91 120 161 208 259 311 358
#     4  10  23  36  60  91 132 158 198 255 318 365
#     4  10  21  35  62  89 127 156 209 252 306 364
#
# _framework density 20.59648
#
# number of rings (size 3 to 8) (size 9 to 14) (size 15 to 20)
#    0.000    1.500    3.750    2.250   10.500    2.000 
#    0.000    2.500    0.000    0.000    0.000    0.000 
#    0.000    0.000    0.000    0.000    0.000    0.000 
#
# Total GULP energy -198227.450779 kJ/mol
# GULP energy per Si atom -12389.215674 kJ/mol
# Density = 2.054960 g / cm^3
# Si number density = 20.596480 Si / 1000 Ang^3
#
#
#
# Elastic Constant Matrix: (Units=GPa)
#
#
# Indices 1 2 3 4 5 6 
#
# 1 68.2209 37.4709 45.1898 -0.8877 8.6169 6.6369
# 2 37.4709 144.9638 46.4963 -12.9250 11.1289 2.0276
# 3 45.1898 46.4963 151.1814 -19.5221 15.2162 -3.7777
# 4 -0.8877 -12.9250 -19.5221 28.8030 -1.9656 -2.5285
# 5 8.6169 11.1289 15.2162 -1.9656 27.0220 8.3198
# 6 6.6369 2.0276 -3.7777 -2.5285 8.3198 35.0041
#
#
#
# Elastic Compliance Matrix: (Units=1/GPa)
#
#
# Indices 1 2 3 4 5 6 
#
# 1 0.021208 -0.003969 -0.005874 -0.005570 -0.000798 -0.004638
# 2 -0.003969 0.008604 -0.000855 0.003107 -0.001823 0.000820
# 3 -0.005874 -0.000855 0.009933 0.006212 -0.004038 0.003644
# 4 -0.005570 0.003107 0.006212 0.040471 -0.001547 0.004838
# 5 -0.000798 -0.001823 -0.004038 -0.001547 0.043442 -0.010616
# 6 -0.004638 0.000820 0.003644 0.004838 -0.010616 0.032666
#
#
# Mechanical properties :
#
#
# Convention : Reuss Voigt Hill
#
# Bulk Modulus (GPa) = 54.49300 69.18668 61.83984
# Shear Modulus (GPa) = 27.19844 33.84640 30.52242
#
# Velocity S-wave (km/s) = 3.63786 4.05817 3.85375
# Velocity P-wave (km/s) = 6.64532 7.45807 7.06339
#
# Compressibility (1/GPa) = 0.01835098
#
# Stress axis : x y z
#
# Youngs Moduli (GPa) = 47.15141 116.22885 100.67679
#
# Poissons Ratio (x) = 0.46126 0.59134
# Poissons Ratio (y) = 0.18712 0.08605
# Poissons Ratio (z) = 0.27695 0.09934
#
# Static dielectric constant tensor:
#      x y z
#    x 3.620770 0.212720 0.491010 
#    y 0.212720 3.691110 -0.080840 
#    z 0.491010 -0.080840 3.735580 
# 
# 
# High freq. dielectric constant tensor:
#      x y z
#    x 1.776290 0.005650 0.011970 
#    y 0.005650 1.814410 -0.001530 
#    z 0.011970 -0.001530 1.799600 
# 
# From -- ./inp_files/346353.got.cif
#   From: 2010.06.25/outbox.cif.g09.slc.cpg/sg2_174_cif.got.tgz:346353.got - 2010.06.27 13:26:56.
