data_PCOD8003099
_publ_section_title
;
Structure prediction by ZEFSAII (Michael W. Deem and Ramdas Pophale) SiO2 
 PCOD8003099
Probable space group: P -1
;
_chemical_formula_sum "Si O2"
_cell_formula_units_Z 14
_cell_length_a 10.460144
_cell_length_b 11.703887
_cell_length_c 10.574373
_cell_angle_alpha 82.098010
_cell_angle_beta 123.284689
_cell_angle_gamma 52.593250
_cell_volume 606.145386
_symmetry_space_group_name_H-M "P -1"
_symmetry_group_IT_number 2
_symmetry_cell_setting 'triclinic'
loop_
_space_group_symop_operation_xyz
x,y,z
-x,-y,-z
loop_
_atom_site_type_symbol
_atom_site_label
_atom_site_fract_x
_atom_site_fract_y
_atom_site_fract_z
Si Si1 0.903178 0.242224 0.670281
Si Si2 0.330259 0.523877 0.249027
Si Si3 0.151258 0.605541 0.856483
Si Si4 0.820915 0.713343 0.314659
Si Si5 0.782242 0.657844 0.752219
Si Si6 0.585779 0.176758 0.083111
Si Si7 0.311156 0.028083 0.595397
O O1 0.637130 0.374592 0.427282
O O2 0.841567 0.286945 0.779667
O O3 0.998815 0.304610 0.656888
O O4 0.128563 0.001275 0.808436
O O5 0.333356 0.395920 0.337803
O O6 0.197051 0.614680 0.024286
O O7 0.943639 0.623586 0.733728
O O8 0.988203 0.802336 0.657175
O O9 0.430556 0.397101 0.967225
O O10 0.669374 0.868873 0.325578
O O11 0.000000 0.500000 0.500000
O O12 0.597493 0.807214 0.082267
O O13 0.541469 0.890290 0.634617
O O14 0.000000 0.500000 0.000000
O O15 0.634049 0.117802 0.265952
#
# Coordination Sequence:
#
# PCOD8003099 Si02
#       7
#     2   2   2   2   2   2   2
#     4  10  23  41  67  91 126 175 205 256 328 368
#     4  10  22  42  64  93 130 168 210 255 315 387
#     4  11  22  38  66  98 124 165 213 263 310 373
#     4  11  23  40  67  94 127 162 215 264 309 375
#     4  10  20  36  62  91 126 160 210 253 307 369
#     4  11  22  41  65  93 123 163 214 261 317 364
#     4  11  21  38  61 100 122 164 207 259 327 351
#
# _framework density 23.096768999999998
#
# number of rings (size 3 to 8) (size 9 to 14) (size 15 to 20)
#    0.000    1.429    4.286    3.000    6.000    0.571 
#    0.000    4.286    0.000    3.429    0.000    0.000 
#    0.000    0.000    0.000    0.000    0.000    0.000 
#
# Total GULP energy -173541.241221 kJ/mol
# GULP energy per Si atom -12395.802944 kJ/mol
# Density = 2.304420 g / cm^3
# Si number density = 23.096769 Si / 1000 Ang^3
#
#
#
# Elastic Constant Matrix: (Units=GPa)
#
#
# Indices 1 2 3 4 5 6 
#
# 1 30.5159 4.7002 31.8443 -3.1209 11.6129 -13.6717
# 2 4.7002 103.3941 52.1312 -23.6432 0.2120 -31.1980
# 3 31.8443 52.1312 152.3733 -9.5497 -2.7095 -17.0130
# 4 -3.1209 -23.6432 -9.5497 51.2283 -4.2392 8.7913
# 5 11.6129 0.2120 -2.7095 -4.2392 32.1051 -5.9438
# 6 -13.6717 -31.1980 -17.0130 8.7913 -5.9438 29.2218
#
#
#
# Elastic Compliance Matrix: (Units=1/GPa)
#
#
# Indices 1 2 3 4 5 6 
#
# 1 0.073039 0.016987 -0.017171 0.000874 -0.020866 0.037803
# 2 0.016987 0.021360 -0.007859 0.005115 -0.001779 0.024276
# 3 -0.017171 -0.007859 0.012001 -0.000573 0.005700 -0.008105
# 4 0.000874 0.005115 -0.000573 0.022135 0.002407 -0.000634
# 5 -0.020866 -0.001779 0.005700 0.002407 0.039307 -0.001073
# 6 0.037803 0.024276 -0.008105 -0.000634 -0.001073 0.073079
#
#
# Mechanical properties :
#
#
# Convention : Reuss Voigt Hill
#
# Bulk Modulus (GPa) = 11.07249 51.51496 31.29373
# Shear Modulus (GPa) = 17.41477 35.68488 26.54982
#
# Velocity S-wave (km/s) = 2.74887 3.93493 3.39411
# Velocity P-wave (km/s) = 3.85738 6.55723 5.37944
#
# Compressibility (1/GPa) = 0.09031389
#
# Stress axis : x y z
#
# Youngs Moduli (GPa) = 13.69127 46.81617 83.32976
#
# Poissons Ratio (x) = -0.79527 1.43089
# Poissons Ratio (y) = -0.23257 0.65485
# Poissons Ratio (z) = 0.23510 0.36791
#
# Static dielectric constant tensor:
#      x y z
#    x 4.781240 -0.070660 -0.198870 
#    y -0.070660 4.400520 -0.128150 
#    z -0.198870 -0.128150 4.431550 
# 
# 
# High freq. dielectric constant tensor:
#      x y z
#    x 1.879390 -0.017230 0.002620 
#    y -0.017230 1.921700 -0.008000 
#    z 0.002620 -0.008000 1.922710 
# 
# From -- ./inp_files/426025.got.cif
#   From: 2010.06.25/outbox.cif.g09.slc.cpg/sg2_214_cif.got.tgz:426025.got - 2010.06.27 13:26:56.
