data_PCOD8003260
_publ_section_title
;
Structure prediction by ZEFSAII (Michael W. Deem and Ramdas Pophale) SiO2 
 PCOD8003260
Probable space group: P -1
;
_chemical_formula_sum "Si O2"
_cell_formula_units_Z 16
_cell_length_a 8.910566
_cell_length_b 11.576327
_cell_length_c 23.723908
_cell_angle_alpha 151.217130
_cell_angle_beta 144.263644
_cell_angle_gamma 41.126153
_cell_volume 680.527806
_symmetry_space_group_name_H-M "P -1"
_symmetry_group_IT_number 2
_symmetry_cell_setting 'triclinic'
loop_
_space_group_symop_operation_xyz
x,y,z
-x,-y,-z
loop_
_atom_site_type_symbol
_atom_site_label
_atom_site_fract_x
_atom_site_fract_y
_atom_site_fract_z
Si Si1 0.955544 0.942841 0.724673
Si Si2 0.695851 0.769880 0.980521
Si Si3 0.896173 0.720488 0.809960
Si Si4 0.045684 0.789495 0.999548
Si Si5 0.952164 0.490388 0.610918
Si Si6 0.546152 0.694411 0.265023
Si Si7 0.699504 0.141982 0.312899
Si Si8 0.591185 0.705323 0.156596
O O1 0.976974 0.731314 0.686693
O O2 0.087731 0.836291 0.661425
O O3 0.654624 0.064300 0.678857
O O4 0.113748 0.154804 0.881817
O O5 0.856257 0.672287 0.932373
O O6 0.570897 0.553968 0.875648
O O7 0.500000 0.000000 0.000000
O O8 0.060581 0.608704 0.869800
O O9 0.599544 0.808732 0.779112
O O10 0.879961 0.545966 0.678017
O O11 0.061791 0.938746 0.938997
O O12 0.296339 0.847573 0.135524
O O13 0.231490 0.317642 0.624438
O O14 0.736194 0.347548 0.457801
O O15 0.684515 0.673454 0.236356
O O16 0.760358 0.877079 0.247334
O O17 0.500000 0.500000 0.000000
#
# Coordination Sequence:
#
# PCOD8003260 Si02
#       8
#     2   2   2   2   2   2   2   2
#     4  12  24  46  68  99 145 180 233 292 342 416
#     4  12  21  40  69 102 137 173 224 288 352 405
#     4  10  20  41  67  99 133 175 228 289 341 406
#     4  10  20  36  64  98 132 169 219 277 352 399
#     4  12  25  48  68 100 139 190 238 281 340 421
#     4  12  26  42  72 102 142 185 227 286 354 412
#     4  11  26  43  71  99 138 190 234 282 350 408
#     4  11  23  43  65 101 139 171 225 292 343 412
#
# _framework density 23.511164999999998
#
# number of rings (size 3 to 8) (size 9 to 14) (size 15 to 20)
#    0.000    0.750    3.750    4.125    1.750    3.000 
#    0.000    1.250    0.000    0.000    0.000    0.000 
#    0.000    0.000    0.000    0.000    0.000    0.000 
#
# Total GULP energy -198262.613133 kJ/mol
# GULP energy per Si atom -12391.413321 kJ/mol
# Density = 2.345765 g / cm^3
# Si number density = 23.511165 Si / 1000 Ang^3
#
#
#
# Elastic Constant Matrix: (Units=GPa)
#
#
# Indices 1 2 3 4 5 6 
#
# 1 94.2036 19.7338 19.5981 0.7090 -16.3022 2.6881
# 2 19.7338 89.8131 10.1347 -13.7047 3.5277 8.4807
# 3 19.5981 10.1347 92.5802 -10.6984 -7.0008 13.6382
# 4 0.7090 -13.7047 -10.6984 26.7310 -0.7067 2.6580
# 5 -16.3022 3.5277 -7.0008 -0.7067 33.8358 -0.5880
# 6 2.6881 8.4807 13.6382 2.6580 -0.5880 32.8628
#
#
#
# Elastic Compliance Matrix: (Units=1/GPa)
#
#
# Indices 1 2 3 4 5 6 
#
# 1 0.012847 -0.003351 -0.002415 -0.002983 0.005997 0.001165
# 2 -0.003351 0.013456 0.000488 0.007512 -0.002830 -0.004059
# 3 -0.002415 0.000488 0.012925 0.006099 0.001487 -0.005759
# 4 -0.002983 0.007512 0.006099 0.044556 -0.000164 -0.007832
# 5 0.005997 -0.002830 0.001487 -0.000164 0.033047 0.000227
# 6 0.001165 -0.004059 -0.005759 -0.007832 0.000227 0.034409
#
#
# Mechanical properties :
#
#
# Convention : Reuss Voigt Hill
#
# Bulk Modulus (GPa) = 34.87731 41.72556 38.30143
# Shear Modulus (GPa) = 29.17948 33.82794 31.50371
#
# Velocity S-wave (km/s) = 3.52673 3.79727 3.66450
# Velocity P-wave (km/s) = 5.60806 6.08369 5.85071
#
# Compressibility (1/GPa) = 0.02867194
#
# Stress axis : x y z
#
# Youngs Moduli (GPa) = 77.84050 74.31585 77.36985
#
# Poissons Ratio (x) = 0.24902 0.18688
# Poissons Ratio (y) = 0.26083 -0.03778
# Poissons Ratio (z) = 0.18802 -0.03629
#
# Static dielectric constant tensor:
#      x y z
#    x 4.363610 0.051140 -0.041640 
#    y 0.051140 3.334360 0.105770 
#    z -0.041640 0.105770 3.916020 
# 
# 
# High freq. dielectric constant tensor:
#      x y z
#    x 1.939650 -0.001640 -0.007370 
#    y -0.001640 1.950030 -0.012630 
#    z -0.007370 -0.012630 1.909230 
# 
# From -- ./inp_files/607708.got.cif
#   From: 2010.06.25/outbox.cif.g09.slc.cpg/sg2_304_cif.got.tgz:607708.got - 2010.06.27 13:26:56.
