data_PCOD8003542
_publ_section_title
;
Structure prediction by ZEFSAII (Michael W. Deem and Ramdas Pophale) SiO2 
 PCOD8003542
Probable space group: P -1
;
_chemical_formula_sum "Si O2"
_cell_formula_units_Z 16
_cell_length_a 8.574235
_cell_length_b 12.082057
_cell_length_c 14.468645
_cell_angle_alpha 109.870947
_cell_angle_beta 72.978162
_cell_angle_gamma 51.331326
_cell_volume 798.823718
_symmetry_space_group_name_H-M "P -1"
_symmetry_group_IT_number 2
_symmetry_cell_setting 'triclinic'
loop_
_space_group_symop_operation_xyz
x,y,z
-x,-y,-z
loop_
_atom_site_type_symbol
_atom_site_label
_atom_site_fract_x
_atom_site_fract_y
_atom_site_fract_z
Si Si1 0.370405 0.997840 0.942064
Si Si2 0.545729 0.606476 0.051771
Si Si3 0.581511 0.223346 0.586761
Si Si4 0.610107 0.617192 0.844499
Si Si5 0.195293 0.220443 0.339142
Si Si6 0.132253 0.387290 0.585102
Si Si7 0.258323 0.590771 0.859196
Si Si8 0.122619 0.002659 0.343856
O O1 0.422605 0.830729 0.901147
O O2 0.503521 0.959515 0.810921
O O3 0.046271 0.200643 0.057078
O O4 0.500000 0.000000 0.000000
O O5 0.753420 0.485275 0.068645
O O6 0.264035 0.833685 0.197153
O O7 0.500000 0.500000 0.000000
O O8 0.668750 0.602050 0.939860
O O9 0.389180 0.246646 0.569667
O O10 0.399800 0.441215 0.707876
O O11 0.701288 0.088689 0.618199
O O12 0.824414 0.122984 0.449088
O O13 0.445053 0.594800 0.847965
O O14 0.898933 0.445545 0.692443
O O15 0.234345 0.259578 0.441507
O O16 0.984317 0.416172 0.366565
O O17 0.081676 0.154900 0.350462
#
# Coordination Sequence:
#
# PCOD8003542 Si02
#       8
#     2   2   2   2   2   2   2   2
#     4  11  22  37  58  85 116 148 188 234 282 337
#     4   9  20  36  58  85 113 146 189 236 280 333
#     4  10  22  38  59  84 113 151 190 233 283 335
#     4  10  20  37  59  83 114 151 189 232 284 337
#     4  10  22  39  57  84 118 149 188 235 279 335
#     4  10  22  39  58  84 117 151 189 234 282 333
#     4  10  20  37  59  83 114 150 189 234 282 335
#     4  10  21  39  59  84 115 149 191 234 281 339
#
# _framework density 20.029450000000001
#
# number of rings (size 3 to 8) (size 9 to 14) (size 15 to 20)
#    0.000    2.000    0.000    3.375    0.000    5.000 
#    0.000    8.125    0.000    0.000    0.000    0.000 
#    0.000    0.000    0.000    0.000    0.000    0.000 
#
# Total GULP energy -198406.467099 kJ/mol
# GULP energy per Si atom -12400.404194 kJ/mol
# Density = 1.998386 g / cm^3
# Si number density = 20.029450 Si / 1000 Ang^3
#
#
#
# Elastic Constant Matrix: (Units=GPa)
#
#
# Indices 1 2 3 4 5 6 
#
# 1 90.2938 37.2855 52.8554 -2.6842 -11.4945 -14.0442
# 2 37.2855 68.7032 49.1553 -13.0945 -16.9419 -1.2427
# 3 52.8554 49.1553 141.4701 -14.7767 -1.4278 -7.6995
# 4 -2.6842 -13.0945 -14.7767 32.8155 -1.0033 -1.9931
# 5 -11.4945 -16.9419 -1.4278 -1.0033 32.6413 2.3585
# 6 -14.0442 -1.2427 -7.6995 -1.9931 2.3585 35.9216
#
#
#
# Elastic Compliance Matrix: (Units=1/GPa)
#
#
# Indices 1 2 3 4 5 6 
#
# 1 0.017093 -0.006101 -0.004223 -0.002550 0.002208 0.005280
# 2 -0.006101 0.026626 -0.006243 0.007485 0.011857 -0.003165
# 3 -0.004223 -0.006243 0.011036 0.002057 -0.004246 0.000891
# 4 -0.002550 0.007485 0.002057 0.034383 0.004037 0.001346
# 5 0.002208 0.011857 -0.004246 0.004037 0.037642 -0.001884
# 6 0.005280 -0.003165 0.000891 0.001346 -0.001884 0.030183
#
#
# Mechanical properties :
#
#
# Convention : Reuss Voigt Hill
#
# Bulk Modulus (GPa) = 46.25026 64.33995 55.29510
# Shear Modulus (GPa) = 25.34159 31.02042 28.18100
#
# Velocity S-wave (km/s) = 3.56085 3.93967 3.75504
# Velocity P-wave (km/s) = 6.32830 7.27235 6.81669
#
# Compressibility (1/GPa) = 0.02162150
#
# Stress axis : x y z
#
# Youngs Moduli (GPa) = 58.50428 37.55684 90.61125
#
# Poissons Ratio (x) = 0.22913 0.38265
# Poissons Ratio (y) = 0.35693 0.56569
# Poissons Ratio (z) = 0.24706 0.23447
#
# Static dielectric constant tensor:
#      x y z
#    x 3.371200 0.072350 0.128330 
#    y 0.072350 4.179400 -0.057990 
#    z 0.128330 -0.057990 4.043830 
# 
# 
# High freq. dielectric constant tensor:
#      x y z
#    x 1.767350 0.006100 0.011170 
#    y 0.006100 1.787060 -0.007070 
#    z 0.011170 -0.007070 1.800420 
# 
# From -- ./inp_files/295518.got.cif
#   From: 2010.06.25/outbox.cif.g09.slc.cpg/sg2_148_cif.got.tgz:295518.got - 2010.06.27 13:26:56.
