data_PCOD8003390
_publ_section_title
;
Structure prediction by ZEFSAII (Michael W. Deem and Ramdas Pophale) SiO2 
 PCOD8003390
Probable space group: P -1
;
_chemical_formula_sum "Si O2"
_cell_formula_units_Z 16
_cell_length_a 19.051269
_cell_length_b 16.554700
_cell_length_c 6.780468
_cell_angle_alpha 100.423002
_cell_angle_beta 100.026518
_cell_angle_gamma 22.240821
_cell_volume 795.931605
_symmetry_space_group_name_H-M "P -1"
_symmetry_group_IT_number 2
_symmetry_cell_setting 'triclinic'
loop_
_space_group_symop_operation_xyz
x,y,z
-x,-y,-z
loop_
_atom_site_type_symbol
_atom_site_label
_atom_site_fract_x
_atom_site_fract_y
_atom_site_fract_z
Si Si1 0.580676 0.995535 0.131852
Si Si2 0.856817 0.056283 0.771921
Si Si3 0.398495 0.933498 0.211289
Si Si4 0.313989 0.324507 0.468871
Si Si5 0.845856 0.340557 0.523693
Si Si6 0.522387 0.628110 0.206816
Si Si7 0.844595 0.256277 0.893976
Si Si8 0.792186 0.736716 0.487359
O O1 0.748013 0.786110 0.256557
O O2 0.446532 0.194176 0.288106
O O3 0.500000 0.000000 0.000000
O O4 0.648996 0.984762 0.993046
O O5 0.636761 0.269142 0.771782
O O6 0.868725 0.139981 0.765605
O O7 0.961298 0.898428 0.575212
O O8 0.972824 0.913962 0.965108
O O9 0.601558 0.743724 0.305490
O O10 0.391821 0.842727 0.172779
O O11 0.251615 0.129704 0.375231
O O12 0.147255 0.566728 0.458499
O O13 0.292382 0.249454 0.427552
O O14 0.658494 0.503593 0.402150
O O15 0.833152 0.333060 0.744693
O O16 0.654762 0.459508 0.018106
O O17 0.000000 0.500000 0.500000
#
# Coordination Sequence:
#
# PCOD8003390 Si02
#       8
#     2   2   2   2   2   2   2   2
#     4  11  18  37  60  73 100 155 192 218 275 334
#     4  10  22  39  61  87 119 149 188 238 285 344
#     4  10  20  38  57  78 110 147 189 227 274 333
#     4  10  20  37  56  79 111 146 187 231 275 327
#     4  10  22  38  60  86 117 154 190 235 288 339
#     4  10  22  38  60  88 116 151 192 238 282 338
#     4  10  21  41  60  87 119 150 187 234 292 344
#     4  11  23  35  52  82 114 142 183 236 275 320
#
# _framework density 20.102229000000001
#
# number of rings (size 3 to 8) (size 9 to 14) (size 15 to 20)
#    0.000    1.750    2.500    2.250    1.750    2.000 
#    2.250    0.000    0.000    0.000    0.000    0.000 
#    0.000    0.000    0.000    0.000    0.000    0.000 
#
# Total GULP energy -198245.464416 kJ/mol
# GULP energy per Si atom -12390.341526 kJ/mol
# Density = 2.005648 g / cm^3
# Si number density = 20.102229 Si / 1000 Ang^3
#
#
#
# Elastic Constant Matrix: (Units=GPa)
#
#
# Indices 1 2 3 4 5 6 
#
# 1 38.6272 15.7622 11.7632 -3.6933 -3.4150 11.8602
# 2 15.7622 103.5718 30.8385 1.2015 -1.7240 10.8446
# 3 11.7632 30.8385 98.3118 -9.7741 -15.0193 3.8912
# 4 -3.6933 1.2015 -9.7741 25.2143 10.8344 -0.6287
# 5 -3.4150 -1.7240 -15.0193 10.8344 27.0335 1.4193
# 6 11.8602 10.8446 3.8912 -0.6287 1.4193 39.2372
#
#
#
# Elastic Compliance Matrix: (Units=1/GPa)
#
#
# Indices 1 2 3 4 5 6 
#
# 1 0.030745 -0.003305 -0.001723 0.002942 0.001969 -0.008233
# 2 -0.003305 0.011378 -0.003410 -0.002118 -0.000642 -0.001818
# 3 -0.001723 -0.003410 0.012533 0.002375 0.005573 0.000057
# 4 0.002942 -0.002118 0.002375 0.048909 -0.018093 0.000899
# 5 0.001969 -0.000642 0.005573 -0.018093 0.047703 -0.002986
# 6 -0.008233 -0.001818 0.000057 0.000899 -0.002986 0.028594
#
#
# Mechanical properties :
#
#
# Convention : Reuss Voigt Hill
#
# Bulk Modulus (GPa) = 26.46960 39.69317 33.08139
# Shear Modulus (GPa) = 23.88555 30.44011 27.16283
#
# Velocity S-wave (km/s) = 3.45077 3.89558 3.67990
# Velocity P-wave (km/s) = 5.39196 6.32634 5.87774
#
# Compressibility (1/GPa) = 0.03777919
#
# Stress axis : x y z
#
# Youngs Moduli (GPa) = 32.52547 87.89050 79.79029
#
# Poissons Ratio (x) = 0.29051 0.13746
# Poissons Ratio (y) = 0.10751 0.27210
# Poissons Ratio (z) = 0.05603 0.29973
#
# Static dielectric constant tensor:
#      x y z
#    x 3.434330 0.262970 0.075360 
#    y 0.262970 3.720220 -0.064500 
#    z 0.075360 -0.064500 3.633800 
# 
# 
# High freq. dielectric constant tensor:
#      x y z
#    x 1.771180 0.026230 0.000930 
#    y 0.026230 1.788420 0.003010 
#    z 0.000930 0.003010 1.787370 
# 
# From -- ./inp_files/116666.got.cif
#   From: 2010.06.25/outbox.cif.g09.slc.cpg/sg2_59_cif.got.tgz:116666.got - 2010.06.27 13:26:56.
