data_PCOD8003846
_publ_section_title
;
Structure prediction by ZEFSAII (Michael W. Deem and Ramdas Pophale) SiO2 
 PCOD8003846
Probable space group: P -1
;
_chemical_formula_sum "Si O2"
_cell_formula_units_Z 16
_cell_length_a 16.585562
_cell_length_b 11.058229
_cell_length_c 11.592128
_cell_angle_alpha 108.405405
_cell_angle_beta 107.006650
_cell_angle_gamma 22.307280
_cell_volume 765.721200
_symmetry_space_group_name_H-M "P -1"
_symmetry_group_IT_number 2
_symmetry_cell_setting 'triclinic'
loop_
_space_group_symop_operation_xyz
x,y,z
-x,-y,-z
loop_
_atom_site_type_symbol
_atom_site_label
_atom_site_fract_x
_atom_site_fract_y
_atom_site_fract_z
Si Si1 0.734704 0.681378 0.809761
Si Si2 0.496816 0.419541 0.228129
Si Si3 0.191028 0.835779 0.022614
Si Si4 0.387074 0.360675 0.825434
Si Si5 0.744535 0.403300 0.636558
Si Si6 0.149614 0.511240 0.944245
Si Si7 0.235660 0.698349 0.648612
Si Si8 0.871587 0.729505 0.127916
O O1 0.653484 0.671687 0.703032
O O2 0.976800 0.376678 0.780539
O O3 0.614175 0.978966 0.815532
O O4 0.712666 0.681086 0.937676
O O5 0.294485 0.726315 0.155375
O O6 0.404398 0.491950 0.330420
O O7 0.627832 0.364156 0.293632
O O8 0.642721 0.111892 0.131190
O O9 0.372853 0.525605 0.920500
O O10 0.090419 0.106405 0.009968
O O11 0.000000 0.000000 0.000000
O O12 0.230308 0.491859 0.873705
O O13 0.317395 0.470348 0.696326
O O14 0.729873 0.397205 0.494353
O O15 0.986851 0.064620 0.682155
O O16 0.157577 0.361477 0.841328
O O17 0.000000 0.500000 0.000000
#
# Coordination Sequence:
#
# PCOD8003846 Si02
#       8
#     2   2   2   2   2   2   2   2
#     4  11  21  39  63  88 132 166 215 264 312 386
#     4  12  23  43  69  95 132 171 214 263 327 386
#     4  10  21  35  62  97 129 161 203 258 323 387
#     4  11  22  38  60  95 128 166 210 262 330 381
#     4  11  23  46  70  90 128 172 223 272 316 375
#     4  10  20  37  61  92 129 169 207 254 332 391
#     4  11  26  43  67  99 125 169 224 273 316 376
#     4  10  22  37  61  97 129 167 215 257 315 392
#
# _framework density 20.895334999999999
#
# number of rings (size 3 to 8) (size 9 to 14) (size 15 to 20)
#    0.000    1.250    1.250    6.750    3.500    1.000 
#    0.000    0.000    0.000    1.500    0.000    0.000 
#    0.000    0.000    0.000    0.000    0.000    0.000 
#
# Total GULP energy -198260.724056 kJ/mol
# GULP energy per Si atom -12391.295254 kJ/mol
# Density = 2.084778 g / cm^3
# Si number density = 20.895335 Si / 1000 Ang^3
#
#
#
# Elastic Constant Matrix: (Units=GPa)
#
#
# Indices 1 2 3 4 5 6 
#
# 1 86.8550 31.5471 48.4773 -6.8505 14.7582 2.2244
# 2 31.5471 115.6970 43.0588 -9.7436 1.6513 14.3011
# 3 48.4773 43.0588 95.4398 -10.6856 -3.2770 3.9825
# 4 -6.8505 -9.7436 -10.6856 27.9849 0.9624 -4.3188
# 5 14.7582 1.6513 -3.2770 0.9624 29.8853 0.0567
# 6 2.2244 14.3011 3.9825 -4.3188 0.0567 35.6249
#
#
#
# Elastic Compliance Matrix: (Units=1/GPa)
#
#
# Indices 1 2 3 4 5 6 
#
# 1 0.019080 -0.001609 -0.009232 0.001040 -0.010380 0.000629
# 2 -0.001609 0.011119 -0.003893 0.001421 -0.000285 -0.003755
# 3 -0.009232 -0.003893 0.017453 0.002904 0.006593 0.000530
# 4 0.001040 0.001421 0.002904 0.038211 -0.001511 0.003675
# 5 -0.010380 -0.000285 0.006593 -0.001511 0.039375 -0.000220
# 6 0.000629 -0.003755 0.000530 0.003675 -0.000220 0.029925
#
#
# Mechanical properties :
#
#
# Convention : Reuss Voigt Hill
#
# Bulk Modulus (GPa) = 54.99351 60.46202 57.72776
# Shear Modulus (GPa) = 26.22027 30.35960 28.28993
#
# Velocity S-wave (km/s) = 3.54621 3.81588 3.68351
# Velocity P-wave (km/s) = 6.56835 6.95795 6.76595
#
# Compressibility (1/GPa) = 0.01818396
#
# Stress axis : x y z
#
# Youngs Moduli (GPa) = 52.41028 89.93793 57.29701
#
# Poissons Ratio (x) = 0.14469 0.52896
# Poissons Ratio (y) = 0.08432 0.22307
# Poissons Ratio (z) = 0.48385 0.35015
#
# Static dielectric constant tensor:
#      x y z
#    x 4.480780 0.362010 0.211310 
#    y 0.362010 4.441140 0.219330 
#    z 0.211310 0.219330 3.551970 
# 
# 
# High freq. dielectric constant tensor:
#      x y z
#    x 1.834400 0.005770 0.004190 
#    y 0.005770 1.832430 0.005460 
#    z 0.004190 0.005460 1.783020 
# 
# From -- ./inp_files/419724.got.cif
#   From: 2010.06.25/outbox.cif.g09.slc.cpg/sg2_210_cif.got.tgz:419724.got - 2010.06.27 13:26:56.
