data_PCOD8003422
_publ_section_title
;
Structure prediction by ZEFSAII (Michael W. Deem and Ramdas Pophale) SiO2 
 PCOD8003422
Probable space group: P -1
;
_chemical_formula_sum "Si O2"
_cell_formula_units_Z 16
_cell_length_a 6.313993
_cell_length_b 20.395179
_cell_length_c 17.261185
_cell_angle_alpha 159.715668
_cell_angle_beta 57.782909
_cell_angle_gamma 122.548450
_cell_volume 646.476014
_symmetry_space_group_name_H-M "P -1"
_symmetry_group_IT_number 2
_symmetry_cell_setting 'triclinic'
loop_
_space_group_symop_operation_xyz
x,y,z
-x,-y,-z
loop_
_atom_site_type_symbol
_atom_site_label
_atom_site_fract_x
_atom_site_fract_y
_atom_site_fract_z
Si Si1 0.800046 0.466713 0.068043
Si Si2 0.955019 0.219297 0.544946
Si Si3 0.866558 0.916105 0.791099
Si Si4 0.594227 0.821020 0.458013
Si Si5 0.276584 0.328198 0.311672
Si Si6 0.246741 0.927272 0.422896
Si Si7 0.418711 0.978988 0.815982
Si Si8 0.725574 0.262236 0.281081
O O1 0.938720 0.552654 0.215973
O O2 0.585132 0.599462 0.236601
O O3 0.692453 0.243646 0.837401
O O4 0.000000 0.500000 0.000000
O O5 0.134820 0.125365 0.346608
O O6 0.669534 0.171117 0.523568
O O7 0.974936 0.135333 0.537621
O O8 0.685611 0.763282 0.710744
O O9 0.141522 0.898509 0.751479
O O10 0.789620 0.127606 0.048868
O O11 0.613527 0.946065 0.672502
O O12 0.804014 0.904419 0.442412
O O13 0.382080 0.552657 0.531160
O O14 0.980039 0.319457 0.343061
O O15 0.418931 0.203225 0.084490
O O16 0.500000 0.000000 0.500000
O O17 0.468160 0.857653 0.751357
#
# Coordination Sequence:
#
# PCOD8003422 Si02
#       8
#     2   2   2   2   2   2   2   2
#     4  10  22  38  57  81 108 143 183 224 272 324
#     4   9  19  36  56  80 111 144 181 224 269 322
#     4   8  14  27  43  69 105 135 171 217 262 310
#     4  10  20  37  57  80 112 145 179 226 273 316
#     4   8  13  23  42  69 101 136 172 214 262 310
#     4   9  20  37  57  81 108 141 180 221 268 324
#     4   8  15  26  45  71 102 137 172 216 264 309
#     4   8  13  23  42  70 101 133 174 217 258 310
#
# _framework density 24.749565
#
# number of rings (size 3 to 8) (size 9 to 14) (size 15 to 20)
#    0.000    3.250    0.000    1.500    0.000    7.500 
#    0.000   12.500    0.000    3.000    0.000    5.250 
#    0.000    0.000    0.000    0.000    0.000    0.000 
#
# Total GULP energy -198248.109187 kJ/mol
# GULP energy per Si atom -12390.506824 kJ/mol
# Density = 2.469323 g / cm^3
# Si number density = 24.749565 Si / 1000 Ang^3
#
#
#
# Elastic Constant Matrix: (Units=GPa)
#
#
# Indices 1 2 3 4 5 6 
#
# 1 72.5887 48.6409 32.0366 1.3287 5.2329 -29.0095
# 2 48.6409 114.8081 85.8607 -15.4515 2.0187 -12.0363
# 3 32.0366 85.8607 192.6595 -4.7561 13.8522 -17.5623
# 4 1.3287 -15.4515 -4.7561 45.7867 -1.8025 -1.6400
# 5 5.2329 2.0187 13.8522 -1.8025 39.8461 4.0254
# 6 -29.0095 -12.0363 -17.5623 -1.6400 4.0254 44.1574
#
#
#
# Elastic Compliance Matrix: (Units=1/GPa)
#
#
# Indices 1 2 3 4 5 6 
#
# 1 0.028291 -0.012898 0.002871 -0.004515 -0.005940 0.016586
# 2 -0.012898 0.019829 -0.007399 0.006241 0.004166 -0.006159
# 3 0.002871 -0.007399 0.008533 -0.001702 -0.003400 0.003510
# 4 -0.004515 0.006241 -0.001702 0.023938 0.002077 -0.001242
# 5 -0.005940 0.004166 -0.003400 0.002077 0.027604 -0.006558
# 6 0.016586 -0.006159 0.003510 -0.001242 -0.006558 0.033811
#
#
# Mechanical properties :
#
#
# Convention : Reuss Voigt Hill
#
# Bulk Modulus (GPa) = 45.86821 79.23695 62.55258
# Shear Modulus (GPa) = 27.15540 40.19258 33.67399
#
# Velocity S-wave (km/s) = 3.31601 4.03422 3.69262
# Velocity P-wave (km/s) = 5.76492 7.33382 6.59618
#
# Compressibility (1/GPa) = 0.02180159
#
# Stress axis : x y z
#
# Youngs Moduli (GPa) = 35.34691 50.43083 117.19156
#
# Poissons Ratio (x) = 0.65044 -0.33647
# Poissons Ratio (y) = 0.45589 0.86713
# Poissons Ratio (z) = -0.10148 0.37315
#
# Static dielectric constant tensor:
#      x y z
#    x 4.915220 -0.046130 0.290020 
#    y -0.046130 4.960090 0.087980 
#    z 0.290020 0.087980 5.365440 
# 
# 
# High freq. dielectric constant tensor:
#      x y z
#    x 2.062940 -0.000080 0.009600 
#    y -0.000080 1.973250 -0.006500 
#    z 0.009600 -0.006500 1.974650 
# 
# From -- ./inp_files/562980.got.cif
#   From: 2010.06.25/outbox.cif.g09.slc.cpg/sg2_282_cif.got.tgz:562980.got - 2010.06.27 13:26:56.
