data_PCOD8003957
_publ_section_title
;
Structure prediction by ZEFSAII (Michael W. Deem and Ramdas Pophale) SiO2 
 PCOD8003957
Probable space group: P -1
;
_chemical_formula_sum "Si O2"
_cell_formula_units_Z 14
_cell_length_a 13.944155
_cell_length_b 21.339842
_cell_length_c 6.276103
_cell_angle_alpha 106.310006
_cell_angle_beta 69.426357
_cell_angle_gamma 158.279516
_cell_volume 641.427513
_symmetry_space_group_name_H-M "P -1"
_symmetry_group_IT_number 2
_symmetry_cell_setting 'triclinic'
loop_
_space_group_symop_operation_xyz
x,y,z
-x,-y,-z
loop_
_atom_site_type_symbol
_atom_site_label
_atom_site_fract_x
_atom_site_fract_y
_atom_site_fract_z
Si Si1 0.465266 0.050887 0.977005
Si Si2 0.054794 0.673179 0.440291
Si Si3 0.924927 0.718869 0.867082
Si Si4 0.355419 0.722713 0.679581
Si Si5 0.562544 0.584548 0.726260
Si Si6 0.583060 0.369139 0.223596
Si Si7 0.198406 0.571858 0.265873
O O1 0.654884 0.169564 0.736922
O O2 0.524035 0.138828 0.198543
O O3 0.162835 0.887616 0.985993
O O4 0.500000 0.000000 0.000000
O O5 0.051001 0.735687 0.644221
O O6 0.847995 0.557883 0.296455
O O7 0.975779 0.567243 0.551273
O O8 0.817290 0.710762 0.782246
O O9 0.690338 0.556736 0.052391
O O10 0.504118 0.747749 0.695026
O O11 0.388366 0.733912 0.406498
O O12 0.031131 0.530123 0.801768
O O13 0.500000 0.500000 0.500000
O O14 0.629912 0.696517 0.682701
O O15 0.621244 0.371024 0.950985
#
# Coordination Sequence:
#
# PCOD8003957 Si02
#       7
#     2   2   2   2   2   2   2
#     4  12  25  42  61  95 139 165 200 261 323 385
#     4  11  21  38  65  96 126 163 203 257 323 376
#     4  11  24  40  63  96 126 168 209 257 320 369
#     4  10  23  35  60  93 127 168 205 252 315 375
#     4  11  23  43  68  90 121 164 225 264 299 368
#     4  11  20  39  64  92 125 160 213 265 305 361
#     4  10  20  37  62  92 128 163 207 255 309 375
#
# _framework density 21.826317
#
# number of rings (size 3 to 8) (size 9 to 14) (size 15 to 20)
#    0.000    1.143    4.286    2.571    4.000    0.000 
#    0.000    0.714    0.000    1.714    0.000    0.000 
#    0.000    0.000    0.000    0.000    0.000    0.000 
#
# Total GULP energy -173466.250828 kJ/mol
# GULP energy per Si atom -12390.446488 kJ/mol
# Density = 2.177664 g / cm^3
# Si number density = 21.826317 Si / 1000 Ang^3
#
#
#
# Elastic Constant Matrix: (Units=GPa)
#
#
# Indices 1 2 3 4 5 6 
#
# 1 136.3723 20.0555 20.9859 32.2241 4.9757 1.5877
# 2 20.0555 73.0242 24.7968 32.6724 4.2367 6.6709
# 3 20.9859 24.7968 116.7715 37.6779 -8.9717 -5.2203
# 4 32.2241 32.6724 37.6779 38.7867 -9.0471 -2.1091
# 5 4.9757 4.2367 -8.9717 -9.0471 38.9414 7.3764
# 6 1.5877 6.6709 -5.2203 -2.1091 7.3764 30.4191
#
#
#
# Elastic Compliance Matrix: (Units=1/GPa)
#
#
# Indices 1 2 3 4 5 6 
#
# 1 0.009964 0.003028 0.001502 -0.013311 -0.004191 -0.000833
# 2 0.003028 0.026006 0.002408 -0.029009 -0.008373 -0.005429
# 3 0.001502 0.002408 0.012905 -0.016087 -0.001375 0.000826
# 4 -0.013311 -0.029009 -0.016087 0.081652 0.019112 0.005322
# 5 -0.004191 -0.008373 -0.001375 0.019112 0.032130 -0.004647
# 6 -0.000833 -0.005429 0.000826 0.005322 -0.004647 0.035746
#
#
# Mechanical properties :
#
#
# Convention : Reuss Voigt Hill
#
# Bulk Modulus (GPa) = 15.93609 50.87163 33.40386
# Shear Modulus (GPa) = 24.33753 38.98476 31.66114
#
# Velocity S-wave (km/s) = 3.34287 4.23085 3.81280
# Velocity P-wave (km/s) = 4.71347 6.87204 5.89244
#
# Compressibility (1/GPa) = 0.06275067
#
# Stress axis : x y z
#
# Youngs Moduli (GPa) = 100.35704 38.45297 77.49137
#
# Poissons Ratio (x) = -0.11645 -0.11639
# Poissons Ratio (y) = -0.30392 -0.18656
# Poissons Ratio (z) = -0.15073 -0.09258
#
# Static dielectric constant tensor:
#      x y z
#    x 4.150250 0.052100 -0.011620 
#    y 0.052100 3.552460 0.338650 
#    z -0.011620 0.338650 4.262480 
# 
# 
# High freq. dielectric constant tensor:
#      x y z
#    x 1.877970 -0.000340 -0.002690 
#    y -0.000340 1.798670 0.028800 
#    z -0.002690 0.028800 1.880910 
# 
# From -- ./inp_files/96586.got.cif
#   From: 2010.06.25/outbox.cif.g09.slc.cpg/sg2_49_cif.got.tgz:96586.got - 2010.06.27 13:26:56.
