data_PCOD8003752
_publ_section_title
;
Structure prediction by ZEFSAII (Michael W. Deem and Ramdas Pophale) SiO2 
 PCOD8003752
Probable space group: P -1
;
_chemical_formula_sum "Si O2"
_cell_formula_units_Z 16
_cell_length_a 14.288740
_cell_length_b 6.372213
_cell_length_c 14.828924
_cell_angle_alpha 113.657215
_cell_angle_beta 136.992328
_cell_angle_gamma 86.577637
_cell_volume 782.307251
_symmetry_space_group_name_H-M "P -1"
_symmetry_group_IT_number 2
_symmetry_cell_setting 'triclinic'
loop_
_space_group_symop_operation_xyz
x,y,z
-x,-y,-z
loop_
_atom_site_type_symbol
_atom_site_label
_atom_site_fract_x
_atom_site_fract_y
_atom_site_fract_z
Si Si1 0.985517 0.869724 0.303420
Si Si2 0.233853 0.732296 0.538889
Si Si3 0.699261 0.730693 0.698790
Si Si4 0.551318 0.055028 0.751395
Si Si5 0.939640 0.807836 0.752768
Si Si6 0.207793 0.677744 0.900473
Si Si7 0.857303 0.265693 0.335712
Si Si8 0.474365 0.726421 0.403514
O O1 0.125966 0.872816 0.459850
O O2 0.857737 0.601545 0.159333
O O3 0.047283 0.964838 0.263760
O O4 0.909325 0.037434 0.325883
O O5 0.156594 0.447008 0.408845
O O6 0.258466 0.769440 0.670415
O O7 0.392022 0.847685 0.622551
O O8 0.869378 0.839803 0.804577
O O9 0.607093 0.656249 0.526146
O O10 0.674619 0.484765 0.698434
O O11 0.655706 0.929531 0.757244
O O12 0.532751 0.265743 0.708840
O O13 0.628598 0.188853 0.920332
O O14 0.103644 0.815989 0.888470
O O15 0.218782 0.693127 0.802460
O O16 0.000000 0.500000 0.500000
O O17 0.500000 0.000000 0.500000
#
# Coordination Sequence:
#
# PCOD8003752 Si02
#       8
#     2   2   2   2   2   2   2   2
#     4  10  20  38  63  86 116 148 198 247 289 339
#     4  11  21  35  63  90 114 151 199 244 287 348
#     4  10  20  37  61  82 119 159 200 245 278 338
#     4  11  24  39  55  89 127 157 191 238 297 350
#     4  10  20  37  61  91 110 156 208 239 285 338
#     4  10  24  39  56  87 127 153 191 243 294 353
#     4  11  20  40  65  90 111 148 200 244 290 347
#     4   9  18  34  55  82 114 151 194 240 287 333
#
# _framework density 20.452321999999999
#
# number of rings (size 3 to 8) (size 9 to 14) (size 15 to 20)
#    0.000    1.750    3.750    3.375    0.000    6.000 
#    0.000    1.875    0.000    0.000    0.000    0.000 
#    0.000    0.000    0.000    0.000    0.000    0.000 
#
# Total GULP energy -198342.466445 kJ/mol
# GULP energy per Si atom -12396.404153 kJ/mol
# Density = 2.040577 g / cm^3
# Si number density = 20.452322 Si / 1000 Ang^3
#
#
#
# Elastic Constant Matrix: (Units=GPa)
#
#
# Indices 1 2 3 4 5 6 
#
# 1 81.3460 23.0343 2.1537 -2.2821 -1.6886 15.2578
# 2 23.0343 124.9012 27.6741 -2.1974 -6.3169 19.9743
# 3 2.1537 27.6741 94.2687 -11.1312 -10.4104 8.5869
# 4 -2.2821 -2.1974 -11.1312 19.0866 6.8209 -3.3170
# 5 -1.6886 -6.3169 -10.4104 6.8209 20.7622 0.0684
# 6 15.2578 19.9743 8.5869 -3.3170 0.0684 24.3847
#
#
#
# Elastic Compliance Matrix: (Units=1/GPa)
#
#
# Indices 1 2 3 4 5 6 
#
# 1 0.014222 -0.001508 0.001007 0.000327 0.001122 -0.007977
# 2 -0.001508 0.009957 -0.002278 -0.002464 0.002596 -0.006753
# 3 0.001007 -0.002278 0.012543 0.005339 0.003932 -0.002466
# 4 0.000327 -0.002464 0.005339 0.063532 -0.018946 0.008629
# 5 0.001122 0.002596 0.003932 -0.018946 0.057264 -0.006951
# 6 -0.007977 -0.006753 -0.002466 0.008629 -0.006951 0.053594
#
#
# Mechanical properties :
#
#
# Convention : Reuss Voigt Hill
#
# Bulk Modulus (GPa) = 32.08733 45.13779 38.61256
# Shear Modulus (GPa) = 22.02076 29.35694 25.68885
#
# Velocity S-wave (km/s) = 3.28485 3.79276 3.54790
# Velocity P-wave (km/s) = 5.48725 6.42633 5.97527
#
# Compressibility (1/GPa) = 0.03116495
#
# Stress axis : x y z
#
# Youngs Moduli (GPa) = 70.31284 100.43228 79.72618
#
# Poissons Ratio (x) = 0.15142 -0.08027
# Poissons Ratio (y) = 0.10601 0.18159
# Poissons Ratio (z) = -0.07079 0.22875
#
# Static dielectric constant tensor:
#      x y z
#    x 3.868180 0.065000 -0.103670 
#    y 0.065000 4.924230 -0.058600 
#    z -0.103670 -0.058600 3.532750 
# 
# 
# High freq. dielectric constant tensor:
#      x y z
#    x 1.791860 0.012660 -0.003150 
#    y 0.012660 1.814510 -0.001190 
#    z -0.003150 -0.001190 1.771850 
# 
# From -- ./inp_files/51469.got.cif
#   From: 2010.06.25/outbox.cif.g09.slc.cpg/sg2_26_cif.got.tgz:51469.got - 2010.06.27 13:26:56.
