data_PCOD8003303
_publ_section_title
;
Structure prediction by ZEFSAII (Michael W. Deem and Ramdas Pophale) SiO2 
 PCOD8003303
Probable space group: P -1
;
_chemical_formula_sum "Si O2"
_cell_formula_units_Z 14
_cell_length_a 9.272294
_cell_length_b 12.228546
_cell_length_c 13.837493
_cell_angle_alpha 43.635921
_cell_angle_beta 117.762013
_cell_angle_gamma 141.032483
_cell_volume 663.704470
_symmetry_space_group_name_H-M "P -1"
_symmetry_group_IT_number 2
_symmetry_cell_setting 'triclinic'
loop_
_space_group_symop_operation_xyz
x,y,z
-x,-y,-z
loop_
_atom_site_type_symbol
_atom_site_label
_atom_site_fract_x
_atom_site_fract_y
_atom_site_fract_z
Si Si1 0.235579 0.010726 0.331022
Si Si2 0.445909 0.581049 0.191059
Si Si3 0.021848 0.480588 0.408306
Si Si4 0.232954 0.140903 0.043990
Si Si5 0.490129 0.307082 0.643849
Si Si6 0.317417 0.519355 0.776289
Si Si7 0.003811 0.912035 0.658394
O O1 0.194135 0.992451 0.214077
O O2 0.512389 0.221224 0.301465
O O3 0.098192 0.058035 0.305332
O O4 0.145472 0.786636 0.493721
O O5 0.515862 0.711558 0.230185
O O6 0.571297 0.493570 0.275582
O O7 0.161324 0.360064 0.232605
O O8 0.553092 0.766750 0.019462
O O9 0.931398 0.571955 0.264710
O O10 0.000000 0.500000 0.500000
O O11 0.285831 0.629134 0.366065
O O12 0.289420 0.364640 0.950396
O O13 0.000000 0.000000 0.000000
O O14 0.500000 0.500000 0.500000
O O15 0.271119 0.065056 0.677872
O O16 0.000000 0.000000 0.500000
#
# Coordination Sequence:
#
# PCOD8003303 Si02
#       7
#     2   2   2   2   2   2   2
#     4  11  21  38  64  91 120 164 201 249 304 367
#     4   9  21  39  61  89 121 152 210 247 296 363
#     4  12  24  37  60  91 127 153 201 258 312 352
#     4  10  20  36  66  91 120 158 206 248 299 367
#     4  12  21  37  61  87 120 164 203 249 305 360
#     4   9  22  38  58  94 122 152 199 255 307 353
#     4  11  21  34  60  91 119 155 209 252 294 353
#
# _framework density 21.093726
#
# number of rings (size 3 to 8) (size 9 to 14) (size 15 to 20)
#    0.857    0.571    2.857    3.429    2.000    0.000 
#    2.571    0.000    0.000    8.571    0.000    0.000 
#    0.000    0.000    0.000    0.000    0.000    0.000 
#
# Total GULP energy -173440.644455 kJ/mol
# GULP energy per Si atom -12388.617461 kJ/mol
# Density = 2.104572 g / cm^3
# Si number density = 21.093726 Si / 1000 Ang^3
#
#
#
# Elastic Constant Matrix: (Units=GPa)
#
#
# Indices 1 2 3 4 5 6 
#
# 1 87.6534 36.2108 17.7189 13.7561 -13.4990 19.7853
# 2 36.2108 121.5161 13.6222 -4.2466 -16.4372 13.7144
# 3 17.7189 13.6222 67.9988 6.5474 -22.1266 4.7896
# 4 13.7561 -4.2466 6.5474 36.0995 -1.4125 -9.0681
# 5 -13.4990 -16.4372 -22.1266 -1.4125 31.8915 3.9728
# 6 19.7853 13.7144 4.7896 -9.0681 3.9728 31.9842
#
#
#
# Elastic Compliance Matrix: (Units=1/GPa)
#
#
# Indices 1 2 3 4 5 6 
#
# 1 0.018902 -0.003376 0.000365 -0.010973 0.007820 -0.014382
# 2 -0.003376 0.010117 0.000214 0.002044 0.004303 -0.002237
# 3 0.000365 0.000214 0.020394 -0.004889 0.015023 -0.006623
# 4 -0.010973 0.002044 -0.004889 0.037273 -0.007593 0.018154
# 5 0.007820 0.004303 0.015023 -0.007593 0.049111 -0.017185
# 6 -0.014382 -0.002237 -0.006623 0.018154 -0.017185 0.049394
#
#
# Mechanical properties :
#
#
# Convention : Reuss Voigt Hill
#
# Bulk Modulus (GPa) = 22.82141 45.80802 34.31472
# Shear Modulus (GPa) = 24.34356 33.96947 29.15652
#
# Velocity S-wave (km/s) = 3.40084 4.01734 3.72188
# Velocity P-wave (km/s) = 5.12479 6.57893 5.89685
#
# Compressibility (1/GPa) = 0.04381851
#
# Stress axis : x y z
#
# Youngs Moduli (GPa) = 52.90370 98.83968 49.03466
#
# Poissons Ratio (x) = 0.33370 -0.01789
# Poissons Ratio (y) = 0.17861 -0.01048
# Poissons Ratio (z) = -0.01931 -0.02113
#
# Static dielectric constant tensor:
#      x y z
#    x 3.636470 0.033840 -0.170670 
#    y 0.033840 3.476000 0.217580 
#    z -0.170670 0.217580 3.662510 
# 
# 
# High freq. dielectric constant tensor:
#      x y z
#    x 1.796520 0.004040 -0.026580 
#    y 0.004040 1.843830 -0.014020 
#    z -0.026580 -0.014020 1.808840 
# 
# From -- ./inp_files/244579.got.cif
#   From: 2010.06.25/outbox.cif.g09.slc.cpg/sg2_123_cif.got.tgz:244579.got - 2010.06.27 13:26:56.
