data_PCOD8003017
_publ_section_title
;
Structure prediction by ZEFSAII (Michael W. Deem and Ramdas Pophale) SiO2 
 PCOD8003017
Probable space group: P -1
;
_chemical_formula_sum "Si O2"
_cell_formula_units_Z 14
_cell_length_a 8.924204
_cell_length_b 7.952182
_cell_length_c 18.526652
_cell_angle_alpha 130.299732
_cell_angle_beta 41.264767
_cell_angle_gamma 132.312510
_cell_volume 613.947434
_symmetry_space_group_name_H-M "P -1"
_symmetry_group_IT_number 2
_symmetry_cell_setting 'triclinic'
loop_
_space_group_symop_operation_xyz
x,y,z
-x,-y,-z
loop_
_atom_site_type_symbol
_atom_site_label
_atom_site_fract_x
_atom_site_fract_y
_atom_site_fract_z
Si Si1 0.268364 0.621510 0.599174
Si Si2 0.124491 0.365805 0.730238
Si Si3 0.728365 0.836131 0.575926
Si Si4 0.495346 0.791189 0.792457
Si Si5 0.045377 0.082213 0.252804
Si Si6 0.776839 0.601519 0.951570
Si Si7 0.929938 0.073103 0.952188
O O1 0.169899 0.440981 0.651875
O O2 0.528418 0.827577 0.583522
O O3 0.294589 0.439171 0.478537
O O4 0.082938 0.735827 0.669298
O O5 0.333540 0.529254 0.752780
O O6 0.867331 0.384598 0.851461
O O7 0.097706 0.094257 0.679302
O O8 0.652583 0.932149 0.704617
O O9 0.000000 0.000000 0.500000
O O10 0.677277 0.768051 0.782001
O O11 0.323807 0.921490 0.922884
O O12 0.054309 0.914436 0.136083
O O13 0.831375 0.711730 0.043543
O O14 0.500000 0.500000 0.000000
O O15 0.939711 0.818374 0.900669
#
# Coordination Sequence:
#
# PCOD8003017 Si02
#       7
#     2   2   2   2   2   2   2
#     4  10  23  44  66  97 130 162 223 271 317 386
#     4  10  22  42  60  96 132 168 212 266 318 383
#     4  10  22  44  70  91 126 174 215 274 327 375
#     4  10  23  40  64  95 133 169 220 265 318 389
#     4  12  23  40  68  98 131 174 210 264 327 386
#     4  10  20  36  61  90 125 174 214 255 312 378
#     4  10  22  39  61  95 137 167 213 265 314 388
#
# _framework density 22.803256999999999
#
# number of rings (size 3 to 8) (size 9 to 14) (size 15 to 20)
#    0.000    1.714    1.429    2.143    2.000    5.143 
#    0.000   10.000    0.000    0.000    0.000    0.000 
#    0.000    0.000    0.000    0.000    0.000    0.000 
#
# Total GULP energy -173528.931397 kJ/mol
# GULP energy per Si atom -12394.923671 kJ/mol
# Density = 2.275136 g / cm^3
# Si number density = 22.803257 Si / 1000 Ang^3
#
#
#
# Elastic Constant Matrix: (Units=GPa)
#
#
# Indices 1 2 3 4 5 6 
#
# 1 148.9694 37.8594 47.7459 -1.7767 -27.0057 15.1308
# 2 37.8594 57.3024 20.9952 -7.3092 -9.3319 -5.1621
# 3 47.7459 20.9952 93.1705 -0.0431 -10.8722 -1.6138
# 4 -1.7767 -7.3092 -0.0431 31.4761 2.2173 -9.5845
# 5 -27.0057 -9.3319 -10.8722 2.2173 32.6185 -2.9291
# 6 15.1308 -5.1621 -1.6138 -9.5845 -2.9291 44.6772
#
#
#
# Elastic Compliance Matrix: (Units=1/GPa)
#
#
# Indices 1 2 3 4 5 6 
#
# 1 0.010811 -0.005568 -0.003679 -0.002499 0.005889 -0.004587
# 2 -0.005568 0.023607 -0.002183 0.006922 0.001495 0.006117
# 3 -0.003679 -0.002183 0.013240 -0.000314 0.000896 0.001463
# 4 -0.002499 0.006922 -0.000314 0.036190 -0.001820 0.009279
# 5 0.005889 0.001495 0.000896 -0.001820 0.036402 0.000207
# 6 -0.004587 0.006117 0.001463 0.009279 0.000207 0.026700
#
#
# Mechanical properties :
#
#
# Convention : Reuss Voigt Hill
#
# Bulk Modulus (GPa) = 40.32402 56.96035 48.64219
# Shear Modulus (GPa) = 28.07818 34.61049 31.34433
#
# Velocity S-wave (km/s) = 3.51283 3.90011 3.71152
# Velocity P-wave (km/s) = 5.84595 6.73159 6.30434
#
# Compressibility (1/GPa) = 0.02479912
#
# Stress axis : x y z
#
# Youngs Moduli (GPa) = 92.50194 42.36011 75.52985
#
# Poissons Ratio (x) = 0.23584 0.27785
# Poissons Ratio (y) = 0.51501 0.16487
# Poissons Ratio (z) = 0.34029 0.09247
#
# Static dielectric constant tensor:
#      x y z
#    x 4.253260 0.248320 0.099280 
#    y 0.248320 3.933660 0.085440 
#    z 0.099280 0.085440 4.351490 
# 
# 
# High freq. dielectric constant tensor:
#      x y z
#    x 1.904980 0.024930 -0.000730 
#    y 0.024930 1.883010 0.003540 
#    z -0.000730 0.003540 1.902710 
# 
# From -- ./inp_files/586866.got.cif
#   From: 2010.06.25/outbox.cif.g09.slc.cpg/sg2_294_cif.got.tgz:586866.got - 2010.06.27 13:26:56.
