data_PCOD8003256
_publ_section_title
;
Structure prediction by ZEFSAII (Michael W. Deem and Ramdas Pophale) SiO2 
 PCOD8003256
Probable space group: P -1
;
_chemical_formula_sum "Si O2"
_cell_formula_units_Z 16
_cell_length_a 26.449898
_cell_length_b 12.603380
_cell_length_c 8.190317
_cell_angle_alpha 58.050031
_cell_angle_beta 121.543054
_cell_angle_gamma 160.154114
_cell_volume 783.437280
_symmetry_space_group_name_H-M "P -1"
_symmetry_group_IT_number 2
_symmetry_cell_setting 'triclinic'
loop_
_space_group_symop_operation_xyz
x,y,z
-x,-y,-z
loop_
_atom_site_type_symbol
_atom_site_label
_atom_site_fract_x
_atom_site_fract_y
_atom_site_fract_z
Si Si1 0.674941 0.322550 0.024824
Si Si2 0.806595 0.990865 0.994310
Si Si3 0.829740 0.746952 0.251244
Si Si4 0.101200 0.894977 0.455359
Si Si5 0.667787 0.806877 0.591143
Si Si6 0.153904 0.271531 0.346796
Si Si7 0.119139 0.705299 0.854854
Si Si8 0.201661 0.705980 0.719230
O O1 0.736527 0.479087 0.820783
O O2 0.744924 0.535119 0.119353
O O3 0.700297 0.226713 0.180364
O O4 0.500000 0.000000 0.000000
O O5 0.982886 0.357502 0.968641
O O6 0.686152 0.788112 0.817541
O O7 0.767022 0.010489 0.056550
O O8 0.789972 0.814379 0.155289
O O9 0.782628 0.586911 0.474382
O O10 0.004770 0.065679 0.248829
O O11 0.042439 0.670198 0.653816
O O12 0.974121 0.667997 0.288073
O O13 0.256604 0.151632 0.430196
O O14 0.117544 0.054591 0.450693
O O15 0.500000 0.500000 0.500000
O O16 0.747614 0.096586 0.492549
O O17 0.227950 0.826152 0.837499
#
# Coordination Sequence:
#
# PCOD8003256 Si02
#       8
#     2   2   2   2   2   2   2   2
#     4  12  28  45  68  96 137 186 222 275 342 404
#     4  11  20  37  64  99 130 163 212 277 332 394
#     4  11  24  43  72 103 133 173 231 281 334 395
#     4  11  19  42  64  91 129 167 220 275 328 393
#     4  11  24  38  64  95 129 171 214 273 339 398
#     4  11  24  43  70 102 131 175 229 284 330 398
#     4  10  20  36  64  97 125 164 214 271 329 388
#     4  11  22  43  62  94 127 173 224 266 330 403
#
# _framework density 20.422820999999999
#
# number of rings (size 3 to 8) (size 9 to 14) (size 15 to 20)
#    0.000    1.000    5.000    2.625    3.500    0.500 
#    2.250    3.750    0.000    0.000    0.000    0.000 
#    0.000    0.000    0.000    0.000    0.000    0.000 
#
# Total GULP energy -198263.290711 kJ/mol
# GULP energy per Si atom -12391.455669 kJ/mol
# Density = 2.037634 g / cm^3
# Si number density = 20.422821 Si / 1000 Ang^3
#
#
#
# Elastic Constant Matrix: (Units=GPa)
#
#
# Indices 1 2 3 4 5 6 
#
# 1 73.7810 34.2818 35.1477 7.6586 -0.4766 -2.7081
# 2 34.2818 92.6039 45.1752 20.8957 -7.2926 15.9215
# 3 35.1477 45.1752 107.4961 12.1803 -19.0431 1.5764
# 4 7.6586 20.8957 12.1803 29.7515 -0.1800 2.7263
# 5 -0.4766 -7.2926 -19.0431 -0.1800 42.9058 1.3340
# 6 -2.7081 15.9215 1.5764 2.7263 1.3340 28.3135
#
#
#
# Elastic Compliance Matrix: (Units=1/GPa)
#
#
# Indices 1 2 3 4 5 6 
#
# 1 0.018495 -0.006181 -0.004119 0.000742 -0.002842 0.005536
# 2 -0.006181 0.019311 -0.004657 -0.009105 0.001431 -0.010382
# 3 -0.004119 -0.004657 0.013657 -0.001353 0.005176 0.001351
# 4 0.000742 -0.009105 -0.001353 0.040221 -0.002017 0.001489
# 5 -0.002842 0.001431 0.005176 -0.002017 0.025882 -0.002390
# 6 0.005536 -0.010382 0.001351 0.001489 -0.002390 0.041580
#
#
# Mechanical properties :
#
#
# Convention : Reuss Voigt Hill
#
# Bulk Modulus (GPa) = 46.40303 55.89894 51.15098
# Shear Modulus (GPa) = 25.47867 30.81258 28.14563
#
# Velocity S-wave (km/s) = 3.53591 3.88845 3.71637
# Velocity P-wave (km/s) = 6.28018 6.89858 6.59663
#
# Compressibility (1/GPa) = 0.02155032
#
# Stress axis : x y z
#
# Youngs Moduli (GPa) = 54.06747 51.78444 73.22331
#
# Poissons Ratio (x) = 0.32007 0.30158
# Poissons Ratio (y) = 0.33418 0.34100
# Poissons Ratio (z) = 0.22268 0.24116
#
# Static dielectric constant tensor:
#      x y z
#    x 3.955310 -0.121620 -0.185390 
#    y -0.121620 3.343300 0.056280 
#    z -0.185390 0.056280 3.964540 
# 
# 
# High freq. dielectric constant tensor:
#      x y z
#    x 1.815290 -0.010550 0.000210 
#    y -0.010550 1.762340 0.003940 
#    z 0.000210 0.003940 1.810080 
# 
# From -- ./inp_files/353792.got.cif
#   From: 2010.06.25/outbox.cif.g09.slc.cpg/sg2_177_cif.got.tgz:353792.got - 2010.06.27 13:26:56.
