data_PCOD8003032
_publ_section_title
;
Structure prediction by ZEFSAII (Michael W. Deem and Ramdas Pophale) SiO2 
 PCOD8003032
Probable space group: P -1
;
_chemical_formula_sum "Si O2"
_cell_formula_units_Z 16
_cell_length_a 9.828272
_cell_length_b 12.668739
_cell_length_c 9.843705
_cell_angle_alpha 82.628914
_cell_angle_beta 43.292770
_cell_angle_gamma 72.536516
_cell_volume 794.079704
_symmetry_space_group_name_H-M "P -1"
_symmetry_group_IT_number 2
_symmetry_cell_setting 'triclinic'
loop_
_space_group_symop_operation_xyz
x,y,z
-x,-y,-z
loop_
_atom_site_type_symbol
_atom_site_label
_atom_site_fract_x
_atom_site_fract_y
_atom_site_fract_z
Si Si1 0.558571 0.747096 0.647056
Si Si2 0.695581 0.864053 0.760984
Si Si3 0.731874 0.757869 0.242954
Si Si4 0.842156 0.263530 0.511756
Si Si5 0.181570 0.495656 0.472928
Si Si6 0.819890 0.287024 0.209332
Si Si7 0.552918 0.119145 0.793014
Si Si8 0.803561 0.518680 0.230127
O O1 0.545730 0.829719 0.768069
O O2 0.709651 0.776717 0.418409
O O3 0.632656 0.618793 0.667561
O O4 0.327455 0.772840 0.748897
O O5 0.927402 0.782882 0.585375
O O6 0.691274 0.990830 0.717268
O O7 0.616925 0.849983 0.970334
O O8 0.572223 0.858128 0.261887
O O9 0.656740 0.645740 0.290395
O O10 0.967398 0.739891 0.026937
O O11 0.746626 0.392478 0.608916
O O12 0.863742 0.241939 0.337782
O O13 0.702002 0.195365 0.690602
O O14 0.102045 0.494638 0.684603
O O15 0.000000 0.500000 0.500000
O O16 0.699083 0.421992 0.284919
O O17 0.000000 0.500000 0.000000
#
# Coordination Sequence:
#
# PCOD8003032 Si02
#       8
#     2   2   2   2   2   2   2   2
#     4  11  23  39  62  94 126 155 198 255 308 354
#     4  11  25  44  62  88 126 156 209 265 296 353
#     4  10  20  38  61  89 122 159 206 244 296 363
#     4  11  21  41  67  88 123 165 203 245 308 366
#     4  10  20  36  61  92 126 157 191 249 311 359
#     4  10  20  37  62  91 124 160 199 244 302 366
#     4  11  24  42  67  87 114 171 215 241 304 367
#     4   8  18  32  56  83 120 158 193 231 292 360
#
# _framework density 20.149111000000001
#
# number of rings (size 3 to 8) (size 9 to 14) (size 15 to 20)
#    0.000    1.750    3.750    0.375    1.750    3.000 
#    2.250    1.250    0.000    0.000    0.000    0.000 
#    0.000    0.000    0.000    0.000    0.000    0.000 
#
# Total GULP energy -198338.181726 kJ/mol
# GULP energy per Si atom -12396.136358 kJ/mol
# Density = 2.010325 g / cm^3
# Si number density = 20.149111 Si / 1000 Ang^3
#
#
#
# Elastic Constant Matrix: (Units=GPa)
#
#
# Indices 1 2 3 4 5 6 
#
# 1 94.0822 27.4741 10.8002 -8.7058 3.6623 8.1419
# 2 27.4741 100.8055 42.9751 -19.5503 4.6402 4.5921
# 3 10.8002 42.9751 39.7757 -8.6373 -1.7509 -3.2447
# 4 -8.7058 -19.5503 -8.6373 23.8416 3.3216 1.4362
# 5 3.6623 4.6402 -1.7509 3.3216 25.4498 -1.3090
# 6 8.1419 4.5921 -3.2447 1.4362 -1.3090 30.3325
#
#
#
# Elastic Compliance Matrix: (Units=1/GPa)
#
#
# Indices 1 2 3 4 5 6 
#
# 1 0.011951 -0.002264 -0.000537 0.002762 -0.001866 -0.003134
# 2 -0.002264 0.022921 -0.022539 0.011172 -0.007176 -0.006112
# 3 -0.000537 -0.022539 0.050300 -0.002195 0.008417 0.009404
# 4 0.002762 0.011172 -0.002195 0.053019 -0.009793 -0.005600
# 5 -0.001866 -0.007176 0.008417 -0.009793 0.042975 0.004806
# 6 -0.003134 -0.006112 0.009404 -0.005600 0.004806 0.036213
#
#
# Mechanical properties :
#
#
# Convention : Reuss Voigt Hill
#
# Bulk Modulus (GPa) = 28.99194 44.12912 36.56053
# Shear Modulus (GPa) = 17.88548 26.15236 22.01892
#
# Velocity S-wave (km/s) = 2.98259 3.60660 3.30934
# Velocity P-wave (km/s) = 5.12650 6.26835 5.72596
#
# Compressibility (1/GPa) = 0.03449234
#
# Stress axis : x y z
#
# Youngs Moduli (GPa) = 83.67373 43.62758 19.88085
#
# Poissons Ratio (x) = 0.09878 0.01067
# Poissons Ratio (y) = 0.18945 0.44809
# Poissons Ratio (z) = 0.04493 0.98332
#
# Static dielectric constant tensor:
#      x y z
#    x 3.258190 0.257390 0.471380 
#    y 0.257390 3.594280 -0.526470 
#    z 0.471380 -0.526470 3.085580 
# 
# 
# High freq. dielectric constant tensor:
#      x y z
#    x 1.780230 -0.006950 0.007230 
#    y -0.006950 1.787990 -0.009710 
#    z 0.007230 -0.009710 1.778040 
# 
# From -- ./inp_files/187228.got.cif
#   From: 2010.06.25/outbox.cif.g09.slc.cpg/sg2_94_cif.got.tgz:187228.got - 2010.06.27 13:26:56.
