data_PCOD8003730
_publ_section_title
;
Structure prediction by ZEFSAII (Michael W. Deem and Ramdas Pophale) SiO2 
 PCOD8003730
Probable space group: P -1
;
_chemical_formula_sum "Si O2"
_cell_formula_units_Z 16
_cell_length_a 19.458134
_cell_length_b 11.930161
_cell_length_c 8.786136
_cell_angle_alpha 131.209243
_cell_angle_beta 47.698869
_cell_angle_gamma 148.974006
_cell_volume 759.302359
_symmetry_space_group_name_H-M "P -1"
_symmetry_group_IT_number 2
_symmetry_cell_setting 'triclinic'
loop_
_space_group_symop_operation_xyz
x,y,z
-x,-y,-z
loop_
_atom_site_type_symbol
_atom_site_label
_atom_site_fract_x
_atom_site_fract_y
_atom_site_fract_z
Si Si1 0.301910 0.245798 0.971481
Si Si2 0.732149 0.518450 0.583041
Si Si3 0.061679 0.423087 0.500133
Si Si4 0.173016 0.642707 0.217018
Si Si5 0.476598 0.259717 0.913778
Si Si6 0.712882 0.512599 0.249325
Si Si7 0.443689 0.095018 0.139276
Si Si8 0.881681 0.954387 0.213239
O O1 0.217757 0.266868 0.219299
O O2 0.446930 0.496549 0.925828
O O3 0.337849 0.140435 0.920893
O O4 0.214082 0.092457 0.819650
O O5 0.844991 0.523766 0.451885
O O6 0.582537 0.293693 0.677121
O O7 0.716603 0.525259 0.435131
O O8 0.165143 0.575714 0.341766
O O9 0.977187 0.472161 0.714675
O O10 0.945226 0.164912 0.399711
O O11 0.288017 0.912597 0.276549
O O12 0.213541 0.552291 0.970324
O O13 0.433481 0.110265 0.987810
O O14 0.552511 0.335561 0.273748
O O15 0.792942 0.748986 0.276173
O O16 0.500000 0.000000 0.000000
O O17 0.000000 0.000000 0.000000
#
# Coordination Sequence:
#
# PCOD8003730 Si02
#       8
#     2   2   2   2   2   2   2   2
#     4   9  19  37  63  90 127 158 199 261 318 363
#     4  10  20  37  60  92 124 164 198 258 317 365
#     4  11  23  42  64  85 130 167 213 249 315 377
#     4  10  23  43  60  89 121 173 210 255 304 381
#     4   9  18  39  61  89 127 160 196 264 314 361
#     4  11  22  38  66  92 124 157 216 258 311 373
#     4  10  20  40  65  86 122 168 208 254 309 369
#     4  12  20  40  67  91 117 168 207 254 314 373
#
# _framework density 21.071974000000001
#
# number of rings (size 3 to 8) (size 9 to 14) (size 15 to 20)
#    0.750    1.000    3.750    1.500    0.000    3.000 
#    2.250   12.500    0.000    0.000    0.000    0.000 
#    0.000    0.000    0.000    0.000    0.000    0.000 
#
# Total GULP energy -198323.519021 kJ/mol
# GULP energy per Si atom -12395.219939 kJ/mol
# Density = 2.102401 g / cm^3
# Si number density = 21.071974 Si / 1000 Ang^3
#
#
#
# Elastic Constant Matrix: (Units=GPa)
#
#
# Indices 1 2 3 4 5 6 
#
# 1 170.3733 44.3174 30.0745 -17.2379 18.3237 -8.9887
# 2 44.3174 120.3980 28.4473 -22.0997 20.8056 -17.2369
# 3 30.0745 28.4473 61.5830 -11.5231 11.7397 -4.9314
# 4 -17.2379 -22.0997 -11.5231 18.3318 -4.4101 1.4176
# 5 18.3237 20.8056 11.7397 -4.4101 35.1043 -7.7853
# 6 -8.9887 -17.2369 -4.9314 1.4176 -7.7853 28.3084
#
#
#
# Elastic Compliance Matrix: (Units=1/GPa)
#
#
# Indices 1 2 3 4 5 6 
#
# 1 0.007084 -0.001090 -0.001871 0.003685 -0.001837 0.000570
# 2 -0.001090 0.012761 -0.002027 0.011790 -0.003618 0.005485
# 3 -0.001871 -0.002027 0.020219 0.007626 -0.003551 0.000335
# 4 0.003685 0.011790 0.007626 0.076438 -0.000598 0.005685
# 5 -0.001837 -0.003618 -0.003551 -0.000598 0.034029 0.005984
# 6 0.000570 0.005485 0.000335 0.005685 0.005984 0.040265
#
#
# Mechanical properties :
#
#
# Convention : Reuss Voigt Hill
#
# Bulk Modulus (GPa) = 33.23618 62.00362 47.61990
# Shear Modulus (GPa) = 23.71904 32.98326 28.35115
#
# Velocity S-wave (km/s) = 3.35867 3.96064 3.67201
# Velocity P-wave (km/s) = 5.55408 7.09958 6.37385
#
# Compressibility (1/GPa) = 0.03008769
#
# Stress axis : x y z
#
# Youngs Moduli (GPa) = 141.17029 78.36610 49.45840
#
# Poissons Ratio (x) = 0.08542 0.09251
# Poissons Ratio (y) = 0.15388 0.10026
# Poissons Ratio (z) = 0.26406 0.15887
#
# Static dielectric constant tensor:
#      x y z
#    x 3.955330 0.108220 -0.112690 
#    y 0.108220 4.225380 -0.165630 
#    z -0.112690 -0.165630 3.649730 
# 
# 
# High freq. dielectric constant tensor:
#      x y z
#    x 1.839820 -0.000940 -0.005900 
#    y -0.000940 1.816660 -0.013460 
#    z -0.005900 -0.013460 1.797350 
# 
# From -- ./inp_files/346350.got.cif
#   From: 2010.06.25/outbox.cif.g09.slc.cpg/sg2_174_cif.got.tgz:346350.got - 2010.06.27 13:26:56.
