data_PCOD8003487
_publ_section_title
;
Structure prediction by ZEFSAII (Michael W. Deem and Ramdas Pophale) SiO2 
 PCOD8003487
Probable space group: P -1
;
_chemical_formula_sum "Si O2"
_cell_formula_units_Z 14
_cell_length_a 7.675595
_cell_length_b 28.528077
_cell_length_c 4.879596
_cell_angle_alpha 99.900793
_cell_angle_beta 115.754331
_cell_angle_gamma 39.297910
_cell_volume 583.672827
_symmetry_space_group_name_H-M "P -1"
_symmetry_group_IT_number 2
_symmetry_cell_setting 'triclinic'
loop_
_space_group_symop_operation_xyz
x,y,z
-x,-y,-z
loop_
_atom_site_type_symbol
_atom_site_label
_atom_site_fract_x
_atom_site_fract_y
_atom_site_fract_z
Si Si1 0.623829 0.539663 0.061747
Si Si2 0.354188 0.232071 0.814872
Si Si3 0.114943 0.930213 0.864996
Si Si4 0.602527 0.234836 0.487320
Si Si5 0.869069 0.927929 0.188158
Si Si6 0.800649 0.609054 0.382575
Si Si7 0.785701 0.396980 0.649643
O O1 0.652590 0.591013 0.127044
O O2 0.344613 0.573738 0.101238
O O3 0.957560 0.452358 0.274477
O O4 0.525466 0.542181 0.692550
O O5 0.436789 0.225660 0.547919
O O6 0.974700 0.309871 0.663730
O O7 0.503707 0.152313 0.937960
O O8 0.498339 0.246768 0.116375
O O9 0.988188 0.948393 0.487252
O O10 0.974905 0.914473 0.934480
O O11 0.000000 0.000000 0.000000
O O12 0.491722 0.307665 0.588708
O O13 0.979995 0.151720 0.687905
O O14 0.500000 0.000000 0.000000
O O15 0.972831 0.607800 0.270087
#
# Coordination Sequence:
#
# PCOD8003487 Si02
#       7
#     2   2   2   2   2   2   2
#     4  11  25  38  62  93 118 156 214 246 297 371
#     4   9  19  36  59  81 114 153 194 233 289 366
#     4  10  20  37  58  85 116 155 188 241 306 348
#     4   9  19  36  59  79 113 160 188 228 306 350
#     4  10  20  37  58  86 116 151 197 239 289 368
#     4  10  23  42  61  87 126 161 196 259 304 350
#     4  11  22  41  61  88 120 162 200 249 305 355
#
# _framework density 23.986037
#
# number of rings (size 3 to 8) (size 9 to 14) (size 15 to 20)
#    0.000    2.000    0.000    3.429    0.000    8.000 
#    5.143    0.000    0.000    0.000    0.000    0.000 
#    0.000    0.000    0.000    0.000    0.000    0.000 
#
# Total GULP energy -173487.875586 kJ/mol
# GULP energy per Si atom -12391.991113 kJ/mol
# Density = 2.393144 g / cm^3
# Si number density = 23.986037 Si / 1000 Ang^3
#
#
#
# Elastic Constant Matrix: (Units=GPa)
#
#
# Indices 1 2 3 4 5 6 
#
# 1 54.2809 18.5041 26.2311 6.5500 3.7485 1.2454
# 2 18.5041 161.8004 13.7256 -12.3613 1.5394 0.8199
# 3 26.2311 13.7256 78.2402 -1.8463 -12.7068 -2.0401
# 4 6.5500 -12.3613 -1.8463 46.9175 -4.1090 4.7416
# 5 3.7485 1.5394 -12.7068 -4.1090 20.2099 8.3778
# 6 1.2454 0.8199 -2.0401 4.7416 8.3778 32.7434
#
#
#
# Elastic Compliance Matrix: (Units=1/GPa)
#
#
# Indices 1 2 3 4 5 6 
#
# 1 0.025995 -0.002430 -0.010589 -0.006172 -0.013716 0.002816
# 2 -0.002430 0.006643 -0.000240 0.002172 0.000451 -0.000519
# 3 -0.010589 -0.000240 0.018978 0.003869 0.015967 -0.003055
# 4 -0.006172 0.002172 0.003869 0.024443 0.010822 -0.005887
# 5 -0.013716 0.000451 0.015967 0.010822 0.071880 -0.018453
# 6 0.002816 -0.000519 -0.003055 -0.005887 -0.018453 0.035830
#
#
# Mechanical properties :
#
#
# Convention : Reuss Voigt Hill
#
# Bulk Modulus (GPa) = 39.84169 45.69367 42.76768
# Shear Modulus (GPa) = 22.86730 35.69822 29.28276
#
# Velocity S-wave (km/s) = 3.09100 3.86202 3.49782
# Velocity P-wave (km/s) = 5.42084 6.24327 5.84653
#
# Compressibility (1/GPa) = 0.02509933
#
# Stress axis : x y z
#
# Youngs Moduli (GPa) = 38.46823 150.53516 52.69215
#
# Poissons Ratio (x) = 0.36580 0.55795
# Poissons Ratio (y) = 0.09348 0.01263
# Poissons Ratio (z) = 0.40734 0.03610
#
# Static dielectric constant tensor:
#      x y z
#    x 4.015540 -0.021310 -0.315740 
#    y -0.021310 5.156830 -0.401460 
#    z -0.315740 -0.401460 4.272130 
# 
# 
# High freq. dielectric constant tensor:
#      x y z
#    x 1.901880 -0.013490 -0.036230 
#    y -0.013490 1.989410 -0.013440 
#    z -0.036230 -0.013440 1.947730 
# 
# From -- ./inp_files/56988.got.cif
#   From: 2010.06.25/outbox.cif.g09.slc.cpg/sg2_29_cif.got.tgz:56988.got - 2010.06.27 13:26:56.
