data_PCOD8003235
_publ_section_title
;
Structure prediction by ZEFSAII (Michael W. Deem and Ramdas Pophale) SiO2 
 PCOD8003235
Probable space group: P -1
;
_chemical_formula_sum "Si O2"
_cell_formula_units_Z 16
_cell_length_a 9.931085
_cell_length_b 5.403908
_cell_length_c 16.123770
_cell_angle_alpha 103.271621
_cell_angle_beta 101.244345
_cell_angle_gamma 80.235714
_cell_volume 818.939581
_symmetry_space_group_name_H-M "P -1"
_symmetry_group_IT_number 2
_symmetry_cell_setting 'triclinic'
loop_
_space_group_symop_operation_xyz
x,y,z
-x,-y,-z
loop_
_atom_site_type_symbol
_atom_site_label
_atom_site_fract_x
_atom_site_fract_y
_atom_site_fract_z
Si Si1 0.194520 0.052758 0.989561
Si Si2 0.644695 0.483375 0.973493
Si Si3 0.296339 0.679657 0.204352
Si Si4 0.611091 0.982343 0.630622
Si Si5 0.618919 0.264754 0.488465
Si Si6 0.941904 0.933380 0.857391
Si Si7 0.161847 0.416169 0.310020
Si Si8 0.924761 0.290713 0.523784
O O1 0.289111 0.256219 0.980786
O O2 0.269473 0.773732 0.000890
O O3 0.115614 0.177918 0.072111
O O4 0.093157 0.008442 0.898286
O O5 0.500000 0.500000 0.000000
O O6 0.618137 0.471745 0.870510
O O7 0.386818 0.888700 0.268637
O O8 0.266797 0.497494 0.261040
O O9 0.151321 0.806557 0.159473
O O10 0.655358 0.162007 0.576914
O O11 0.452995 0.931139 0.592967
O O12 0.733966 0.744037 0.624564
O O13 0.500000 0.500000 0.500000
O O14 0.766317 0.312844 0.471076
O O15 0.945284 0.737491 0.765055
O O16 0.075397 0.638063 0.372112
O O17 0.000000 0.500000 0.500000
O O18 0.000000 0.000000 0.500000
#
# Coordination Sequence:
#
# PCOD8003235 Si02
#       8
#     2   2   2   2   2   2   2   2
#     4  10  21  39  61  95 122 162 206 259 312 377
#     4  11  23  40  62  90 129 168 205 256 321 374
#     4  10  20  36  64  92 120 162 215 263 305 374
#     4  10  20  36  65  96 119 158 232 270 302 369
#     4  11  21  39  68  91 121 172 223 266 313 393
#     4   9  21  34  65  92 121 153 216 263 305 365
#     4  11  20  40  63  92 124 168 215 267 317 391
#     4  12  27  43  63  95 135 170 206 272 343 379
#
# _framework density 19.537459999999999
#
# number of rings (size 3 to 8) (size 9 to 14) (size 15 to 20)
#    0.000    1.500    3.750    1.125    5.250    1.500 
#    0.000    2.500    0.000    0.000    0.000    0.000 
#    0.000    0.000    0.000    0.000    0.000    0.000 
#
# Total GULP energy -198292.480678 kJ/mol
# GULP energy per Si atom -12393.280042 kJ/mol
# Density = 1.949299 g / cm^3
# Si number density = 19.537460 Si / 1000 Ang^3
#
#
#
# Elastic Constant Matrix: (Units=GPa)
#
#
# Indices 1 2 3 4 5 6 
#
# 1 146.6085 53.5371 61.8403 -0.7961 5.6850 13.4862
# 2 53.5371 117.5303 45.6543 -3.8460 -3.6458 6.2569
# 3 61.8403 45.6543 120.9487 4.9003 6.9436 -5.7014
# 4 -0.7961 -3.8460 4.9003 22.9653 0.1694 -1.8659
# 5 5.6850 -3.6458 6.9436 0.1694 31.6975 -3.7271
# 6 13.4862 6.2569 -5.7014 -1.8659 -3.7271 29.7561
#
#
#
# Elastic Compliance Matrix: (Units=1/GPa)
#
#
# Indices 1 2 3 4 5 6 
#
# 1 0.010181 -0.002728 -0.004329 0.000421 -0.001790 -0.005068
# 2 -0.002728 0.011174 -0.003109 0.002319 0.002293 -0.001276
# 3 -0.004329 -0.003109 0.012081 -0.002867 -0.001678 0.004540
# 4 0.000421 0.002319 -0.002867 0.044689 0.000777 0.001672
# 5 -0.001790 0.002293 -0.001678 0.000777 0.032989 0.004188
# 6 -0.005068 -0.001276 0.004540 0.001672 0.004188 0.037671
#
#
# Mechanical properties :
#
#
# Convention : Reuss Voigt Hill
#
# Bulk Modulus (GPa) = 76.30846 78.57234 77.44040
# Shear Modulus (GPa) = 28.82114 31.82085 30.32099
#
# Velocity S-wave (km/s) = 3.84497 4.04011 3.94374
# Velocity P-wave (km/s) = 7.67163 7.87825 7.77563
#
# Compressibility (1/GPa) = 0.01310471
#
# Stress axis : x y z
#
# Youngs Moduli (GPa) = 98.22343 89.49680 82.77261
#
# Poissons Ratio (x) = 0.24414 0.35832
# Poissons Ratio (y) = 0.26795 0.25731
# Poissons Ratio (z) = 0.42520 0.27821
#
# Static dielectric constant tensor:
#      x y z
#    x 3.608980 0.185630 0.317380 
#    y 0.185630 3.166460 -0.333340 
#    z 0.317380 -0.333340 3.483550 
# 
# 
# High freq. dielectric constant tensor:
#      x y z
#    x 1.745450 0.016840 0.022830 
#    y 0.016840 1.768160 0.000910 
#    z 0.022830 0.000910 1.760400 
# 
# From -- ./inp_files/124601.got.cif
#   From: 2010.06.25/outbox.cif.g09.slc.cpg/sg2_63_cif.got.tgz:124601.got - 2010.06.27 13:26:56.
