data_PCOD8003078
_publ_section_title
;
Structure prediction by ZEFSAII (Michael W. Deem and Ramdas Pophale) SiO2 
 PCOD8003078
Probable space group: P -1
;
_chemical_formula_sum "Si O2"
_cell_formula_units_Z 14
_cell_length_a 8.958734
_cell_length_b 12.005901
_cell_length_c 8.574262
_cell_angle_alpha 55.346290
_cell_angle_beta 109.256995
_cell_angle_gamma 115.304385
_cell_volume 681.153676
_symmetry_space_group_name_H-M "P -1"
_symmetry_group_IT_number 2
_symmetry_cell_setting 'triclinic'
loop_
_space_group_symop_operation_xyz
x,y,z
-x,-y,-z
loop_
_atom_site_type_symbol
_atom_site_label
_atom_site_fract_x
_atom_site_fract_y
_atom_site_fract_z
Si Si1 0.137824 0.184404 0.044880
Si Si2 0.463944 0.340187 0.174349
Si Si3 0.802619 0.339762 0.403200
Si Si4 0.982473 0.407538 0.914619
Si Si5 0.331301 0.310016 0.502464
Si Si6 0.681482 0.386117 0.660909
Si Si7 0.018949 0.142867 0.688905
O O1 0.087927 0.202510 0.835432
O O2 0.068739 0.284417 0.055255
O O3 0.338099 0.235202 0.092691
O O4 0.064148 0.024890 0.205204
O O5 0.636769 0.302335 0.267525
O O6 0.376339 0.319920 0.328773
O O7 0.500000 0.500000 0.000000
O O8 0.753664 0.365277 0.537801
O O9 0.936291 0.486179 0.281659
O O10 0.880119 0.210713 0.526661
O O11 0.786113 0.332760 0.870323
O O12 0.000000 0.500000 0.000000
O O13 0.486701 0.297397 0.670179
O O14 0.286725 0.447711 0.433168
O O15 0.171746 0.175766 0.593152
#
# Coordination Sequence:
#
# PCOD8003078 Si02
#       7
#     2   2   2   2   2   2   2
#     4  11  25  42  65  92 136 163 212 260 321 374
#     4  11  24  40  63  98 130 160 211 275 315 357
#     4  11  22  39  65  90 125 166 213 255 317 375
#     4  12  22  36  63  98 123 161 214 269 310 361
#     4  10  22  37  63  95 122 169 210 257 320 371
#     4  10  20  36  62  89 122 160 214 261 300 373
#     4  11  24  44  66  91 127 181 204 251 320 391
#
# _framework density 20.553364999999999
#
# number of rings (size 3 to 8) (size 9 to 14) (size 15 to 20)
#    0.000    1.143    4.286    2.143    4.000    1.143 
#    0.000    0.714    0.000    0.000    0.000    0.000 
#    0.000    0.000    0.000    0.000    0.000    0.000 
#
# Total GULP energy -173591.535536 kJ/mol
# GULP energy per Si atom -12399.395395 kJ/mol
# Density = 2.050658 g / cm^3
# Si number density = 20.553365 Si / 1000 Ang^3
#
#
#
# Elastic Constant Matrix: (Units=GPa)
#
#
# Indices 1 2 3 4 5 6 
#
# 1 107.7291 32.6816 52.0504 -1.7553 19.2209 18.8490
# 2 32.6816 90.1330 40.9606 -1.6115 12.0006 14.7023
# 3 52.0504 40.9606 90.2050 -10.5442 18.9834 19.2293
# 4 -1.7553 -1.6115 -10.5442 32.3044 10.6337 7.9119
# 5 19.2209 12.0006 18.9834 10.6337 41.0085 4.8029
# 6 18.8490 14.7023 19.2293 7.9119 4.8029 37.7260
#
#
#
# Elastic Compliance Matrix: (Units=1/GPa)
#
#
# Indices 1 2 3 4 5 6 
#
# 1 0.013620 -0.001352 -0.005923 0.000461 -0.003018 -0.002972
# 2 -0.001352 0.014382 -0.005125 -0.000205 -0.000896 -0.002160
# 3 -0.005923 -0.005125 0.021116 0.010477 -0.007388 -0.007063
# 4 0.000461 -0.000205 0.010477 0.042221 -0.014490 -0.012500
# 5 -0.003018 -0.000896 -0.007388 -0.014490 0.032713 0.004497
# 6 -0.002972 -0.002160 -0.007063 -0.012500 0.004497 0.034482
#
#
# Mechanical properties :
#
#
# Convention : Reuss Voigt Hill
#
# Bulk Modulus (GPa) = 41.12266 59.93914 50.53090
# Shear Modulus (GPa) = 26.11769 33.03274 29.57521
#
# Velocity S-wave (km/s) = 3.56859 4.01330 3.79746
# Velocity P-wave (km/s) = 6.08531 7.12049 6.62316
#
# Compressibility (1/GPa) = 0.02431749
#
# Stress axis : x y z
#
# Youngs Moduli (GPa) = 73.41969 69.53032 47.35764
#
# Poissons Ratio (x) = 0.09402 0.28049
# Poissons Ratio (y) = 0.09928 0.24273
# Poissons Ratio (z) = 0.43485 0.35637
#
# Static dielectric constant tensor:
#      x y z
#    x 4.214320 0.300180 0.328410 
#    y 0.300180 3.642880 0.325780 
#    z 0.328410 0.325780 3.669910 
# 
# 
# High freq. dielectric constant tensor:
#      x y z
#    x 1.821270 0.014020 0.009930 
#    y 0.014020 1.789210 0.021370 
#    z 0.009930 0.021370 1.797080 
# 
# From -- ./inp_files/159835.got.cif
#   From: 2010.06.25/outbox.cif.g09.slc.cpg/sg2_80_cif.got.tgz:159835.got - 2010.06.27 13:26:56.
