data_PCOD8003980
_publ_section_title
;
Structure prediction by ZEFSAII (Michael W. Deem and Ramdas Pophale) SiO2 
 PCOD8003980
Probable space group: P -1
;
_chemical_formula_sum "Si O2"
_cell_formula_units_Z 16
_cell_length_a 11.378754
_cell_length_b 11.903608
_cell_length_c 8.091746
_cell_angle_alpha 54.612847
_cell_angle_beta 116.711495
_cell_angle_gamma 85.202676
_cell_volume 703.554020
_symmetry_space_group_name_H-M "P -1"
_symmetry_group_IT_number 2
_symmetry_cell_setting 'triclinic'
loop_
_space_group_symop_operation_xyz
x,y,z
-x,-y,-z
loop_
_atom_site_type_symbol
_atom_site_label
_atom_site_fract_x
_atom_site_fract_y
_atom_site_fract_z
Si Si1 0.874230 0.240604 0.344370
Si Si2 0.207435 0.142157 0.591264
Si Si3 0.393266 0.138452 0.431304
Si Si4 0.896826 0.986190 0.808438
Si Si5 0.667118 0.079085 0.843105
Si Si6 0.815943 0.270032 0.918519
Si Si7 0.820929 0.569955 0.160844
Si Si8 0.844504 0.542568 0.569146
O O1 0.825806 0.140415 0.517754
O O2 0.836389 0.401908 0.270947
O O3 0.051593 0.138468 0.508232
O O4 0.782270 0.271002 0.090909
O O5 0.280806 0.089162 0.499873
O O6 0.186593 0.315842 0.449702
O O7 0.314002 0.030370 0.896039
O O8 0.493788 0.165461 0.610742
O O9 0.500000 0.000000 0.500000
O O10 0.305676 0.298304 0.140925
O O11 0.763091 0.974903 0.832716
O O12 0.000000 0.000000 0.000000
O O13 0.004313 0.831629 0.905697
O O14 0.718710 0.208166 0.808813
O O15 0.767874 0.445475 0.680383
O O16 0.773416 0.606643 0.290595
O O17 0.977705 0.569952 0.234810
#
# Coordination Sequence:
#
# PCOD8003980 Si02
#       8
#     2   2   2   2   2   2   2   2
#     4  11  21  39  70 102 128 163 218 285 321 376
#     4  11  23  43  66  97 129 170 221 267 327 376
#     4  12  27  43  64  94 135 177 218 261 320 404
#     4  10  20  37  62  97 132 162 215 265 327 371
#     4  11  25  41  63  94 136 176 212 263 325 398
#     4  11  22  37  63  99 131 165 215 269 327 377
#     4  10  22  41  66  96 128 169 220 270 329 376
#     4  10  22  40  71  95 128 164 218 283 325 372
#
# _framework density 22.741678
#
# number of rings (size 3 to 8) (size 9 to 14) (size 15 to 20)
#    0.000    1.250    2.500    4.500    7.000    2.000 
#    0.000    5.000    0.000    1.500    0.000    0.000 
#    0.000    0.000    0.000    0.000    0.000    0.000 
#
# Total GULP energy -198457.312691 kJ/mol
# GULP energy per Si atom -12403.582043 kJ/mol
# Density = 2.268992 g / cm^3
# Si number density = 22.741678 Si / 1000 Ang^3
#
#
#
# Elastic Constant Matrix: (Units=GPa)
#
#
# Indices 1 2 3 4 5 6 
#
# 1 70.5062 8.2798 34.2437 -2.6228 -16.3134 -10.3737
# 2 8.2798 44.6650 4.7821 1.6833 -9.0004 -4.8214
# 3 34.2437 4.7821 141.5865 6.5943 -17.9497 3.6005
# 4 -2.6228 1.6833 6.5943 29.4826 4.5852 -7.4206
# 5 -16.3134 -9.0004 -17.9497 4.5852 42.0927 7.8711
# 6 -10.3737 -4.8214 3.6005 -7.4206 7.8711 38.7269
#
#
#
# Elastic Compliance Matrix: (Units=1/GPa)
#
#
# Indices 1 2 3 4 5 6 
#
# 1 0.018076 -0.001781 -0.004137 0.003315 0.003581 0.004912
# 2 -0.001781 0.023800 0.000261 -0.001984 0.004508 0.001165
# 3 -0.004137 0.000261 0.008707 -0.003634 0.003164 -0.003225
# 4 0.003315 -0.001984 -0.003634 0.038638 -0.006721 0.009748
# 5 0.003581 0.004508 0.003164 -0.006721 0.029316 -0.006020
# 6 0.004912 0.001165 -0.003225 0.009748 -0.006020 0.030674
#
#
# Mechanical properties :
#
#
# Convention : Reuss Voigt Hill
#
# Bulk Modulus (GPa) = 25.46496 39.04097 32.25297
# Shear Modulus (GPa) = 28.79934 36.02390 32.41162
#
# Velocity S-wave (km/s) = 3.56247 3.98433 3.77929
# Velocity P-wave (km/s) = 5.30503 6.19442 5.76690
#
# Compressibility (1/GPa) = 0.03926965
#
# Stress axis : x y z
#
# Youngs Moduli (GPa) = 55.32138 42.01665 114.85033
#
# Poissons Ratio (x) = 0.07483 0.47514
# Poissons Ratio (y) = 0.09853 -0.03000
# Poissons Ratio (z) = 0.22886 -0.01097
#
# Static dielectric constant tensor:
#      x y z
#    x 4.698340 -0.138000 0.049600 
#    y -0.138000 4.133000 0.193330 
#    z 0.049600 0.193330 4.076190 
# 
# 
# High freq. dielectric constant tensor:
#      x y z
#    x 1.880610 -0.003020 -0.022640 
#    y -0.003020 1.906210 0.013040 
#    z -0.022640 0.013040 1.897050 
# 
# From -- ./inp_files/261699.got.cif
#   From: 2010.06.25/outbox.cif.g09.slc.cpg/sg2_131_cif.got.tgz:261699.got - 2010.06.27 13:26:56.
