data_PCOD8003783
_publ_section_title
;
Structure prediction by ZEFSAII (Michael W. Deem and Ramdas Pophale) SiO2 
 PCOD8003783
Probable space group: P -1
;
_chemical_formula_sum "Si O2"
_cell_formula_units_Z 12
_cell_length_a 15.392694
_cell_length_b 9.179197
_cell_length_c 9.613084
_cell_angle_alpha 125.995474
_cell_angle_beta 143.525291
_cell_angle_gamma 46.693811
_cell_volume 585.514897
_symmetry_space_group_name_H-M "P -1"
_symmetry_group_IT_number 2
_symmetry_cell_setting 'triclinic'
loop_
_space_group_symop_operation_xyz
x,y,z
-x,-y,-z
loop_
_atom_site_type_symbol
_atom_site_label
_atom_site_fract_x
_atom_site_fract_y
_atom_site_fract_z
Si Si1 0.518208 0.492095 0.183306
Si Si2 0.137459 0.311977 0.909613
Si Si3 0.783710 0.633024 0.654621
Si Si4 0.654846 0.043980 0.211611
Si Si5 0.169598 0.207895 0.470110
Si Si6 0.809205 0.456148 0.123203
O O1 0.619301 0.607949 0.428880
O O2 0.606356 0.267031 0.227304
O O3 0.500000 0.500000 0.000000
O O4 0.337592 0.603989 0.079336
O O5 0.198580 0.461032 0.996689
O O6 0.939744 0.417896 0.706087
O O7 0.210973 0.099626 0.806645
O O8 0.199592 0.274944 0.126164
O O9 0.769377 0.796921 0.611522
O O10 0.735689 0.004802 0.448429
O O11 0.500000 0.000000 0.000000
O O12 0.207352 0.372212 0.692398
O O13 0.978818 0.260868 0.257452
#
# Coordination Sequence:
#
# PCOD8003783 Si02
#       6
#     2   2   2   2   2   2
#     4  12  22  35  58  91 113 141 195 246 273 320
#     4   9  20  38  61  82 114 159 181 225 288 351
#     4  10  20  37  61  87 115 143 193 233 285 328
#     4  11  20  37  59  84 112 150 196 226 280 336
#     4   9  17  35  59  77 108 158 186 220 275 353
#     4   9  17  34  57  78 112 150 188 215 287 335
#
# _framework density 20.494781
#
# number of rings (size 3 to 8) (size 9 to 14) (size 15 to 20)
#    0.000    2.000    5.000    1.000    0.000    1.333 
#    0.000    3.333    0.000    3.000    0.000    0.000 
#    0.000    0.000    0.000    0.000    0.000    0.000 
#
# Total GULP energy -148779.609949 kJ/mol
# GULP energy per Si atom -12398.300829 kJ/mol
# Density = 2.044813 g / cm^3
# Si number density = 20.494781 Si / 1000 Ang^3
#
#
#
# Elastic Constant Matrix: (Units=GPa)
#
#
# Indices 1 2 3 4 5 6 
#
# 1 128.9777 25.9441 70.2247 -21.2107 0.7032 11.7853
# 2 25.9441 65.3098 35.3204 -31.4393 -5.4259 18.7392
# 3 70.2247 35.3204 106.2019 -29.5196 0.1218 13.4150
# 4 -21.2107 -31.4393 -29.5196 29.7477 6.0382 -9.4435
# 5 0.7032 -5.4259 0.1218 6.0382 55.1085 -12.1589
# 6 11.7853 18.7392 13.4150 -9.4435 -12.1589 27.6971
#
#
#
# Elastic Compliance Matrix: (Units=1/GPa)
#
#
# Indices 1 2 3 4 5 6 
#
# 1 0.012186 0.000068 -0.007674 0.000785 -0.000546 -0.001487
# 2 0.000068 0.035087 -0.000963 0.032492 -0.003102 -0.013585
# 3 -0.007674 -0.000963 0.018186 0.011337 -0.001667 -0.001758
# 4 0.000785 0.032492 0.011337 0.079999 -0.006332 -0.003312
# 5 -0.000546 -0.003102 -0.001667 -0.006332 0.020773 0.010098
# 6 -0.001487 -0.013585 -0.001758 -0.003312 0.010098 0.050084
#
#
# Mechanical properties :
#
#
# Convention : Reuss Voigt Hill
#
# Bulk Modulus (GPa) = 20.69517 62.60752 41.65134
# Shear Modulus (GPa) = 20.03538 33.77734 26.90636
#
# Velocity S-wave (km/s) = 3.13003 4.06408 3.62724
# Velocity P-wave (km/s) = 4.81482 7.25511 6.15707
#
# Compressibility (1/GPa) = 0.04832045
#
# Stress axis : x y z
#
# Youngs Moduli (GPa) = 82.06453 28.50069 54.98814
#
# Poissons Ratio (x) = -0.00195 0.42197
# Poissons Ratio (y) = -0.00561 0.05298
# Poissons Ratio (z) = 0.62974 0.02746
#
# Static dielectric constant tensor:
#      x y z
#    x 4.096710 0.005230 -0.028880 
#    y 0.005230 3.604470 -0.518180 
#    z -0.028880 -0.518180 3.769410 
# 
# 
# High freq. dielectric constant tensor:
#      x y z
#    x 1.818060 0.003710 -0.002670 
#    y 0.003710 1.760720 -0.043640 
#    z -0.002670 -0.043640 1.796760 
# 
# From -- ./inp_files/144379.got.cif
#   From: 2010.06.25/outbox.cif.g09.slc.cpg/sg2_73_cif.got.tgz:144379.got - 2010.06.27 13:26:56.
