data_PCOD8003181
_publ_section_title
;
Structure prediction by ZEFSAII (Michael W. Deem and Ramdas Pophale) SiO2 
 PCOD8003181
Probable space group: P -1
;
_chemical_formula_sum "Si O2"
_cell_formula_units_Z 16
_cell_length_a 7.527076
_cell_length_b 11.635105
_cell_length_c 12.436432
_cell_angle_alpha 75.007412
_cell_angle_beta 111.006450
_cell_angle_gamma 59.911759
_cell_volume 738.912117
_symmetry_space_group_name_H-M "P -1"
_symmetry_group_IT_number 2
_symmetry_cell_setting 'triclinic'
loop_
_space_group_symop_operation_xyz
x,y,z
-x,-y,-z
loop_
_atom_site_type_symbol
_atom_site_label
_atom_site_fract_x
_atom_site_fract_y
_atom_site_fract_z
Si Si1 0.746575 0.769481 0.602273
Si Si2 0.632636 0.234006 0.343887
Si Si3 0.073408 0.105299 0.013759
Si Si4 0.846711 0.546406 0.346404
Si Si5 0.622009 0.419685 0.771792
Si Si6 0.965535 0.944493 0.351086
Si Si7 0.705691 0.996239 0.689016
Si Si8 0.914748 0.767100 0.219396
O O1 0.561961 0.764868 0.633011
O O2 0.831348 0.847790 0.672336
O O3 0.999701 0.597703 0.668628
O O4 0.592991 0.872433 0.436323
O O5 0.500539 0.412736 0.242411
O O6 0.886013 0.157213 0.485159
O O7 0.718455 0.125526 0.283081
O O8 0.807733 0.284438 0.934176
O O9 0.210466 0.110999 0.938809
O O10 0.262160 0.048022 0.168042
O O11 0.000000 0.000000 0.000000
O O12 0.585534 0.590467 0.307758
O O13 0.000000 0.500000 0.500000
O O14 0.782755 0.696392 0.235769
O O15 0.787521 0.380483 0.709522
O O16 0.880472 0.860121 0.295134
O O17 0.149996 0.939383 0.312395
#
# Coordination Sequence:
#
# PCOD8003181 Si02
#       8
#     2   2   2   2   2   2   2   2
#     4  10  22  39  65  99 135 168 219 288 332 391
#     4  10  20  39  62  93 132 174 218 272 344 387
#     4  10  21  43  69  91 133 188 221 268 339 399
#     4  12  25  39  67 104 134 170 232 276 339 398
#     4  10  23  42  68  91 132 177 222 271 333 399
#     4  10  20  36  63  92 132 173 217 276 333 400
#     4  10  20  39  68  92 130 179 219 271 340 394
#     4  10  23  42  66  96 135 177 222 278 339 391
#
# _framework density 21.653455000000001
#
# number of rings (size 3 to 8) (size 9 to 14) (size 15 to 20)
#    0.750    1.000    2.500    1.500    5.250    5.000 
#    0.000    6.875    0.000    0.000    0.000    0.000 
#    0.000    0.000    0.000    0.000    0.000    0.000 
#
# Total GULP energy -198371.347652 kJ/mol
# GULP energy per Si atom -12398.209228 kJ/mol
# Density = 2.160417 g / cm^3
# Si number density = 21.653455 Si / 1000 Ang^3
#
#
#
# Elastic Constant Matrix: (Units=GPa)
#
#
# Indices 1 2 3 4 5 6 
#
# 1 52.2143 13.4821 7.6663 -1.7403 -0.1338 5.3597
# 2 13.4821 138.1597 29.1463 -11.4477 -3.0972 8.6183
# 3 7.6663 29.1463 91.4823 0.2230 -8.7318 9.9902
# 4 -1.7403 -11.4477 0.2230 29.3201 6.6404 -6.2065
# 5 -0.1338 -3.0972 -8.7318 6.6404 27.1936 -2.7693
# 6 5.3597 8.6183 9.9902 -6.2065 -2.7693 32.9818
#
#
#
# Elastic Compliance Matrix: (Units=1/GPa)
#
#
# Indices 1 2 3 4 5 6 
#
# 1 0.019970 -0.001587 -0.000955 0.000188 -0.000696 -0.002564
# 2 -0.001587 0.008201 -0.002490 0.003161 -0.000706 -0.000595
# 3 -0.000955 -0.002490 0.012546 -0.002718 0.004082 -0.003163
# 4 0.000188 0.003161 -0.002718 0.038863 -0.009340 0.006496
# 5 -0.000696 -0.000706 0.004082 -0.009340 0.040352 0.000692
# 6 -0.002564 -0.000595 -0.003163 0.006496 0.000692 0.033131
#
#
# Mechanical properties :
#
#
# Convention : Reuss Voigt Hill
#
# Bulk Modulus (GPa) = 32.62317 42.49397 37.55857
# Shear Modulus (GPa) = 28.84448 33.33654 31.09051
#
# Velocity S-wave (km/s) = 3.65375 3.92796 3.79334
# Velocity P-wave (km/s) = 5.73573 6.34343 6.04722
#
# Compressibility (1/GPa) = 0.03065306
#
# Stress axis : x y z
#
# Youngs Moduli (GPa) = 50.07623 121.93031 79.70633
#
# Poissons Ratio (x) = 0.19355 0.07608
# Poissons Ratio (y) = 0.07949 0.19847
# Poissons Ratio (z) = 0.04780 0.30361
#
# Static dielectric constant tensor:
#      x y z
#    x 3.772050 0.054940 -0.094950 
#    y 0.054940 4.053890 -0.173020 
#    z -0.094950 -0.173020 3.676590 
# 
# 
# High freq. dielectric constant tensor:
#      x y z
#    x 1.852690 0.007260 -0.006970 
#    y 0.007260 1.862880 -0.007600 
#    z -0.006970 -0.007600 1.817290 
# 
# From -- ./inp_files/387388.got.cif
#   From: 2010.06.25/outbox.cif.g09.slc.cpg/sg2_194_cif.got.tgz:387388.got - 2010.06.27 13:26:56.
