data_PCOD8003738
_publ_section_title
;
Structure prediction by ZEFSAII (Michael W. Deem and Ramdas Pophale) SiO2 
 PCOD8003738
Probable space group: P -1
;
_chemical_formula_sum "Si O2"
_cell_formula_units_Z 16
_cell_length_a 14.701682
_cell_length_b 9.161829
_cell_length_c 14.629335
_cell_angle_alpha 38.983935
_cell_angle_beta 139.731059
_cell_angle_gamma 139.797849
_cell_volume 727.290720
_symmetry_space_group_name_H-M "P -1"
_symmetry_group_IT_number 2
_symmetry_cell_setting 'triclinic'
loop_
_space_group_symop_operation_xyz
x,y,z
-x,-y,-z
loop_
_atom_site_type_symbol
_atom_site_label
_atom_site_fract_x
_atom_site_fract_y
_atom_site_fract_z
Si Si1 0.868784 0.914369 0.724607
Si Si2 0.752277 0.577504 0.382385
Si Si3 0.997773 0.393473 0.713988
Si Si4 0.646880 0.874977 0.883630
Si Si5 0.043660 0.669589 0.091059
Si Si6 0.989694 0.089057 0.345721
Si Si7 0.693554 0.404204 0.223862
Si Si8 0.566701 0.789934 0.658135
O O1 0.881678 0.928943 0.616862
O O2 0.688792 0.817500 0.659073
O O3 0.967440 0.193396 0.706238
O O4 0.938999 0.719377 0.909828
O O5 0.869368 0.506740 0.569264
O O6 0.736561 0.417016 0.356623
O O7 0.579628 0.482810 0.338077
O O8 0.823293 0.884583 0.278118
O O9 0.998164 0.255745 0.877318
O O10 0.169084 0.623150 0.715421
O O11 0.473958 0.833880 0.804093
O O12 0.649055 0.815217 0.806687
O O13 0.772097 0.159333 0.867602
O O14 0.691068 0.673545 0.067823
O O15 0.998470 0.369631 0.207577
O O16 0.000000 0.000000 0.500000
O O17 0.500000 0.000000 0.500000
#
# Coordination Sequence:
#
# PCOD8003738 Si02
#       8
#     2   2   2   2   2   2   2   2
#     4  12  24  42  70 101 127 178 226 273 335 391
#     4  11  22  40  63  92 136 169 213 272 336 382
#     4  12  20  37  69  99 129 166 225 279 328 394
#     4  10  20  37  60  97 135 162 212 275 333 383
#     4  12  23  43  68  98 140 173 221 269 331 406
#     4  12  27  45  64  94 139 184 223 267 326 407
#     4  10  21  34  62 101 130 163 212 277 334 387
#     4  11  22  39  66 100 129 163 219 289 335 382
#
# _framework density 21.999454
#
# number of rings (size 3 to 8) (size 9 to 14) (size 15 to 20)
#    0.000    0.750    6.250    1.875    0.000    0.000 
#    0.000    2.500    0.000    0.000    0.000    0.000 
#    0.000    0.000    0.000    0.000    0.000    0.000 
#
# Total GULP energy -198308.341397 kJ/mol
# GULP energy per Si atom -12394.271337 kJ/mol
# Density = 2.194938 g / cm^3
# Si number density = 21.999454 Si / 1000 Ang^3
#
#
#
# Elastic Constant Matrix: (Units=GPa)
#
#
# Indices 1 2 3 4 5 6 
#
# 1 137.5278 43.5578 27.1386 13.3912 -8.8871 36.1039
# 2 43.5578 122.0007 30.2610 -11.1884 14.2766 40.4578
# 3 27.1386 30.2610 79.7090 -0.9949 -5.6269 9.4521
# 4 13.3912 -11.1884 -0.9949 34.0749 2.4460 5.1386
# 5 -8.8871 14.2766 -5.6269 2.4460 29.0747 7.4013
# 6 36.1039 40.4578 9.4521 5.1386 7.4013 45.2001
#
#
#
# Elastic Compliance Matrix: (Units=1/GPa)
#
#
# Indices 1 2 3 4 5 6 
#
# 1 0.011007 -0.002446 -0.001623 -0.004610 0.006365 -0.006781
# 2 -0.002446 0.015070 -0.004040 0.007865 -0.006931 -0.010449
# 3 -0.001623 -0.004040 0.014765 -0.000738 0.004092 0.001239
# 4 -0.004610 0.007865 -0.000738 0.035126 -0.006822 -0.006079
# 5 0.006365 -0.006931 0.004092 -0.006822 0.042621 -0.005940
# 6 -0.006781 -0.010449 0.001239 -0.006079 -0.005940 0.038297
#
#
# Mechanical properties :
#
#
# Convention : Reuss Voigt Hill
#
# Bulk Modulus (GPa) = 40.61350 60.12803 50.37077
# Shear Modulus (GPa) = 27.57684 37.55529 32.56607
#
# Velocity S-wave (km/s) = 3.54436 4.13619 3.85166
# Velocity P-wave (km/s) = 5.93727 7.08532 6.53655
#
# Compressibility (1/GPa) = 0.02462235
#
# Stress axis : x y z
#
# Youngs Moduli (GPa) = 90.85433 66.35895 67.72880
#
# Poissons Ratio (x) = 0.16233 0.10991
# Poissons Ratio (y) = 0.22225 0.27364
# Poissons Ratio (z) = 0.14744 0.26811
#
# Static dielectric constant tensor:
#      x y z
#    x 4.324360 0.394540 -0.344060 
#    y 0.394540 4.243130 0.148670 
#    z -0.344060 0.148670 4.135010 
# 
# 
# High freq. dielectric constant tensor:
#      x y z
#    x 1.857390 0.034100 -0.022050 
#    y 0.034100 1.854660 0.002300 
#    z -0.022050 0.002300 1.867840 
# 
# From -- ./inp_files/312311.got.cif
#   From: 2010.06.25/outbox.cif.g09.slc.cpg/sg2_157_cif.got.tgz:312311.got - 2010.06.27 13:26:56.
