data_PCOD8003222
_publ_section_title
;
Structure prediction by ZEFSAII (Michael W. Deem and Ramdas Pophale) SiO2 
 PCOD8003222
Probable space group: P -1
;
_chemical_formula_sum "Si O2"
_cell_formula_units_Z 16
_cell_length_a 13.263956
_cell_length_b 8.834362
_cell_length_c 14.195534
_cell_angle_alpha 137.094672
_cell_angle_beta 40.788737
_cell_angle_gamma 131.761817
_cell_volume 716.177841
_symmetry_space_group_name_H-M "P -1"
_symmetry_group_IT_number 2
_symmetry_cell_setting 'triclinic'
loop_
_space_group_symop_operation_xyz
x,y,z
-x,-y,-z
loop_
_atom_site_type_symbol
_atom_site_label
_atom_site_fract_x
_atom_site_fract_y
_atom_site_fract_z
Si Si1 0.630322 0.464711 0.095607
Si Si2 0.871507 0.175233 0.857202
Si Si3 0.435789 0.826817 0.159379
Si Si4 0.354409 0.985699 0.469916
Si Si5 0.673811 0.793310 0.702926
Si Si6 0.762143 0.140797 0.116982
Si Si7 0.293142 0.001885 0.718486
Si Si8 0.772311 0.636382 0.369185
O O1 0.458323 0.395899 0.235242
O O2 0.701100 0.732941 0.178307
O O3 0.750815 0.334223 0.997425
O O4 0.603546 0.411887 0.978122
O O5 0.039624 0.298732 0.751535
O O6 0.810400 0.923808 0.738804
O O7 0.888724 0.150600 0.947563
O O8 0.324228 0.802429 0.321224
O O9 0.406037 0.015786 0.194642
O O10 0.619700 0.914064 0.097790
O O11 0.539653 0.049478 0.394568
O O12 0.248385 0.889914 0.594483
O O13 0.317188 0.218711 0.565792
O O14 0.749199 0.668519 0.511359
O O15 0.700211 0.373284 0.269268
O O16 0.830595 0.108230 0.159690
#
# Coordination Sequence:
#
# PCOD8003222 Si02
#       8
#     2   2   2   2   2   2   2   2
#     4  11  20  38  64  88 115 152 192 244 290 335
#     4  11  21  42  60  89 116 152 197 239 288 348
#     4   9  18  34  59  87 113 144 197 244 275 335
#     4   9  21  38  54  86 119 150 192 239 286 340
#     4  10  20  36  64  89 112 149 199 245 282 335
#     4  11  21  37  57  90 116 151 195 236 290 344
#     4  10  23  36  59  88 119 152 197 241 284 344
#     4  11  24  37  63  85 120 156 189 240 294 343
#
# _framework density 22.340820000000001
#
# number of rings (size 3 to 8) (size 9 to 14) (size 15 to 20)
#    0.000    1.750    2.500    2.250    5.250    4.500 
#    0.000    2.500    0.000    0.750    0.000    0.000 
#    0.000    0.000    0.000    0.000    0.000    0.000 
#
# Total GULP energy -198284.795060 kJ/mol
# GULP energy per Si atom -12392.799691 kJ/mol
# Density = 2.228997 g / cm^3
# Si number density = 22.340820 Si / 1000 Ang^3
#
#
#
# Elastic Constant Matrix: (Units=GPa)
#
#
# Indices 1 2 3 4 5 6 
#
# 1 52.3805 27.5250 47.2808 -17.0580 32.3549 -17.1625
# 2 27.5250 53.9774 43.3451 -18.7927 10.7717 -11.2558
# 3 47.2808 43.3451 123.3463 -23.4969 36.6340 -14.1320
# 4 -17.0580 -18.7927 -23.4969 29.4136 -12.8737 12.9883
# 5 32.3549 10.7717 36.6340 -12.8737 39.3468 -20.1872
# 6 -17.1625 -11.2558 -14.1320 12.9883 -20.1872 25.4682
#
#
#
# Elastic Compliance Matrix: (Units=1/GPa)
#
#
# Indices 1 2 3 4 5 6 
#
# 1 0.054191 -0.017254 -0.003314 0.003176 -0.038198 -0.004843
# 2 -0.017254 0.036634 -0.009643 0.010359 0.022605 0.011847
# 3 -0.003314 -0.009643 0.016421 0.003413 -0.014086 -0.010289
# 4 0.003176 0.010359 0.003413 0.053273 -0.001206 -0.019512
# 5 -0.038198 0.022605 -0.014086 -0.001206 0.086936 0.045958
# 6 -0.004843 0.011847 -0.010289 -0.019512 0.045958 0.081906
#
#
# Mechanical properties :
#
#
# Convention : Reuss Voigt Hill
#
# Bulk Modulus (GPa) = 21.35629 51.77846 36.56738
# Shear Modulus (GPa) = 12.33372 26.28260 19.30816
#
# Velocity S-wave (km/s) = 2.35217 3.43365 2.94301
# Velocity P-wave (km/s) = 4.11789 6.24074 5.28696
#
# Compressibility (1/GPa) = 0.04682462
#
# Stress axis : x y z
#
# Youngs Moduli (GPa) = 18.45308 27.29692 60.89710
#
# Poissons Ratio (x) = 0.47099 0.20182
# Poissons Ratio (y) = 0.31839 0.58722
# Poissons Ratio (z) = 0.06116 0.26322
#
# Static dielectric constant tensor:
#      x y z
#    x 4.157250 -0.380120 0.710710 
#    y -0.380120 3.870260 -0.247080 
#    z 0.710710 -0.247080 4.509330 
# 
# 
# High freq. dielectric constant tensor:
#      x y z
#    x 1.864340 -0.026340 0.036390 
#    y -0.026340 1.850050 -0.006350 
#    z 0.036390 -0.006350 1.895180 
# 
# From -- ./inp_files/298939.got.cif
#   From: 2010.06.25/outbox.cif.g09.slc.cpg/sg2_150_cif.got.tgz:298939.got - 2010.06.27 13:26:56.
