data_PCOD8003873
_publ_section_title
;
Structure prediction by ZEFSAII (Michael W. Deem and Ramdas Pophale) SiO2 
 PCOD8003873
Probable space group: P -1
;
_chemical_formula_sum "Si O2"
_cell_formula_units_Z 16
_cell_length_a 4.936779
_cell_length_b 15.682863
_cell_length_c 12.842820
_cell_angle_alpha 59.355643
_cell_angle_beta 76.030178
_cell_angle_gamma 94.331531
_cell_volume 806.342186
_symmetry_space_group_name_H-M "P -1"
_symmetry_group_IT_number 2
_symmetry_cell_setting 'triclinic'
loop_
_space_group_symop_operation_xyz
x,y,z
-x,-y,-z
loop_
_atom_site_type_symbol
_atom_site_label
_atom_site_fract_x
_atom_site_fract_y
_atom_site_fract_z
Si Si1 0.691371 0.576660 0.767506
Si Si2 0.103198 0.281155 0.521383
Si Si3 0.130527 0.618060 0.064562
Si Si4 0.740631 0.690753 0.896736
Si Si5 0.688115 0.547358 0.295510
Si Si6 0.725756 0.894378 0.489619
Si Si7 0.376638 0.625804 0.443983
Si Si8 0.860839 0.118832 0.355689
O O1 0.891341 0.666133 0.624919
O O2 0.860474 0.500109 0.850772
O O3 0.600843 0.635827 0.837872
O O4 0.430188 0.517440 0.757123
O O5 0.172914 0.170292 0.572388
O O6 0.323546 0.345829 0.541322
O O7 0.789520 0.282872 0.596060
O O8 0.957338 0.636708 0.174188
O O9 0.451099 0.693388 0.987347
O O10 0.939252 0.628024 0.975585
O O11 0.947001 0.802661 0.791421
O O12 0.446320 0.598693 0.336223
O O13 0.799580 0.476395 0.415520
O O14 0.405858 0.841321 0.595342
O O15 0.945130 0.900403 0.557573
O O16 0.737074 0.009711 0.376692
#
# Coordination Sequence:
#
# PCOD8003873 Si02
#       8
#     2   2   2   2   2   2   2   2
#     4  11  23  36  54  79 119 154 188 223 267 333
#     4  11  21  35  59  87 109 147 183 233 291 333
#     4  12  24  37  52  80 113 162 189 228 258 335
#     4  12  25  35  55  81 118 153 193 215 275 331
#     4  10  23  39  55  78 115 153 197 235 277 315
#     4  10  20  37  62  82 114 142 184 229 291 334
#     4  10  23  36  58  81 111 146 194 240 281 327
#     4  10  21  38  57  85 112 150 181 230 276 341
#
# _framework density 19.842693000000001
#
# number of rings (size 3 to 8) (size 9 to 14) (size 15 to 20)
#    0.000    1.250    3.750    2.250    3.500    1.500 
#    0.000    0.000    0.000    0.000    0.000    5.250 
#    0.000    0.000    0.000    0.000    0.000    0.000 
#
# Total GULP energy -198244.218984 kJ/mol
# GULP energy per Si atom -12390.263686 kJ/mol
# Density = 1.979753 g / cm^3
# Si number density = 19.842693 Si / 1000 Ang^3
#
#
#
# Elastic Constant Matrix: (Units=GPa)
#
#
# Indices 1 2 3 4 5 6 
#
# 1 114.5139 29.7151 44.0167 4.7901 -21.5663 -16.0011
# 2 29.7151 89.6154 41.7487 -5.2848 -20.5149 -19.8401
# 3 44.0167 41.7487 101.6669 -5.7467 -22.4587 -0.1503
# 4 4.7901 -5.2848 -5.7467 11.2373 -3.9540 -3.0778
# 5 -21.5663 -20.5149 -22.4587 -3.9540 28.3958 2.6978
# 6 -16.0011 -19.8401 -0.1503 -3.0778 2.6978 29.6673
#
#
#
# Elastic Compliance Matrix: (Units=1/GPa)
#
#
# Indices 1 2 3 4 5 6 
#
# 1 0.012346 0.000186 -0.004614 -0.004265 0.004708 0.005889
# 2 0.000186 0.019913 -0.004903 0.014574 0.011360 0.013871
# 3 -0.004614 -0.004903 0.015964 0.008920 0.007337 -0.005429
# 4 -0.004265 0.014574 0.008920 0.117094 0.029034 0.016999
# 5 0.004708 0.011360 0.007337 0.029034 0.056078 0.008086
# 6 0.005889 0.013871 -0.005429 0.016999 0.008086 0.047160
#
#
# Mechanical properties :
#
#
# Convention : Reuss Voigt Hill
#
# Bulk Modulus (GPa) = 33.82993 59.63969 46.73481
# Shear Modulus (GPa) = 16.83104 26.54781 21.68942
#
# Velocity S-wave (km/s) = 2.91559 3.66172 3.30975
# Velocity P-wave (km/s) = 5.33107 6.92814 6.18140
#
# Compressibility (1/GPa) = 0.02955962
#
# Stress axis : x y z
#
# Youngs Moduli (GPa) = 80.99976 50.21968 62.64049
#
# Poissons Ratio (x) = -0.00933 0.28900
# Poissons Ratio (y) = -0.01505 0.30715
# Poissons Ratio (z) = 0.37371 0.24625
#
# Static dielectric constant tensor:
#      x y z
#    x 3.629280 -0.119470 -0.141050 
#    y -0.119470 3.643470 -0.059860 
#    z -0.141050 -0.059860 3.789090 
# 
# 
# High freq. dielectric constant tensor:
#      x y z
#    x 1.793410 -0.010790 -0.005280 
#    y -0.010790 1.739340 0.007930 
#    z -0.005280 0.007930 1.749860 
# 
# From -- ./inp_files/366800.got.cif
#   From: 2010.06.25/outbox.cif.g09.slc.cpg/sg2_184_cif.got.tgz:366800.got - 2010.06.27 13:26:56.
