data_PCOD8003940
_publ_section_title
;
Structure prediction by ZEFSAII (Michael W. Deem and Ramdas Pophale) SiO2 
 PCOD8003940
Probable space group: P -1
;
_chemical_formula_sum "Si O2"
_cell_formula_units_Z 14
_cell_length_a 7.806593
_cell_length_b 5.125153
_cell_length_c 16.266717
_cell_angle_alpha 76.459811
_cell_angle_beta 84.149362
_cell_angle_gamma 110.864196
_cell_volume 578.818250
_symmetry_space_group_name_H-M "P -1"
_symmetry_group_IT_number 2
_symmetry_cell_setting 'triclinic'
loop_
_space_group_symop_operation_xyz
x,y,z
-x,-y,-z
loop_
_atom_site_type_symbol
_atom_site_label
_atom_site_fract_x
_atom_site_fract_y
_atom_site_fract_z
Si Si1 0.488877 0.699283 0.059377
Si Si2 0.318892 0.826166 0.363856
Si Si3 0.974242 0.677844 0.272301
Si Si4 0.263888 0.002728 0.662374
Si Si5 0.896571 0.463618 0.884048
Si Si6 0.219741 0.185536 0.475553
Si Si7 0.137533 0.926807 0.940906
O O1 0.302965 0.535485 0.137495
O O2 0.671866 0.786404 0.103319
O O3 0.500000 0.500000 0.000000
O O4 0.500000 0.000000 0.000000
O O5 0.532856 0.933828 0.311364
O O6 0.255928 0.520675 0.436165
O O7 0.172608 0.797552 0.300420
O O8 0.318921 0.074650 0.408241
O O9 0.854425 0.864749 0.285874
O O10 0.021859 0.709744 0.169483
O O11 0.858252 0.337994 0.321765
O O12 0.307086 0.162360 0.560589
O O13 0.052497 0.791800 0.866008
O O14 0.831096 0.323307 0.987865
O O15 0.000000 0.000000 0.500000
O O16 0.000000 0.000000 0.000000
#
# Coordination Sequence:
#
# PCOD8003940 Si02
#       7
#     2   2   2   2   2   2   2
#     4  10  20  37  62  91 118 154 205 260 311 372
#     4  12  24  44  68  98 133 176 222 274 325 383
#     4  12  26  44  63  96 141 173 214 270 334 402
#     4  12  26  43  69  99 133 177 222 267 329 390
#     4  10  24  40  61  95 127 167 211 268 325 385
#     4  12  21  43  73  96 131 175 224 276 319 377
#     4  10  20  40  68  90 121 163 220 266 315 379
#
# _framework density 24.187211999999999
#
# number of rings (size 3 to 8) (size 9 to 14) (size 15 to 20)
#    0.000    0.857    4.286    3.000    2.000    1.143 
#    0.000    0.000    0.000    0.000    0.000    0.000 
#    0.000    0.000    0.000    0.000    0.000    0.000 
#
# Total GULP energy -173527.182554 kJ/mol
# GULP energy per Si atom -12394.798754 kJ/mol
# Density = 2.413216 g / cm^3
# Si number density = 24.187212 Si / 1000 Ang^3
#
#
#
# Elastic Constant Matrix: (Units=GPa)
#
#
# Indices 1 2 3 4 5 6 
#
# 1 168.0821 57.2361 37.5022 23.2687 -38.6904 41.5472
# 2 57.2361 106.6981 23.1807 28.1434 -8.4633 19.0475
# 3 37.5022 23.1807 87.3287 26.8034 -13.5534 13.3695
# 4 23.2687 28.1434 26.8034 36.8918 -8.2233 0.6594
# 5 -38.6904 -8.4633 -13.5534 -8.2233 27.6412 -2.4340
# 6 41.5472 19.0475 13.3695 0.6594 -2.4340 58.1588
#
#
#
# Elastic Compliance Matrix: (Units=1/GPa)
#
#
# Indices 1 2 3 4 5 6 
#
# 1 0.012987 -0.004040 -0.000672 -0.000997 0.015687 -0.007132
# 2 -0.004040 0.013886 0.000566 -0.009329 -0.004065 -0.001856
# 3 -0.000672 0.000566 0.015905 -0.010711 0.003572 -0.003090
# 4 -0.000997 -0.009329 -0.010711 0.043404 0.003929 0.005902
# 5 0.015687 -0.004065 0.003572 0.003929 0.059084 -0.008268
# 6 -0.007132 -0.001856 -0.003090 0.005902 -0.008268 0.023195
#
#
# Mechanical properties :
#
#
# Convention : Reuss Voigt Hill
#
# Bulk Modulus (GPa) = 28.99897 66.43851 47.71874
# Shear Modulus (GPa) = 26.56056 40.81772 33.68914
#
# Velocity S-wave (km/s) = 3.31739 4.11247 3.73614
# Velocity P-wave (km/s) = 5.16613 7.07658 6.19543
#
# Compressibility (1/GPa) = 0.03448399
#
# Stress axis : x y z
#
# Youngs Moduli (GPa) = 76.99846 72.01403 62.87484
#
# Poissons Ratio (x) = 0.29096 0.04227
# Poissons Ratio (y) = 0.31110 -0.03556
# Poissons Ratio (z) = 0.05177 -0.04073
#
# Static dielectric constant tensor:
#      x y z
#    x 3.951740 0.475190 -0.034770 
#    y 0.475190 5.520250 -0.937560 
#    z -0.034770 -0.937560 5.598820 
# 
# 
# High freq. dielectric constant tensor:
#      x y z
#    x 1.982610 0.011720 -0.012710 
#    y 0.011720 1.978300 0.013440 
#    z -0.012710 0.013440 1.933800 
# 
# From -- ./inp_files/142687.got.cif
#   From: 2010.06.25/outbox.cif.g09.slc.cpg/sg2_72_cif.got.tgz:142687.got - 2010.06.27 13:26:56.
