data_PCOD8003891
_publ_section_title
;
Structure prediction by ZEFSAII (Michael W. Deem and Ramdas Pophale) SiO2 
 PCOD8003891
Probable space group: P -1
;
_chemical_formula_sum "Si O2"
_cell_formula_units_Z 16
_cell_length_a 15.323143
_cell_length_b 9.895595
_cell_length_c 11.901250
_cell_angle_alpha 87.578106
_cell_angle_beta 27.592067
_cell_angle_gamma 77.794066
_cell_volume 773.835668
_symmetry_space_group_name_H-M "P -1"
_symmetry_group_IT_number 2
_symmetry_cell_setting 'triclinic'
loop_
_space_group_symop_operation_xyz
x,y,z
-x,-y,-z
loop_
_atom_site_type_symbol
_atom_site_label
_atom_site_fract_x
_atom_site_fract_y
_atom_site_fract_z
Si Si1 0.851731 0.710898 0.657677
Si Si2 0.416709 0.020836 0.912442
Si Si3 0.644016 0.864139 0.268722
Si Si4 0.696856 0.227997 0.027203
Si Si5 0.698310 0.463054 0.851534
Si Si6 0.576359 0.329759 0.407157
Si Si7 0.014981 0.156518 0.964247
Si Si8 0.860023 0.854276 0.425545
O O1 0.725131 0.614134 0.845454
O O2 0.856156 0.721460 0.515198
O O3 0.082608 0.643358 0.447204
O O4 0.735413 0.876231 0.826259
O O5 0.345602 0.092563 0.871576
O O6 0.404897 0.860207 0.930420
O O7 0.651076 0.996090 0.675464
O O8 0.572458 0.728967 0.354040
O O9 0.868508 0.811816 0.064741
O O10 0.500000 0.000000 0.500000
O O11 0.590299 0.267291 0.267751
O O12 0.662253 0.383787 0.006103
O O13 0.934988 0.121135 0.773349
O O14 0.500000 0.500000 0.000000
O O15 0.500000 0.500000 0.500000
O O16 0.792133 0.276032 0.223012
O O17 0.123667 0.180270 0.724935
O O18 0.000000 0.000000 0.000000
#
# Coordination Sequence:
#
# PCOD8003891 Si02
#       8
#     2   2   2   2   2   2   2   2
#     4  10  24  39  60  93 118 157 205 248 299 364
#     4  12  22  38  63  93 122 154 204 252 300 364
#     4  12  21  39  63  91 124 163 201 250 312 368
#     4  10  22  39  61  86 118 162 200 248 305 364
#     4  10  22  43  61  83 123 162 198 246 308 357
#     4  11  24  40  61  92 125 161 211 257 307 366
#     4  11  20  40  66  91 123 165 205 252 309 367
#     4  10  20  37  62  86 120 156 196 251 300 351
#
# _framework density 20.676224000000001
#
# number of rings (size 3 to 8) (size 9 to 14) (size 15 to 20)
#    0.000    1.250    3.750    1.875    1.750    3.500 
#    2.250    0.000    0.000    0.000    0.000    0.000 
#    0.000    0.000    0.000    0.000    0.000    0.000 
#
# Total GULP energy -198324.021253 kJ/mol
# GULP energy per Si atom -12395.251328 kJ/mol
# Density = 2.062916 g / cm^3
# Si number density = 20.676224 Si / 1000 Ang^3
#
#
#
# Elastic Constant Matrix: (Units=GPa)
#
#
# Indices 1 2 3 4 5 6 
#
# 1 101.2681 31.9207 46.4046 -0.7747 -17.8380 -19.9479
# 2 31.9207 122.3831 40.9389 -4.3239 3.1968 -5.5387
# 3 46.4046 40.9389 91.8592 4.7832 -24.4713 -2.5453
# 4 -0.7747 -4.3239 4.7832 38.2483 -12.3696 3.5143
# 5 -17.8380 3.1968 -24.4713 -12.3696 37.5123 -0.2677
# 6 -19.9479 -5.5387 -2.5453 3.5143 -0.2677 31.8424
#
#
#
# Elastic Compliance Matrix: (Units=1/GPa)
#
#
# Indices 1 2 3 4 5 6 
#
# 1 0.015606 -0.001811 -0.005742 0.001424 0.004362 0.008882
# 2 -0.001811 0.010499 -0.005108 0.000138 -0.005041 0.000226
# 3 -0.005742 -0.005108 0.018617 0.000480 0.009987 -0.002967
# 4 0.001424 0.000138 0.000480 0.029828 0.010799 -0.002247
# 5 0.004362 -0.005041 0.009987 0.010799 0.039250 0.001792
# 6 0.008882 0.000226 -0.002967 -0.002247 0.001792 0.037034
#
#
# Mechanical properties :
#
#
# Convention : Reuss Voigt Hill
#
# Bulk Modulus (GPa) = 51.55030 61.55986 56.55508
# Shear Modulus (GPa) = 27.37878 34.60368 30.99123
#
# Velocity S-wave (km/s) = 3.64286 4.09540 3.87574
# Velocity P-wave (km/s) = 6.53301 7.22502 6.88771
#
# Compressibility (1/GPa) = 0.01939853
#
# Stress axis : x y z
#
# Youngs Moduli (GPa) = 64.07823 95.24790 53.71484
#
# Poissons Ratio (x) = 0.17251 0.30845
# Poissons Ratio (y) = 0.11606 0.27437
# Poissons Ratio (z) = 0.36796 0.48652
#
# Static dielectric constant tensor:
#      x y z
#    x 3.937570 -0.237660 -0.209520 
#    y -0.237660 3.798220 -0.196940 
#    z -0.209520 -0.196940 3.869180 
# 
# 
# High freq. dielectric constant tensor:
#      x y z
#    x 1.807090 -0.027910 -0.020550 
#    y -0.027910 1.801120 -0.018260 
#    z -0.020550 -0.018260 1.813070 
# 
# From -- ./inp_files/206206.got.cif
#   From: 2010.06.25/outbox.cif.g09.slc.cpg/sg2_104_cif.got.tgz:206206.got - 2010.06.27 13:26:56.
