data_PCOD8003830
_publ_section_title
;
Structure prediction by ZEFSAII (Michael W. Deem and Ramdas Pophale) SiO2 
 PCOD8003830
Probable space group: P -1
;
_chemical_formula_sum "Si O2"
_cell_formula_units_Z 16
_cell_length_a 12.551237
_cell_length_b 14.472404
_cell_length_c 5.535216
_cell_angle_alpha 92.218752
_cell_angle_beta 63.213512
_cell_angle_gamma 55.137941
_cell_volume 673.521988
_symmetry_space_group_name_H-M "P -1"
_symmetry_group_IT_number 2
_symmetry_cell_setting 'triclinic'
loop_
_space_group_symop_operation_xyz
x,y,z
-x,-y,-z
loop_
_atom_site_type_symbol
_atom_site_label
_atom_site_fract_x
_atom_site_fract_y
_atom_site_fract_z
Si Si1 0.187922 0.169844 0.862343
Si Si2 0.807828 0.491549 0.658611
Si Si3 0.571839 0.040921 0.099262
Si Si4 0.852813 0.950060 0.490486
Si Si5 0.321405 0.791459 0.474763
Si Si6 0.489292 0.277883 0.228813
Si Si7 0.105457 0.750633 0.515755
Si Si8 0.107068 0.404565 0.083896
O O1 0.210729 0.268481 0.851758
O O2 0.042756 0.212076 0.180113
O O3 0.362589 0.041295 0.736311
O O4 0.157679 0.146853 0.625118
O O5 0.680372 0.582337 0.588715
O O6 0.800138 0.385328 0.712381
O O7 0.774555 0.576125 0.931578
O O8 0.990297 0.420654 0.403592
O O9 0.723807 0.018002 0.839032
O O10 0.449818 0.187802 0.282712
O O11 0.500000 0.000000 0.000000
O O12 0.033695 0.860149 0.401518
O O13 0.808287 0.057684 0.368428
O O14 0.418295 0.739692 0.622535
O O15 0.224814 0.744871 0.565704
O O16 0.425090 0.741162 0.116659
O O17 0.000000 0.500000 0.000000
#
# Coordination Sequence:
#
# PCOD8003830 Si02
#       8
#     2   2   2   2   2   2   2   2
#     4  10  20  37  61  91 120 159 213 261 319 377
#     4  10  23  42  61  92 129 166 217 263 320 383
#     4  10  21  39  59  90 127 166 207 256 323 383
#     4  10  21  40  62  94 125 161 215 268 317 381
#     4  11  25  44  66  95 130 173 213 267 322 374
#     4  11  25  44  64  95 135 170 214 260 322 387
#     4  10  23  40  65  90 121 168 216 270 314 378
#     4  10  21  38  64  92 123 166 210 268 320 376
#
# _framework density 23.755721999999999
#
# number of rings (size 3 to 8) (size 9 to 14) (size 15 to 20)
#    0.000    1.750    1.250    1.875    3.500    5.000 
#    0.000    0.000    0.000    0.000    0.000    0.000 
#    0.000    0.000    0.000    0.000    0.000    0.000 
#
# Total GULP energy -198214.443854 kJ/mol
# GULP energy per Si atom -12388.402741 kJ/mol
# Density = 2.370165 g / cm^3
# Si number density = 23.755722 Si / 1000 Ang^3
#
#
#
# Elastic Constant Matrix: (Units=GPa)
#
#
# Indices 1 2 3 4 5 6 
#
# 1 145.9132 55.6377 22.7850 5.6991 32.4522 -3.0664
# 2 55.6377 151.1167 15.5229 12.9469 10.2749 -7.4862
# 3 22.7850 15.5229 57.9823 -0.1560 14.6837 -3.0128
# 4 5.6991 12.9469 -0.1560 28.7376 -6.0582 15.1593
# 5 32.4522 10.2749 14.6837 -6.0582 33.6129 -0.1283
# 6 -3.0664 -7.4862 -3.0128 15.1593 -0.1283 43.6912
#
#
#
# Elastic Compliance Matrix: (Units=1/GPa)
#
#
# Indices 1 2 3 4 5 6 
#
# 1 0.010255 -0.002678 -0.000888 -0.003536 -0.009326 0.001399
# 2 -0.002678 0.008274 -0.000931 -0.004770 -0.000386 0.002819
# 3 -0.000888 -0.000931 0.019934 -0.001907 -0.007903 0.001791
# 4 -0.003536 -0.004770 -0.001907 0.050622 0.014758 -0.018718
# 5 -0.009326 -0.000386 -0.007903 0.014758 0.044961 -0.006254
# 6 0.001399 0.002819 0.001791 -0.018718 -0.006254 0.030069
#
#
# Mechanical properties :
#
#
# Convention : Reuss Voigt Hill
#
# Bulk Modulus (GPa) = 33.93460 60.32259 47.12859
# Shear Modulus (GPa) = 27.33254 38.61280 32.97267
#
# Velocity S-wave (km/s) = 3.39568 4.03601 3.72961
# Velocity P-wave (km/s) = 5.44885 6.86784 6.19908
#
# Compressibility (1/GPa) = 0.02946845
#
# Stress axis : x y z
#
# Youngs Moduli (GPa) = 97.51384 120.86631 50.16495
#
# Poissons Ratio (x) = 0.32368 0.04454
# Poissons Ratio (y) = 0.26115 0.04672
# Poissons Ratio (z) = 0.08658 0.11256
#
# Static dielectric constant tensor:
#      x y z
#    x 4.455580 -0.073050 -0.007910 
#    y -0.073050 4.726020 0.372830 
#    z -0.007910 0.372830 4.285340 
# 
# 
# High freq. dielectric constant tensor:
#      x y z
#    x 1.940020 -0.002700 0.016580 
#    y -0.002700 1.952570 0.012230 
#    z 0.016580 0.012230 1.921090 
# 
# From -- ./inp_files/69173.got.cif
#   From: 2010.06.25/outbox.cif.g09.slc.cpg/sg2_35_cif.got.tgz:69173.got - 2010.06.27 13:26:56.
