data_PCOD8003724
_publ_section_title
;
Structure prediction by ZEFSAII (Michael W. Deem and Ramdas Pophale) SiO2 
 PCOD8003724
Probable space group: P -1
;
_chemical_formula_sum "Si O2"
_cell_formula_units_Z 16
_cell_length_a 11.570312
_cell_length_b 14.069626
_cell_length_c 20.486099
_cell_angle_alpha 33.165309
_cell_angle_beta 29.791324
_cell_angle_gamma 31.446152
_cell_volume 801.991664
_symmetry_space_group_name_H-M "P -1"
_symmetry_group_IT_number 2
_symmetry_cell_setting 'triclinic'
loop_
_space_group_symop_operation_xyz
x,y,z
-x,-y,-z
loop_
_atom_site_type_symbol
_atom_site_label
_atom_site_fract_x
_atom_site_fract_y
_atom_site_fract_z
Si Si1 0.339667 0.521967 0.968280
Si Si2 0.517156 0.588820 0.508479
Si Si3 0.255675 0.819112 0.947622
Si Si4 0.654865 0.974901 0.645989
Si Si5 0.906506 0.342439 0.564242
Si Si6 0.411399 0.371314 0.335172
Si Si7 0.976754 0.703530 0.761303
Si Si8 0.889074 0.053522 0.359627
O O1 0.194380 0.702020 0.987293
O O2 0.427805 0.592848 0.820909
O O3 0.593466 0.337912 0.979472
O O4 0.129999 0.452387 0.086840
O O5 0.500000 0.500000 0.500000
O O6 0.493935 0.802019 0.384088
O O7 0.787088 0.462888 0.487028
O O8 0.289884 0.589502 0.665039
O O9 0.439492 0.902654 0.777998
O O10 0.000000 0.000000 0.000000
O O11 0.825651 0.956705 0.509324
O O12 0.853556 0.839552 0.681086
O O13 0.735792 0.437378 0.657498
O O14 0.199230 0.316215 0.440382
O O15 0.930250 0.125176 0.673544
O O16 0.611689 0.193509 0.382874
O O17 0.937917 0.837202 0.767992
#
# Coordination Sequence:
#
# PCOD8003724 Si02
#       8
#     2   2   2   2   2   2   2   2
#     4  10  24  42  60  88 127 165 201 250 311 369
#     4  11  21  35  64  94 122 159 203 262 305 357
#     4  10  23  39  63  89 121 162 208 254 303 367
#     4  10  20  37  60  91 124 155 205 261 303 357
#     4  11  23  39  64  93 120 160 216 255 304 364
#     4  11  24  41  62  92 124 166 205 257 306 371
#     4  10  21  40  59  89 127 162 202 252 312 369
#     4  11  21  41  61  90 124 160 205 255 312 360
#
# _framework density 19.950333000000001
#
# number of rings (size 3 to 8) (size 9 to 14) (size 15 to 20)
#    0.000    1.500    2.500    4.125    3.500    2.500 
#    0.000    0.625    0.000    0.000    0.000    0.000 
#    0.000    0.000    0.000    0.000    0.000    0.000 
#
# Total GULP energy -198405.399577 kJ/mol
# GULP energy per Si atom -12400.337474 kJ/mol
# Density = 1.990492 g / cm^3
# Si number density = 19.950333 Si / 1000 Ang^3
#
#
#
# Elastic Constant Matrix: (Units=GPa)
#
#
# Indices 1 2 3 4 5 6 
#
# 1 116.1953 42.1696 38.9714 -6.1924 -17.8469 9.8252
# 2 42.1696 113.2037 26.3628 -9.6816 -11.5076 18.6282
# 3 38.9714 26.3628 74.5323 -4.4834 -10.8083 7.4544
# 4 -6.1924 -9.6816 -4.4834 16.1646 6.9061 -7.6342
# 5 -17.8469 -11.5076 -10.8083 6.9061 29.2103 -4.1355
# 6 9.8252 18.6282 7.4544 -7.6342 -4.1355 41.1516
#
#
#
# Elastic Compliance Matrix: (Units=1/GPa)
#
#
# Indices 1 2 3 4 5 6 
#
# 1 0.011869 -0.002898 -0.004524 -0.000536 0.004514 -0.000349
# 2 -0.002898 0.011246 -0.001822 0.003194 0.000749 -0.003401
# 3 -0.004524 -0.001822 0.016905 0.000376 0.002567 -0.000830
# 4 -0.000536 0.003194 0.000376 0.075394 -0.015188 0.011075
# 5 0.004514 0.000749 0.002567 -0.015188 0.041757 -0.000503
# 6 -0.000349 -0.003401 -0.000830 0.011075 -0.000503 0.028077
#
#
# Mechanical properties :
#
#
# Convention : Reuss Voigt Hill
#
# Bulk Modulus (GPa) = 46.43967 57.65985 52.04976
# Shear Modulus (GPa) = 23.70635 30.40049 27.05342
#
# Velocity S-wave (km/s) = 3.45087 3.90783 3.68644
# Velocity P-wave (km/s) = 6.26148 7.02325 6.65328
#
# Compressibility (1/GPa) = 0.02153331
#
# Stress axis : x y z
#
# Youngs Moduli (GPa) = 84.25056 88.91805 59.15473
#
# Poissons Ratio (x) = 0.25764 0.26763
# Poissons Ratio (y) = 0.24412 0.10777
# Poissons Ratio (z) = 0.38116 0.16200
#
# Static dielectric constant tensor:
#      x y z
#    x 4.055370 0.238380 -0.242760 
#    y 0.238380 3.893650 -0.144740 
#    z -0.242760 -0.144740 3.465710 
# 
# 
# High freq. dielectric constant tensor:
#      x y z
#    x 1.795200 0.006040 -0.012170 
#    y 0.006040 1.786200 -0.011220 
#    z -0.012170 -0.011220 1.757000 
# 
# From -- ./inp_files/427598.got.cif
#   From: 2010.06.25/outbox.cif.g09.slc.cpg/sg2_214_cif.got.tgz:427598.got - 2010.06.27 13:26:56.
