data_PCOD8003238
_publ_section_title
;
Structure prediction by ZEFSAII (Michael W. Deem and Ramdas Pophale) SiO2 
 PCOD8003238
Probable space group: P -1
;
_chemical_formula_sum "Si O2"
_cell_formula_units_Z 14
_cell_length_a 9.520007
_cell_length_b 20.917340
_cell_length_c 8.164367
_cell_angle_alpha 47.241243
_cell_angle_beta 131.722717
_cell_angle_gamma 153.380821
_cell_volume 526.296501
_symmetry_space_group_name_H-M "P -1"
_symmetry_group_IT_number 2
_symmetry_cell_setting 'triclinic'
loop_
_space_group_symop_operation_xyz
x,y,z
-x,-y,-z
loop_
_atom_site_type_symbol
_atom_site_label
_atom_site_fract_x
_atom_site_fract_y
_atom_site_fract_z
Si Si1 0.592482 0.768428 0.126434
Si Si2 0.830802 0.209572 0.770773
Si Si3 0.314872 0.165513 0.270457
Si Si4 0.178220 0.504081 0.506769
Si Si5 0.241029 0.286351 0.215997
Si Si6 0.370574 0.051176 0.980935
Si Si7 0.237176 0.952317 0.482320
O O1 0.325246 0.613080 0.281535
O O2 0.539779 0.853506 0.961401
O O3 0.955060 0.879355 0.268154
O O4 0.543983 0.733487 0.957019
O O5 0.625249 0.161018 0.848501
O O6 0.937863 0.339355 0.533723
O O7 0.156171 0.294961 0.959620
O O8 0.675700 0.069453 0.791891
O O9 0.387545 0.243930 0.359119
O O10 0.411736 0.098559 0.463410
O O11 0.935811 0.022747 0.212491
O O12 0.465193 0.560222 0.726928
O O13 0.000000 0.500000 0.500000
O O14 0.926536 0.168702 0.293730
O O15 0.500000 0.000000 0.500000
#
# Coordination Sequence:
#
# PCOD8003238 Si02
#       7
#     2   2   2   2   2   2   2
#     4  10  21  39  64  90 129 166 210 253 319 374
#     4  10  20  36  64  92 125 158 217 253 315 366
#     4  10  21  40  60  93 131 163 204 262 318 374
#     4  11  22  41  63  90 123 175 211 256 312 380
#     4  10  23  39  60  93 129 165 209 259 312 378
#     4   9  18  35  62  93 115 162 207 259 304 363
#     4  10  21  35  61  97 128 160 212 267 313 363
#
# _framework density 26.600974999999998
#
# number of rings (size 3 to 8) (size 9 to 14) (size 15 to 20)
#    0.000    2.000    1.429    2.571    4.000    1.143 
#    0.000    3.571    0.000    3.429    0.000    4.000 
#    0.000    0.000    0.000    0.000    0.000    0.000 
#
# Total GULP energy -173484.075617 kJ/mol
# GULP energy per Si atom -12391.719687 kJ/mol
# Density = 2.654043 g / cm^3
# Si number density = 26.600975 Si / 1000 Ang^3
#
#
#
# Elastic Constant Matrix: (Units=GPa)
#
#
# Indices 1 2 3 4 5 6 
#
# 1 165.7595 46.8327 47.4941 -28.2981 6.2384 10.3300
# 2 46.8327 119.9938 29.2076 -45.2994 -0.9962 -6.2613
# 3 47.4941 29.2076 99.4484 -31.1467 12.0543 3.8297
# 4 -28.2981 -45.2994 -31.1467 39.5268 -10.3566 0.1214
# 5 6.2384 -0.9962 12.0543 -10.3566 40.2158 -4.8554
# 6 10.3300 -6.2613 3.8297 0.1214 -4.8554 30.5534
#
#
#
# Elastic Compliance Matrix: (Units=1/GPa)
#
#
# Indices 1 2 3 4 5 6 
#
# 1 0.007750 -0.002265 -0.002621 0.000731 -0.000630 -0.002859
# 2 -0.002265 0.016942 0.001648 0.020703 0.006204 0.004935
# 3 -0.002621 0.001648 0.014476 0.011127 -0.001124 -0.000813
# 4 0.000731 0.020703 0.011127 0.061851 0.013536 0.004506
# 5 -0.000630 0.006204 -0.001124 0.013536 0.029700 0.006291
# 6 -0.002859 0.004935 -0.000813 0.004506 0.006291 0.035791
#
#
# Mechanical properties :
#
#
# Convention : Reuss Voigt Hill
#
# Bulk Modulus (GPa) = 30.58862 70.25228 50.42045
# Shear Modulus (GPa) = 27.19132 39.50368 33.34750
#
# Velocity S-wave (km/s) = 3.20064 3.85781 3.54449
# Velocity P-wave (km/s) = 5.01825 6.80519 5.97886
#
# Compressibility (1/GPa) = 0.03269190
#
# Stress axis : x y z
#
# Youngs Moduli (GPa) = 129.02411 59.02663 69.08206
#
# Poissons Ratio (x) = 0.13372 0.18104
# Poissons Ratio (y) = 0.29230 -0.11387
# Poissons Ratio (z) = 0.33813 -0.09729
#
# Static dielectric constant tensor:
#      x y z
#    x 5.523090 0.007520 0.593420 
#    y 0.007520 5.099120 0.181200 
#    z 0.593420 0.181200 5.164980 
# 
# 
# High freq. dielectric constant tensor:
#      x y z
#    x 2.079650 0.017200 0.012430 
#    y 0.017200 2.071250 0.017420 
#    z 0.012430 0.017420 2.074940 
# 
# From -- ./inp_files/223279.got.cif
#   From: 2010.06.25/outbox.cif.g09.slc.cpg/sg2_112_cif.got.tgz:223279.got - 2010.06.27 13:26:56.
