data_PCOD8003905
_publ_section_title
;
Structure prediction by ZEFSAII (Michael W. Deem and Ramdas Pophale) SiO2 
 PCOD8003905
Probable space group: P -1
;
_chemical_formula_sum "Si O2"
_cell_formula_units_Z 14
_cell_length_a 8.581369
_cell_length_b 21.174249
_cell_length_c 11.047499
_cell_angle_alpha 140.951287
_cell_angle_beta 71.831300
_cell_angle_gamma 137.284367
_cell_volume 682.693026
_symmetry_space_group_name_H-M "P -1"
_symmetry_group_IT_number 2
_symmetry_cell_setting 'triclinic'
loop_
_space_group_symop_operation_xyz
x,y,z
-x,-y,-z
loop_
_atom_site_type_symbol
_atom_site_label
_atom_site_fract_x
_atom_site_fract_y
_atom_site_fract_z
Si Si1 0.669288 0.307827 0.808026
Si Si2 0.058332 0.277143 0.308105
Si Si3 0.426991 0.814022 0.083616
Si Si4 0.482589 0.645688 0.676472
Si Si5 0.893275 0.640949 0.837219
Si Si6 0.458740 0.540153 0.948249
Si Si7 0.815797 0.187048 0.477750
O O1 0.615288 0.182326 0.551866
O O2 0.580642 0.241185 0.867379
O O3 0.491684 0.316560 0.821647
O O4 0.000000 0.500000 0.000000
O O5 0.810185 0.171518 0.310178
O O6 0.309687 0.488356 0.581023
O O7 0.192812 0.234254 0.233808
O O8 0.939871 0.227129 0.124069
O O9 0.489833 0.763978 0.890661
O O10 0.118512 0.710442 0.981187
O O11 0.679781 0.022484 0.330629
O O12 0.319486 0.555149 0.450860
O O13 0.703166 0.631348 0.930240
O O14 0.142031 0.361533 0.704977
O O15 0.500000 0.500000 0.000000
#
# Coordination Sequence:
#
# PCOD8003905 Si02
#       7
#     2   2   2   2   2   2   2
#     4  10  22  40  63  82 117 161 200 239 299 356
#     4   9  18  37  62  79 122 159 208 232 288 349
#     4  12  23  36  61  93 125 155 192 253 303 339
#     4   9  18  37  59  83 115 164 203 234 286 351
#     4  10  20  37  62  88 116 158 209 235 280 367
#     4  11  22  43  68  86 108 161 211 244 288 367
#     4  11  22  40  58  93 125 153 194 251 305 343
#
# _framework density 20.507021999999999
#
# number of rings (size 3 to 8) (size 9 to 14) (size 15 to 20)
#    0.857    0.857    1.429    5.143    0.000    1.143 
#    0.000    4.286    0.000    0.000    0.000    0.000 
#    0.000    0.000    0.000    0.000    0.000    0.000 
#
# Total GULP energy -173523.237248 kJ/mol
# GULP energy per Si atom -12394.516946 kJ/mol
# Density = 2.046035 g / cm^3
# Si number density = 20.507022 Si / 1000 Ang^3
#
#
#
# Elastic Constant Matrix: (Units=GPa)
#
#
# Indices 1 2 3 4 5 6 
#
# 1 130.9740 46.1720 38.0758 -10.2961 -21.0612 6.9485
# 2 46.1720 116.4862 28.6372 -18.6489 -14.0965 -6.3699
# 3 38.0758 28.6372 48.0780 1.1982 -25.7784 12.1379
# 4 -10.2961 -18.6489 1.1982 21.1400 -1.6516 -9.3884
# 5 -21.0612 -14.0965 -25.7784 -1.6516 28.6590 -10.7519
# 6 6.9485 -6.3699 12.1379 -9.3884 -10.7519 37.0838
#
#
#
# Elastic Compliance Matrix: (Units=1/GPa)
#
#
# Indices 1 2 3 4 5 6 
#
# 1 0.010912 -0.001140 -0.007815 0.005892 0.001624 0.002280
# 2 -0.001140 0.015789 -0.010234 0.019666 0.003455 0.012256
# 3 -0.007815 -0.010234 0.053883 -0.019554 0.031394 -0.013778
# 4 0.005892 0.019666 -0.019554 0.084969 0.014178 0.034296
# 5 0.001624 0.003455 0.031394 0.014178 0.072307 0.014567
# 6 0.002280 0.012256 -0.013778 0.034296 0.014567 0.046060
#
#
# Mechanical properties :
#
#
# Convention : Reuss Voigt Hill
#
# Bulk Modulus (GPa) = 23.69241 57.92312 40.80776
# Shear Modulus (GPa) = 14.86480 29.55346 22.20913
#
# Velocity S-wave (km/s) = 2.69525 3.80035 3.29447
# Velocity P-wave (km/s) = 4.61132 6.89665 5.86634
#
# Compressibility (1/GPa) = 0.04220762
#
# Stress axis : x y z
#
# Youngs Moduli (GPa) = 91.64190 63.33478 18.55876
#
# Poissons Ratio (x) = 0.07218 0.14503
# Poissons Ratio (y) = 0.10444 0.18993
# Poissons Ratio (z) = 0.71614 0.64817
#
# Static dielectric constant tensor:
#      x y z
#    x 3.780610 0.148940 -0.324410 
#    y 0.148940 3.766970 -0.228500 
#    z -0.324410 -0.228500 3.527570 
# 
# 
# High freq. dielectric constant tensor:
#      x y z
#    x 1.799540 0.007120 -0.018540 
#    y 0.007120 1.807060 -0.017000 
#    z -0.018540 -0.017000 1.769990 
# 
# From -- ./inp_files/274814.got.cif
#   From: 2010.06.25/outbox.cif.g09.slc.cpg/sg2_138_cif.got.tgz:274814.got - 2010.06.27 13:26:56.
