data_PCOD8003503
_publ_section_title
;
Structure prediction by ZEFSAII (Michael W. Deem and Ramdas Pophale) SiO2 
 PCOD8003503
Probable space group: P -1
;
_chemical_formula_sum "Si O2"
_cell_formula_units_Z 16
_cell_length_a 15.507296
_cell_length_b 14.798402
_cell_length_c 11.999394
_cell_angle_alpha 115.914031
_cell_angle_beta 152.014789
_cell_angle_gamma 44.868596
_cell_volume 748.733025
_symmetry_space_group_name_H-M "P -1"
_symmetry_group_IT_number 2
_symmetry_cell_setting 'triclinic'
loop_
_space_group_symop_operation_xyz
x,y,z
-x,-y,-z
loop_
_atom_site_type_symbol
_atom_site_label
_atom_site_fract_x
_atom_site_fract_y
_atom_site_fract_z
Si Si1 0.472094 0.423187 0.634860
Si Si2 0.644768 0.206754 0.524370
Si Si3 0.429483 0.394227 0.165860
Si Si4 0.855824 0.283823 0.198779
Si Si5 0.728663 0.010541 0.829944
Si Si6 0.798848 0.622843 0.560486
Si Si7 0.385212 0.398910 0.872016
Si Si8 0.393886 0.991012 0.549566
O O1 0.529353 0.347873 0.541033
O O2 0.400390 0.571042 0.614486
O O3 0.216098 0.474077 0.436483
O O4 0.745597 0.300629 0.959710
O O5 0.564870 0.260039 0.334353
O O6 0.497923 0.164559 0.373915
O O7 0.986025 0.050538 0.841275
O O8 0.451690 0.331997 0.036220
O O9 0.092715 0.554951 0.891878
O O10 0.798962 0.422890 0.236585
O O11 0.192883 0.119699 0.487970
O O12 0.695474 0.283827 0.107539
O O13 0.467732 0.196271 0.616373
O O14 0.661848 0.953820 0.817011
O O15 0.774913 0.941462 0.724647
O O16 0.796420 0.601800 0.412644
#
# Coordination Sequence:
#
# PCOD8003503 Si02
#       8
#     2   2   2   2   2   2   2   2
#     4  10  20  37  58  87 122 156 196 244 305 350
#     4  12  23  39  59  89 131 162 188 246 310 365
#     4  11  25  38  59  91 126 160 202 243 301 359
#     4   9  17  36  64  89 115 152 207 257 288 342
#     4  11  23  38  65  91 120 156 205 247 298 363
#     4  11  22  40  66  90 115 160 208 255 289 352
#     4   9  19  37  63  87 116 160 208 250 290 344
#     4  11  22  38  61  90 123 157 203 245 298 363
#
# _framework density 21.369433999999998
#
# number of rings (size 3 to 8) (size 9 to 14) (size 15 to 20)
#    0.000    1.500    2.500    4.875    1.750    1.500 
#    0.000    2.500    0.000    2.250    0.000    0.000 
#    0.000    0.000    0.000    0.000    0.000    0.000 
#
# Total GULP energy -198369.649945 kJ/mol
# GULP energy per Si atom -12398.103122 kJ/mol
# Density = 2.132080 g / cm^3
# Si number density = 21.369434 Si / 1000 Ang^3
#
#
#
# Elastic Constant Matrix: (Units=GPa)
#
#
# Indices 1 2 3 4 5 6 
#
# 1 105.2846 35.4115 23.7875 -3.8276 -6.5436 21.0623
# 2 35.4115 61.6148 9.9781 4.9121 6.8262 -0.2536
# 3 23.7875 9.9781 39.2296 -2.1719 -0.7308 5.4036
# 4 -3.8276 4.9121 -2.1719 23.0774 3.5127 7.7850
# 5 -6.5436 6.8262 -0.7308 3.5127 27.5206 5.7235
# 6 21.0623 -0.2536 5.4036 7.7850 5.7235 44.4122
#
#
#
# Elastic Compliance Matrix: (Units=1/GPa)
#
#
# Indices 1 2 3 4 5 6 
#
# 1 0.016780 -0.010078 -0.005823 0.006412 0.007470 -0.009394
# 2 -0.010078 0.023965 -0.001664 -0.008166 -0.008945 0.007703
# 3 -0.005823 -0.001664 0.029768 0.002668 -0.000250 -0.001305
# 4 0.006412 -0.008166 0.002668 0.050557 -0.000287 -0.012237
# 5 0.007470 -0.008945 -0.000250 -0.000287 0.042223 -0.008954
# 6 -0.009394 0.007703 -0.001305 -0.012237 -0.008954 0.030473
#
#
# Mechanical properties :
#
#
# Convention : Reuss Voigt Hill
#
# Bulk Modulus (GPa) = 28.26320 38.27590 33.26955
# Shear Modulus (GPa) = 20.77330 28.13216 24.45273
#
# Velocity S-wave (km/s) = 3.12124 3.63225 3.38640
# Velocity P-wave (km/s) = 5.12291 5.96166 5.55813
#
# Compressibility (1/GPa) = 0.03538170
#
# Stress axis : x y z
#
# Youngs Moduli (GPa) = 59.59430 41.72679 33.59285
#
# Poissons Ratio (x) = 0.42054 0.19562
# Poissons Ratio (y) = 0.60061 0.05591
# Poissons Ratio (z) = 0.34704 0.06945
#
# Static dielectric constant tensor:
#      x y z
#    x 4.161730 -0.000800 0.241720 
#    y -0.000800 3.704650 0.306130 
#    z 0.241720 0.306130 3.520930 
# 
# 
# High freq. dielectric constant tensor:
#      x y z
#    x 1.854180 -0.003350 0.024840 
#    y -0.003350 1.826410 0.019660 
#    z 0.024840 0.019660 1.798450 
# 
# From -- ./inp_files/455760.got.cif
#   From: 2010.06.25/outbox.cif.g09.slc.cpg/sg2_228_cif.got.tgz:455760.got - 2010.06.27 13:26:56.
