data_PCOD8003789
_publ_section_title
;
Structure prediction by ZEFSAII (Michael W. Deem and Ramdas Pophale) SiO2 
 PCOD8003789
Probable space group: P -1
;
_chemical_formula_sum "Si O2"
_cell_formula_units_Z 12
_cell_length_a 13.852974
_cell_length_b 14.435842
_cell_length_c 5.103901
_cell_angle_alpha 73.267702
_cell_angle_beta 97.190396
_cell_angle_gamma 148.811316
_cell_volume 490.856590
_symmetry_space_group_name_H-M "P -1"
_symmetry_group_IT_number 2
_symmetry_cell_setting 'triclinic'
loop_
_space_group_symop_operation_xyz
x,y,z
-x,-y,-z
loop_
_atom_site_type_symbol
_atom_site_label
_atom_site_fract_x
_atom_site_fract_y
_atom_site_fract_z
Si Si1 0.544899 0.238345 0.792440
Si Si2 0.021743 0.952132 0.296552
Si Si3 0.418905 0.284488 0.072175
Si Si4 0.379615 0.993884 0.438870
Si Si5 0.982312 0.551904 0.700637
Si Si6 0.352268 0.421992 0.704751
O O1 0.504680 0.316162 0.801974
O O2 0.454368 0.135335 0.564334
O O3 0.773263 0.421537 0.731106
O O4 0.431171 0.078930 0.101780
O O5 0.845518 0.724275 0.397186
O O6 0.000000 0.000000 0.500000
O O7 0.000000 0.000000 0.000000
O O8 0.221082 0.059760 0.276492
O O9 0.333292 0.320333 0.999480
O O10 0.578040 0.420249 0.249818
O O11 0.500000 0.000000 0.500000
O O12 0.152447 0.777759 0.571019
O O13 0.000000 0.500000 0.500000
O O14 0.000000 0.500000 0.000000
O O15 0.500000 0.500000 0.500000
#
# Coordination Sequence:
#
# PCOD8003789 Si02
#       6
#     2   2   2   2   2   2
#     4  12  26  43  67 103 136 166 226 280 314 396
#     4  10  20  37  61  87 119 167 208 252 316 379
#     4  10  24  40  61  98 128 168 216 272 317 373
#     4  12  24  44  70  95 132 177 216 267 339 394
#     4  12  23  43  71  96 129 177 219 262 336 399
#     4  10  20  40  66  85 129 174 212 255 325 385
#
# _framework density 24.447056
#
# number of rings (size 3 to 8) (size 9 to 14) (size 15 to 20)
#    0.000    1.000    5.000    1.500    2.333    1.333 
#    3.000    0.000    0.000    0.000    0.000    0.000 
#    0.000    0.000    0.000    0.000    0.000    0.000 
#
# Total GULP energy -148698.664588 kJ/mol
# GULP energy per Si atom -12391.555382 kJ/mol
# Density = 2.439141 g / cm^3
# Si number density = 24.447056 Si / 1000 Ang^3
#
#
#
# Elastic Constant Matrix: (Units=GPa)
#
#
# Indices 1 2 3 4 5 6 
#
# 1 88.8419 66.5367 5.5042 0.7402 -38.5946 2.7167
# 2 66.5367 250.1108 34.4746 2.4109 -38.1568 22.0492
# 3 5.5042 34.4746 83.8370 6.8515 -28.4932 0.8981
# 4 0.7402 2.4109 6.8515 51.4111 -6.9468 -16.4311
# 5 -38.5946 -38.1568 -28.4932 -6.9468 47.4237 -5.7954
# 6 2.7167 22.0492 0.8981 -16.4311 -5.7954 48.7553
#
#
#
# Elastic Compliance Matrix: (Units=1/GPa)
#
#
# Indices 1 2 3 4 5 6 
#
# 1 0.022500 -0.004259 0.006735 0.002898 0.019830 0.003882
# 2 -0.004259 0.005554 -0.002157 -0.000844 -0.000735 -0.002607
# 3 0.006735 -0.002157 0.017216 0.000328 0.014394 0.002105
# 4 0.002898 -0.000844 0.000328 0.023051 0.006320 0.008734
# 5 0.019830 -0.000735 0.014394 0.006320 0.047023 0.006682
# 6 0.003882 -0.002607 0.002105 0.008734 0.006682 0.025172
#
#
# Mechanical properties :
#
#
# Convention : Reuss Voigt Hill
#
# Bulk Modulus (GPa) = 21.78294 70.64674 46.21484
# Shear Modulus (GPa) = 32.22045 50.60299 41.41172
#
# Velocity S-wave (km/s) = 3.63432 4.55455 4.12021
# Velocity P-wave (km/s) = 5.15176 7.52457 6.44825
#
# Compressibility (1/GPa) = 0.04590748
#
# Stress axis : x y z
#
# Youngs Moduli (GPa) = 44.44447 180.03948 58.08688
#
# Poissons Ratio (x) = 0.76678 -0.39122
# Poissons Ratio (y) = 0.18929 0.12532
# Poissons Ratio (z) = -0.29934 0.38842
#
# Static dielectric constant tensor:
#      x y z
#    x 6.693050 -0.723870 1.672570 
#    y -0.723870 6.924230 -1.433300 
#    z 1.672570 -1.433300 6.092510 
# 
# 
# High freq. dielectric constant tensor:
#      x y z
#    x 1.953300 0.007430 -0.008830 
#    y 0.007430 2.004260 -0.003860 
#    z -0.008830 -0.003860 1.990310 
# 
# From -- ./inp_files/97947.got.cif
#   From: 2010.06.25/outbox.cif.g09.slc.cpg/sg2_49_cif.got.tgz:97947.got - 2010.06.27 13:26:56.
