data_PCOD8003085
_publ_section_title
;
Structure prediction by ZEFSAII (Michael W. Deem and Ramdas Pophale) SiO2 
 PCOD8003085
Probable space group: P -1
;
_chemical_formula_sum "Si O2"
_cell_formula_units_Z 14
_cell_length_a 11.235570
_cell_length_b 27.007018
_cell_length_c 9.539292
_cell_angle_alpha 30.080197
_cell_angle_beta 140.432527
_cell_angle_gamma 150.858901
_cell_volume 705.137157
_symmetry_space_group_name_H-M "P -1"
_symmetry_group_IT_number 2
_symmetry_cell_setting 'triclinic'
loop_
_space_group_symop_operation_xyz
x,y,z
-x,-y,-z
loop_
_atom_site_type_symbol
_atom_site_label
_atom_site_fract_x
_atom_site_fract_y
_atom_site_fract_z
Si Si1 0.547786 0.222044 0.233903
Si Si2 0.580744 0.350883 0.228298
Si Si3 0.536739 0.490643 0.394575
Si Si4 0.138688 0.573285 0.208954
Si Si5 0.515806 0.782627 0.251160
Si Si6 0.183962 0.199222 0.757187
Si Si7 0.390021 0.971498 0.316780
O O1 0.584500 0.272740 0.299476
O O2 0.533485 0.098499 0.530977
O O3 0.782392 0.332804 0.082030
O O4 0.302693 0.185170 0.034289
O O5 0.446779 0.257381 0.468427
O O6 0.851383 0.478677 0.201715
O O7 0.432011 0.397556 0.936082
O O8 0.500000 0.500000 0.500000
O O9 0.783951 0.513355 0.538475
O O10 0.305001 0.348132 0.479963
O O11 0.268452 0.659124 0.255883
O O12 0.753836 0.843408 0.220951
O O13 0.495379 0.893363 0.985443
O O14 0.900107 0.115514 0.726087
O O15 0.500000 0.000000 0.500000
#
# Coordination Sequence:
#
# PCOD8003085 Si02
#       7
#     2   2   2   2   2   2   2
#     4  10  22  37  64  92 112 161 202 238 295 347
#     4  12  22  39  61  90 133 145 192 255 297 351
#     4  10  20  36  62  90 117 155 194 237 300 349
#     4  10  21  38  61  92 119 158 201 234 295 362
#     4  10  24  41  57  94 120 158 196 246 299 344
#     4  10  22  40  63  89 115 151 213 241 284 365
#     4  12  22  41  68  82 114 164 208 240 288 353
#
# _framework density 19.854293999999999
#
# number of rings (size 3 to 8) (size 9 to 14) (size 15 to 20)
#    0.000    1.714    5.714    2.143    2.000    2.857 
#    2.571    0.714    0.000    0.000    0.000    0.000 
#    0.000    0.000    0.000    0.000    0.000    0.000 
#
# Total GULP energy -173619.284311 kJ/mol
# GULP energy per Si atom -12401.377451 kJ/mol
# Density = 1.980910 g / cm^3
# Si number density = 19.854294 Si / 1000 Ang^3
#
#
#
# Elastic Constant Matrix: (Units=GPa)
#
#
# Indices 1 2 3 4 5 6 
#
# 1 45.0729 19.8864 36.7630 -0.5300 5.3991 -18.3379
# 2 19.8864 55.2280 21.2662 6.4834 6.7898 -2.2812
# 3 36.7630 21.2662 144.3597 -7.0621 7.0240 -24.1782
# 4 -0.5300 6.4834 -7.0621 22.6007 -13.4227 10.7316
# 5 5.3991 6.7898 7.0240 -13.4227 37.8256 0.3180
# 6 -18.3379 -2.2812 -24.1782 10.7316 0.3180 35.8543
#
#
#
# Elastic Compliance Matrix: (Units=1/GPa)
#
#
# Indices 1 2 3 4 5 6 
#
# 1 0.039359 -0.008889 -0.005699 -0.011838 -0.007328 0.019330
# 2 -0.008889 0.024063 -0.001616 -0.011321 -0.006762 -0.000657
# 3 -0.005699 -0.001616 0.009135 0.002052 0.000114 0.002527
# 4 -0.011838 -0.011321 0.002052 0.081419 0.032486 -0.030049
# 5 -0.007328 -0.006762 0.000114 0.032486 0.040323 -0.014182
# 6 0.019330 -0.000657 0.002527 -0.030049 -0.014182 0.048559
#
#
# Mechanical properties :
#
#
# Convention : Reuss Voigt Hill
#
# Bulk Modulus (GPa) = 24.90701 44.49909 34.70305
# Shear Modulus (GPa) = 17.32209 30.37246 23.84727
#
# Velocity S-wave (km/s) = 2.95695 3.91547 3.46947
# Velocity P-wave (km/s) = 4.92242 6.55001 5.79365
#
# Compressibility (1/GPa) = 0.04014935
#
# Stress axis : x y z
#
# Youngs Moduli (GPa) = 25.40689 41.55781 109.47429
#
# Poissons Ratio (x) = 0.36940 0.62389
# Poissons Ratio (y) = 0.22584 0.17690
# Poissons Ratio (z) = 0.14479 0.06715
#
# Static dielectric constant tensor:
#      x y z
#    x 3.574770 -0.284740 0.384820 
#    y -0.284740 3.643470 -0.137980 
#    z 0.384820 -0.137980 3.896400 
# 
# 
# High freq. dielectric constant tensor:
#      x y z
#    x 1.758070 -0.015680 0.021540 
#    y -0.015680 1.771260 -0.000940 
#    z 0.021540 -0.000940 1.777950 
# 
# From -- ./inp_files/255984.got.cif
#   From: 2010.06.25/outbox.cif.g09.slc.cpg/sg2_128_cif.got.tgz:255984.got - 2010.06.27 13:26:56.
