data_PCOD8003727
_publ_section_title
;
Structure prediction by ZEFSAII (Michael W. Deem and Ramdas Pophale) SiO2 
 PCOD8003727
Probable space group: P -1
;
_chemical_formula_sum "Si O2"
_cell_formula_units_Z 16
_cell_length_a 13.622443
_cell_length_b 11.978986
_cell_length_c 9.435658
_cell_angle_alpha 39.432502
_cell_angle_beta 130.297086
_cell_angle_gamma 134.471262
_cell_volume 678.670063
_symmetry_space_group_name_H-M "P -1"
_symmetry_group_IT_number 2
_symmetry_cell_setting 'triclinic'
loop_
_space_group_symop_operation_xyz
x,y,z
-x,-y,-z
loop_
_atom_site_type_symbol
_atom_site_label
_atom_site_fract_x
_atom_site_fract_y
_atom_site_fract_z
Si Si1 0.092136 0.635836 0.832861
Si Si2 0.397146 0.765273 0.976013
Si Si3 0.177499 0.245075 0.975066
Si Si4 0.549809 0.525495 0.860490
Si Si5 0.105930 0.512227 0.464897
Si Si6 0.843279 0.978738 0.340705
Si Si7 0.444985 0.190413 0.633718
Si Si8 0.860007 0.083289 0.936040
O O1 0.167790 0.843407 0.768354
O O2 0.987171 0.615967 0.625381
O O3 0.233443 0.609894 0.947081
O O4 0.000000 0.500000 0.000000
O O5 0.483786 0.685572 0.029592
O O6 0.439573 0.752482 0.190041
O O7 0.428367 0.986308 0.749479
O O8 0.202286 0.406738 0.715466
O O9 0.028088 0.173846 0.983014
O O10 0.284162 0.333586 0.115813
O O11 0.206352 0.070811 0.100803
O O12 0.487222 0.642280 0.585459
O O13 0.500000 0.500000 0.000000
O O14 0.192083 0.741255 0.285113
O O15 0.000000 0.500000 0.500000
O O16 0.703124 0.807498 0.444929
O O17 0.819841 0.976249 0.153348
O O18 0.000000 0.000000 0.500000
#
# Coordination Sequence:
#
# PCOD8003727 Si02
#       8
#     2   2   2   2   2   2   2   2
#     4  11  22  38  66 101 130 173 223 275 344 400
#     4  10  24  48  70  97 139 178 232 282 336 407
#     4  10  23  39  60  94 135 168 217 271 336 396
#     4  12  27  45  69  99 132 184 232 279 341 403
#     4  10  20  37  60  91 129 169 206 266 330 391
#     4  11  22  37  67  99 132 173 223 280 342 395
#     4  10  25  47  71  97 138 183 226 285 339 406
#     4  10  20  38  61  91 129 169 206 272 333 395
#
# _framework density 23.575520000000001
#
# number of rings (size 3 to 8) (size 9 to 14) (size 15 to 20)
#    0.000    1.500    1.250    3.375    3.500    7.500 
#    2.250    0.000    0.000    0.000    0.000    0.000 
#    0.000    0.000    0.000    0.000    0.000    0.000 
#
# Total GULP energy -198242.169715 kJ/mol
# GULP energy per Si atom -12390.135607 kJ/mol
# Density = 2.352186 g / cm^3
# Si number density = 23.575520 Si / 1000 Ang^3
#
#
#
# Elastic Constant Matrix: (Units=GPa)
#
#
# Indices 1 2 3 4 5 6 
#
# 1 52.3099 3.6930 29.4324 -20.9036 -16.8704 -18.2170
# 2 3.6930 72.1369 9.8199 -9.3789 7.1588 -24.5317
# 3 29.4324 9.8199 100.3394 -6.9912 -8.9034 -6.2203
# 4 -20.9036 -9.3789 -6.9912 32.4819 -2.3997 1.0482
# 5 -16.8704 7.1588 -8.9034 -2.3997 38.2052 3.3955
# 6 -18.2170 -24.5317 -6.2203 1.0482 3.3955 34.0775
#
#
#
# Elastic Compliance Matrix: (Units=1/GPa)
#
#
# Indices 1 2 3 4 5 6 
#
# 1 0.061551 0.014776 -0.012415 0.041514 0.020754 0.037929
# 2 0.014776 0.023654 -0.004162 0.014673 -0.000064 0.023722
# 3 -0.012415 -0.004162 0.013021 -0.006273 -0.001447 -0.006919
# 4 0.041514 0.014673 -0.006273 0.060618 0.015421 0.028209
# 5 0.020754 -0.000064 -0.001447 0.015421 0.035379 0.006785
# 6 0.037929 0.023722 -0.006919 0.028209 0.006785 0.063891
#
#
# Mechanical properties :
#
#
# Convention : Reuss Voigt Hill
#
# Bulk Modulus (GPa) = 10.56827 34.51964 22.54396
# Shear Modulus (GPa) = 17.04980 33.07563 25.06271
#
# Velocity S-wave (km/s) = 2.69215 3.74968 3.26403
# Velocity P-wave (km/s) = 3.76245 5.78107 4.87734
#
# Compressibility (1/GPa) = 0.09462284
#
# Stress axis : x y z
#
# Youngs Moduli (GPa) = 16.24666 42.27642 76.79997
#
# Poissons Ratio (x) = -0.62466 0.95349
# Poissons Ratio (y) = -0.24005 0.31963
# Poissons Ratio (z) = 0.20171 0.17595
#
# Static dielectric constant tensor:
#      x y z
#    x 4.689280 0.151890 0.070600 
#    y 0.151890 4.474310 -0.342830 
#    z 0.070600 -0.342830 5.007600 
# 
# 
# High freq. dielectric constant tensor:
#      x y z
#    x 1.929610 -0.009790 -0.002410 
#    y -0.009790 1.941710 0.002180 
#    z -0.002410 0.002180 1.926200 
# 
# From -- ./inp_files/306365.got.cif
#   From: 2010.06.25/outbox.cif.g09.slc.cpg/sg2_154_cif.got.tgz:306365.got - 2010.06.27 13:26:56.
