data_PCOD8003655
_publ_section_title
;
Structure prediction by ZEFSAII (Michael W. Deem and Ramdas Pophale) SiO2 
 PCOD8003655
Probable space group: P -1
;
_chemical_formula_sum "Si O2"
_cell_formula_units_Z 14
_cell_length_a 10.091786
_cell_length_b 14.239036
_cell_length_c 17.043846
_cell_angle_alpha 39.417213
_cell_angle_beta 52.410247
_cell_angle_gamma 27.113022
_cell_volume 682.754769
_symmetry_space_group_name_H-M "P -1"
_symmetry_group_IT_number 2
_symmetry_cell_setting 'triclinic'
loop_
_space_group_symop_operation_xyz
x,y,z
-x,-y,-z
loop_
_atom_site_type_symbol
_atom_site_label
_atom_site_fract_x
_atom_site_fract_y
_atom_site_fract_z
Si Si1 0.333941 0.212351 0.784423
Si Si2 0.585378 0.160804 0.064086
Si Si3 0.293714 0.796213 0.304832
Si Si4 0.029946 0.017842 0.090466
Si Si5 0.838906 0.471589 0.892348
Si Si6 0.075927 0.822923 0.522057
Si Si7 0.744843 0.791898 0.612541
O O1 0.627839 0.092663 0.772569
O O2 0.187878 0.266497 0.886227
O O3 0.073002 0.499376 0.647269
O O4 0.426987 0.006546 0.830085
O O5 0.264108 0.448528 0.030948
O O6 0.852408 0.009380 0.125219
O O7 0.655467 0.188180 0.937881
O O8 0.089443 0.881157 0.392704
O O9 0.597368 0.483448 0.378240
O O10 0.090494 0.941645 0.207756
O O11 0.816651 0.321096 0.963619
O O12 0.630654 0.741651 0.743261
O O13 0.811744 0.893097 0.572276
O O14 0.000000 0.000000 0.500000
O O15 0.500000 0.000000 0.500000
#
# Coordination Sequence:
#
# PCOD8003655 Si02
#       7
#     2   2   2   2   2   2   2
#     4   8  20  37  56  83 116 144 193 235 281 345
#     4  10  20  37  60  85 119 146 195 240 280 347
#     4  10  22  40  60  83 122 153 185 242 290 333
#     4  10  22  38  59  89 116 151 190 239 294 337
#     4   9  20  37  58  83 119 145 189 242 284 338
#     4  10  23  41  59  87 117 152 198 233 279 353
#     4   9  20  39  60  83 115 150 193 239 286 335
#
# _framework density 20.505165999999999
#
# number of rings (size 3 to 8) (size 9 to 14) (size 15 to 20)
#    0.857    1.714    0.000    0.429    4.000    4.571 
#    0.000    2.143    0.000    0.000    0.000    0.000 
#    0.000    0.000    0.000    0.000    0.000    0.000 
#
# Total GULP energy -173446.880736 kJ/mol
# GULP energy per Si atom -12389.062910 kJ/mol
# Density = 2.045850 g / cm^3
# Si number density = 20.505166 Si / 1000 Ang^3
#
#
#
# Elastic Constant Matrix: (Units=GPa)
#
#
# Indices 1 2 3 4 5 6 
#
# 1 95.0721 26.2901 38.9107 0.5301 -6.3625 25.1028
# 2 26.2901 94.0743 26.6921 11.8284 -8.0917 22.3763
# 3 38.9107 26.6921 85.2814 18.3040 3.9940 11.6435
# 4 0.5301 11.8284 18.3040 15.4064 2.1137 -3.0476
# 5 -6.3625 -8.0917 3.9940 2.1137 27.9402 -4.3428
# 6 25.1028 22.3763 11.6435 -3.0476 -4.3428 30.7255
#
#
#
# Elastic Compliance Matrix: (Units=1/GPa)
#
#
# Indices 1 2 3 4 5 6 
#
# 1 0.016337 -0.001036 -0.007629 0.007233 0.002625 -0.008613
# 2 -0.001036 0.015903 0.000213 -0.015266 0.003658 -0.011813
# 3 -0.007629 0.000213 0.021632 -0.026141 -0.003602 -0.005222
# 4 0.007233 -0.015266 -0.026141 0.113036 -0.003575 0.025821
# 5 0.002625 0.003658 -0.003602 -0.003575 0.038488 0.001642
# 6 -0.008613 -0.011813 -0.005222 0.025821 0.001642 0.052959
#
#
# Mechanical properties :
#
#
# Convention : Reuss Voigt Hill
#
# Bulk Modulus (GPa) = 27.04986 50.91262 38.98124
# Shear Modulus (GPa) = 17.38646 26.98341 22.18493
#
# Velocity S-wave (km/s) = 2.91504 3.63151 3.29282
# Velocity P-wave (km/s) = 4.95483 6.51667 5.78866
#
# Compressibility (1/GPa) = 0.03696877
#
# Stress axis : x y z
#
# Youngs Moduli (GPa) = 61.21176 62.88191 46.22734
#
# Poissons Ratio (x) = 0.06513 0.35267
# Poissons Ratio (y) = 0.06340 -0.00986
# Poissons Ratio (z) = 0.46698 -0.01341
#
# Static dielectric constant tensor:
#      x y z
#    x 3.581460 0.095170 -0.373620 
#    y 0.095170 3.650160 0.093110 
#    z -0.373620 0.093110 3.626120 
# 
# 
# High freq. dielectric constant tensor:
#      x y z
#    x 1.798570 0.007720 -0.028460 
#    y 0.007720 1.792790 0.006810 
#    z -0.028460 0.006810 1.784770 
# 
# From -- ./inp_files/500010.got.cif
#   From: 2010.06.25/outbox.cif.g09.slc.cpg/sg2_251_cif.got.tgz:500010.got - 2010.06.27 13:26:56.
