data_PCOD8003707
_publ_section_title
;
Structure prediction by ZEFSAII (Michael W. Deem and Ramdas Pophale) SiO2 
 PCOD8003707
Probable space group: P -1
;
_chemical_formula_sum "Si O2"
_cell_formula_units_Z 16
_cell_length_a 9.491633
_cell_length_b 11.530409
_cell_length_c 8.983526
_cell_angle_alpha 106.127689
_cell_angle_beta 78.975401
_cell_angle_gamma 121.958546
_cell_volume 800.152039
_symmetry_space_group_name_H-M "P -1"
_symmetry_group_IT_number 2
_symmetry_cell_setting 'triclinic'
loop_
_space_group_symop_operation_xyz
x,y,z
-x,-y,-z
loop_
_atom_site_type_symbol
_atom_site_label
_atom_site_fract_x
_atom_site_fract_y
_atom_site_fract_z
Si Si1 0.313828 0.354571 0.354270
Si Si2 0.778564 0.246051 0.356107
Si Si3 0.883240 0.611883 0.830679
Si Si4 0.589910 0.946577 0.353113
Si Si5 0.169837 0.135152 0.556436
Si Si6 0.677197 0.443898 0.337990
Si Si7 0.248024 0.706651 0.280341
Si Si8 0.938794 0.677972 0.181742
O O1 0.217929 0.323420 0.206415
O O2 0.251928 0.216392 0.416192
O O3 0.506418 0.421287 0.296752
O O4 0.280154 0.465030 0.487842
O O5 0.654502 0.294271 0.332269
O O6 0.801990 0.275155 0.537326
O O7 0.953639 0.343139 0.280717
O O8 0.707731 0.081662 0.274616
O O9 0.775038 0.444467 0.799162
O O10 0.928363 0.677581 0.007271
O O11 0.701409 0.899270 0.403094
O O12 0.443183 0.817212 0.245126
O O13 0.500000 0.000000 0.500000
O O14 0.130636 0.225996 0.709341
O O15 0.000000 0.000000 0.500000
O O16 0.824228 0.521867 0.215416
O O17 0.130518 0.735517 0.206259
#
# Coordination Sequence:
#
# PCOD8003707 Si02
#       8
#     2   2   2   2   2   2   2   2
#     4  10  21  36  62  91 116 155 207 257 297 357
#     4  11  20  39  65  93 116 160 212 251 299 366
#     4  12  23  38  62  91 127 164 205 252 309 364
#     4  10  22  38  66  95 118 155 207 259 303 356
#     4  11  22  43  66  89 125 160 203 253 311 371
#     4  10  20  37  60  90 120 154 206 259 299 353
#     4  11  21  39  62  92 124 161 208 254 302 359
#     4  11  25  39  59  92 126 164 201 252 317 365
#
# _framework density 19.996202
#
# number of rings (size 3 to 8) (size 9 to 14) (size 15 to 20)
#    0.000    1.250    2.500    6.000    3.500    0.500 
#    0.000    3.125    0.000    0.000    0.000    0.000 
#    0.000    0.000    0.000    0.000    0.000    0.000 
#
# Total GULP energy -198416.206087 kJ/mol
# GULP energy per Si atom -12401.012880 kJ/mol
# Density = 1.995069 g / cm^3
# Si number density = 19.996202 Si / 1000 Ang^3
#
#
#
# Elastic Constant Matrix: (Units=GPa)
#
#
# Indices 1 2 3 4 5 6 
#
# 1 136.1631 53.8899 41.1981 -4.8859 35.9521 -6.9285
# 2 53.8899 125.2238 25.1322 6.8047 16.3785 -6.6195
# 3 41.1981 25.1322 93.0081 -1.4609 27.7445 -1.4573
# 4 -4.8859 6.8047 -1.4609 14.6100 -7.5691 7.5315
# 5 35.9521 16.3785 27.7445 -7.5691 21.6488 -0.6313
# 6 -6.9285 -6.6195 -1.4573 7.5315 -0.6313 38.8417
#
#
#
# Elastic Compliance Matrix: (Units=1/GPa)
#
#
# Indices 1 2 3 4 5 6 
#
# 1 0.015695 -0.002155 0.003393 -0.012926 -0.033170 0.004527
# 2 -0.002155 0.011018 0.000962 -0.013216 -0.010496 0.003921
# 3 0.003393 0.000962 0.020594 -0.020327 -0.039721 0.004838
# 4 -0.012926 -0.013216 -0.020327 0.138329 0.104992 -0.030436
# 5 -0.033170 -0.010496 -0.039721 0.104992 0.196063 -0.026367
# 6 0.004527 0.003921 0.004838 -0.030436 -0.026367 0.032876
#
#
# Mechanical properties :
#
#
# Convention : Reuss Voigt Hill
#
# Bulk Modulus (GPa) = 19.33954 66.09280 42.71617
# Shear Modulus (GPa) = 11.69830 30.63175 21.16502
#
# Velocity S-wave (km/s) = 2.42136 3.91817 3.25692
# Velocity P-wave (km/s) = 4.18448 7.32078 5.96254
#
# Compressibility (1/GPa) = 0.05170753
#
# Stress axis : x y z
#
# Youngs Moduli (GPa) = 63.71401 90.75763 48.55682
#
# Poissons Ratio (x) = 0.19560 -0.16474
# Poissons Ratio (y) = 0.13731 -0.04673
# Poissons Ratio (z) = -0.21616 -0.08733
#
# Static dielectric constant tensor:
#      x y z
#    x 3.787230 0.033540 0.162060 
#    y 0.033540 4.438500 0.001090 
#    z 0.162060 0.001090 3.343170 
# 
# 
# High freq. dielectric constant tensor:
#      x y z
#    x 1.798510 0.001260 0.012410 
#    y 0.001260 1.789250 -0.005080 
#    z 0.012410 -0.005080 1.743670 
# 
# From -- ./inp_files/174974.got.cif
#   From: 2010.06.25/outbox.cif.g09.slc.cpg/sg2_88_cif.got.tgz:174974.got - 2010.06.27 13:26:56.
