data_PCOD8003231
_publ_section_title
;
Structure prediction by ZEFSAII (Michael W. Deem and Ramdas Pophale) SiO2 
 PCOD8003231
Probable space group: P -1
;
_chemical_formula_sum "Si O2"
_cell_formula_units_Z 16
_cell_length_a 14.357568
_cell_length_b 16.299180
_cell_length_c 14.927462
_cell_angle_alpha 37.018967
_cell_angle_beta 19.574625
_cell_angle_gamma 38.679838
_cell_volume 697.655084
_symmetry_space_group_name_H-M "P -1"
_symmetry_group_IT_number 2
_symmetry_cell_setting 'triclinic'
loop_
_space_group_symop_operation_xyz
x,y,z
-x,-y,-z
loop_
_atom_site_type_symbol
_atom_site_label
_atom_site_fract_x
_atom_site_fract_y
_atom_site_fract_z
Si Si1 0.112630 0.779863 0.943345
Si Si2 0.585478 0.638423 0.513837
Si Si3 0.249013 0.984940 0.017178
Si Si4 0.010217 0.836842 0.630525
Si Si5 0.243719 0.619244 0.126929
Si Si6 0.890224 0.419984 0.533562
Si Si7 0.183877 0.187242 0.361571
Si Si8 0.612156 0.774023 0.195998
O O1 0.300984 0.726107 0.733423
O O2 0.283160 0.745885 0.912387
O O3 0.848504 0.701299 0.257568
O O4 0.981249 0.940285 0.910400
O O5 0.630917 0.480811 0.648877
O O6 0.602649 0.643123 0.385400
O O7 0.514653 0.891976 0.811152
O O8 0.392470 0.093129 0.851887
O O9 0.081233 0.891693 0.311537
O O10 0.339352 0.780026 0.375566
O O11 0.830605 0.788613 0.753068
O O12 0.000000 0.000000 0.500000
O O13 0.885969 0.769686 0.889614
O O14 0.200964 0.675993 0.218740
O O15 0.983219 0.549996 0.386782
O O16 0.500000 0.500000 0.000000
O O17 0.137790 0.332288 0.329079
#
# Coordination Sequence:
#
# PCOD8003231 Si02
#       8
#     2   2   2   2   2   2   2   2
#     4  10  20  36  64  92 117 155 205 253 296 358
#     4  10  20  37  62  89 119 155 208 254 296 351
#     4  11  21  38  58  91 124 163 200 243 305 357
#     4  12  21  37  58  91 122 163 209 242 293 354
#     4  10  20  42  69  89 113 156 213 255 296 366
#     4  10  24  41  62  94 120 159 202 252 312 361
#     4  12  25  38  60  89 132 161 195 253 306 364
#     4  11  20  37  61  88 118 161 212 249 285 352
#
# _framework density 22.933969000000001
#
# number of rings (size 3 to 8) (size 9 to 14) (size 15 to 20)
#    0.000    1.250    3.750    4.125    1.750    0.000 
#    0.000    2.500    0.000    0.000    0.000    0.000 
#    0.000    0.000    0.000    0.000    0.000    0.000 
#
# Total GULP energy -198212.105093 kJ/mol
# GULP energy per Si atom -12388.256568 kJ/mol
# Density = 2.288177 g / cm^3
# Si number density = 22.933969 Si / 1000 Ang^3
#
#
#
# Elastic Constant Matrix: (Units=GPa)
#
#
# Indices 1 2 3 4 5 6 
#
# 1 100.4619 48.2202 36.4503 1.1604 33.0003 -26.1700
# 2 48.2202 97.8427 17.7852 25.4121 12.7762 -20.5635
# 3 36.4503 17.7852 115.6815 22.6359 16.0675 -13.0883
# 4 1.1604 25.4121 22.6359 34.6711 -4.9849 0.7230
# 5 33.0003 12.7762 16.0675 -4.9849 40.2619 3.0792
# 6 -26.1700 -20.5635 -13.0883 0.7230 3.0792 36.3524
#
#
#
# Elastic Compliance Matrix: (Units=1/GPa)
#
#
# Indices 1 2 3 4 5 6 
#
# 1 0.022929 -0.007067 -0.003339 0.004077 -0.015674 0.012554
# 2 -0.007067 0.020238 0.004471 -0.018472 -0.005373 0.008792
# 3 -0.003339 0.004471 0.012889 -0.012529 -0.005798 0.005506
# 4 0.004077 -0.018472 -0.012529 0.052905 0.015168 -0.014362
# 5 -0.015674 -0.005373 -0.005798 0.015168 0.045152 -0.020537
# 6 0.012554 0.008792 0.005506 -0.014362 -0.020537 0.045527
#
#
# Mechanical properties :
#
#
# Convention : Reuss Voigt Hill
#
# Bulk Modulus (GPa) = 22.63165 57.65528 40.14347
# Shear Modulus (GPa) = 22.10055 36.35912 29.22983
#
# Velocity S-wave (km/s) = 3.10766 3.98601 3.57392
# Velocity P-wave (km/s) = 4.77140 6.81018 5.87983
#
# Compressibility (1/GPa) = 0.04418590
#
# Stress axis : x y z
#
# Youngs Moduli (GPa) = 43.61227 49.41246 77.58614
#
# Poissons Ratio (x) = 0.34921 0.25904
# Poissons Ratio (y) = 0.30822 -0.34688
# Poissons Ratio (z) = 0.14561 -0.22092
#
# Static dielectric constant tensor:
#      x y z
#    x 4.623920 -0.513660 0.219530 
#    y -0.513660 3.940020 0.074910 
#    z 0.219530 0.074910 4.226430 
# 
# 
# High freq. dielectric constant tensor:
#      x y z
#    x 1.900590 -0.041040 0.014620 
#    y -0.041040 1.874820 0.012180 
#    z 0.014620 0.012180 1.912210 
# 
# From -- ./inp_files/535062.got.cif
#   From: 2010.06.25/outbox.cif.g09.slc.cpg/sg2_268_cif.got.tgz:535062.got - 2010.06.27 13:26:56.
