data_PCOD8003786
_publ_section_title
;
Structure prediction by ZEFSAII (Michael W. Deem and Ramdas Pophale) SiO2 
 PCOD8003786
Probable space group: P -1
;
_chemical_formula_sum "Si O2"
_cell_formula_units_Z 16
_cell_length_a 13.104760
_cell_length_b 18.691759
_cell_length_c 12.228028
_cell_angle_alpha 31.324460
_cell_angle_beta 146.989195
_cell_angle_gamma 149.447886
_cell_volume 729.049517
_symmetry_space_group_name_H-M "P -1"
_symmetry_group_IT_number 2
_symmetry_cell_setting 'triclinic'
loop_
_space_group_symop_operation_xyz
x,y,z
-x,-y,-z
loop_
_atom_site_type_symbol
_atom_site_label
_atom_site_fract_x
_atom_site_fract_y
_atom_site_fract_z
Si Si1 0.478199 0.538821 0.598543
Si Si2 0.311806 0.645223 0.015953
Si Si3 0.253797 0.090492 0.643764
Si Si4 0.919329 0.318757 0.632474
Si Si5 0.380921 0.381878 0.948281
Si Si6 0.659293 0.120718 0.860860
Si Si7 0.861253 0.386102 0.872863
Si Si8 0.585169 0.183948 0.328202
O O1 0.665032 0.723894 0.507653
O O2 0.469840 0.493502 0.776601
O O3 0.242628 0.506866 0.394157
O O4 0.525360 0.419964 0.723883
O O5 0.411052 0.792068 0.830253
O O6 0.117079 0.497581 0.968138
O O7 0.239920 0.697736 0.991461
O O8 0.406818 0.072795 0.712486
O O9 0.000000 0.000000 0.500000
O O10 0.298942 0.025239 0.884111
O O11 0.736675 0.191304 0.717621
O O12 0.819771 0.285322 0.465045
O O13 0.000000 0.500000 0.500000
O O14 0.122321 0.292678 0.847629
O O15 0.500000 0.500000 0.000000
O O16 0.429455 0.237556 0.175721
O O17 0.813297 0.253387 0.914324
O O18 0.500000 0.000000 0.500000
#
# Coordination Sequence:
#
# PCOD8003786 Si02
#       8
#     2   2   2   2   2   2   2   2
#     4  10  21  38  60  89 121 155 218 265 317 382
#     4  10  21  39  61  84 121 165 213 255 317 399
#     4  10  21  35  56  84 124 164 195 260 326 376
#     4  12  23  42  71  97 134 179 225 281 329 395
#     4  11  24  41  69 102 125 175 232 275 328 406
#     4  10  23  37  58  95 127 158 218 268 322 388
#     4  10  20  37  61  87 116 164 210 263 317 374
#     4  11  26  43  64  99 138 173 216 279 343 394
#
# _framework density 21.946383000000001
#
# number of rings (size 3 to 8) (size 9 to 14) (size 15 to 20)
#    0.000    1.500    1.250    4.125    3.500    3.500 
#    0.000    2.500    0.000    3.000    0.000    0.000 
#    0.000    0.000    0.000    0.000    0.000    0.000 
#
# Total GULP energy -198391.212465 kJ/mol
# GULP energy per Si atom -12399.450779 kJ/mol
# Density = 2.189643 g / cm^3
# Si number density = 21.946383 Si / 1000 Ang^3
#
#
#
# Elastic Constant Matrix: (Units=GPa)
#
#
# Indices 1 2 3 4 5 6 
#
# 1 63.6433 6.8986 26.3856 -14.5921 9.4385 9.4625
# 2 6.8986 57.0951 32.0663 -11.0785 15.0213 0.6683
# 3 26.3856 32.0663 118.3079 -17.7926 12.5952 7.8817
# 4 -14.5921 -11.0785 -17.7926 46.5617 9.7095 2.3813
# 5 9.4385 15.0213 12.5952 9.7095 32.1162 3.9193
# 6 9.4625 0.6683 7.8817 2.3813 3.9193 35.2818
#
#
#
# Elastic Compliance Matrix: (Units=1/GPa)
#
#
# Indices 1 2 3 4 5 6 
#
# 1 0.020263 0.002879 -0.002987 0.007777 -0.007936 -0.004465
# 2 0.002879 0.024770 -0.004895 0.007575 -0.012896 0.000774
# 3 -0.002987 -0.004895 0.011134 0.002608 -0.001796 -0.001570
# 4 0.007777 0.007575 0.002608 0.030121 -0.015577 -0.003115
# 5 -0.007936 -0.012896 -0.001796 -0.015577 0.045059 -0.001180
# 6 -0.004465 0.000774 -0.001570 -0.003115 -0.001180 0.030218
#
#
# Mechanical properties :
#
#
# Convention : Reuss Voigt Hill
#
# Bulk Modulus (GPa) = 21.66446 41.08304 31.37375
# Shear Modulus (GPa) = 26.74409 34.37165 30.55787
#
# Velocity S-wave (km/s) = 3.49465 3.96177 3.73552
# Velocity P-wave (km/s) = 5.11629 6.29983 5.73865
#
# Compressibility (1/GPa) = 0.04615855
#
# Stress axis : x y z
#
# Youngs Moduli (GPa) = 49.35105 40.37214 89.81830
#
# Poissons Ratio (x) = -0.11622 0.26833
# Poissons Ratio (y) = -0.14207 0.43966
# Poissons Ratio (z) = 0.14744 0.19762
#
# Static dielectric constant tensor:
#      x y z
#    x 4.302860 0.179670 -0.037550 
#    y 0.179670 3.608340 -0.071460 
#    z -0.037550 -0.071460 4.296190 
# 
# 
# High freq. dielectric constant tensor:
#      x y z
#    x 1.861030 0.006270 -0.000390 
#    y 0.006270 1.849510 0.001410 
#    z -0.000390 0.001410 1.882660 
# 
# From -- ./inp_files/457457.got.cif
#   From: 2010.06.25/outbox.cif.g09.slc.cpg/sg2_229_cif.got.tgz:457457.got - 2010.06.27 13:26:56.
