data_PCOD8003934
_publ_section_title
;
Structure prediction by ZEFSAII (Michael W. Deem and Ramdas Pophale) SiO2 
 PCOD8003934
Probable space group: P -1
;
_chemical_formula_sum "Si O2"
_cell_formula_units_Z 16
_cell_length_a 14.465284
_cell_length_b 11.534128
_cell_length_c 11.089575
_cell_angle_alpha 93.993973
_cell_angle_beta 41.337425
_cell_angle_gamma 61.396648
_cell_volume 721.662970
_symmetry_space_group_name_H-M "P -1"
_symmetry_group_IT_number 2
_symmetry_cell_setting 'triclinic'
loop_
_space_group_symop_operation_xyz
x,y,z
-x,-y,-z
loop_
_atom_site_type_symbol
_atom_site_label
_atom_site_fract_x
_atom_site_fract_y
_atom_site_fract_z
Si Si1 0.458003 0.341445 0.004589
Si Si2 0.271709 0.814150 0.747077
Si Si3 0.548776 0.472691 0.268430
Si Si4 0.691980 0.894458 0.621843
Si Si5 0.691992 0.004632 0.888439
Si Si6 0.513744 0.109208 0.569551
Si Si7 0.813734 0.522748 0.939389
Si Si8 0.788384 0.302331 0.596848
O O1 0.274110 0.568713 0.223740
O O2 0.332862 0.342148 0.027810
O O3 0.708358 0.224812 0.701942
O O4 0.514642 0.231813 0.062012
O O5 0.388101 0.642073 0.535554
O O6 0.321456 0.731440 0.826714
O O7 0.368599 0.878624 0.636417
O O8 0.000000 0.000000 0.000000
O O9 0.741998 0.436900 0.031418
O O10 0.365520 0.550840 0.353820
O O11 0.753763 0.923473 0.684975
O O12 0.667769 0.989028 0.531889
O O13 0.905062 0.660379 0.370797
O O14 0.441920 0.997639 0.896576
O O15 0.931126 0.880704 0.714755
O O16 0.259817 0.335190 0.874289
O O17 0.500000 0.000000 0.500000
#
# Coordination Sequence:
#
# PCOD8003934 Si02
#       8
#     2   2   2   2   2   2   2   2
#     4  10  20  37  62  90 124 167 203 261 324 375
#     4  10  21  42  68  93 126 167 214 271 327 379
#     4   9  21  38  65  97 126 164 213 267 325 381
#     4  11  24  40  63  91 126 174 216 259 319 383
#     4  11  23  39  61  93 130 170 215 255 316 387
#     4  11  25  43  66  94 128 171 220 267 325 392
#     4  10  20  42  65  91 132 168 211 266 327 388
#     4  10  21  37  60  96 127 157 212 266 318 383
#
# _framework density 22.171015000000001
#
# number of rings (size 3 to 8) (size 9 to 14) (size 15 to 20)
#    0.000    1.750    2.500    1.125    0.000    5.000 
#    0.000    0.000    0.000    0.000    0.000    0.000 
#    0.000    0.000    0.000    0.000    0.000    0.000 
#
# Total GULP energy -198317.144909 kJ/mol
# GULP energy per Si atom -12394.821557 kJ/mol
# Density = 2.212055 g / cm^3
# Si number density = 22.171015 Si / 1000 Ang^3
#
#
#
# Elastic Constant Matrix: (Units=GPa)
#
#
# Indices 1 2 3 4 5 6 
#
# 1 78.1330 35.4274 26.3272 1.9291 1.6965 2.7397
# 2 35.4274 134.2620 30.7007 -3.1628 -10.9591 -11.4837
# 3 26.3272 30.7007 91.7581 10.6002 -14.4136 2.9343
# 4 1.9291 -3.1628 10.6002 26.3962 -1.0166 3.4574
# 5 1.6965 -10.9591 -14.4136 -1.0166 24.9311 4.9056
# 6 2.7397 -11.4837 2.9343 3.4574 4.9056 35.4299
#
#
#
# Elastic Compliance Matrix: (Units=1/GPa)
#
#
# Indices 1 2 3 4 5 6 
#
# 1 0.016052 -0.003834 -0.004032 -0.000005 -0.004817 -0.001483
# 2 -0.003834 0.009425 -0.001930 0.001907 0.002788 0.002939
# 3 -0.004032 -0.001930 0.014645 -0.005226 0.008101 -0.002138
# 4 -0.000005 0.001907 -0.005226 0.040595 0.000047 -0.002917
# 5 -0.004817 0.002788 0.008101 0.000047 0.047526 -0.005980
# 6 -0.001483 0.002939 -0.002138 -0.002917 -0.005980 0.030582
#
#
# Mechanical properties :
#
#
# Convention : Reuss Voigt Hill
#
# Bulk Modulus (GPa) = 48.70514 54.34041 51.52278
# Shear Modulus (GPa) = 26.98917 31.46463 29.22690
#
# Velocity S-wave (km/s) = 3.49279 3.77129 3.63471
# Velocity P-wave (km/s) = 6.18723 6.59745 6.39563
#
# Compressibility (1/GPa) = 0.02053171
#
# Stress axis : x y z
#
# Youngs Moduli (GPa) = 62.29660 106.10225 68.28172
#
# Poissons Ratio (x) = 0.40678 0.27529
# Poissons Ratio (y) = 0.23884 0.13177
# Poissons Ratio (z) = 0.25116 0.20475
#
# Static dielectric constant tensor:
#      x y z
#    x 3.819180 -0.168440 0.123150 
#    y -0.168440 3.886680 -0.030800 
#    z 0.123150 -0.030800 3.946820 
# 
# 
# High freq. dielectric constant tensor:
#      x y z
#    x 1.857480 -0.006250 0.007130 
#    y -0.006250 1.879150 0.006810 
#    z 0.007130 0.006810 1.867020 
# 
# From -- ./inp_files/452335.got.cif
#   From: 2010.06.25/outbox.cif.g09.slc.cpg/sg2_227_cif.got.tgz:452335.got - 2010.06.27 13:26:56.
