data_PCOD8003436
_publ_section_title
;
Structure prediction by ZEFSAII (Michael W. Deem and Ramdas Pophale) SiO2 
 PCOD8003436
Probable space group: P -1
;
_chemical_formula_sum "Si O2"
_cell_formula_units_Z 16
_cell_length_a 17.114802
_cell_length_b 8.365903
_cell_length_c 8.147623
_cell_angle_alpha 122.404673
_cell_angle_beta 57.719401
_cell_angle_gamma 126.808948
_cell_volume 748.403904
_symmetry_space_group_name_H-M "P -1"
_symmetry_group_IT_number 2
_symmetry_cell_setting 'triclinic'
loop_
_space_group_symop_operation_xyz
x,y,z
-x,-y,-z
loop_
_atom_site_type_symbol
_atom_site_label
_atom_site_fract_x
_atom_site_fract_y
_atom_site_fract_z
Si Si1 0.257104 0.895053 0.845993
Si Si2 0.600898 0.730028 0.304111
Si Si3 0.968598 0.747222 0.593346
Si Si4 0.124194 0.981316 0.287805
Si Si5 0.288305 0.117339 0.420891
Si Si6 0.146898 0.733178 0.560213
Si Si7 0.544029 0.105189 0.274923
Si Si8 0.505991 0.741735 0.906523
O O1 0.173493 0.749853 0.730034
O O2 0.341708 0.808132 0.731889
O O3 0.313388 0.134670 0.848692
O O4 0.193953 0.882646 0.074145
O O5 0.528678 0.847028 0.490765
O O6 0.534619 0.508253 0.168647
O O7 0.656754 0.710460 0.400618
O O8 0.909066 0.894615 0.743880
O O9 0.886590 0.507904 0.583035
O O10 0.054276 0.800978 0.669356
O O11 0.024920 0.790620 0.375315
O O12 0.194034 0.137414 0.442998
O O13 0.245771 0.885107 0.425316
O O14 0.372724 0.142582 0.204260
O O15 0.556990 0.223082 0.152513
O O16 0.494495 0.851885 0.149342
#
# Coordination Sequence:
#
# PCOD8003436 Si02
#       8
#     2   2   2   2   2   2   2   2
#     4  11  22  38  54  89 115 147 191 242 275 341
#     4  10  22  38  57  84 123 158 192 233 282 329
#     4   9  20  40  59  83 104 152 180 235 303 342
#     4  10  20  37  60  81 116 140 191 235 287 345
#     4   9  17  36  57  79 114 151 187 234 273 337
#     4   9  20  37  60  80 112 144 186 235 292 344
#     4  10  20  37  57  83 119 157 191 238 281 325
#     4  10  20  37  59  83 116 165 194 229 280 336
#
# _framework density 21.378829
#
# number of rings (size 3 to 8) (size 9 to 14) (size 15 to 20)
#    0.000    2.250    1.250    1.875    0.000    3.500 
#    9.000    0.000    0.000    0.000    0.000    0.000 
#    0.000    0.000    0.000    0.000    0.000    0.000 
#
# Total GULP energy -198293.334894 kJ/mol
# GULP energy per Si atom -12393.333431 kJ/mol
# Density = 2.133017 g / cm^3
# Si number density = 21.378829 Si / 1000 Ang^3
#
#
#
# Elastic Constant Matrix: (Units=GPa)
#
#
# Indices 1 2 3 4 5 6 
#
# 1 119.9562 9.4155 4.6330 8.4044 6.3688 6.8304
# 2 9.4155 67.9782 19.7664 13.1905 -3.4084 16.2643
# 3 4.6330 19.7664 67.9577 7.5205 -2.9071 11.9495
# 4 8.4044 13.1905 7.5205 28.8776 2.4131 1.2917
# 5 6.3688 -3.4084 -2.9071 2.4131 20.5262 1.5914
# 6 6.8304 16.2643 11.9495 1.2917 1.5914 25.0736
#
#
#
# Elastic Compliance Matrix: (Units=1/GPa)
#
#
# Indices 1 2 3 4 5 6 
#
# 1 0.008749 -0.000508 -0.000013 -0.002028 -0.002424 -0.001789
# 2 -0.000508 0.020183 -0.002671 -0.008276 0.005001 -0.011571
# 3 -0.000013 -0.002671 0.017097 -0.003179 0.002854 -0.006429
# 4 -0.002028 -0.008276 -0.003179 0.040100 -0.006357 0.005774
# 5 -0.002424 0.005001 0.002854 -0.006357 0.051988 -0.006916
# 6 -0.001789 -0.011571 -0.006429 0.005774 -0.006916 0.051082
#
#
# Mechanical properties :
#
#
# Convention : Reuss Voigt Hill
#
# Bulk Modulus (GPa) = 25.22414 35.94688 30.58551
# Shear Modulus (GPa) = 23.94638 29.70062 26.82350
#
# Velocity S-wave (km/s) = 3.35042 3.73131 3.54598
# Velocity P-wave (km/s) = 5.17603 5.95099 5.57699
#
# Compressibility (1/GPa) = 0.03964456
#
# Stress axis : x y z
#
# Youngs Moduli (GPa) = 114.29315 49.54709 58.48848
#
# Poissons Ratio (x) = 0.02516 0.00078
# Poissons Ratio (y) = 0.05804 0.15625
# Poissons Ratio (z) = 0.00153 0.13236
#
# Static dielectric constant tensor:
#      x y z
#    x 4.207220 0.085770 0.176180 
#    y 0.085770 3.702190 -0.036780 
#    z 0.176180 -0.036780 3.526460 
# 
# 
# High freq. dielectric constant tensor:
#      x y z
#    x 1.859290 0.007120 0.015150 
#    y 0.007120 1.825710 -0.012090 
#    z 0.015150 -0.012090 1.802590 
# 
# From -- ./inp_files/203795.got.cif
#   From: 2010.06.25/outbox.cif.g09.slc.cpg/sg2_102_cif.got.tgz:203795.got - 2010.06.27 13:26:56.
