data_PCOD8003475
_publ_section_title
;
Structure prediction by ZEFSAII (Michael W. Deem and Ramdas Pophale) SiO2 
 PCOD8003475
Probable space group: P -1
;
_chemical_formula_sum "Si O2"
_cell_formula_units_Z 16
_cell_length_a 8.922259
_cell_length_b 9.227444
_cell_length_c 11.429756
_cell_angle_alpha 80.395382
_cell_angle_beta 81.737221
_cell_angle_gamma 52.944303
_cell_volume 739.329359
_symmetry_space_group_name_H-M "P -1"
_symmetry_group_IT_number 2
_symmetry_cell_setting 'triclinic'
loop_
_space_group_symop_operation_xyz
x,y,z
-x,-y,-z
loop_
_atom_site_type_symbol
_atom_site_label
_atom_site_fract_x
_atom_site_fract_y
_atom_site_fract_z
Si Si1 0.008150 0.798918 0.709139
Si Si2 0.169062 0.996721 0.645788
Si Si3 0.044947 0.749421 0.966284
Si Si4 0.437019 0.468084 0.689454
Si Si5 0.571536 0.604003 0.038074
Si Si6 0.257469 0.932090 0.905077
Si Si7 0.472772 0.298982 0.471413
Si Si8 0.863499 0.706994 0.522083
O O1 0.939685 0.796672 0.846726
O O2 0.231026 0.651766 0.699668
O O3 0.901351 0.759350 0.635555
O O4 0.990416 0.986507 0.665385
O O5 0.095833 0.200781 0.598174
O O6 0.283037 0.934242 0.763526
O O7 0.313048 0.874373 0.542419
O O8 0.198843 0.526579 0.990669
O O9 0.156658 0.836795 0.956060
O O10 0.872428 0.855172 0.064481
O O11 0.491281 0.366422 0.821992
O O12 0.439314 0.341929 0.607402
O O13 0.569561 0.528332 0.623740
O O14 0.500000 0.500000 0.000000
O O15 0.463783 0.805297 0.962763
O O16 0.345191 0.236847 0.453184
O O17 0.000000 0.500000 0.500000
#
# Coordination Sequence:
#
# PCOD8003475 Si02
#       8
#     2   2   2   2   2   2   2   2
#     4   9  18  37  60  86 118 151 192 239 291 349
#     4  10  22  39  59  84 120 153 194 241 284 356
#     4   8  16  31  55  85 115 144 189 246 287 335
#     4   9  18  35  59  89 116 149 196 238 285 358
#     4   9  16  30  55  85 115 147 191 242 291 340
#     4   9  17  34  54  88 114 146 197 244 285 342
#     4  10  20  37  58  82 119 154 190 238 294 345
#     4  12  23  38  56  86 119 154 191 240 298 344
#
# _framework density 21.641235000000002
#
# number of rings (size 3 to 8) (size 9 to 14) (size 15 to 20)
#    0.000    2.500    1.250    3.000    0.000    1.000 
#   11.250    0.000    0.000    5.250    0.000    0.000 
#    0.000    0.000    0.000    0.000    0.000    0.000 
#
# Total GULP energy -198243.494544 kJ/mol
# GULP energy per Si atom -12390.218409 kJ/mol
# Density = 2.159198 g / cm^3
# Si number density = 21.641235 Si / 1000 Ang^3
#
#
#
# Elastic Constant Matrix: (Units=GPa)
#
#
# Indices 1 2 3 4 5 6 
#
# 1 62.5142 15.3935 22.6784 4.8555 23.7143 15.3110
# 2 15.3935 95.7964 35.3219 1.3249 6.9241 -4.8298
# 3 22.6784 35.3219 107.4320 18.4344 26.8188 4.9900
# 4 4.8555 1.3249 18.4344 25.7527 -8.0031 -1.8202
# 5 23.7143 6.9241 26.8188 -8.0031 22.1246 6.2632
# 6 15.3110 -4.8298 4.9900 -1.8202 6.2632 25.7325
#
#
#
# Elastic Compliance Matrix: (Units=1/GPa)
#
#
# Indices 1 2 3 4 5 6 
#
# 1 0.101273 -0.024933 0.067944 -0.138322 -0.223671 -0.033457
# 2 -0.024933 0.018696 -0.023439 0.040158 0.060711 0.010953
# 3 0.067944 -0.023439 0.074248 -0.126995 -0.195598 -0.020599
# 4 -0.138322 0.040158 -0.126995 0.273811 0.376750 0.042135
# 5 -0.223671 0.060711 -0.195598 0.376750 0.623069 0.057406
# 6 -0.033457 0.010953 -0.020599 0.042135 0.057406 0.053827
#
#
# Mechanical properties :
#
#
# Convention : Reuss Voigt Hill
#
# Bulk Modulus (GPa) = 4.28518 45.83668 25.06093
# Shear Modulus (GPa) = 4.22452 27.54522 15.88487
#
# Velocity S-wave (km/s) = 1.39868 3.57152 2.71220
# Velocity P-wave (km/s) = 2.14308 6.18336 4.62746
#
# Compressibility (1/GPa) = 0.23336265
#
# Stress axis : x y z
#
# Youngs Moduli (GPa) = 9.87428 53.48666 13.46837
#
# Poissons Ratio (x) = 1.33356 -0.91510
# Poissons Ratio (y) = 0.24619 0.31568
# Poissons Ratio (z) = -0.67090 1.25367
#
# Static dielectric constant tensor:
#      x y z
#    x 3.481810 -0.623400 0.338690 
#    y -0.623400 3.977110 0.351350 
#    z 0.338690 0.351350 3.802490 
# 
# 
# High freq. dielectric constant tensor:
#      x y z
#    x 1.808790 -0.010060 0.011750 
#    y -0.010060 1.844840 0.013320 
#    z 0.011750 0.013320 1.853760 
# 
# From -- ./inp_files/379168.got.cif
#   From: 2010.06.25/outbox.cif.g09.slc.cpg/sg2_190_cif.got.tgz:379168.got - 2010.06.27 13:26:56.
