data_PCOD8003328
_publ_section_title
;
Structure prediction by ZEFSAII (Michael W. Deem and Ramdas Pophale) SiO2 
 PCOD8003328
Probable space group: P -1
;
_chemical_formula_sum "Si O2"
_cell_formula_units_Z 16
_cell_length_a 8.961027
_cell_length_b 11.520356
_cell_length_c 17.920215
_cell_angle_alpha 135.234345
_cell_angle_beta 144.914498
_cell_angle_gamma 61.112641
_cell_volume 726.601205
_symmetry_space_group_name_H-M "P -1"
_symmetry_group_IT_number 2
_symmetry_cell_setting 'triclinic'
loop_
_space_group_symop_operation_xyz
x,y,z
-x,-y,-z
loop_
_atom_site_type_symbol
_atom_site_label
_atom_site_fract_x
_atom_site_fract_y
_atom_site_fract_z
Si Si1 0.431013 0.256170 0.068550
Si Si2 0.395429 0.664798 0.037079
Si Si3 0.762257 0.963990 0.249578
Si Si4 0.721609 0.421791 0.890171
Si Si5 0.034321 0.242794 0.190912
Si Si6 0.691096 0.863384 0.878916
Si Si7 0.021794 0.333856 0.383581
Si Si8 0.675155 0.876110 0.486664
O O1 0.448196 0.436272 0.117954
O O2 0.292765 0.241906 0.086783
O O3 0.725691 0.228213 0.191125
O O4 0.266728 0.116196 0.881686
O O5 0.642095 0.831810 0.206406
O O6 0.237596 0.649549 0.043667
O O7 0.500000 0.500000 0.000000
O O8 0.198106 0.670136 0.890976
O O9 0.607194 0.114687 0.251660
O O10 0.081074 0.031439 0.426191
O O11 0.551327 0.260743 0.706867
O O12 0.000000 0.500000 0.000000
O O13 0.250814 0.251932 0.218336
O O14 0.161552 0.353717 0.366939
O O15 0.905799 0.042027 0.059426
O O16 0.000000 0.500000 0.500000
O O17 0.181208 0.214926 0.434907
O O18 0.500000 0.000000 0.500000
#
# Coordination Sequence:
#
# PCOD8003328 Si02
#       8
#     2   2   2   2   2   2   2   2
#     4  12  20  42  72 101 131 194 241 287 356 440
#     4  11  22  42  70 101 136 185 240 288 348 430
#     4  11  22  42  74 104 141 189 239 299 363 428
#     4  12  26  45  71 100 143 192 236 291 366 437
#     4  10  22  40  67 106 138 181 242 298 357 422
#     4  10  20  36  68 102 135 176 238 298 352 420
#     4  12  23  44  73 101 142 188 243 298 358 435
#     4  12  28  44  69 110 147 185 239 305 367 431
#
# _framework density 22.020333000000001
#
# number of rings (size 3 to 8) (size 9 to 14) (size 15 to 20)
#    0.000    0.750    6.250    2.625    0.000    3.500 
#    0.000    0.625    0.000    0.000    0.000    0.000 
#    0.000    0.000    0.000    0.000    0.000    0.000 
#
# Total GULP energy -198226.166526 kJ/mol
# GULP energy per Si atom -12389.135408 kJ/mol
# Density = 2.197021 g / cm^3
# Si number density = 22.020333 Si / 1000 Ang^3
#
#
#
# Elastic Constant Matrix: (Units=GPa)
#
#
# Indices 1 2 3 4 5 6 
#
# 1 140.7209 31.8631 44.0265 5.2855 -10.1228 10.0207
# 2 31.8631 112.2434 21.4867 -0.1052 -12.3376 4.9872
# 3 44.0265 21.4867 94.8418 8.5560 -8.5995 0.4330
# 4 5.2855 -0.1052 8.5560 21.9098 3.2854 -7.6209
# 5 -10.1228 -12.3376 -8.5995 3.2854 40.3203 -0.7998
# 6 10.0207 4.9872 0.4330 -7.6209 -0.7998 50.2656
#
#
#
# Elastic Compliance Matrix: (Units=1/GPa)
#
#
# Indices 1 2 3 4 5 6 
#
# 1 0.008830 -0.001646 -0.003481 -0.001559 0.001063 -0.001787
# 2 -0.001646 0.009903 -0.001307 0.000422 0.002293 -0.000543
# 3 -0.003481 -0.001307 0.013033 -0.004518 0.001875 0.000056
# 4 -0.001559 0.000422 -0.004518 0.051358 -0.005252 0.008011
# 5 0.001063 0.002293 0.001875 -0.005252 0.026581 -0.000829
# 6 -0.001787 -0.000543 0.000056 0.008011 -0.000829 0.021505
#
#
# Mechanical properties :
#
#
# Convention : Reuss Voigt Hill
#
# Bulk Modulus (GPa) = 52.91400 60.28431 56.59915
# Shear Modulus (GPa) = 33.24938 39.19446 36.22192
#
# Velocity S-wave (km/s) = 3.89001 4.22349 4.06017
# Velocity P-wave (km/s) = 6.65267 7.15681 6.90934
#
# Compressibility (1/GPa) = 0.01889859
#
# Stress axis : x y z
#
# Youngs Moduli (GPa) = 113.24765 100.97754 76.72632
#
# Poissons Ratio (x) = 0.16617 0.26709
# Poissons Ratio (y) = 0.18636 0.10031
# Poissons Ratio (z) = 0.39422 0.13202
#
# Static dielectric constant tensor:
#      x y z
#    x 4.333490 0.110870 -0.069890 
#    y 0.110870 4.090190 -0.050280 
#    z -0.069890 -0.050280 3.755580 
# 
# 
# High freq. dielectric constant tensor:
#      x y z
#    x 1.882220 -0.002140 -0.008870 
#    y -0.002140 1.877090 -0.006330 
#    z -0.008870 -0.006330 1.838490 
# 
# From -- ./inp_files/500914.got.cif
#   From: 2010.06.25/outbox.cif.g09.slc.cpg/sg2_251_cif.got.tgz:500914.got - 2010.06.27 13:26:56.
