data_PCOD8003304
_publ_section_title
;
Structure prediction by ZEFSAII (Michael W. Deem and Ramdas Pophale) SiO2 
 PCOD8003304
Probable space group: P -1
;
_chemical_formula_sum "Si O2"
_cell_formula_units_Z 16
_cell_length_a 19.825412
_cell_length_b 24.801036
_cell_length_c 5.417099
_cell_angle_alpha 50.533961
_cell_angle_beta 116.873756
_cell_angle_gamma 157.340890
_cell_volume 706.488260
_symmetry_space_group_name_H-M "P -1"
_symmetry_group_IT_number 2
_symmetry_cell_setting 'triclinic'
loop_
_space_group_symop_operation_xyz
x,y,z
-x,-y,-z
loop_
_atom_site_type_symbol
_atom_site_label
_atom_site_fract_x
_atom_site_fract_y
_atom_site_fract_z
Si Si1 0.987343 0.651059 0.567554
Si Si2 0.775099 0.030115 0.754747
Si Si3 0.739605 0.442966 0.264165
Si Si4 0.329329 0.854106 0.444804
Si Si5 0.497268 0.115218 0.631618
Si Si6 0.170329 0.148840 0.547729
Si Si7 0.606666 0.770244 0.547805
Si Si8 0.945756 0.065406 0.634893
O O1 0.875195 0.555223 0.401696
O O2 0.127846 0.839275 0.253074
O O3 0.117447 0.691067 0.687619
O O4 0.851175 0.538636 0.910488
O O5 0.957665 0.147822 0.567633
O O6 0.648166 0.970309 0.543528
O O7 0.627235 0.844513 0.145979
O O8 0.596911 0.253752 0.584515
O O9 0.605195 0.398651 0.185746
O O10 0.328433 0.776959 0.540908
O O11 0.500000 0.000000 0.500000
O O12 0.364920 0.945362 0.040784
O O13 0.372059 0.292485 0.334284
O O14 0.157740 0.218589 0.427947
O O15 0.000000 0.000000 0.500000
O O16 0.133882 0.065214 0.952353
O O17 0.786669 0.943126 0.517009
#
# Coordination Sequence:
#
# PCOD8003304 Si02
#       8
#     2   2   2   2   2   2   2   2
#     4  12  28  43  63  97 136 170 214 271 333 389
#     4  11  21  40  67  93 124 172 226 265 313 389
#     4  12  27  43  64  99 136 170 210 270 335 389
#     4  11  25  45  71  90 124 171 221 272 322 386
#     4  11  24  44  71  93 124 171 222 265 325 393
#     4   8  16  31  54 100 126 156 209 281 308 360
#     4  10  20  36  66  91 127 170 216 265 320 381
#     4   9  17  31  63  94 123 159 221 271 309 363
#
# _framework density 22.647224999999999
#
# number of rings (size 3 to 8) (size 9 to 14) (size 15 to 20)
#    0.000    1.500    2.500    2.250    7.000    1.000 
#    0.000    0.000    0.000    1.500    0.000    0.000 
#    0.000    0.000    0.000    0.000    0.000    0.000 
#
# Total GULP energy -198210.699359 kJ/mol
# GULP energy per Si atom -12388.168710 kJ/mol
# Density = 2.259568 g / cm^3
# Si number density = 22.647225 Si / 1000 Ang^3
#
#
#
# Elastic Constant Matrix: (Units=GPa)
#
#
# Indices 1 2 3 4 5 6 
#
# 1 201.3529 47.6925 7.4070 -8.4170 -26.0528 39.1691
# 2 47.6925 100.7702 17.2263 10.5337 -2.3378 8.0655
# 3 7.4070 17.2263 50.9630 15.6249 -12.5256 15.0793
# 4 -8.4170 10.5337 15.6249 30.1079 3.5826 -2.7596
# 5 -26.0528 -2.3378 -12.5256 3.5826 32.2293 -3.5583
# 6 39.1691 8.0655 15.0793 -2.7596 -3.5583 47.3346
#
#
#
# Elastic Compliance Matrix: (Units=1/GPa)
#
#
# Indices 1 2 3 4 5 6 
#
# 1 0.007852 -0.003679 0.003624 0.000203 0.006748 -0.006506
# 2 -0.003679 0.012435 -0.004196 -0.002650 -0.003202 0.001867
# 3 0.003624 -0.004196 0.033998 -0.018306 0.016444 -0.012946
# 4 0.000203 -0.002650 -0.018306 0.045776 -0.011356 0.007931
# 5 0.006748 -0.003202 0.016444 -0.011356 0.043052 -0.007702
# 6 -0.006506 0.001867 -0.012946 0.007931 -0.007702 0.030199
#
#
# Mechanical properties :
#
#
# Convention : Reuss Voigt Hill
#
# Bulk Modulus (GPa) = 21.84244 55.30418 38.57331
# Shear Modulus (GPa) = 25.37097 40.65172 33.01134
#
# Velocity S-wave (km/s) = 3.35067 4.24134 3.82204
# Velocity P-wave (km/s) = 4.96336 6.96119 6.04537
#
# Compressibility (1/GPa) = 0.04578243
#
# Stress axis : x y z
#
# Youngs Moduli (GPa) = 127.36118 80.41516 29.41352
#
# Poissons Ratio (x) = 0.29588 -0.10659
# Poissons Ratio (y) = 0.46862 0.12341
# Poissons Ratio (z) = -0.46153 0.33740
#
# Static dielectric constant tensor:
#      x y z
#    x 5.479870 0.285050 -0.289600 
#    y 0.285050 3.914050 0.059790 
#    z -0.289600 0.059790 3.847620 
# 
# 
# High freq. dielectric constant tensor:
#      x y z
#    x 1.939120 0.018930 -0.019070 
#    y 0.018930 1.873890 0.037920 
#    z -0.019070 0.037920 1.858820 
# 
# From -- ./inp_files/55442.got.cif
#   From: 2010.06.25/outbox.cif.g09.slc.cpg/sg2_28_cif.got.tgz:55442.got - 2010.06.27 13:26:56.
