data_PCOD8003824
_publ_section_title
;
Structure prediction by ZEFSAII (Michael W. Deem and Ramdas Pophale) SiO2 
 PCOD8003824
Probable space group: P -1
;
_chemical_formula_sum "Si O2"
_cell_formula_units_Z 16
_cell_length_a 12.367265
_cell_length_b 23.052120
_cell_length_c 10.955572
_cell_angle_alpha 139.257477
_cell_angle_beta 39.602933
_cell_angle_gamma 158.431223
_cell_volume 720.576622
_symmetry_space_group_name_H-M "P -1"
_symmetry_group_IT_number 2
_symmetry_cell_setting 'triclinic'
loop_
_space_group_symop_operation_xyz
x,y,z
-x,-y,-z
loop_
_atom_site_type_symbol
_atom_site_label
_atom_site_fract_x
_atom_site_fract_y
_atom_site_fract_z
Si Si1 0.957747 0.221096 0.377434
Si Si2 0.510926 0.243539 0.997893
Si Si3 0.845527 0.530825 0.273972
Si Si4 0.179292 0.454566 0.217228
Si Si5 0.127718 0.049794 0.256563
Si Si6 0.654374 0.943250 0.365899
Si Si7 0.813878 0.734595 0.006469
Si Si8 0.701376 0.374185 0.392997
O O1 0.676420 0.161089 0.478883
O O2 0.197762 0.387980 0.509534
O O3 0.117645 0.244872 0.163155
O O4 0.845401 0.097265 0.368958
O O5 0.368164 0.158283 0.854882
O O6 0.841240 0.338464 0.867207
O O7 0.565140 0.373924 0.180807
O O8 0.300485 0.111578 0.076072
O O9 0.851476 0.464830 0.277869
O O10 0.097609 0.314986 0.074173
O O11 0.287335 0.534803 0.384934
O O12 0.879270 0.371869 0.298627
O O13 0.451504 0.592889 0.106349
O O14 0.352619 0.187918 0.383342
O O15 0.845442 0.997004 0.404252
O O16 0.000932 0.898044 0.163593
#
# Coordination Sequence:
#
# PCOD8003824 Si02
#       8
#     2   2   2   2   2   2   2   2
#     4  10  20  37  61  90 126 160 195 242 300 359
#     4   9  18  33  57  91 119 154 196 233 289 367
#     4   9  18  34  60  87 121 157 195 240 293 355
#     4  10  24  43  65  87 115 159 211 257 303 350
#     4  11  23  38  63  93 123 158 200 246 302 364
#     4  10  21  36  60  93 126 159 194 237 299 372
#     4  11  23  40  64  91 118 156 205 256 304 352
#     4  10  22  43  65  88 119 160 206 252 301 354
#
# _framework density 22.204438
#
# number of rings (size 3 to 8) (size 9 to 14) (size 15 to 20)
#    0.000    2.000    2.500    0.375    3.500    1.000 
#    0.000    6.250    0.000    0.000    0.000    0.000 
#    0.000    0.000    0.000    0.000    0.000    0.000 
#
# Total GULP energy -198360.274187 kJ/mol
# GULP energy per Si atom -12397.517137 kJ/mol
# Density = 2.215390 g / cm^3
# Si number density = 22.204438 Si / 1000 Ang^3
#
#
#
# Elastic Constant Matrix: (Units=GPa)
#
#
# Indices 1 2 3 4 5 6 
#
# 1 55.9502 41.6291 33.4107 13.8329 -8.8493 13.6428
# 2 41.6291 108.8832 37.6912 30.1944 -14.6565 1.3491
# 3 33.4107 37.6912 83.4707 14.2956 -8.4503 7.4662
# 4 13.8329 30.1944 14.2956 35.1574 -6.0959 8.0791
# 5 -8.8493 -14.6565 -8.4503 -6.0959 26.0758 3.5586
# 6 13.6428 1.3491 7.4662 8.0791 3.5586 32.6304
#
#
#
# Elastic Compliance Matrix: (Units=1/GPa)
#
#
# Indices 1 2 3 4 5 6 
#
# 1 0.033095 -0.009802 -0.007507 0.002391 0.005611 -0.012918
# 2 -0.009802 0.016911 -0.002212 -0.010877 0.002049 0.006375
# 3 -0.007507 -0.002212 0.016394 -0.001543 0.001198 -0.000270
# 4 0.002391 -0.010877 -0.001543 0.040883 0.005242 -0.010891
# 5 0.005611 0.002049 0.001198 0.005242 0.044223 -0.008825
# 6 -0.012918 0.006375 -0.000270 -0.010891 -0.008825 0.039505
#
#
# Mechanical properties :
#
#
# Convention : Reuss Voigt Hill
#
# Bulk Modulus (GPa) = 36.55436 52.64067 44.59751
# Shear Modulus (GPa) = 20.90538 27.81094 24.35816
#
# Velocity S-wave (km/s) = 3.07171 3.54290 3.31568
# Velocity P-wave (km/s) = 5.39249 6.36356 5.89804
#
# Compressibility (1/GPa) = 0.02735652
#
# Stress axis : x y z
#
# Youngs Moduli (GPa) = 30.21573 59.13363 60.99967
#
# Poissons Ratio (x) = 0.57966 0.45790
# Poissons Ratio (y) = 0.29619 0.13496
# Poissons Ratio (z) = 0.22682 0.13083
#
# Static dielectric constant tensor:
#      x y z
#    x 3.545140 -0.035940 0.024330 
#    y -0.035940 4.296740 0.202840 
#    z 0.024330 0.202840 4.166990 
# 
# 
# High freq. dielectric constant tensor:
#      x y z
#    x 1.840130 -0.009700 -0.003510 
#    y -0.009700 1.889990 0.008860 
#    z -0.003510 0.008860 1.877770 
# 
# From -- ./inp_files/439278.got.cif
#   From: 2010.06.25/outbox.cif.g09.slc.cpg/sg2_220_cif.got.tgz:439278.got - 2010.06.27 13:26:56.
