data_PCOD8003515
_publ_section_title
;
Structure prediction by ZEFSAII (Michael W. Deem and Ramdas Pophale) SiO2 
 PCOD8003515
Probable space group: P -1
;
_chemical_formula_sum "Si O2"
_cell_formula_units_Z 16
_cell_length_a 6.591214
_cell_length_b 19.201450
_cell_length_c 19.153720
_cell_angle_alpha 153.589559
_cell_angle_beta 134.837236
_cell_angle_gamma 48.892801
_cell_volume 761.999111
_symmetry_space_group_name_H-M "P -1"
_symmetry_group_IT_number 2
_symmetry_cell_setting 'triclinic'
loop_
_space_group_symop_operation_xyz
x,y,z
-x,-y,-z
loop_
_atom_site_type_symbol
_atom_site_label
_atom_site_fract_x
_atom_site_fract_y
_atom_site_fract_z
Si Si1 0.419437 0.973223 0.752937
Si Si2 0.329795 0.472645 0.216092
Si Si3 0.169037 0.809768 0.424334
Si Si4 0.364203 0.527662 0.566932
Si Si5 0.041061 0.241772 0.259515
Si Si6 0.996374 0.806709 0.073778
Si Si7 0.771247 0.232128 0.048147
Si Si8 0.444106 0.040468 0.603030
O O1 0.189630 0.890927 0.577607
O O2 0.683610 0.850070 0.723733
O O3 0.251577 0.050384 0.848586
O O4 0.539707 0.111881 0.860438
O O5 0.223896 0.623497 0.280352
O O6 0.407293 0.512090 0.350529
O O7 0.616331 0.401137 0.181761
O O8 0.086369 0.347601 0.042803
O O9 0.845319 0.846851 0.352615
O O10 0.403041 0.878071 0.489731
O O11 0.500000 0.500000 0.500000
O O12 0.119322 0.408485 0.399148
O O13 0.215200 0.707928 0.701664
O O14 0.923320 0.152549 0.083292
O O15 0.299359 0.861111 0.220271
O O16 0.001794 0.757140 0.949214
O O17 0.500000 0.000000 0.500000
#
# Coordination Sequence:
#
# PCOD8003515 Si02
#       8
#     2   2   2   2   2   2   2   2
#     4  11  21  39  63  91 127 167 214 258 315 375
#     4  10  23  41  63  94 132 166 209 260 319 376
#     4  11  23  43  68  94 123 163 211 267 320 380
#     4  10  20  37  58  90 134 171 211 259 301 364
#     4  10  21  36  58  90 129 170 215 254 306 370
#     4  11  23  41  65  92 129 167 208 265 318 380
#     4  10  22  40  60  92 132 170 204 262 317 367
#     4  11  24  44  69  94 122 160 213 269 325 380
#
# _framework density 20.997399000000001
#
# number of rings (size 3 to 8) (size 9 to 14) (size 15 to 20)
#    0.000    1.500    3.750    1.125    0.000    3.000 
#    2.250    1.250    0.000    0.000    0.000    0.000 
#    0.000    0.000    0.000    0.000    0.000    0.000 
#
# Total GULP energy -198306.532331 kJ/mol
# GULP energy per Si atom -12394.158271 kJ/mol
# Density = 2.094961 g / cm^3
# Si number density = 20.997399 Si / 1000 Ang^3
#
#
#
# Elastic Constant Matrix: (Units=GPa)
#
#
# Indices 1 2 3 4 5 6 
#
# 1 138.7450 48.8100 45.5716 7.4807 -18.5985 6.3324
# 2 48.8100 116.4598 37.3375 13.4401 -2.3961 -5.8991
# 3 45.5716 37.3375 78.9457 3.7111 0.2203 2.6531
# 4 7.4807 13.4401 3.7111 27.1677 -1.3695 3.9830
# 5 -18.5985 -2.3961 0.2203 -1.3695 40.3320 -7.0262
# 6 6.3324 -5.8991 2.6531 3.9830 -7.0262 25.3737
#
#
#
# Elastic Compliance Matrix: (Units=1/GPa)
#
#
# Indices 1 2 3 4 5 6 
#
# 1 0.010387 -0.002816 -0.004608 -0.000399 0.004375 -0.001491
# 2 -0.002816 0.011862 -0.003896 -0.005248 0.000070 0.004711
# 3 -0.004608 -0.003896 0.017212 0.001070 -0.002852 -0.002513
# 4 -0.000399 -0.005248 0.001070 0.040476 -0.000471 -0.007716
# 5 0.004375 0.000070 -0.002852 -0.000471 0.028046 0.007063
# 6 -0.001491 0.004711 -0.002513 -0.007716 0.007063 0.044308
#
#
# Mechanical properties :
#
#
# Convention : Reuss Voigt Hill
#
# Bulk Modulus (GPa) = 59.44999 66.39875 62.92437
# Shear Modulus (GPa) = 27.69511 32.07010 29.88260
#
# Velocity S-wave (km/s) = 3.63571 3.91236 3.77657
# Velocity P-wave (km/s) = 6.78226 7.21801 7.00353
#
# Compressibility (1/GPa) = 0.01682086
#
# Stress axis : x y z
#
# Youngs Moduli (GPa) = 96.26968 84.30519 58.09986
#
# Poissons Ratio (x) = 0.23739 0.26771
# Poissons Ratio (y) = 0.27107 0.22638
# Poissons Ratio (z) = 0.44359 0.32849
#
# Static dielectric constant tensor:
#      x y z
#    x 4.075150 -0.160570 -0.068790 
#    y -0.160570 3.590350 -0.051860 
#    z -0.068790 -0.051860 4.065980 
# 
# 
# High freq. dielectric constant tensor:
#      x y z
#    x 1.826960 -0.010520 -0.000280 
#    y -0.010520 1.799720 -0.006420 
#    z -0.000280 -0.006420 1.836350 
# 
# From -- ./inp_files/37894.got.cif
#   From: 2010.06.25/outbox.cif.g09.slc.cpg/sg2_19_cif.got.tgz:37894.got - 2010.06.27 13:26:56.
