data_PCOD8003661
_publ_section_title
;
Structure prediction by ZEFSAII (Michael W. Deem and Ramdas Pophale) SiO2 
 PCOD8003661
Probable space group: P -1
;
_chemical_formula_sum "Si O2"
_cell_formula_units_Z 12
_cell_length_a 18.124651
_cell_length_b 6.429805
_cell_length_c 6.442642
_cell_angle_alpha 97.918436
_cell_angle_beta 71.659170
_cell_angle_gamma 127.631677
_cell_volume 562.924265
_symmetry_space_group_name_H-M "P -1"
_symmetry_group_IT_number 2
_symmetry_cell_setting 'triclinic'
loop_
_space_group_symop_operation_xyz
x,y,z
-x,-y,-z
loop_
_atom_site_type_symbol
_atom_site_label
_atom_site_fract_x
_atom_site_fract_y
_atom_site_fract_z
Si Si1 0.112675 0.406579 0.415065
Si Si2 0.624009 0.060595 0.467909
Si Si3 0.705346 0.548582 0.768557
Si Si4 0.220024 0.984297 0.520321
Si Si5 0.556963 0.193346 0.164841
Si Si6 0.941520 0.978114 0.244561
O O1 0.192433 0.383361 0.234293
O O2 0.150755 0.704973 0.428721
O O3 0.012066 0.236513 0.357035
O O4 0.094011 0.290878 0.647921
O O5 0.658493 0.314864 0.608853
O O6 0.702533 0.001721 0.395478
O O7 0.610602 0.104767 0.246327
O O8 0.520186 0.809288 0.619972
O O9 0.721605 0.799778 0.682501
O O10 0.638326 0.473854 0.022830
O O11 0.153556 0.034455 0.722581
O O12 0.500000 0.000000 0.000000
O O13 0.000000 0.000000 0.000000
#
# Coordination Sequence:
#
# PCOD8003661 Si02
#       6
#     2   2   2   2   2   2
#     4   9  20  38  57  83 116 148 189 235 279 336
#     4   9  19  37  57  82 115 148 189 236 278 333
#     4   9  19  35  57  84 114 149 187 232 282 332
#     4  10  20  37  60  86 116 150 191 237 283 336
#     4   9  18  37  59  79 113 153 185 229 286 336
#     4  10  21  38  58  82 115 152 189 234 284 333
#
# _framework density 21.317254999999999
#
# number of rings (size 3 to 8) (size 9 to 14) (size 15 to 20)
#    0.000    2.667    0.000    0.500    0.000    5.333 
#    0.000   29.167    0.000    0.000    0.000    0.000 
#    0.000    0.000    0.000    0.000    0.000    0.000 
#
# Total GULP energy -148742.754291 kJ/mol
# GULP energy per Si atom -12395.229524 kJ/mol
# Density = 2.126874 g / cm^3
# Si number density = 21.317255 Si / 1000 Ang^3
#
#
#
# Elastic Constant Matrix: (Units=GPa)
#
#
# Indices 1 2 3 4 5 6 
#
# 1 157.3036 40.6030 72.2737 -15.2156 2.0808 -6.3764
# 2 40.6030 83.7219 54.7718 -34.6708 -7.6204 -10.9070
# 3 72.2737 54.7718 130.1691 -31.5462 -9.3897 -5.0670
# 4 -15.2156 -34.6708 -31.5462 28.1289 7.8313 -5.8204
# 5 2.0808 -7.6204 -9.3897 7.8313 28.4200 -6.7822
# 6 -6.3764 -10.9070 -5.0670 -5.8204 -6.7822 23.0052
#
#
#
# Elastic Compliance Matrix: (Units=1/GPa)
#
#
# Indices 1 2 3 4 5 6 
#
# 1 0.009054 -0.003881 -0.004942 -0.005251 -0.002481 -0.002479
# 2 -0.003881 0.041057 -0.000549 0.053550 0.004247 0.033069
# 3 -0.004942 -0.000549 0.014219 0.013010 0.002658 0.005577
# 4 -0.005251 0.053550 0.013010 0.125821 -0.001761 0.058113
# 5 -0.002481 0.004247 0.002658 -0.001761 0.041113 0.013587
# 6 -0.002479 0.033069 0.005577 0.058113 0.013587 0.078397
#
#
# Mechanical properties :
#
#
# Convention : Reuss Voigt Hill
#
# Bulk Modulus (GPa) = 21.93684 78.49907 50.21796
# Shear Modulus (GPa) = 14.55179 29.48054 22.01616
#
# Velocity S-wave (km/s) = 2.61555 3.72283 3.21719
# Velocity P-wave (km/s) = 4.40846 7.44200 6.11628
#
# Compressibility (1/GPa) = 0.04558542
#
# Stress axis : x y z
#
# Youngs Moduli (GPa) = 110.44919 24.35648 70.32727
#
# Poissons Ratio (x) = 0.09453 0.34755
# Poissons Ratio (y) = 0.42866 0.03863
# Poissons Ratio (z) = 0.54583 0.01338
#
# Static dielectric constant tensor:
#      x y z
#    x 4.145180 0.375960 -0.199130 
#    y 0.375960 3.795970 -0.457790 
#    z -0.199130 -0.457790 3.887770 
# 
# 
# High freq. dielectric constant tensor:
#      x y z
#    x 1.850140 0.020720 -0.006350 
#    y 0.020720 1.819380 -0.026360 
#    z -0.006350 -0.026360 1.823010 
# 
# From -- ./inp_files/3054.got.cif
#   From: 2010.06.25/outbox.cif.g09.slc.cpg/sg2_2_cif.got.tgz:3054.got - 2010.06.27 13:26:56.
