data_PCOD8003100
_publ_section_title
;
Structure prediction by ZEFSAII (Michael W. Deem and Ramdas Pophale) SiO2 
 PCOD8003100
Probable space group: P -1
;
_chemical_formula_sum "Si O2"
_cell_formula_units_Z 14
_cell_length_a 11.491079
_cell_length_b 15.052176
_cell_length_c 20.832976
_cell_angle_alpha 148.019389
_cell_angle_beta 158.142615
_cell_angle_gamma 44.734171
_cell_volume 654.301471
_symmetry_space_group_name_H-M "P -1"
_symmetry_group_IT_number 2
_symmetry_cell_setting 'triclinic'
loop_
_space_group_symop_operation_xyz
x,y,z
-x,-y,-z
loop_
_atom_site_type_symbol
_atom_site_label
_atom_site_fract_x
_atom_site_fract_y
_atom_site_fract_z
Si Si1 0.860203 0.066015 0.643981
Si Si2 0.901328 0.429538 0.711373
Si Si3 0.967950 0.103836 0.484828
Si Si4 0.804999 0.076443 0.037827
Si Si5 0.106981 0.251124 0.176536
Si Si6 0.737227 0.821266 0.549556
Si Si7 0.793443 0.546785 0.977844
O O1 0.543451 0.123707 0.525144
O O2 0.922943 0.971553 0.682314
O O3 0.784334 0.919603 0.457356
O O4 0.190536 0.249989 0.905991
O O5 0.061758 0.313558 0.679866
O O6 0.496196 0.333625 0.448775
O O7 0.008061 0.623045 0.850890
O O8 0.040679 0.454837 0.869768
O O9 0.000000 0.000000 0.500000
O O10 0.591887 0.020477 0.211567
O O11 0.877310 0.217993 0.102582
O O12 0.981357 0.177541 0.254847
O O13 0.970549 0.932827 0.015534
O O14 0.580906 0.615923 0.314215
O O15 0.000000 0.500000 0.000000
#
# Coordination Sequence:
#
# PCOD8003100 Si02
#       7
#     2   2   2   2   2   2   2
#     4  10  22  41  64  90 127 166 207 257 307 376
#     4  10  20  38  61  94 122 162 208 257 314 362
#     4  11  23  41  62  89 130 165 197 258 329 363
#     4  10  22  39  62  91 123 162 205 259 309 369
#     4   9  20  36  63  90 122 159 211 257 300 373
#     4  10  23  40  66  93 115 169 220 250 303 370
#     4  10  20  36  62  92 121 161 207 258 297 367
#
# _framework density 21.396864999999998
#
# number of rings (size 3 to 8) (size 9 to 14) (size 15 to 20)
#    0.000    2.000    1.429    1.714   10.000    0.571 
#    5.143    2.143    0.000    0.000    0.000    0.000 
#    0.000    0.000    0.000    0.000    0.000    0.000 
#
# Total GULP energy -173572.062575 kJ/mol
# GULP energy per Si atom -12398.004470 kJ/mol
# Density = 2.134817 g / cm^3
# Si number density = 21.396865 Si / 1000 Ang^3
#
#
#
# Elastic Constant Matrix: (Units=GPa)
#
#
# Indices 1 2 3 4 5 6 
#
# 1 116.6215 50.6722 36.6819 10.4433 -25.2981 17.9244
# 2 50.6722 92.8962 38.3564 24.5339 -6.5711 21.5071
# 3 36.6819 38.3564 101.1137 8.0490 -27.1198 24.5269
# 4 10.4433 24.5339 8.0490 26.3594 4.0456 4.3294
# 5 -25.2981 -6.5711 -27.1198 4.0456 31.4057 4.6583
# 6 17.9244 21.5071 24.5269 4.3294 4.6583 42.0048
#
#
#
# Elastic Compliance Matrix: (Units=1/GPa)
#
#
# Indices 1 2 3 4 5 6 
#
# 1 0.014425 -0.006012 0.002105 -0.001879 0.013249 -0.005582
# 2 -0.006012 0.020221 -0.003765 -0.014423 -0.001420 -0.003945
# 3 0.002105 -0.003765 0.019021 -0.004209 0.019628 -0.011820
# 4 -0.001879 -0.014423 -0.004209 0.054764 -0.016228 0.006799
# 5 0.013249 -0.001420 0.019628 -0.016228 0.064500 -0.021868
# 6 -0.005582 -0.003945 -0.011820 0.006799 -0.021868 0.036835
#
#
# Mechanical properties :
#
#
# Convention : Reuss Voigt Hill
#
# Bulk Modulus (GPa) = 26.09473 62.45025 44.27249
# Shear Modulus (GPa) = 21.01849 32.28205 26.65027
#
# Velocity S-wave (km/s) = 3.13759 3.88845 3.53302
# Velocity P-wave (km/s) = 5.03468 7.02923 6.11384
#
# Compressibility (1/GPa) = 0.03832191
#
# Stress axis : x y z
#
# Youngs Moduli (GPa) = 69.32325 49.45462 52.57246
#
# Poissons Ratio (x) = 0.29731 -0.11064
# Poissons Ratio (y) = 0.41675 0.19796
# Poissons Ratio (z) = -0.14589 0.18622
#
# Static dielectric constant tensor:
#      x y z
#    x 3.935830 0.066860 -0.019430 
#    y 0.066860 3.954460 0.453470 
#    z -0.019430 0.453470 4.032770 
# 
# 
# High freq. dielectric constant tensor:
#      x y z
#    x 1.840290 0.013680 -0.011460 
#    y 0.013680 1.831350 0.016110 
#    z -0.011460 0.016110 1.834450 
# 
# From -- ./inp_files/174820.got.cif
#   From: 2010.06.25/outbox.cif.g09.slc.cpg/sg2_88_cif.got.tgz:174820.got - 2010.06.27 13:26:56.
