data_PCOD8003639
_publ_section_title
;
Structure prediction by ZEFSAII (Michael W. Deem and Ramdas Pophale) SiO2 
 PCOD8003639
Probable space group: P -1
;
_chemical_formula_sum "Si O2"
_cell_formula_units_Z 16
_cell_length_a 15.279265
_cell_length_b 8.981010
_cell_length_c 26.013385
_cell_angle_alpha 46.332384
_cell_angle_beta 29.522764
_cell_angle_gamma 28.156203
_cell_volume 783.561043
_symmetry_space_group_name_H-M "P -1"
_symmetry_group_IT_number 2
_symmetry_cell_setting 'triclinic'
loop_
_space_group_symop_operation_xyz
x,y,z
-x,-y,-z
loop_
_atom_site_type_symbol
_atom_site_label
_atom_site_fract_x
_atom_site_fract_y
_atom_site_fract_z
Si Si1 0.653654 0.093234 0.299390
Si Si2 0.185455 0.520650 0.516699
Si Si3 0.346339 0.251751 0.700612
Si Si4 0.701003 0.652149 0.735582
Si Si5 0.701001 0.302510 0.735583
Si Si6 0.318321 0.468435 0.114838
Si Si7 0.318337 0.117241 0.114835
Si Si8 0.185455 0.856197 0.516700
O O1 0.497362 0.197282 0.409011
O O2 0.519568 0.409883 0.262600
O O3 0.605766 0.931264 0.330047
O O4 0.985874 0.839438 0.199658
O O5 0.225380 0.595476 0.533230
O O6 0.019860 0.457794 0.625306
O O7 0.000000 0.827581 0.500000
O O8 0.502635 0.325401 0.590989
O O9 0.014124 0.595682 0.800342
O O10 0.480440 0.018970 0.737397
O O11 0.724276 0.428718 0.742433
O O12 0.576527 0.707533 0.841632
O O13 0.576522 0.196354 0.841633
O O14 0.019857 0.981408 0.625308
O O15 0.370908 0.244530 0.099556
O O16 0.500000 0.500000 0.000000
O O17 0.500000 0.000000 0.000000
#
# Coordination Sequence:
#
# PCOD8003639 Si02
#       8
#     2   2   2   2   2   2   2   2
#     4   9  20  38  59  82 112 149 184 222 273 332
#     4   9  17  31  55  87 117 143 178 225 274 326
#     4   9  20  38  59  82 112 149 184 222 273 332
#     4  10  20  37  60  84 112 147 184 224 274 329
#     4  10  20  37  60  84 112 147 184 224 274 329
#     4  11  24  41  58  80 110 145 189 234 275 324
#     4  11  24  41  58  80 110 145 189 234 275 324
#     4   9  17  31  55  87 117 143 178 225 274 326
#
# _framework density 20.419595999999999
#
# number of rings (size 3 to 8) (size 9 to 14) (size 15 to 20)
#    0.000    2.250    0.000    2.250    0.000    8.000 
#    0.000    5.000    0.000    0.000    0.000    0.000 
#    0.000    0.000    0.000    0.000    0.000    0.000 
#
# Total GULP energy -198468.506374 kJ/mol
# GULP energy per Si atom -12404.281648 kJ/mol
# Density = 2.037312 g / cm^3
# Si number density = 20.419596 Si / 1000 Ang^3
#
#
#
# Elastic Constant Matrix: (Units=GPa)
#
#
# Indices 1 2 3 4 5 6 
#
# 1 78.8080 14.6702 31.5641 -1.4662 2.4651 9.2865
# 2 14.6702 53.0210 20.4167 -4.0860 -2.3943 11.5509
# 3 31.5641 20.4167 106.8162 -10.2832 7.0536 8.8171
# 4 -1.4662 -4.0860 -10.2832 36.7314 4.7680 -2.3688
# 5 2.4651 -2.3943 7.0536 4.7680 42.3065 -2.6324
# 6 9.2865 11.5509 8.8171 -2.3688 -2.6324 25.3800
#
#
#
# Elastic Compliance Matrix: (Units=1/GPa)
#
#
# Indices 1 2 3 4 5 6 
#
# 1 0.014990 -0.002033 -0.003815 -0.000852 -0.000466 -0.003362
# 2 -0.002033 0.022506 -0.003022 0.000879 0.001285 -0.008234
# 3 -0.003815 -0.003022 0.011606 0.002980 -0.002296 -0.001221
# 4 -0.000852 0.000879 0.002980 0.028660 -0.003554 0.001183
# 5 -0.000466 0.001285 -0.002296 -0.003554 0.024683 0.002612
# 6 -0.003362 -0.008234 -0.001221 0.001183 0.002612 0.045184
#
#
# Mechanical properties :
#
#
# Convention : Reuss Voigt Hill
#
# Bulk Modulus (GPa) = 31.88400 41.32745 36.60572
# Shear Modulus (GPa) = 28.43777 32.34986 30.39381
#
# Velocity S-wave (km/s) = 3.73590 3.98459 3.86225
# Velocity P-wave (km/s) = 5.85300 6.43835 6.15264
#
# Compressibility (1/GPa) = 0.03136370
#
# Stress axis : x y z
#
# Youngs Moduli (GPa) = 66.70983 44.43260 86.16269
#
# Poissons Ratio (x) = 0.09033 0.32869
# Poissons Ratio (y) = 0.13561 0.26035
# Poissons Ratio (z) = 0.25449 0.13426
#
# Static dielectric constant tensor:
#      x y z
#    x 3.752530 0.021100 0.024340 
#    y 0.021100 3.731500 -0.037570 
#    z 0.024340 -0.037570 3.709670 
# 
# 
# High freq. dielectric constant tensor:
#      x y z
#    x 1.803010 0.003420 0.003770 
#    y 0.003420 1.799570 -0.005900 
#    z 0.003770 -0.005900 1.797000 
# 
# From -- ./inp_files/177370.got.cif
#   From: 2010.06.25/outbox.cif.g09.slc.cpg/sg2_89_cif.got.tgz:177370.got - 2010.06.27 13:26:56.
