data_PCOD8003295
_publ_section_title
;
Structure prediction by ZEFSAII (Michael W. Deem and Ramdas Pophale) SiO2 
 PCOD8003295
Probable space group: P -1
;
_chemical_formula_sum "Si O2"
_cell_formula_units_Z 14
_cell_length_a 23.315169
_cell_length_b 9.279093
_cell_length_c 9.639611
_cell_angle_alpha 48.406819
_cell_angle_beta 138.719131
_cell_angle_gamma 153.391174
_cell_volume 616.027543
_symmetry_space_group_name_H-M "P -1"
_symmetry_group_IT_number 2
_symmetry_cell_setting 'triclinic'
loop_
_space_group_symop_operation_xyz
x,y,z
-x,-y,-z
loop_
_atom_site_type_symbol
_atom_site_label
_atom_site_fract_x
_atom_site_fract_y
_atom_site_fract_z
Si Si1 0.339967 0.758608 0.812429
Si Si2 0.279608 0.947194 0.097991
Si Si3 0.811502 0.808543 0.282502
Si Si4 0.806876 0.458066 0.035190
Si Si5 0.073215 0.297537 0.270448
Si Si6 0.637305 0.847580 0.591710
Si Si7 0.892493 0.017078 0.866234
O O1 0.269742 0.435140 0.839425
O O2 0.249733 0.689505 0.820049
O O3 0.340544 0.904096 0.591876
O O4 0.500000 0.000000 0.000000
O O5 0.143568 0.627793 0.147056
O O6 0.395986 0.186970 0.280618
O O7 0.305073 0.834155 0.095599
O O8 0.261935 0.115286 0.874106
O O9 0.810530 0.668728 0.506346
O O10 0.979034 0.157025 0.328303
O O11 0.804468 0.682832 0.851060
O O12 0.972045 0.665966 0.184899
O O13 0.967596 0.045577 0.116256
O O14 0.500000 0.500000 0.500000
O O15 0.783824 0.989946 0.733474
#
# Coordination Sequence:
#
# PCOD8003295 Si02
#       7
#     2   2   2   2   2   2   2
#     4  12  25  47  68  96 137 182 232 274 338 415
#     4  11  22  41  67 101 135 173 226 277 335 398
#     4  11  21  37  67  97 134 178 230 269 331 405
#     4  10  23  42  66 102 137 171 218 291 335 387
#     4  10  20  36  65  98 135 174 225 273 329 390
#     4  12  25  45  72  97 131 191 227 270 338 415
#     4  10  21  43  67  94 146 171 225 275 340 397
#
# _framework density 22.726255999999999
#
# number of rings (size 3 to 8) (size 9 to 14) (size 15 to 20)
#    0.000    1.143    4.286    2.143    2.000    0.571 
#    7.714    5.714    0.000    0.000    0.000    0.000 
#    0.000    0.000    0.000    0.000    0.000    0.000 
#
# Total GULP energy -173441.806319 kJ/mol
# GULP energy per Si atom -12388.700451 kJ/mol
# Density = 2.267453 g / cm^3
# Si number density = 22.726256 Si / 1000 Ang^3
#
#
#
# Elastic Constant Matrix: (Units=GPa)
#
#
# Indices 1 2 3 4 5 6 
#
# 1 77.5064 21.0049 36.6266 6.0537 -7.3094 -17.2960
# 2 21.0049 90.4151 32.3502 2.5215 -0.6750 -23.7244
# 3 36.6266 32.3502 129.4441 0.7230 3.2620 -14.8219
# 4 6.0537 2.5215 0.7230 31.1509 -3.7436 -3.5558
# 5 -7.3094 -0.6750 3.2620 -3.7436 20.7546 0.3500
# 6 -17.2960 -23.7244 -14.8219 -3.5558 0.3500 42.8911
#
#
#
# Elastic Compliance Matrix: (Units=1/GPa)
#
#
# Indices 1 2 3 4 5 6 
#
# 1 0.016901 -0.001164 -0.004115 -0.001836 0.006153 0.004547
# 2 -0.001164 0.013867 -0.002416 -0.000079 0.000300 0.006358
# 3 -0.004115 -0.002416 0.009610 0.000461 -0.002962 0.000388
# 4 -0.001836 -0.000079 0.000461 0.033325 0.005254 0.002095
# 5 0.006153 0.000300 -0.002962 0.005254 0.051744 0.001637
# 6 0.004547 0.006358 0.000388 0.002095 0.001637 0.028959
#
#
# Mechanical properties :
#
#
# Convention : Reuss Voigt Hill
#
# Bulk Modulus (GPa) = 40.01794 53.03656 46.52725
# Shear Modulus (GPa) = 28.07011 32.78491 30.42751
#
# Velocity S-wave (km/s) = 3.51827 3.80228 3.66303
# Velocity P-wave (km/s) = 5.84390 6.53179 6.19740
#
# Compressibility (1/GPa) = 0.02498879
#
# Stress axis : x y z
#
# Youngs Moduli (GPa) = 59.16900 72.11207 104.05854
#
# Poissons Ratio (x) = 0.08390 0.42825
# Poissons Ratio (y) = 0.06885 0.25136
# Poissons Ratio (z) = 0.24351 0.17419
#
# Static dielectric constant tensor:
#      x y z
#    x 3.999200 -0.104350 -0.181870 
#    y -0.104350 4.400190 0.148270 
#    z -0.181870 0.148270 4.312720 
# 
# 
# High freq. dielectric constant tensor:
#      x y z
#    x 1.869120 -0.022110 -0.017030 
#    y -0.022110 1.907480 -0.003550 
#    z -0.017030 -0.003550 1.886540 
# 
# From -- ./inp_files/352063.got.cif
#   From: 2010.06.25/outbox.cif.g09.slc.cpg/sg2_177_cif.got.tgz:352063.got - 2010.06.27 13:26:56.
