data_PCOD8003421
_publ_section_title
;
Structure prediction by ZEFSAII (Michael W. Deem and Ramdas Pophale) SiO2 
 PCOD8003421
Probable space group: P -1
;
_chemical_formula_sum "Si O2"
_cell_formula_units_Z 14
_cell_length_a 26.927137
_cell_length_b 11.170905
_cell_length_c 26.520673
_cell_angle_alpha 27.640385
_cell_angle_beta 169.028763
_cell_angle_gamma 152.752592
_cell_volume 687.212611
_symmetry_space_group_name_H-M "P -1"
_symmetry_group_IT_number 2
_symmetry_cell_setting 'triclinic'
loop_
_space_group_symop_operation_xyz
x,y,z
-x,-y,-z
loop_
_atom_site_type_symbol
_atom_site_label
_atom_site_fract_x
_atom_site_fract_y
_atom_site_fract_z
Si Si1 0.645033 0.615358 0.022889
Si Si2 0.309935 0.830845 0.171307
Si Si3 0.235110 0.416572 0.329262
Si Si4 0.292326 0.198623 0.570735
Si Si5 0.838578 0.332324 0.237250
Si Si6 0.274795 0.153474 0.875727
Si Si7 0.668240 0.709996 0.313847
O O1 0.859824 0.498219 0.248460
O O2 0.768211 0.714962 0.162702
O O3 0.382948 0.380735 0.857316
O O4 0.570933 0.854953 0.827379
O O5 0.244640 0.713146 0.206864
O O6 0.518562 0.685507 0.409015
O O7 0.040484 0.778093 0.889142
O O8 0.260589 0.411590 0.416882
O O9 0.363673 0.366475 0.630389
O O10 0.009771 0.995217 0.373265
O O11 0.519130 0.040231 0.840741
O O12 0.114280 0.418410 0.449675
O O13 0.758646 0.025088 0.284790
O O14 0.611153 0.406914 0.947572
#
# Coordination Sequence:
#
# PCOD8003421 Si02
#       7
#     2   2   2   2   2   2   2
#     4  11  22  39  54  87 122 145 180 228 290 342
#     4  10  21  36  56  82 112 148 184 223 275 341
#     4  10  20  37  57  80 111 148 187 224 273 330
#     4  12  20  40  56  84 115 147 186 234 271 338
#     4  10  22  36  55  76 111 152 187 227 265 332
#     4  11  25  32  57  89 118 147 168 231 301 342
#     4  10  22  37  54  77 108 152 196 220 266 324
#
# _framework density 20.372153999999998
#
# number of rings (size 3 to 8) (size 9 to 14) (size 15 to 20)
#    0.000    1.429    4.286    0.857    4.000    5.714 
#    0.000    0.000    0.000    1.714    0.000    0.000 
#    0.000    0.000    0.000    0.000    0.000    0.000 
#
# Total GULP energy -173585.947385 kJ/mol
# GULP energy per Si atom -12398.996242 kJ/mol
# Density = 2.032579 g / cm^3
# Si number density = 20.372154 Si / 1000 Ang^3
#
#
#
# Elastic Constant Matrix: (Units=GPa)
#
#
# Indices 1 2 3 4 5 6 
#
# 1 157.6575 35.4705 45.8871 -13.4969 5.8842 5.9291
# 2 35.4705 56.4723 8.8561 -13.2183 0.6927 18.4167
# 3 45.8871 8.8561 130.0911 2.8094 7.0304 -7.3670
# 4 -13.4969 -13.2183 2.8094 19.0306 -1.1604 1.5448
# 5 5.8842 0.6927 7.0304 -1.1604 27.2897 -11.9199
# 6 5.9291 18.4167 -7.3670 1.5448 -11.9199 32.0679
#
#
#
# Elastic Compliance Matrix: (Units=1/GPa)
#
#
# Indices 1 2 3 4 5 6 
#
# 1 0.008369 -0.003730 -0.002754 0.003734 -0.001118 -0.000633
# 2 -0.003730 0.033277 -0.002276 0.022162 -0.008658 -0.023230
# 3 -0.002754 -0.002276 0.009167 -0.005230 -0.000130 0.004126
# 4 0.003734 0.022162 -0.005230 0.072653 -0.005784 -0.020269
# 5 -0.001118 -0.008658 -0.000130 -0.005784 0.046873 0.022851
# 6 -0.000633 -0.023230 0.004126 -0.020269 0.022851 0.055060
#
#
# Mechanical properties :
#
#
# Convention : Reuss Voigt Hill
#
# Bulk Modulus (GPa) = 30.03688 58.29426 44.16557
# Shear Modulus (GPa) = 19.68368 32.61146 26.14757
#
# Velocity S-wave (km/s) = 3.11176 4.00532 3.58648
# Velocity P-wave (km/s) = 5.26182 7.07580 6.23513
#
# Compressibility (1/GPa) = 0.03329240
#
# Stress axis : x y z
#
# Youngs Moduli (GPa) = 119.48904 30.05070 109.08795
#
# Poissons Ratio (x) = 0.11210 0.30044
# Poissons Ratio (y) = 0.44575 0.24825
# Poissons Ratio (z) = 0.32908 0.06839
#
# Static dielectric constant tensor:
#      x y z
#    x 3.983460 0.338420 0.017740 
#    y 0.338420 3.557110 -0.104350 
#    z 0.017740 -0.104350 3.784990 
# 
# 
# High freq. dielectric constant tensor:
#      x y z
#    x 1.803410 0.016790 0.002300 
#    y 0.016790 1.749630 0.000770 
#    z 0.002300 0.000770 1.807600 
# 
# From -- ./inp_files/67384.got.cif
#   From: 2010.06.25/outbox.cif.g09.slc.cpg/sg2_34_cif.got.tgz:67384.got - 2010.06.27 13:26:56.
