data_PCOD8003941
_publ_section_title
;
Structure prediction by ZEFSAII (Michael W. Deem and Ramdas Pophale) SiO2 
 PCOD8003941
Probable space group: P -1
;
_chemical_formula_sum "Si O2"
_cell_formula_units_Z 16
_cell_length_a 11.254722
_cell_length_b 11.912413
_cell_length_c 15.672063
_cell_angle_alpha 84.468212
_cell_angle_beta 60.665793
_cell_angle_gamma 33.617037
_cell_volume 774.512698
_symmetry_space_group_name_H-M "P -1"
_symmetry_group_IT_number 2
_symmetry_cell_setting 'triclinic'
loop_
_space_group_symop_operation_xyz
x,y,z
-x,-y,-z
loop_
_atom_site_type_symbol
_atom_site_label
_atom_site_fract_x
_atom_site_fract_y
_atom_site_fract_z
Si Si1 0.883280 0.314178 0.333762
Si Si2 0.350622 0.578189 0.225319
Si Si3 0.942697 0.170943 0.149384
Si Si4 0.954758 0.910881 0.196384
Si Si5 0.850884 0.101193 0.451962
Si Si6 0.440413 0.129313 0.434891
Si Si7 0.384308 0.856878 0.864188
Si Si8 0.809070 0.730963 0.662884
O O1 0.990567 0.226154 0.203131
O O2 0.907569 0.173778 0.376526
O O3 0.530859 0.634407 0.433540
O O4 0.136390 0.198815 0.305652
O O5 0.645419 0.427252 0.173413
O O6 0.404271 0.403919 0.229721
O O7 0.310594 0.630486 0.133183
O O8 0.021642 0.866613 0.364292
O O9 0.857789 0.114666 0.226485
O O10 0.263503 0.923801 0.997302
O O11 0.729427 0.998892 0.326046
O O12 0.927023 0.897991 0.107161
O O13 0.000000 0.000000 0.500000
O O14 0.378873 0.103255 0.371537
O O15 0.142714 0.427945 0.542274
O O16 0.500000 0.000000 0.500000
O O17 0.602261 0.803585 0.790639
#
# Coordination Sequence:
#
# PCOD8003941 Si02
#       8
#     2   2   2   2   2   2   2   2
#     4  11  24  40  60  91 127 158 202 246 308 371
#     4  11  20  38  64  89 118 156 203 254 308 347
#     4  11  23  40  59  94 124 160 205 252 301 360
#     4  10  20  37  62  91 119 153 204 260 303 348
#     4  11  23  39  61  90 123 159 195 255 310 363
#     4  10  21  39  61  91 121 157 205 251 307 360
#     4  10  24  40  62  89 123 163 207 252 299 355
#     4  10  23  40  60  87 124 165 197 249 301 368
#
# _framework density 20.658149999999999
#
# number of rings (size 3 to 8) (size 9 to 14) (size 15 to 20)
#    0.000    1.500    2.500    3.000    1.750    7.500 
#    0.000    0.000    0.000    0.750    0.000    0.000 
#    0.000    0.000    0.000    0.000    0.000    0.000 
#
# Total GULP energy -198288.428050 kJ/mol
# GULP energy per Si atom -12393.026753 kJ/mol
# Density = 2.061113 g / cm^3
# Si number density = 20.658150 Si / 1000 Ang^3
#
#
#
# Elastic Constant Matrix: (Units=GPa)
#
#
# Indices 1 2 3 4 5 6 
#
# 1 143.5464 38.2971 53.9224 -14.5043 14.2030 -14.7640
# 2 38.2971 101.4783 40.0421 -16.1436 2.2534 -13.0070
# 3 53.9224 40.0421 91.3251 -16.5178 17.6290 9.9753
# 4 -14.5043 -16.1436 -16.5178 22.8089 -2.8278 4.0112
# 5 14.2030 2.2534 17.6290 -2.8278 19.6292 -3.4365
# 6 -14.7640 -13.0070 9.9753 4.0112 -3.4365 29.3554
#
#
#
# Elastic Compliance Matrix: (Units=1/GPa)
#
#
# Indices 1 2 3 4 5 6 
#
# 1 0.010357 -0.000272 -0.006742 0.000209 -0.000093 0.007340
# 2 -0.000272 0.014913 -0.008388 0.003608 0.008253 0.009795
# 3 -0.006742 -0.008388 0.026400 0.009902 -0.019902 -0.019761
# 4 0.000209 0.003608 0.009902 0.054981 -0.003209 -0.009549
# 5 -0.000093 0.008253 -0.019902 -0.003209 0.070820 0.019102
# 6 0.007340 0.009795 -0.019761 -0.009549 0.019102 0.052352
#
#
# Mechanical properties :
#
#
# Convention : Reuss Voigt Hill
#
# Bulk Modulus (GPa) = 47.92827 66.76365 57.34596
# Shear Modulus (GPa) = 18.68583 27.96458 23.32520
#
# Velocity S-wave (km/s) = 3.01080 3.68323 3.36386
# Velocity P-wave (km/s) = 5.94454 7.10470 6.55036
#
# Compressibility (1/GPa) = 0.02086451
#
# Stress axis : x y z
#
# Youngs Moduli (GPa) = 96.55599 67.05465 37.87943
#
# Poissons Ratio (x) = 0.01826 0.25537
# Poissons Ratio (y) = 0.02629 0.31775
# Poissons Ratio (z) = 0.65095 0.56248
#
# Static dielectric constant tensor:
#      x y z
#    x 3.816770 -0.440890 0.137040 
#    y -0.440890 3.909630 -0.057570 
#    z 0.137040 -0.057570 3.507580 
# 
# 
# High freq. dielectric constant tensor:
#      x y z
#    x 1.806010 -0.024740 0.008530 
#    y -0.024740 1.815900 -0.010330 
#    z 0.008530 -0.010330 1.791700 
# 
# From -- ./inp_files/438693.got.cif
#   From: 2010.06.25/outbox.cif.g09.slc.cpg/sg2_220_cif.got.tgz:438693.got - 2010.06.27 13:26:56.
