data_PCOD8003027
_publ_section_title
;
Structure prediction by ZEFSAII (Michael W. Deem and Ramdas Pophale) SiO2 
 PCOD8003027
Probable space group: P -1
;
_chemical_formula_sum "Si O2"
_cell_formula_units_Z 16
_cell_length_a 9.285935
_cell_length_b 8.585708
_cell_length_c 15.246233
_cell_angle_alpha 101.718784
_cell_angle_beta 143.108388
_cell_angle_gamma 82.375929
_cell_volume 713.558026
_symmetry_space_group_name_H-M "P -1"
_symmetry_group_IT_number 2
_symmetry_cell_setting 'triclinic'
loop_
_space_group_symop_operation_xyz
x,y,z
-x,-y,-z
loop_
_atom_site_type_symbol
_atom_site_label
_atom_site_fract_x
_atom_site_fract_y
_atom_site_fract_z
Si Si1 0.145053 0.122535 0.149394
Si Si2 0.126095 0.291016 0.807288
Si Si3 0.629629 0.074900 0.300469
Si Si4 0.949461 0.953753 0.714523
Si Si5 0.905992 0.449079 0.043648
Si Si6 0.660605 0.542088 0.238224
Si Si7 0.402819 0.806372 0.879955
Si Si8 0.151322 0.201035 0.531045
O O1 0.418894 0.161736 0.257746
O O2 0.012429 0.285617 0.106336
O O3 0.180969 0.050802 0.256100
O O4 0.000000 0.000000 0.000000
O O5 0.006668 0.415326 0.828636
O O6 0.181138 0.370159 0.750259
O O7 0.950997 0.132833 0.695883
O O8 0.370364 0.231917 0.958933
O O9 0.539779 0.065438 0.154680
O O10 0.886050 0.171991 0.439262
O O11 0.659573 0.899694 0.333297
O O12 0.829243 0.840545 0.567406
O O13 0.211150 0.888999 0.857261
O O14 0.619484 0.430241 0.906784
O O15 0.000000 0.500000 0.000000
O O16 0.711091 0.355638 0.239454
O O17 0.756713 0.615859 0.385995
#
# Coordination Sequence:
#
# PCOD8003027 Si02
#       8
#     2   2   2   2   2   2   2   2
#     4  12  23  39  63  92 122 156 198 250 310 356
#     4  11  21  37  61  90 123 158 200 252 302 352
#     4  10  21  39  60  84 119 158 200 245 289 356
#     4  11  23  38  61  89 122 158 202 248 292 360
#     4  11  23  40  62  94 126 153 193 251 314 358
#     4  11  21  39  65  88 122 161 199 247 299 360
#     4  10  20  36  61  92 117 152 204 254 297 345
#     4  10  23  42  61  85 119 165 207 240 292 355
#
# _framework density 22.422843
#
# number of rings (size 3 to 8) (size 9 to 14) (size 15 to 20)
#    0.000    1.250    0.000    9.375    0.000    3.500 
#    0.000    2.500    0.000    5.250    0.000    0.000 
#    0.000    0.000    0.000    0.000    0.000    0.000 
#
# Total GULP energy -198343.758834 kJ/mol
# GULP energy per Si atom -12396.484927 kJ/mol
# Density = 2.237181 g / cm^3
# Si number density = 22.422843 Si / 1000 Ang^3
#
#
#
# Elastic Constant Matrix: (Units=GPa)
#
#
# Indices 1 2 3 4 5 6 
#
# 1 97.3121 12.3769 32.4832 3.1175 -13.7051 -2.4666
# 2 12.3769 113.6810 34.5432 17.6737 -3.7292 -12.6421
# 3 32.4832 34.5432 55.5546 19.9348 -22.9039 -7.0207
# 4 3.1175 17.6737 19.9348 41.0146 -7.5811 -7.1985
# 5 -13.7051 -3.7292 -22.9039 -7.5811 37.6858 -9.7382
# 6 -2.4666 -12.6421 -7.0207 -7.1985 -9.7382 35.5041
#
#
#
# Elastic Compliance Matrix: (Units=1/GPa)
#
#
# Indices 1 2 3 4 5 6 
#
# 1 0.013212 0.000968 -0.009610 0.003175 -0.000322 -0.000082
# 2 0.000968 0.011534 -0.008652 -0.001322 -0.003728 0.001173
# 3 -0.009610 -0.008652 0.042959 -0.010906 0.021761 0.008504
# 4 0.003175 -0.001322 -0.010906 0.031112 0.001789 0.004392
# 5 -0.000322 -0.003728 0.021761 0.001789 0.043580 0.015269
# 6 -0.000082 0.001173 0.008504 0.004392 0.015269 0.035338
#
#
# Mechanical properties :
#
#
# Convention : Reuss Voigt Hill
#
# Bulk Modulus (GPa) = 30.19601 47.26161 38.72881
# Shear Modulus (GPa) = 22.38533 35.31720 28.85126
#
# Velocity S-wave (km/s) = 3.16306 3.97300 3.59094
# Velocity P-wave (km/s) = 5.18033 6.49381 5.87390
#
# Compressibility (1/GPa) = 0.03311695
#
# Stress axis : x y z
#
# Youngs Moduli (GPa) = 75.69103 86.70182 23.27811
#
# Poissons Ratio (x) = -0.08395 0.22370
# Poissons Ratio (y) = -0.07329 0.20141
# Poissons Ratio (z) = 0.72737 0.75016
#
# Static dielectric constant tensor:
#      x y z
#    x 4.047380 -0.056870 -0.110100 
#    y -0.056870 4.609190 0.081730 
#    z -0.110100 0.081730 3.940330 
# 
# 
# High freq. dielectric constant tensor:
#      x y z
#    x 1.878660 -0.007100 -0.014520 
#    y -0.007100 1.896890 -0.001780 
#    z -0.014520 -0.001780 1.872250 
# 
# From -- ./inp_files/495535.got.cif
#   From: 2010.06.25/outbox.cif.g09.slc.cpg/sg2_248_cif.got.tgz:495535.got - 2010.06.27 13:26:56.
