data_PCOD8003214
_publ_section_title
;
Structure prediction by ZEFSAII (Michael W. Deem and Ramdas Pophale) SiO2 
 PCOD8003214
Probable space group: P -1
;
_chemical_formula_sum "Si O2"
_cell_formula_units_Z 14
_cell_length_a 14.705067
_cell_length_b 16.605473
_cell_length_c 16.897481
_cell_angle_alpha 17.711826
_cell_angle_beta 35.127599
_cell_angle_gamma 37.069661
_cell_volume 718.112287
_symmetry_space_group_name_H-M "P -1"
_symmetry_group_IT_number 2
_symmetry_cell_setting 'triclinic'
loop_
_space_group_symop_operation_xyz
x,y,z
-x,-y,-z
loop_
_atom_site_type_symbol
_atom_site_label
_atom_site_fract_x
_atom_site_fract_y
_atom_site_fract_z
Si Si1 0.012215 0.150742 0.057998
Si Si2 0.446470 0.227502 0.119339
Si Si3 0.979357 0.816452 0.802480
Si Si4 0.170874 0.245096 0.189248
Si Si5 0.727805 0.486443 0.726040
Si Si6 0.766759 0.926540 0.172587
Si Si7 0.806606 0.677170 0.659206
O O1 0.087542 0.125277 0.116316
O O2 0.913424 0.903037 0.344144
O O3 0.904504 0.431386 0.864313
O O4 0.157158 0.139648 0.904560
O O5 0.350791 0.273214 0.062070
O O6 0.574377 0.967152 0.262106
O O7 0.327925 0.187354 0.313492
O O8 0.545165 0.478289 0.834117
O O9 0.835473 0.844561 0.814523
O O10 0.103916 0.025079 0.498674
O O11 0.066029 0.521818 0.015335
O O12 0.723650 0.570684 0.740912
O O13 0.816305 0.684505 0.423120
O O14 0.825487 0.193545 0.919846
#
# Coordination Sequence:
#
# PCOD8003214 Si02
#       7
#     2   2   2   2   2   2   2
#     4  12  23  40  60  92 117 156 195 250 284 351
#     4  10  23  40  60  89 116 159 190 250 287 355
#     4  10  20  37  59  93 113 142 197 245 287 345
#     4  10  20  36  64  86 115 148 189 246 295 337
#     4  10  24  40  58  87 119 160 200 239 284 356
#     4  10  25  39  59  81 132 153 194 237 303 339
#     4  12  24  37  67  83 117 157 211 237 288 332
#
# _framework density 19.495559
#
# number of rings (size 3 to 8) (size 9 to 14) (size 15 to 20)
#    0.857    0.571    2.857    2.143    4.000    4.000 
#    0.000    0.714    0.000    0.857    0.000    0.000 
#    0.000    0.000    0.000    0.000    0.000    0.000 
#
# Total GULP energy -173545.870082 kJ/mol
# GULP energy per Si atom -12396.133577 kJ/mol
# Density = 1.945119 g / cm^3
# Si number density = 19.495559 Si / 1000 Ang^3
#
#
#
# Elastic Constant Matrix: (Units=GPa)
#
#
# Indices 1 2 3 4 5 6 
#
# 1 107.8277 41.4382 24.9267 21.0060 -2.7755 27.3512
# 2 41.4382 90.4002 36.4727 16.8821 0.6875 13.2997
# 3 24.9267 36.4727 130.4762 -3.5838 16.1626 1.7048
# 4 21.0060 16.8821 -3.5838 25.0286 5.4129 6.7603
# 5 -2.7755 0.6875 16.1626 5.4129 21.3339 -1.1729
# 6 27.3512 13.2997 1.7048 6.7603 -1.1729 21.4992
#
#
#
# Elastic Compliance Matrix: (Units=1/GPa)
#
#
# Indices 1 2 3 4 5 6 
#
# 1 0.017487 -0.002089 -0.003689 -0.010726 0.006929 -0.016912
# 2 -0.002089 0.016510 -0.005136 -0.010339 0.005512 -0.003596
# 3 -0.003689 -0.005136 0.011424 0.009744 -0.011261 0.003286
# 4 -0.010726 -0.010339 0.009744 0.063163 -0.024576 -0.001933
# 5 0.006929 0.005512 -0.011261 -0.024576 0.062353 -0.000202
# 6 -0.016912 -0.003596 0.003286 -0.001933 -0.000202 0.070589
#
#
# Mechanical properties :
#
#
# Convention : Reuss Voigt Hill
#
# Bulk Modulus (GPa) = 42.38426 59.37549 50.87987
# Shear Modulus (GPa) = 18.43538 28.63010 23.53274
#
# Velocity S-wave (km/s) = 3.07843 3.83632 3.47808
# Velocity P-wave (km/s) = 5.86714 7.08132 6.50263
#
# Compressibility (1/GPa) = 0.02359367
#
# Stress axis : x y z
#
# Youngs Moduli (GPa) = 57.18403 60.57117 87.53349
#
# Poissons Ratio (x) = 0.12655 0.32289
# Poissons Ratio (y) = 0.11947 0.44954
# Poissons Ratio (z) = 0.21094 0.31107
#
# Static dielectric constant tensor:
#      x y z
#    x 3.723890 0.198350 0.063380 
#    y 0.198350 3.316360 -0.110490 
#    z 0.063380 -0.110490 3.604490 
# 
# 
# High freq. dielectric constant tensor:
#      x y z
#    x 1.760750 0.018120 0.004420 
#    y 0.018120 1.737810 -0.008650 
#    z 0.004420 -0.008650 1.771060 
# 
# From -- ./inp_files/115693.got.cif
#   From: 2010.06.25/outbox.cif.g09.slc.cpg/sg2_58_cif.got.tgz:115693.got - 2010.06.27 13:26:56.
