data_PCOD8003930
_publ_section_title
;
Structure prediction by ZEFSAII (Michael W. Deem and Ramdas Pophale) SiO2 
 PCOD8003930
Probable space group: P -1
;
_chemical_formula_sum "Si O2"
_cell_formula_units_Z 14
_cell_length_a 10.792149
_cell_length_b 10.512003
_cell_length_c 15.677686
_cell_angle_alpha 64.005112
_cell_angle_beta 120.696704
_cell_angle_gamma 152.349241
_cell_volume 709.323175
_symmetry_space_group_name_H-M "P -1"
_symmetry_group_IT_number 2
_symmetry_cell_setting 'triclinic'
loop_
_space_group_symop_operation_xyz
x,y,z
-x,-y,-z
loop_
_atom_site_type_symbol
_atom_site_label
_atom_site_fract_x
_atom_site_fract_y
_atom_site_fract_z
Si Si1 0.448219 0.895128 0.199824
Si Si2 0.599445 0.535902 0.115489
Si Si3 0.170782 0.529726 0.871422
Si Si4 0.904853 0.866383 0.819311
Si Si5 0.631237 0.803966 0.394493
Si Si6 0.184057 0.188520 0.385625
Si Si7 0.793531 0.458282 0.932261
O O1 0.498429 0.845708 0.317510
O O2 0.443915 0.788472 0.146138
O O3 0.162598 0.742332 0.154546
O O4 0.709400 0.218133 0.186776
O O5 0.765254 0.528307 0.163442
O O6 0.333423 0.284152 0.155224
O O7 0.500000 0.500000 0.000000
O O8 0.796626 0.820350 0.141974
O O9 0.314255 0.602600 0.991022
O O10 0.822527 0.862167 0.700160
O O11 0.935018 0.721045 0.869649
O O12 0.406661 0.497085 0.386417
O O13 0.735315 0.879257 0.507193
O O14 0.884848 0.996979 0.362105
O O15 0.000000 0.500000 0.000000
#
# Coordination Sequence:
#
# PCOD8003930 Si02
#       7
#     2   2   2   2   2   2   2
#     4  11  22  38  61  87 121 154 188 249 304 358
#     4  12  26  41  61  82 119 171 209 241 278 341
#     4  11  24  39  56  84 121 159 206 234 287 354
#     4  12  24  40  63  86 124 157 201 248 293 345
#     4  10  20  37  62  90 123 150 190 240 314 360
#     4  10  21  37  60  93 120 152 191 247 298 365
#     4  10  23  35  58  90 122 155 187 245 298 365
#
# _framework density 19.737123
#
# number of rings (size 3 to 8) (size 9 to 14) (size 15 to 20)
#    0.000    1.143    2.857    3.429    6.000    0.000 
#    0.000    0.000    0.000    5.143    0.000    0.000 
#    0.000    0.000    0.000    0.000    0.000    0.000 
#
# Total GULP energy -173607.460536 kJ/mol
# GULP energy per Si atom -12400.532895 kJ/mol
# Density = 1.969220 g / cm^3
# Si number density = 19.737123 Si / 1000 Ang^3
#
#
#
# Elastic Constant Matrix: (Units=GPa)
#
#
# Indices 1 2 3 4 5 6 
#
# 1 47.3215 -9.2920 27.3168 7.8546 -1.8262 -6.0083
# 2 -9.2920 62.4301 11.8894 2.0387 -0.1801 -0.6177
# 3 27.3168 11.8894 145.4235 0.6973 -5.6332 -1.2849
# 4 7.8546 2.0387 0.6973 27.5644 -0.1364 -1.1278
# 5 -1.8262 -0.1801 -5.6332 -0.1364 25.9031 -5.9424
# 6 -6.0083 -0.6177 -1.2849 -1.1278 -5.9424 37.6313
#
#
#
# Elastic Compliance Matrix: (Units=1/GPa)
#
#
# Indices 1 2 3 4 5 6 
#
# 1 0.027225 0.005386 -0.005412 -0.007836 0.001722 0.004288
# 2 0.005386 0.017376 -0.002403 -0.002717 0.000196 0.001013
# 3 -0.005412 -0.002403 0.008129 0.001505 0.001291 -0.000377
# 4 -0.007836 -0.002717 0.001505 0.038670 -0.000062 -0.000095
# 5 0.001722 0.000196 0.001291 -0.000062 0.040551 0.006724
# 6 0.004288 0.001013 -0.000377 -0.000095 0.006724 0.028321
#
#
# Mechanical properties :
#
#
# Convention : Reuss Voigt Hill
#
# Bulk Modulus (GPa) = 20.88860 35.00039 27.94450
# Shear Modulus (GPa) = 27.61079 33.23715 30.42397
#
# Velocity S-wave (km/s) = 3.74428 4.10810 3.93040
# Velocity P-wave (km/s) = 5.41288 6.34616 5.89801
#
# Compressibility (1/GPa) = 0.04787300
#
# Stress axis : x y z
#
# Youngs Moduli (GPa) = 36.73044 57.54900 123.01581
#
# Poissons Ratio (x) = -0.30997 0.66580
# Poissons Ratio (y) = -0.19784 0.29559
# Poissons Ratio (z) = 0.19880 0.13828
#
# Static dielectric constant tensor:
#      x y z
#    x 3.715520 -0.062350 -0.159500 
#    y -0.062350 3.547910 -0.019110 
#    z -0.159500 -0.019110 3.952760 
# 
# 
# High freq. dielectric constant tensor:
#      x y z
#    x 1.750650 0.006140 0.003290 
#    y 0.006140 1.781080 -0.004120 
#    z 0.003290 -0.004120 1.772000 
# 
# From -- ./inp_files/92068.got.cif
#   From: 2010.06.25/outbox.cif.g09.slc.cpg/sg2_47_cif.got.tgz:92068.got - 2010.06.27 13:26:56.
