data_PCOD8003082
_publ_section_title
;
Structure prediction by ZEFSAII (Michael W. Deem and Ramdas Pophale) SiO2 
 PCOD8003082
Probable space group: P -1
;
_chemical_formula_sum "Si O2"
_cell_formula_units_Z 16
_cell_length_a 17.390293
_cell_length_b 21.893490
_cell_length_c 9.302721
_cell_angle_alpha 31.794247
_cell_angle_beta 30.801970
_cell_angle_gamma 29.199215
_cell_volume 810.589077
_symmetry_space_group_name_H-M "P -1"
_symmetry_group_IT_number 2
_symmetry_cell_setting 'triclinic'
loop_
_space_group_symop_operation_xyz
x,y,z
-x,-y,-z
loop_
_atom_site_type_symbol
_atom_site_label
_atom_site_fract_x
_atom_site_fract_y
_atom_site_fract_z
Si Si1 0.915207 0.430006 0.194149
Si Si2 0.104424 0.115255 0.201964
Si Si3 0.930030 0.871605 0.440010
Si Si4 0.511620 0.588760 0.610228
Si Si5 0.074488 0.391122 0.722884
Si Si6 0.724227 0.127534 0.090634
Si Si7 0.265291 0.850453 0.303909
Si Si8 0.429016 0.371008 0.248887
O O1 0.715773 0.486677 0.447024
O O2 0.045481 0.272754 0.343121
O O3 0.000000 0.500000 0.000000
O O4 0.922019 0.441624 0.987442
O O5 0.137078 0.076352 0.395047
O O6 0.909059 0.156229 0.385333
O O7 0.246525 0.981097 0.154336
O O8 0.128502 0.241750 0.875600
O O9 0.783458 0.976464 0.353126
O O10 0.121802 0.849324 0.152573
O O11 0.426281 0.711202 0.388805
O O12 0.487102 0.651365 0.683044
O O13 0.416572 0.502115 0.930432
O O14 0.238465 0.390637 0.531726
O O15 0.000000 0.500000 0.500000
O O16 0.544181 0.237674 0.235036
O O17 0.691779 0.138742 0.950962
#
# Coordination Sequence:
#
# PCOD8003082 Si02
#       8
#     2   2   2   2   2   2   2   2
#     4  11  22  42  60  89 122 162 201 238 304 360
#     4   9  20  41  59  88 121 159 201 238 308 356
#     4   9  19  38  61  85 118 158 198 244 294 357
#     4  11  23  40  63  90 123 159 203 245 294 364
#     4  11  24  40  62  90 125 160 195 252 305 354
#     4  10  20  36  62  90 115 152 204 250 292 348
#     4  10  21  38  64  90 118 160 200 250 296 355
#     4  11  23  40  60  93 120 158 205 245 299 354
#
# _framework density 19.738731999999999
#
# number of rings (size 3 to 8) (size 9 to 14) (size 15 to 20)
#    0.000    1.750    2.500    1.500    1.750    2.500 
#    2.250    2.500    0.000    0.000    0.000    0.000 
#    0.000    0.000    0.000    0.000    0.000    0.000 
#
# Total GULP energy -198442.698888 kJ/mol
# GULP energy per Si atom -12402.668680 kJ/mol
# Density = 1.969381 g / cm^3
# Si number density = 19.738732 Si / 1000 Ang^3
#
#
#
# Elastic Constant Matrix: (Units=GPa)
#
#
# Indices 1 2 3 4 5 6 
#
# 1 81.6374 50.3507 39.5814 -20.9785 15.3948 2.3114
# 2 50.3507 115.7186 46.5815 -11.4433 16.8471 15.0848
# 3 39.5814 46.5815 100.4247 -18.9898 9.8517 5.6923
# 4 -20.9785 -11.4433 -18.9898 39.2976 -2.4423 3.6524
# 5 15.3948 16.8471 9.8517 -2.4423 41.1797 -8.4893
# 6 2.3114 15.0848 5.6923 3.6524 -8.4893 27.2406
#
#
#
# Elastic Compliance Matrix: (Units=1/GPa)
#
#
# Indices 1 2 3 4 5 6 
#
# 1 0.020268 -0.006252 -0.003403 0.007092 -0.003713 0.000345
# 2 -0.006252 0.014386 -0.003375 -0.000304 -0.004422 -0.008068
# 3 -0.003403 -0.003375 0.013763 0.003944 -0.000708 -0.001468
# 4 0.007092 -0.000304 0.003944 0.031462 -0.002921 -0.006386
# 5 -0.003713 -0.004422 -0.000708 -0.002921 0.030092 0.012681
# 6 0.000345 -0.008068 -0.001468 -0.006386 0.012681 0.046263
#
#
# Mechanical properties :
#
#
# Convention : Reuss Voigt Hill
#
# Bulk Modulus (GPa) = 44.72879 63.42310 54.07595
# Shear Modulus (GPa) = 26.35097 32.29473 29.32285
#
# Velocity S-wave (km/s) = 3.65771 4.04927 3.85846
# Velocity P-wave (km/s) = 6.36774 7.35277 6.87791
#
# Compressibility (1/GPa) = 0.02235696
#
# Stress axis : x y z
#
# Youngs Moduli (GPa) = 49.33856 69.51130 72.65986
#
# Poissons Ratio (x) = 0.43461 0.24723
# Poissons Ratio (y) = 0.30848 0.24524
# Poissons Ratio (z) = 0.16788 0.23461
#
# Static dielectric constant tensor:
#      x y z
#    x 3.379860 0.321640 -0.150560 
#    y 0.321640 3.331760 0.273760 
#    z -0.150560 0.273760 3.276850 
# 
# 
# High freq. dielectric constant tensor:
#      x y z
#    x 1.760570 0.010870 0.008880 
#    y 0.010870 1.774880 -0.008280 
#    z 0.008880 -0.008280 1.772130 
# 
# From -- ./inp_files/209149.got.cif
#   From: 2010.06.25/outbox.cif.g09.slc.cpg/sg2_105_cif.got.tgz:209149.got - 2010.06.27 13:26:56.
