data_PCOD8003330
_publ_section_title
;
Structure prediction by ZEFSAII (Michael W. Deem and Ramdas Pophale) SiO2 
 PCOD8003330
Probable space group: P -1
;
_chemical_formula_sum "Si O2"
_cell_formula_units_Z 16
_cell_length_a 9.708264
_cell_length_b 16.010232
_cell_length_c 20.941792
_cell_angle_alpha 161.107942
_cell_angle_beta 43.102735
_cell_angle_gamma 138.468356
_cell_volume 695.156297
_symmetry_space_group_name_H-M "P -1"
_symmetry_group_IT_number 2
_symmetry_cell_setting 'triclinic'
loop_
_space_group_symop_operation_xyz
x,y,z
-x,-y,-z
loop_
_atom_site_type_symbol
_atom_site_label
_atom_site_fract_x
_atom_site_fract_y
_atom_site_fract_z
Si Si1 0.473104 0.658932 0.309718
Si Si2 0.824797 0.091458 0.741003
Si Si3 0.030812 0.944594 0.022751
Si Si4 0.416535 0.038965 0.767376
Si Si5 0.621588 0.246622 0.722676
Si Si6 0.819102 0.470463 0.122688
Si Si7 0.092817 0.455024 0.713147
Si Si8 0.785361 0.497107 0.603911
O O1 0.439073 0.573936 0.184648
O O2 0.600004 0.479206 0.172504
O O3 0.248007 0.603046 0.382405
O O4 0.607881 0.963214 0.488890
O O5 0.000093 0.257270 0.753297
O O6 0.597049 0.118643 0.816448
O O7 0.827813 0.782816 0.517434
O O8 0.876220 0.217471 0.885825
O O9 0.802676 0.909459 0.103937
O O10 0.209083 0.189089 0.170876
O O11 0.115868 0.684978 0.818217
O O12 0.000000 0.000000 0.000000
O O13 0.395367 0.720825 0.530316
O O14 0.473851 0.219588 0.814542
O O15 0.855787 0.360578 0.748817
O O16 0.782057 0.427305 0.179696
O O17 0.000000 0.500000 0.500000
#
# Coordination Sequence:
#
# PCOD8003330 Si02
#       8
#     2   2   2   2   2   2   2   2
#     4  10  20  38  69 103 140 177 225 292 346 425
#     4  11  24  43  68 108 144 182 220 285 367 434
#     4  11  26  45  69  99 135 191 240 290 339 405
#     4  10  22  44  72  98 140 176 235 291 351 421
#     4  10  20  36  68 109 135 170 226 292 366 401
#     4  11  24  42  69 103 150 180 223 278 372 439
#     4  12  23  45  69 102 145 179 228 293 349 424
#     4   9  20  42  65  94 131 188 232 279 339 399
#
# _framework density 23.016407000000001
#
# number of rings (size 3 to 8) (size 9 to 14) (size 15 to 20)
#    0.000    1.500    2.500    2.625    3.500    2.500 
#   11.250    3.125    0.000    0.000    0.000    0.000 
#    0.000    0.000    0.000    0.000    0.000    0.000 
#
# Total GULP energy -198257.209521 kJ/mol
# GULP energy per Si atom -12391.075595 kJ/mol
# Density = 2.296402 g / cm^3
# Si number density = 23.016407 Si / 1000 Ang^3
#
#
#
# Elastic Constant Matrix: (Units=GPa)
#
#
# Indices 1 2 3 4 5 6 
#
# 1 116.9434 38.9066 47.1518 4.5616 -2.6011 -19.3746
# 2 38.9066 95.6402 26.1376 4.7579 0.7583 -14.2172
# 3 47.1518 26.1376 120.6006 16.1887 -2.4504 -24.9432
# 4 4.5616 4.7579 16.1887 28.2747 -0.6560 5.8832
# 5 -2.6011 0.7583 -2.4504 -0.6560 33.1466 0.5255
# 6 -19.3746 -14.2172 -24.9432 5.8832 0.5255 38.5540
#
#
#
# Elastic Compliance Matrix: (Units=1/GPa)
#
#
# Indices 1 2 3 4 5 6 
#
# 1 0.011388 -0.003413 -0.003228 0.000112 0.000698 0.002350
# 2 -0.003413 0.012514 -0.000560 -0.001839 -0.000677 0.002827
# 3 -0.003228 -0.000560 0.012256 -0.007912 0.000393 0.007302
# 4 0.000112 -0.001839 -0.007912 0.042754 0.000507 -0.012271
# 5 0.000698 -0.000677 0.000393 0.000507 0.030280 -0.000134
# 6 0.002350 0.002827 0.007302 -0.012271 -0.000134 0.034760
#
#
# Mechanical properties :
#
#
# Convention : Reuss Voigt Hill
#
# Bulk Modulus (GPa) = 45.96218 61.95291 53.95755
# Shear Modulus (GPa) = 30.19215 34.72762 32.45988
#
# Velocity S-wave (km/s) = 3.62576 3.88857 3.75946
# Velocity P-wave (km/s) = 6.12706 6.86561 6.50682
#
# Compressibility (1/GPa) = 0.02175702
#
# Stress axis : x y z
#
# Youngs Moduli (GPa) = 87.80876 79.90878 81.59486
#
# Poissons Ratio (x) = 0.27269 0.26338
# Poissons Ratio (y) = 0.29965 0.04571
# Poissons Ratio (z) = 0.28344 0.04477
#
# Static dielectric constant tensor:
#      x y z
#    x 4.091290 0.094330 0.412590 
#    y 0.094330 4.254270 0.224090 
#    z 0.412590 0.224090 4.488780 
# 
# 
# High freq. dielectric constant tensor:
#      x y z
#    x 1.894070 0.004010 0.029050 
#    y 0.004010 1.902140 0.000680 
#    z 0.029050 0.000680 1.920400 
# 
# From -- ./inp_files/590508.got.cif
#   From: 2010.06.25/outbox.cif.g09.slc.cpg/sg2_296_cif.got.tgz:590508.got - 2010.06.27 13:26:56.
