data_PCOD8003741
_publ_section_title
;
Structure prediction by ZEFSAII (Michael W. Deem and Ramdas Pophale) SiO2 
 PCOD8003741
Probable space group: P -1
;
_chemical_formula_sum "Si O2"
_cell_formula_units_Z 14
_cell_length_a 22.762025
_cell_length_b 5.161841
_cell_length_c 14.314274
_cell_angle_alpha 76.538848
_cell_angle_beta 21.372534
_cell_angle_gamma 74.835001
_cell_volume 591.289935
_symmetry_space_group_name_H-M "P -1"
_symmetry_group_IT_number 2
_symmetry_cell_setting 'triclinic'
loop_
_space_group_symop_operation_xyz
x,y,z
-x,-y,-z
loop_
_atom_site_type_symbol
_atom_site_label
_atom_site_fract_x
_atom_site_fract_y
_atom_site_fract_z
Si Si1 0.131423 0.720545 0.142316
Si Si2 0.346182 0.634945 0.661177
Si Si3 0.554583 0.092685 0.686896
Si Si4 0.650374 0.371319 0.995543
Si Si5 0.946153 0.562542 0.968038
Si Si6 0.960672 0.188526 0.453338
Si Si7 0.909464 0.975211 0.234933
O O1 0.076179 0.422583 0.251654
O O2 0.219462 0.779065 0.910691
O O3 0.263338 0.732597 0.027778
O O4 0.988096 0.971632 0.346402
O O5 0.500000 0.500000 0.500000
O O6 0.406937 0.845847 0.482606
O O7 0.248139 0.430274 0.762330
O O8 0.426561 0.319618 0.905169
O O9 0.718617 0.064239 0.506298
O O10 0.489761 0.807467 0.806804
O O11 0.777854 0.339787 0.722960
O O12 0.009754 0.842028 0.824454
O O13 0.045959 0.334461 0.772632
O O14 0.000000 0.500000 0.000000
O O15 0.000000 0.000000 0.500000
O O16 0.000000 0.000000 0.000000
#
# Coordination Sequence:
#
# PCOD8003741 Si02
#       7
#     2   2   2   2   2   2   2
#     4  11  23  38  58  89 124 178 200 255 322 375
#     4  12  26  39  61 100 147 158 196 262 333 390
#     4  12  23  37  61  98 127 163 201 260 328 369
#     4  11  22  38  61  88 124 164 214 272 303 358
#     4  10  21  41  59  82 123 180 211 238 285 390
#     4  10  21  41  61  79 119 174 231 245 297 383
#     4  10  20  37  61  80 122 162 223 237 280 386
#
# _framework density 23.677047000000002
#
# number of rings (size 3 to 8) (size 9 to 14) (size 15 to 20)
#    0.000    1.143    4.286    5.143    2.000    2.857 
#    0.000    0.000    0.000    0.000    0.000   20.000 
#    0.000    0.000    0.000    0.000    0.000    0.000 
#
# Total GULP energy -173471.897360 kJ/mol
# GULP energy per Si atom -12390.849811 kJ/mol
# Density = 2.362316 g / cm^3
# Si number density = 23.677047 Si / 1000 Ang^3
#
#
#
# Elastic Constant Matrix: (Units=GPa)
#
#
# Indices 1 2 3 4 5 6 
#
# 1 59.8295 22.9498 28.7006 -1.3383 -26.0815 -1.4151
# 2 22.9498 154.9553 43.5092 12.2037 2.0284 35.4855
# 3 28.7006 43.5092 124.8513 13.5907 -2.1393 4.8067
# 4 -1.3383 12.2037 13.5907 41.0450 8.9972 -9.6394
# 5 -26.0815 2.0284 -2.1393 8.9972 50.6285 1.8390
# 6 -1.4151 35.4855 4.8067 -9.6394 1.8390 27.8730
#
#
#
# Elastic Compliance Matrix: (Units=1/GPa)
#
#
# Indices 1 2 3 4 5 6 
#
# 1 0.026969 -0.005108 -0.004902 0.003289 0.012980 0.008998
# 2 -0.005108 0.012470 -0.001689 -0.007343 -0.001232 -0.018301
# 3 -0.004902 -0.001689 0.010032 -0.002814 -0.001508 -0.000703
# 4 0.003289 -0.007343 -0.002814 0.033844 -0.004945 0.022031
# 5 0.012980 -0.001232 -0.001508 -0.004945 0.027340 -0.001026
# 6 0.008998 -0.018301 -0.000703 0.022031 -0.001026 0.067442
#
#
# Mechanical properties :
#
#
# Convention : Reuss Voigt Hill
#
# Bulk Modulus (GPa) = 38.35024 58.88393 48.61708
# Shear Modulus (GPa) = 23.78865 40.20775 31.99820
#
# Velocity S-wave (km/s) = 3.17316 4.12536 3.68019
# Velocity P-wave (km/s) = 5.44588 6.90037 6.21582
#
# Compressibility (1/GPa) = 0.02607545
#
# Stress axis : x y z
#
# Youngs Moduli (GPa) = 37.07912 80.19501 99.67730
#
# Poissons Ratio (x) = 0.40960 0.48860
# Poissons Ratio (y) = 0.18938 0.16832
# Poissons Ratio (z) = 0.18176 0.13542
#
# Static dielectric constant tensor:
#      x y z
#    x 4.925760 2.247920 0.281010 
#    y 2.247920 7.792690 0.973860 
#    z 0.281010 0.973860 4.757060 
# 
# 
# High freq. dielectric constant tensor:
#      x y z
#    x 1.925290 0.014030 -0.010800 
#    y 0.014030 1.954710 0.008190 
#    z -0.010800 0.008190 1.933960 
# 
# From -- ./inp_files/542126.got.cif
#   From: 2010.06.25/outbox.cif.g09.slc.cpg/sg2_272_cif.got.tgz:542126.got - 2010.06.27 13:26:56.
