data_PCOD8003302
_publ_section_title
;
Structure prediction by ZEFSAII (Michael W. Deem and Ramdas Pophale) SiO2 
 PCOD8003302
Probable space group: P -1
;
_chemical_formula_sum "Si O2"
_cell_formula_units_Z 16
_cell_length_a 6.516271
_cell_length_b 15.336244
_cell_length_c 15.594700
_cell_angle_alpha 145.582839
_cell_angle_beta 80.986050
_cell_angle_gamma 108.849613
_cell_volume 815.852766
_symmetry_space_group_name_H-M "P -1"
_symmetry_group_IT_number 2
_symmetry_cell_setting 'triclinic'
loop_
_space_group_symop_operation_xyz
x,y,z
-x,-y,-z
loop_
_atom_site_type_symbol
_atom_site_label
_atom_site_fract_x
_atom_site_fract_y
_atom_site_fract_z
Si Si1 0.658693 0.287794 0.984230
Si Si2 0.277593 0.496519 0.696910
Si Si3 0.533495 0.897306 0.493019
Si Si4 0.963772 0.313032 0.420416
Si Si5 0.960237 0.147132 0.744706
Si Si6 0.246152 0.996549 0.718027
Si Si7 0.667244 0.510100 0.573132
Si Si8 0.719269 0.639399 0.242418
O O1 0.859654 0.250883 0.896871
O O2 0.435842 0.132159 0.868330
O O3 0.722003 0.335938 0.119324
O O4 0.623579 0.445107 0.065911
O O5 0.536568 0.531124 0.683277
O O6 0.201076 0.349328 0.653551
O O7 0.109293 0.447693 0.589279
O O8 0.345977 0.881623 0.562634
O O9 0.524675 0.718611 0.314890
O O10 0.500000 0.000000 0.500000
O O11 0.776222 0.986481 0.588693
O O12 0.918975 0.127322 0.304105
O O13 0.734738 0.346676 0.446322
O O14 0.105186 0.339407 0.343765
O O15 0.078499 0.263307 0.752693
O O16 0.129817 0.089467 0.740698
O O17 0.500000 0.500000 0.500000
#
# Coordination Sequence:
#
# PCOD8003302 Si02
#       8
#     2   2   2   2   2   2   2   2
#     4   9  24  39  54  85 125 161 196 238 294 344
#     4   9  20  37  58  87 115 150 197 239 283 348
#     4  11  22  35  55  85 113 151 205 253 283 332
#     4  10  20  36  66  89 113 151 192 240 300 349
#     4  11  22  39  55  83 125 159 205 238 288 345
#     4  11  23  39  58  88 123 157 193 246 297 342
#     4   9  19  38  62  94 115 140 193 248 294 348
#     4  10  20  39  58  81 119 161 200 244 284 338
#
# _framework density 19.611381000000002
#
# number of rings (size 3 to 8) (size 9 to 14) (size 15 to 20)
#    0.750    1.250    1.250    2.250    1.750    4.500 
#    2.250    0.625    0.000    7.500    0.000    0.000 
#    0.000    0.000    0.000    0.000    0.000    0.000 
#
# Total GULP energy -198250.690830 kJ/mol
# GULP energy per Si atom -12390.668177 kJ/mol
# Density = 1.956674 g / cm^3
# Si number density = 19.611381 Si / 1000 Ang^3
#
#
#
# Elastic Constant Matrix: (Units=GPa)
#
#
# Indices 1 2 3 4 5 6 
#
# 1 96.2241 31.4706 43.4614 -4.3163 -8.8440 4.7373
# 2 31.4706 116.9405 31.0410 3.4641 -1.6945 14.2452
# 3 43.4614 31.0410 84.4571 0.9921 -15.9810 14.6182
# 4 -4.3163 3.4641 0.9921 22.4902 0.3478 -0.0901
# 5 -8.8440 -1.6945 -15.9810 0.3478 17.0729 -9.1491
# 6 4.7373 14.2452 14.6182 -0.0901 -9.1491 28.2609
#
#
#
# Elastic Compliance Matrix: (Units=1/GPa)
#
#
# Indices 1 2 3 4 5 6 
#
# 1 0.014451 -0.002597 -0.006556 0.003433 0.002719 0.003169
# 2 -0.002597 0.010586 -0.002669 -0.001946 -0.005618 -0.005345
# 3 -0.006556 -0.002669 0.019175 -0.001900 0.012483 -0.003439
# 4 0.003433 -0.001946 -0.001900 0.045517 -0.000362 0.001416
# 5 0.002719 -0.005618 0.012483 -0.000362 0.083396 0.022916
# 6 0.003169 -0.005345 -0.003439 0.001416 0.022916 0.046749
#
#
# Mechanical properties :
#
#
# Convention : Reuss Voigt Hill
#
# Bulk Modulus (GPa) = 48.62247 56.61864 52.62055
# Shear Modulus (GPa) = 19.96999 26.34139 23.15569
#
# Velocity S-wave (km/s) = 3.19452 3.66890 3.43990
# Velocity P-wave (km/s) = 6.20108 6.84695 6.53201
#
# Compressibility (1/GPa) = 0.02056662
#
# Stress axis : x y z
#
# Youngs Moduli (GPa) = 69.19967 94.46285 52.15169
#
# Poissons Ratio (x) = 0.24533 0.34192
# Poissons Ratio (y) = 0.17972 0.13921
# Poissons Ratio (z) = 0.45369 0.25216
#
# Static dielectric constant tensor:
#      x y z
#    x 3.591670 0.190340 -0.304280 
#    y 0.190340 3.790670 -0.153650 
#    z -0.304280 -0.153650 3.362620 
# 
# 
# High freq. dielectric constant tensor:
#      x y z
#    x 1.766470 0.005720 -0.014370 
#    y 0.005720 1.774430 -0.002320 
#    z -0.014370 -0.002320 1.736010 
# 
# From -- ./inp_files/339654.got.cif
#   From: 2010.06.25/outbox.cif.g09.slc.cpg/sg2_170_cif.got.tgz:339654.got - 2010.06.27 13:26:56.
