data_PCOD8003103
_publ_section_title
;
Structure prediction by ZEFSAII (Michael W. Deem and Ramdas Pophale) SiO2 
 PCOD8003103
Probable space group: P -1
;
_chemical_formula_sum "Si O2"
_cell_formula_units_Z 14
_cell_length_a 14.706608
_cell_length_b 8.073732
_cell_length_c 14.360692
_cell_angle_alpha 126.693902
_cell_angle_beta 27.929204
_cell_angle_gamma 110.914892
_cell_volume 570.197241
_symmetry_space_group_name_H-M "P -1"
_symmetry_group_IT_number 2
_symmetry_cell_setting 'triclinic'
loop_
_space_group_symop_operation_xyz
x,y,z
-x,-y,-z
loop_
_atom_site_type_symbol
_atom_site_label
_atom_site_fract_x
_atom_site_fract_y
_atom_site_fract_z
Si Si1 0.284193 0.820284 0.019337
Si Si2 0.613008 0.758806 0.978371
Si Si3 0.023371 0.523633 0.878350
Si Si4 0.284155 0.733442 0.784285
Si Si5 0.738451 0.567049 0.611450
Si Si6 0.843838 0.884158 0.505976
Si Si7 0.184026 0.239158 0.024997
O O1 0.078995 0.883292 0.295585
O O2 0.319780 0.041361 0.040086
O O3 0.215404 0.739885 0.957831
O O4 0.506220 0.618353 0.793243
O O5 0.720115 0.554998 0.736311
O O6 0.698297 0.668375 0.974881
O O7 0.350840 0.857157 0.244787
O O8 0.813651 0.642450 0.037576
O O9 0.120386 0.708803 0.850470
O O10 0.180555 0.272818 0.608795
O O11 0.000000 0.500000 0.000000
O O12 0.500000 0.500000 0.500000
O O13 0.309014 0.961362 0.811143
O O14 0.802563 0.775828 0.601813
O O15 0.931460 0.326881 0.316996
#
# Coordination Sequence:
#
# PCOD8003103 Si02
#       7
#     2   2   2   2   2   2   2
#     4  10  20  36  62  92 125 165 216 261 311 379
#     4  10  21  38  61  91 125 170 210 262 319 375
#     4  11  21  38  62  90 124 166 206 260 322 371
#     4  11  21  39  64  89 123 171 213 258 321 380
#     4  10  21  38  63  89 125 169 212 260 322 372
#     4  10  20  38  61  93 128 162 218 262 308 385
#     4  10  22  40  63  92 129 165 215 263 315 389
#
# _framework density 24.552906
#
# number of rings (size 3 to 8) (size 9 to 14) (size 15 to 20)
#    0.000    1.714    1.429    6.000    0.000    2.286 
#    0.000    8.571    0.000    8.571    0.000    0.000 
#    0.000    0.000    0.000    0.000    0.000    0.000 
#
# Total GULP energy -173470.144559 kJ/mol
# GULP energy per Si atom -12390.724611 kJ/mol
# Density = 2.449702 g / cm^3
# Si number density = 24.552906 Si / 1000 Ang^3
#
#
#
# Elastic Constant Matrix: (Units=GPa)
#
#
# Indices 1 2 3 4 5 6 
#
# 1 116.4965 22.5587 23.1803 6.4043 -3.4211 -25.6920
# 2 22.5587 37.3573 22.7915 -4.9940 -6.2434 -10.5690
# 3 23.1803 22.7915 112.4599 -2.9564 -16.0312 -13.7978
# 4 6.4043 -4.9940 -2.9564 31.5778 7.1645 -6.5914
# 5 -3.4211 -6.2434 -16.0312 7.1645 42.1168 -7.5993
# 6 -25.6920 -10.5690 -13.7978 -6.5914 -7.5993 41.1537
#
#
#
# Elastic Compliance Matrix: (Units=1/GPa)
#
#
# Indices 1 2 3 4 5 6 
#
# 1 0.010961 -0.004900 -0.000486 -0.002234 0.001317 0.005307
# 2 -0.004900 0.035870 -0.004896 0.006811 0.003008 0.006158
# 3 -0.000486 -0.004896 0.010883 0.000051 0.003876 0.002812
# 4 -0.002234 0.006811 0.000051 0.035251 -0.004203 0.005241
# 5 0.001317 0.003008 0.003876 -0.004203 0.027814 0.007357
# 6 0.005307 0.006158 0.002812 0.005241 0.007357 0.032334
#
#
# Mechanical properties :
#
#
# Convention : Reuss Voigt Hill
#
# Bulk Modulus (GPa) = 26.91774 44.81942 35.86858
# Shear Modulus (GPa) = 26.87282 36.15520 31.51401
#
# Velocity S-wave (km/s) = 3.31189 3.84154 3.58650
# Velocity P-wave (km/s) = 5.06081 6.16201 5.63836
#
# Compressibility (1/GPa) = 0.03715022
#
# Stress axis : x y z
#
# Youngs Moduli (GPa) = 91.22919 27.87857 91.88297
#
# Poissons Ratio (x) = 0.13660 0.04469
# Poissons Ratio (y) = 0.44700 0.44988
# Poissons Ratio (z) = 0.04437 0.13650
#
# Static dielectric constant tensor:
#      x y z
#    x 8.221910 2.070720 0.569150 
#    y 2.070720 5.351060 0.268570 
#    z 0.569150 0.268570 4.494780 
# 
# 
# High freq. dielectric constant tensor:
#      x y z
#    x 1.998610 0.003890 0.008300 
#    y 0.003890 1.942920 0.002780 
#    z 0.008300 0.002780 1.965190 
# 
# From -- ./inp_files/315945.got.cif
#   From: 2010.06.25/outbox.cif.g09.slc.cpg/sg2_158_cif.got.tgz:315945.got - 2010.06.27 13:26:56.
