data_PCOD8003054
_publ_section_title
;
Structure prediction by ZEFSAII (Michael W. Deem and Ramdas Pophale) SiO2 
 PCOD8003054
Probable space group: P -1
;
_chemical_formula_sum "Si O2"
_cell_formula_units_Z 14
_cell_length_a 22.684923
_cell_length_b 9.279260
_cell_length_c 12.358104
_cell_angle_alpha 132.233630
_cell_angle_beta 41.258154
_cell_angle_gamma 153.713262
_cell_volume 759.709481
_symmetry_space_group_name_H-M "P -1"
_symmetry_group_IT_number 2
_symmetry_cell_setting 'triclinic'
loop_
_space_group_symop_operation_xyz
x,y,z
-x,-y,-z
loop_
_atom_site_type_symbol
_atom_site_label
_atom_site_fract_x
_atom_site_fract_y
_atom_site_fract_z
Si Si1 0.865911 0.316001 0.761789
Si Si2 0.845506 0.699301 0.621953
Si Si3 0.778437 0.504879 0.851510
Si Si4 0.674442 0.787778 0.926487
Si Si5 0.198538 0.799243 0.603806
Si Si6 0.327394 0.261990 0.848583
Si Si7 0.344982 0.096603 0.336135
O O1 0.877339 0.564591 0.836398
O O2 0.027033 0.509587 0.657624
O O3 0.763080 0.115460 0.909467
O O4 0.784324 0.053457 0.644100
O O5 0.876443 0.728701 0.723102
O O6 0.733883 0.684281 0.748376
O O7 0.765575 0.367083 0.516169
O O8 0.000000 0.000000 0.500000
O O9 0.646532 0.124950 0.803239
O O10 0.709573 0.576007 0.036102
O O11 0.500000 0.500000 0.000000
O O12 0.706790 0.867445 0.048863
O O13 0.222949 0.952049 0.759148
O O14 0.301514 0.074969 0.508015
O O15 0.500182 0.528904 0.716024
#
# Coordination Sequence:
#
# PCOD8003054 Si02
#       7
#     2   2   2   2   2   2   2
#     4  10  20  36  62  81 116 151 203 226 282 349
#     4  10  20  37  60  85 115 157 197 234 286 355
#     4   8  20  35  60  84 112 152 202 223 282 354
#     4  11  21  39  63  83 114 160 199 235 282 357
#     4  11  22  35  59  91 118 147 191 250 294 330
#     4  11  21  37  59  89 118 149 189 246 298 332
#     4   9  19  36  60  80 112 154 196 229 280 354
#
# _framework density 18.428094999999999
#
# number of rings (size 3 to 8) (size 9 to 14) (size 15 to 20)
#    0.857    1.143    2.857    1.286    0.000    2.286 
#    0.000    0.714    3.143    0.000    0.000    0.000 
#    0.000    0.000    0.000    0.000    0.000    0.000 
#
# Total GULP energy -173510.404470 kJ/mol
# GULP energy per Si atom -12393.600319 kJ/mol
# Density = 1.838615 g / cm^3
# Si number density = 18.428095 Si / 1000 Ang^3
#
#
#
# Elastic Constant Matrix: (Units=GPa)
#
#
# Indices 1 2 3 4 5 6 
#
# 1 107.5435 37.2833 51.3900 0.7656 3.2746 -7.1832
# 2 37.2833 63.4252 40.2396 -7.8399 1.8664 -3.4095
# 3 51.3900 40.2396 97.9705 -3.0175 4.0761 2.7359
# 4 0.7656 -7.8399 -3.0175 32.2465 1.3879 9.3819
# 5 3.2746 1.8664 4.0761 1.3879 29.0996 -8.0504
# 6 -7.1832 -3.4095 2.7359 9.3819 -8.0504 28.1193
#
#
#
# Elastic Compliance Matrix: (Units=1/GPa)
#
#
# Indices 1 2 3 4 5 6 
#
# 1 0.014009 -0.004850 -0.005652 -0.003553 0.001090 0.005038
# 2 -0.004850 0.023768 -0.007078 0.005050 -0.000053 0.000632
# 3 -0.005652 -0.007078 0.016386 0.001577 -0.002719 -0.005201
# 4 -0.003553 0.005050 0.001577 0.036933 -0.005907 -0.014463
# 5 0.001090 -0.000053 -0.002719 -0.005907 0.038664 0.013577
# 6 0.005038 0.000632 -0.005201 -0.014463 0.013577 0.046145
#
#
# Mechanical properties :
#
#
# Convention : Reuss Voigt Hill
#
# Bulk Modulus (GPa) = 52.62224 58.52945 55.57584
# Shear Modulus (GPa) = 22.99913 27.22816 25.11364
#
# Velocity S-wave (km/s) = 3.53660 3.84804 3.69560
# Velocity P-wave (km/s) = 6.73010 7.18145 6.95943
#
# Compressibility (1/GPa) = 0.01900337
#
# Stress axis : x y z
#
# Youngs Moduli (GPa) = 71.38087 42.07370 61.02723
#
# Poissons Ratio (x) = 0.20404 0.34493
# Poissons Ratio (y) = 0.34617 0.43196
# Poissons Ratio (z) = 0.40345 0.29781
#
# Static dielectric constant tensor:
#      x y z
#    x 3.502060 -0.258070 0.062870 
#    y -0.258070 3.124470 -0.135880 
#    z 0.062870 -0.135880 3.359670 
# 
# 
# High freq. dielectric constant tensor:
#      x y z
#    x 1.715730 -0.017650 0.006760 
#    y -0.017650 1.691300 -0.019800 
#    z 0.006760 -0.019800 1.710630 
# 
# From -- ./inp_files/216499.got.cif
#   From: 2010.06.25/outbox.cif.g09.slc.cpg/sg2_109_cif.got.tgz:216499.got - 2010.06.27 13:26:56.
