data_PCOD8003191
_publ_section_title
;
Structure prediction by ZEFSAII (Michael W. Deem and Ramdas Pophale) SiO2 
 PCOD8003191
Probable space group: P -1
;
_chemical_formula_sum "Si O2"
_cell_formula_units_Z 16
_cell_length_a 14.796058
_cell_length_b 23.138931
_cell_length_c 8.830701
_cell_angle_alpha 128.671026
_cell_angle_beta 128.212798
_cell_angle_gamma 19.007772
_cell_volume 764.179418
_symmetry_space_group_name_H-M "P -1"
_symmetry_group_IT_number 2
_symmetry_cell_setting 'triclinic'
loop_
_space_group_symop_operation_xyz
x,y,z
-x,-y,-z
loop_
_atom_site_type_symbol
_atom_site_label
_atom_site_fract_x
_atom_site_fract_y
_atom_site_fract_z
Si Si1 0.295740 0.292640 0.512102
Si Si2 0.535196 0.559094 0.703745
Si Si3 0.017787 0.377502 0.892524
Si Si4 0.389084 0.252461 0.893577
Si Si5 0.615060 0.228235 0.591243
Si Si6 0.224772 0.196226 0.107810
Si Si7 0.238694 0.864092 0.745465
Si Si8 0.357602 0.514414 0.959310
O O1 0.389288 0.249117 0.709402
O O2 0.526347 0.197852 0.494824
O O3 0.307357 0.197752 0.339698
O O4 0.000000 0.500000 0.500000
O O5 0.500000 0.500000 0.500000
O O6 0.293800 0.757141 0.723776
O O7 0.845075 0.404254 0.718616
O O8 0.507435 0.571424 0.876016
O O9 0.287501 0.233096 0.827491
O O10 0.104593 0.324520 0.070706
O O11 0.811130 0.565742 0.956988
O O12 0.682796 0.107298 0.031573
O O13 0.591908 0.245605 0.414816
O O14 0.408038 0.410424 0.745678
O O15 0.919132 0.064480 0.703744
O O16 0.982552 0.278782 0.037938
O O17 0.500000 0.000000 0.000000
O O18 0.500000 0.500000 0.000000
#
# Coordination Sequence:
#
# PCOD8003191 Si02
#       8
#     2   2   2   2   2   2   2   2
#     4  12  22  38  66  94 122 161 216 260 310 374
#     4  10  21  37  59  87 127 170 208 257 318 383
#     4   9  19  36  60  87 122 162 208 257 314 372
#     4  10  20  36  63  94 119 159 210 264 313 368
#     4  11  23  41  65  94 126 165 217 266 318 382
#     4  11  24  42  62  91 130 169 210 261 321 382
#     4  10  23  39  63  95 126 162 210 268 317 376
#     4  11  24  41  63  90 128 172 215 262 325 381
#
# _framework density 20.937491000000001
#
# number of rings (size 3 to 8) (size 9 to 14) (size 15 to 20)
#    0.000    1.500    2.500    3.000    3.500    8.000 
#    0.000    0.625    0.000    0.000    0.000    0.000 
#    0.000    0.000    0.000    0.000    0.000    0.000 
#
# Total GULP energy -198332.688976 kJ/mol
# GULP energy per Si atom -12395.793061 kJ/mol
# Density = 2.088984 g / cm^3
# Si number density = 20.937491 Si / 1000 Ang^3
#
#
#
# Elastic Constant Matrix: (Units=GPa)
#
#
# Indices 1 2 3 4 5 6 
#
# 1 146.9058 33.3251 48.0760 -13.0682 2.0382 -16.9358
# 2 33.3251 69.2232 43.6089 -8.2385 -4.6787 -16.9804
# 3 48.0760 43.6089 139.1729 -15.9038 -0.6016 -7.2401
# 4 -13.0682 -8.2385 -15.9038 32.1086 3.1703 -3.3427
# 5 2.0382 -4.6787 -0.6016 3.1703 36.7473 -4.1729
# 6 -16.9358 -16.9804 -7.2401 -3.3427 -4.1729 25.3883
#
#
#
# Elastic Compliance Matrix: (Units=1/GPa)
#
#
# Indices 1 2 3 4 5 6 
#
# 1 0.008535 -0.001522 -0.001945 0.002619 -0.000426 0.004395
# 2 -0.001522 0.022680 -0.005445 0.003525 0.004140 0.013745
# 3 -0.001945 -0.005445 0.009745 0.002518 -0.000867 -0.001971
# 4 0.002619 0.003525 0.002518 0.035487 -0.001670 0.009221
# 5 -0.000426 0.004140 -0.000867 -0.001670 0.028657 0.006728
# 6 0.004395 0.013745 -0.001971 0.009221 0.006728 0.053271
#
#
# Mechanical properties :
#
#
# Convention : Reuss Voigt Hill
#
# Bulk Modulus (GPa) = 43.22489 67.25799 55.24144
# Shear Modulus (GPa) = 27.18698 34.20161 30.69429
#
# Velocity S-wave (km/s) = 3.60736 4.04606 3.83299
# Velocity P-wave (km/s) = 6.16768 7.34986 6.78456
#
# Compressibility (1/GPa) = 0.02313482
#
# Stress axis : x y z
#
# Youngs Moduli (GPa) = 117.17104 44.09136 102.61797
#
# Poissons Ratio (x) = 0.06712 0.19960
# Poissons Ratio (y) = 0.17836 0.55876
# Poissons Ratio (z) = 0.22791 0.24008
#
# Static dielectric constant tensor:
#      x y z
#    x 4.288180 -0.281370 0.193340 
#    y -0.281370 3.675660 -0.336060 
#    z 0.193340 -0.336060 4.007550 
# 
# 
# High freq. dielectric constant tensor:
#      x y z
#    x 1.830590 -0.013220 -0.002610 
#    y -0.013220 1.800060 -0.025310 
#    z -0.002610 -0.025310 1.823550 
# 
# From -- ./inp_files/320180.got.cif
#   From: 2010.06.25/outbox.cif.g09.slc.cpg/sg2_161_cif.got.tgz:320180.got - 2010.06.27 13:26:56.
