data_PCOD8003461
_publ_section_title
;
Structure prediction by ZEFSAII (Michael W. Deem and Ramdas Pophale) SiO2 
 PCOD8003461
Probable space group: P -1
;
_chemical_formula_sum "Si O2"
_cell_formula_units_Z 16
_cell_length_a 15.551075
_cell_length_b 15.933007
_cell_length_c 7.045840
_cell_angle_alpha 52.201523
_cell_angle_beta 129.014290
_cell_angle_gamma 144.977495
_cell_volume 759.685644
_symmetry_space_group_name_H-M "P -1"
_symmetry_group_IT_number 2
_symmetry_cell_setting 'triclinic'
loop_
_space_group_symop_operation_xyz
x,y,z
-x,-y,-z
loop_
_atom_site_type_symbol
_atom_site_label
_atom_site_fract_x
_atom_site_fract_y
_atom_site_fract_z
Si Si1 0.318027 0.532454 0.001759
Si Si2 0.547658 0.731714 0.352966
Si Si3 0.145940 0.630367 0.720544
Si Si4 0.372985 0.826576 0.081891
Si Si5 0.431841 0.338937 0.114736
Si Si6 0.814850 0.873020 0.246206
Si Si7 0.951299 0.794843 0.813948
Si Si8 0.122979 0.696763 0.197213
O O1 0.424426 0.578495 0.271884
O O2 0.194973 0.351246 0.064371
O O3 0.234482 0.587392 0.827167
O O4 0.426477 0.626878 0.838354
O O5 0.459805 0.776489 0.236973
O O6 0.605973 0.717321 0.645307
O O7 0.699890 0.852545 0.266884
O O8 0.125812 0.701122 0.424476
O O9 0.980263 0.473676 0.781669
O O10 0.234763 0.751345 0.842692
O O11 0.296086 0.789510 0.232751
O O12 0.500000 0.000000 0.000000
O O13 0.500000 0.500000 0.000000
O O14 0.272488 0.217995 0.942235
O O15 0.888522 0.814391 0.513643
O O16 0.947980 0.051525 0.137223
O O17 0.056967 0.765602 0.937025
#
# Coordination Sequence:
#
# PCOD8003461 Si02
#       8
#     2   2   2   2   2   2   2   2
#     4   9  19  37  58  80 109 141 180 226 269 320
#     4  10  21  38  58  80 110 145 180 223 270 320
#     4   9  20  37  57  81 108 144 182 220 269 322
#     4  11  22  35  56  85 113 141 177 224 274 322
#     4  11  21  35  58  83 106 142 186 224 268 320
#     4  10  22  39  55  79 113 144 181 223 268 322
#     4  10  20  38  58  77 111 149 177 223 274 313
#     4  10  20  37  58  80 109 144 183 222 266 322
#
# _framework density 21.061340999999999
#
# number of rings (size 3 to 8) (size 9 to 14) (size 15 to 20)
#    0.000    2.000    0.000    3.375    0.000    3.500 
#    0.000   11.875    0.000    0.000    0.000    0.000 
#    0.000    0.000    0.000    0.000    0.000    0.000 
#
# Total GULP energy -198299.694470 kJ/mol
# GULP energy per Si atom -12393.730904 kJ/mol
# Density = 2.101340 g / cm^3
# Si number density = 21.061341 Si / 1000 Ang^3
#
#
#
# Elastic Constant Matrix: (Units=GPa)
#
#
# Indices 1 2 3 4 5 6 
#
# 1 58.5509 8.6747 20.9543 -6.3661 9.0903 4.0964
# 2 8.6747 135.4697 30.8629 4.6727 -2.9036 6.8559
# 3 20.9543 30.8629 80.4535 9.9092 4.1632 3.0045
# 4 -6.3661 4.6727 9.9092 27.9408 -1.4811 -1.1015
# 5 9.0903 -2.9036 4.1632 -1.4811 24.7807 2.2176
# 6 4.0964 6.8559 3.0045 -1.1015 2.2176 22.7573
#
#
#
# Elastic Compliance Matrix: (Units=1/GPa)
#
#
# Indices 1 2 3 4 5 6 
#
# 1 0.020988 -0.000286 -0.005757 0.006463 -0.006199 -0.002015
# 2 -0.000286 0.008259 -0.003058 -0.000356 0.001764 -0.002222
# 3 -0.005757 -0.003058 0.015989 -0.006553 -0.001294 -0.000345
# 4 0.006463 -0.000356 -0.006553 0.039759 0.000917 0.001644
# 5 -0.006199 0.001764 -0.001294 0.000917 0.043414 -0.003431
# 6 -0.002015 -0.002222 -0.000345 0.001644 -0.003431 0.045434
#
#
# Mechanical properties :
#
#
# Convention : Reuss Voigt Hill
#
# Bulk Modulus (GPa) = 36.99069 43.93975 40.46522
# Shear Modulus (GPa) = 24.86864 29.36124 27.11494
#
# Velocity S-wave (km/s) = 3.43996 3.73779 3.59197
# Velocity P-wave (km/s) = 5.77748 6.28778 6.03802
#
# Compressibility (1/GPa) = 0.02703383
#
# Stress axis : x y z
#
# Youngs Moduli (GPa) = 47.64667 121.07497 62.54330
#
# Poissons Ratio (x) = 0.03467 0.36003
# Poissons Ratio (y) = 0.01364 0.19127
# Poissons Ratio (z) = 0.27428 0.37028
#
# Static dielectric constant tensor:
#      x y z
#    x 3.583740 0.225480 0.253580 
#    y 0.225480 4.062900 0.194370 
#    z 0.253580 0.194370 3.568110 
# 
# 
# High freq. dielectric constant tensor:
#      x y z
#    x 1.824330 0.012180 0.009670 
#    y 0.012180 1.831330 0.005120 
#    z 0.009670 0.005120 1.815190 
# 
# From -- ./inp_files/84242.got.cif
#   From: 2010.06.25/outbox.cif.g09.slc.cpg/sg2_43_cif.got.tgz:84242.got - 2010.06.27 13:26:56.
