data_PCOD8003491
_publ_section_title
;
Structure prediction by ZEFSAII (Michael W. Deem and Ramdas Pophale) SiO2 
 PCOD8003491
Probable space group: P -1
;
_chemical_formula_sum "Si O2"
_cell_formula_units_Z 16
_cell_length_a 12.685160
_cell_length_b 12.295690
_cell_length_c 14.301686
_cell_angle_alpha 19.916525
_cell_angle_beta 100.337583
_cell_angle_gamma 101.435770
_cell_volume 744.633253
_symmetry_space_group_name_H-M "P -1"
_symmetry_group_IT_number 2
_symmetry_cell_setting 'triclinic'
loop_
_space_group_symop_operation_xyz
x,y,z
-x,-y,-z
loop_
_atom_site_type_symbol
_atom_site_label
_atom_site_fract_x
_atom_site_fract_y
_atom_site_fract_z
Si Si1 0.321956 0.334144 0.322719
Si Si2 0.975797 0.071777 0.168359
Si Si3 0.429866 0.737917 0.851276
Si Si4 0.117637 0.047691 0.939245
Si Si5 0.496678 0.670213 0.209114
Si Si6 0.067003 0.236068 0.390371
Si Si7 0.824323 0.223437 0.652819
Si Si8 0.590440 0.063098 0.744483
O O1 0.379512 0.510746 0.281727
O O2 0.193310 0.297985 0.339831
O O3 0.356503 0.977205 0.591417
O O4 0.350670 0.554668 0.060273
O O5 0.084324 0.962608 0.229918
O O6 0.880818 0.030920 0.107462
O O7 0.944145 0.868449 0.419211
O O8 0.991815 0.443349 0.895171
O O9 0.517661 0.997809 0.696243
O O10 0.500000 0.500000 0.000000
O O11 0.162984 0.409741 0.670021
O O12 0.182515 0.815634 0.202602
O O13 0.000000 0.000000 0.000000
O O14 0.557242 0.415579 0.487532
O O15 0.500000 0.000000 0.000000
O O16 0.569650 0.772692 0.048219
O O17 0.000000 0.000000 0.500000
O O18 0.711284 0.072445 0.718680
#
# Coordination Sequence:
#
# PCOD8003491 Si02
#       8
#     2   2   2   2   2   2   2   2
#     4  10  23  41  60  88 121 153 199 250 294 356
#     4  11  23  41  61  86 120 163 204 245 302 361
#     4  10  21  41  65  87 115 154 195 247 308 359
#     4  10  20  37  58  85 121 158 198 246 299 358
#     4  10  21  39  59  85 121 157 193 238 295 364
#     4  12  26  42  61  88 122 164 211 252 291 353
#     4  11  21  37  61  92 124 154 194 255 306 359
#     4  10  22  36  58  91 119 147 197 245 293 358
#
# _framework density 21.487085
#
# number of rings (size 3 to 8) (size 9 to 14) (size 15 to 20)
#    0.000    1.500    0.000    6.375    0.000    5.000 
#    0.000    0.000    0.000    0.000    0.000    0.000 
#    0.000    0.000    0.000    0.000    0.000    0.000 
#
# Total GULP energy -198230.984815 kJ/mol
# GULP energy per Si atom -12389.436551 kJ/mol
# Density = 2.143818 g / cm^3
# Si number density = 21.487085 Si / 1000 Ang^3
#
#
#
# Elastic Constant Matrix: (Units=GPa)
#
#
# Indices 1 2 3 4 5 6 
#
# 1 66.8355 81.6418 19.6273 8.2831 -61.6851 0.8322
# 2 81.6418 35.3483 15.6232 -11.0922 13.9054 2.0119
# 3 19.6273 15.6232 96.8975 4.0980 -19.7445 3.2237
# 4 8.2831 -11.0922 4.0980 41.0289 2.1386 3.4581
# 5 -61.6851 13.9054 -19.7445 2.1386 6.2325 -10.9890
# 6 0.8322 2.0119 3.2237 3.4581 -10.9890 16.2040
#
#
#
# Elastic Compliance Matrix: (Units=1/GPa)
#
#
# Indices 1 2 3 4 5 6 
#
# 1 0.001869 0.002593 -0.002962 0.001902 -0.011551 -0.008068
# 2 0.002593 0.013152 0.001172 0.000819 0.020861 0.011973
# 3 -0.002962 0.001172 0.011147 -0.000218 0.001847 -0.000912
# 4 0.001902 0.000819 -0.000218 0.023990 0.006282 -0.001015
# 5 -0.011551 0.020861 0.001847 0.006282 0.016628 0.007572
# 6 -0.008068 0.011973 -0.000912 -0.001015 0.007572 0.066174
#
#
# Mechanical properties :
#
#
# Convention : Reuss Voigt Hill
#
# Bulk Modulus (GPa) = 36.00555 48.09622 42.05089
# Shear Modulus (GPa) = 35.55843 18.17235 26.86539
#
# Velocity S-wave (km/s) = 4.07243 2.91130 3.53980
# Velocity P-wave (km/s) = 6.23748 5.80804 6.02658
#
# Compressibility (1/GPa) = 0.02777349
#
# Stress axis : x y z
#
# Youngs Moduli (GPa) = 535.10439 76.03221 89.70909
#
# Poissons Ratio (x) = -0.19714 0.26575
# Poissons Ratio (y) = -1.38745 -0.10514
# Poissons Ratio (z) = 1.58514 -0.08911
#
# Static dielectric constant tensor:
#      x y z
#    x 3.179020 1.329310 -0.913230 
#    y 1.329310 2.352610 1.724530 
#    z -0.913230 1.724530 3.343730 
# 
# 
# High freq. dielectric constant tensor:
#      x y z
#    x 1.837830 0.005270 -0.007040 
#    y 0.005270 1.826250 0.007010 
#    z -0.007040 0.007010 1.873030 
# 
# From -- ./inp_files/519469.got.cif
#   From: 2010.06.25/outbox.cif.g09.slc.cpg/sg2_260_cif.got.tgz:519469.got - 2010.06.27 13:26:56.
