data_PCOD8003734
_publ_section_title
;
Structure prediction by ZEFSAII (Michael W. Deem and Ramdas Pophale) SiO2 
 PCOD8003734
Probable space group: P -1
;
_chemical_formula_sum "Si O2"
_cell_formula_units_Z 16
_cell_length_a 18.423547
_cell_length_b 11.476809
_cell_length_c 9.034110
_cell_angle_alpha 130.131591
_cell_angle_beta 63.529437
_cell_angle_gamma 147.302046
_cell_volume 767.052213
_symmetry_space_group_name_H-M "P -1"
_symmetry_group_IT_number 2
_symmetry_cell_setting 'triclinic'
loop_
_space_group_symop_operation_xyz
x,y,z
-x,-y,-z
loop_
_atom_site_type_symbol
_atom_site_label
_atom_site_fract_x
_atom_site_fract_y
_atom_site_fract_z
Si Si1 0.472623 0.371280 0.569772
Si Si2 0.199847 0.131576 0.677617
Si Si3 0.032007 0.328021 0.279425
Si Si4 0.833258 0.585603 0.045934
Si Si5 0.961770 0.212825 0.736445
Si Si6 0.305602 0.086240 0.095227
Si Si7 0.883200 0.362736 0.287112
Si Si8 0.590367 0.001794 0.854261
O O1 0.500000 0.500000 0.500000
O O2 0.323906 0.198848 0.623412
O O3 0.597611 0.614591 0.765721
O O4 0.474249 0.191066 0.385942
O O5 0.252548 0.386763 0.842820
O O6 0.108190 0.955347 0.759822
O O7 0.106705 0.985744 0.496190
O O8 0.002354 0.432287 0.293645
O O9 0.136074 0.533605 0.487541
O O10 0.100907 0.311538 0.093931
O O11 0.950827 0.759705 0.208564
O O12 0.734698 0.290350 0.906229
O O13 0.064329 0.493070 0.800397
O O14 0.837772 0.098800 0.845562
O O15 0.391666 0.090432 0.106556
O O16 0.261871 0.947763 0.862408
O O17 0.500000 0.000000 0.000000
#
# Coordination Sequence:
#
# PCOD8003734 Si02
#       8
#     2   2   2   2   2   2   2   2
#     4  10  21  38  60  85 122 165 200 252 299 368
#     4  11  23  40  59  92 131 161 204 246 313 368
#     4  10  23  36  62  89 130 163 203 245 313 372
#     4  12  22  38  64  93 125 161 203 259 308 357
#     4  11  20  35  64  97 121 151 206 264 305 354
#     4  11  19  37  63  87 125 154 206 255 306 358
#     4  10  20  37  60  94 117 161 202 253 304 360
#     4  11  23  37  63  92 122 156 206 254 309 359
#
# _framework density 20.859075000000001
#
# number of rings (size 3 to 8) (size 9 to 14) (size 15 to 20)
#    0.000    1.250    5.000    3.375    3.500    0.000 
#    0.000    0.625    0.000    1.500    0.000    0.000 
#    0.000    0.000    0.000    0.000    0.000    0.000 
#
# Total GULP energy -198286.180125 kJ/mol
# GULP energy per Si atom -12392.886258 kJ/mol
# Density = 2.081160 g / cm^3
# Si number density = 20.859075 Si / 1000 Ang^3
#
#
#
# Elastic Constant Matrix: (Units=GPa)
#
#
# Indices 1 2 3 4 5 6 
#
# 1 60.8995 16.4942 43.0995 -4.5867 -16.2394 6.9150
# 2 16.4942 77.3062 66.6155 4.5295 0.5716 7.9109
# 3 43.0995 66.6155 128.1698 25.1329 -7.4554 3.7558
# 4 -4.5867 4.5295 25.1329 39.2649 1.4435 -1.1883
# 5 -16.2394 0.5716 -7.4554 1.4435 35.5411 -0.1884
# 6 6.9150 7.9109 3.7558 -1.1883 -0.1884 22.6171
#
#
#
# Elastic Compliance Matrix: (Units=1/GPa)
#
#
# Indices 1 2 3 4 5 6 
#
# 1 0.029503 0.006511 -0.014760 0.011537 0.009768 -0.008159
# 2 0.006511 0.027432 -0.018065 0.008974 -0.001663 -0.008128
# 3 -0.014760 -0.018065 0.024976 -0.015429 -0.000557 0.005869
# 4 0.011537 0.008974 -0.015429 0.035573 0.000434 -0.002232
# 5 0.009768 -0.001663 -0.000557 0.000434 0.032481 -0.002019
# 6 -0.008159 -0.008128 0.005869 -0.002232 -0.002019 0.048443
#
#
# Mechanical properties :
#
#
# Convention : Reuss Voigt Hill
#
# Bulk Modulus (GPa) = 34.15115 57.64376 45.89745
# Shear Modulus (GPa) = 19.17207 28.82905 24.00056
#
# Velocity S-wave (km/s) = 3.03499 3.72168 3.39574
# Velocity P-wave (km/s) = 5.35625 6.79431 6.11768
#
# Compressibility (1/GPa) = 0.02928159
#
# Stress axis : x y z
#
# Youngs Moduli (GPa) = 33.89505 36.45441 40.03895
#
# Poissons Ratio (x) = -0.23734 0.59096
# Poissons Ratio (y) = -0.22068 0.72331
# Poissons Ratio (z) = 0.50028 0.65855
#
# Static dielectric constant tensor:
#      x y z
#    x 3.571540 0.271400 0.275230 
#    y 0.271400 6.489450 2.220460 
#    z 0.275230 2.220460 5.848820 
# 
# 
# High freq. dielectric constant tensor:
#      x y z
#    x 1.779780 -0.003900 -0.010780 
#    y -0.003900 1.807250 0.012750 
#    z -0.010780 0.012750 1.837410 
# 
# From -- ./inp_files/206799.got.cif
#   From: 2010.06.25/outbox.cif.g09.slc.cpg/sg2_104_cif.got.tgz:206799.got - 2010.06.27 13:26:56.
