data_PCOD8003695
_publ_section_title
;
Structure prediction by ZEFSAII (Michael W. Deem and Ramdas Pophale) SiO2 
 PCOD8003695
Probable space group: P -1
;
_chemical_formula_sum "Si O2"
_cell_formula_units_Z 10
_cell_length_a 9.620452
_cell_length_b 15.187867
_cell_length_c 15.039622
_cell_angle_alpha 150.249643
_cell_angle_beta 151.347811
_cell_angle_gamma 27.421823
_cell_volume 443.860580
_symmetry_space_group_name_H-M "P -1"
_symmetry_group_IT_number 2
_symmetry_cell_setting 'triclinic'
loop_
_space_group_symop_operation_xyz
x,y,z
-x,-y,-z
loop_
_atom_site_type_symbol
_atom_site_label
_atom_site_fract_x
_atom_site_fract_y
_atom_site_fract_z
Si Si1 0.078844 0.368132 0.208975
Si Si2 0.260214 0.965806 0.769749
Si Si3 0.135317 0.576185 0.063981
Si Si4 0.708485 0.214544 0.984816
Si Si5 0.217076 0.179304 0.558917
O O1 0.480951 0.195705 0.302174
O O2 0.960330 0.589855 0.383859
O O3 0.036212 0.408196 0.114193
O O4 0.846752 0.281056 0.036775
O O5 0.084667 0.860305 0.628492
O O6 0.961440 0.189305 0.758309
O O7 0.500000 0.000000 0.000000
O O8 0.542938 0.404443 0.130920
O O9 0.000000 0.500000 0.000000
O O10 0.408867 0.178085 0.755029
O O11 0.000000 0.000000 0.000000
O O12 0.500000 0.000000 0.500000
#
# Coordination Sequence:
#
# PCOD8003695 Si02
#       5
#     2   2   2   2   2
#     4  10  21  40  63  90 123 160 201 253 306 361
#     4  10  20  37  60  89 120 157 198 248 301 356
#     4  10  20  37  62  90 121 159 201 250 303 358
#     4  11  23  42  63  91 125 162 203 252 303 362
#     4  11  21  38  64  92 121 162 205 249 303 363
#
# _framework density 22.529596999999999
#
# number of rings (size 3 to 8) (size 9 to 14) (size 15 to 20)
#    0.000    1.600    0.000    7.800    0.000    1.600 
#    0.000   17.000    0.000    0.000    0.000    0.000 
#    0.000    0.000    0.000    0.000    0.000    0.000 
#
# Total GULP energy -123890.599350 kJ/mol
# GULP energy per Si atom -12389.059935 kJ/mol
# Density = 2.247832 g / cm^3
# Si number density = 22.529597 Si / 1000 Ang^3
#
#
#
# Elastic Constant Matrix: (Units=GPa)
#
#
# Indices 1 2 3 4 5 6 
#
# 1 133.1182 55.3805 35.5410 7.6365 24.4354 -8.8707
# 2 55.3805 239.4970 48.1376 44.5596 3.8851 -37.1709
# 3 35.5410 48.1376 101.1106 9.3933 35.3225 -1.3126
# 4 7.6365 44.5596 9.3933 39.0371 -5.4675 0.3281
# 5 24.4354 3.8851 35.3225 -5.4675 32.9665 3.3664
# 6 -8.8707 -37.1709 -1.3126 0.3281 3.3664 49.9946
#
#
#
# Elastic Compliance Matrix: (Units=1/GPa)
#
#
# Indices 1 2 3 4 5 6 
#
# 1 0.009704 -0.001865 0.000127 -0.000834 -0.007333 0.000837
# 2 -0.001865 0.007161 -0.002643 -0.006973 0.001719 0.004854
# 3 0.000127 -0.002643 0.018677 -0.004375 -0.020516 -0.000042
# 4 -0.000834 -0.006973 -0.004375 0.036650 0.012875 -0.006555
# 5 -0.007333 0.001719 -0.020516 0.012875 0.060163 -0.004698
# 6 0.000837 0.004854 -0.000042 -0.006555 -0.004698 0.024118
#
#
# Mechanical properties :
#
#
# Convention : Reuss Voigt Hill
#
# Bulk Modulus (GPa) = 37.34300 83.53821 60.44060
# Shear Modulus (GPa) = 28.70897 46.71076 37.70987
#
# Velocity S-wave (km/s) = 3.57358 4.55830 4.09564
# Velocity P-wave (km/s) = 5.79986 8.05381 7.01791
#
# Compressibility (1/GPa) = 0.02677878
#
# Stress axis : x y z
#
# Youngs Moduli (GPa) = 103.05137 139.64900 53.54263
#
# Poissons Ratio (x) = 0.26051 -0.00681
# Poissons Ratio (y) = 0.19224 0.14152
# Poissons Ratio (z) = -0.01310 0.36910
#
# Static dielectric constant tensor:
#      x y z
#    x 4.009260 -0.804980 -0.027700 
#    y -0.804980 6.034990 0.992390 
#    z -0.027700 0.992390 4.198160 
# 
# 
# High freq. dielectric constant tensor:
#      x y z
#    x 1.873320 -0.028660 0.022880 
#    y -0.028660 1.930130 0.031730 
#    z 0.022880 0.031730 1.853260 
# 
# From -- ./inp_files/144026.got.cif
#   From: 2010.06.25/outbox.cif.g09.slc.cpg/sg2_73_cif.got.tgz:144026.got - 2010.06.27 13:26:56.
