data_PCOD8003282
_publ_section_title
;
Structure prediction by ZEFSAII (Michael W. Deem and Ramdas Pophale) SiO2 
 PCOD8003282
Probable space group: P -1
;
_chemical_formula_sum "Si O2"
_cell_formula_units_Z 16
_cell_length_a 11.173908
_cell_length_b 8.076649
_cell_length_c 9.785675
_cell_angle_alpha 90.929391
_cell_angle_beta 118.478168
_cell_angle_gamma 91.074936
_cell_volume 775.819774
_symmetry_space_group_name_H-M "P -1"
_symmetry_group_IT_number 2
_symmetry_cell_setting 'triclinic'
loop_
_space_group_symop_operation_xyz
x,y,z
-x,-y,-z
loop_
_atom_site_type_symbol
_atom_site_label
_atom_site_fract_x
_atom_site_fract_y
_atom_site_fract_z
Si Si1 0.574735 0.772653 0.449094
Si Si2 0.411455 0.577575 0.145459
Si Si3 0.130062 0.195149 0.334498
Si Si4 0.857350 0.496400 0.850990
Si Si5 0.918967 0.331389 0.420401
Si Si6 0.836247 0.176089 0.644310
Si Si7 0.383942 0.686130 0.847324
Si Si8 0.454617 0.876627 0.637754
O O1 0.492931 0.626390 0.327646
O O2 0.734667 0.779817 0.496477
O O3 0.562695 0.765762 0.609888
O O4 0.500517 0.932839 0.350986
O O5 0.263372 0.505120 0.104364
O O6 0.503999 0.445086 0.125488
O O7 0.387499 0.716305 0.014286
O O8 0.149661 0.331478 0.230299
O O9 0.994441 0.228590 0.344827
O O10 0.118276 0.002925 0.272813
O O11 0.852207 0.327514 0.759275
O O12 0.000000 0.500000 0.000000
O O13 0.921486 0.218279 0.554994
O O14 0.767329 0.370960 0.285842
O O15 0.000000 0.500000 0.500000
O O16 0.679949 0.163123 0.521750
O O17 0.435961 0.844160 0.788569
#
# Coordination Sequence:
#
# PCOD8003282 Si02
#       8
#     2   2   2   2   2   2   2   2
#     4  10  20  36  65  93 119 156 208 255 305 370
#     4  11  23  39  60  91 124 161 207 256 313 374
#     4  11  23  39  65  95 123 163 210 260 311 371
#     4  12  25  42  64  90 126 168 208 257 319 371
#     4  11  20  38  65  93 124 168 209 255 310 371
#     4  10  22  40  63  94 124 160 214 260 305 374
#     4  10  23  39  59  87 128 162 204 257 309 373
#     4   9  19  38  61  90 121 158 204 256 307 365
#
# _framework density 20.623346000000002
#
# number of rings (size 3 to 8) (size 9 to 14) (size 15 to 20)
#    0.000    1.500    2.500    2.625    1.750    2.000 
#    0.000    0.000    0.000    0.000    0.000    0.000 
#    0.000    0.000    0.000    0.000    0.000    0.000 
#
# Total GULP energy -198216.480177 kJ/mol
# GULP energy per Si atom -12388.530011 kJ/mol
# Density = 2.057641 g / cm^3
# Si number density = 20.623346 Si / 1000 Ang^3
#
#
#
# Elastic Constant Matrix: (Units=GPa)
#
#
# Indices 1 2 3 4 5 6 
#
# 1 139.2076 37.0792 34.9611 -11.8669 -7.4539 0.8213
# 2 37.0792 113.8968 34.3705 -12.6190 -10.8987 8.3292
# 3 34.9611 34.3705 64.1740 -15.1711 -3.8994 -1.2556
# 4 -11.8669 -12.6190 -15.1711 20.2028 8.6082 -2.9475
# 5 -7.4539 -10.8987 -3.8994 8.6082 33.2299 -3.1701
# 6 0.8213 8.3292 -1.2556 -2.9475 -3.1701 29.8194
#
#
#
# Elastic Compliance Matrix: (Units=1/GPa)
#
#
# Indices 1 2 3 4 5 6 
#
# 1 0.008624 -0.001559 -0.003541 0.001157 0.000731 0.000241
# 2 -0.001559 0.011309 -0.004868 0.001115 0.002216 -0.002975
# 3 -0.003541 -0.004868 0.023367 0.014218 -0.002995 0.003528
# 4 0.001157 0.001115 0.014218 0.068734 -0.014992 0.005456
# 5 0.000731 0.002216 -0.002995 -0.014992 0.034653 0.001437
# 6 0.000241 -0.002975 0.003528 0.005456 0.001437 0.035200
#
#
# Mechanical properties :
#
#
# Convention : Reuss Voigt Hill
#
# Bulk Modulus (GPa) = 42.79811 58.90000 50.84906
# Shear Modulus (GPa) = 23.85351 30.70824 27.28087
#
# Velocity S-wave (km/s) = 3.40461 3.86295 3.64100
# Velocity P-wave (km/s) = 6.02100 6.96551 6.51041
#
# Compressibility (1/GPa) = 0.02336552
#
# Stress axis : x y z
#
# Youngs Moduli (GPa) = 115.95134 88.42195 42.79504
#
# Poissons Ratio (x) = 0.13781 0.15154
# Poissons Ratio (y) = 0.18072 0.20833
# Poissons Ratio (z) = 0.41059 0.43045
#
# Static dielectric constant tensor:
#      x y z
#    x 4.318500 0.514100 -0.096160 
#    y 0.514100 3.915770 -0.164780 
#    z -0.096160 -0.164780 4.047200 
# 
# 
# High freq. dielectric constant tensor:
#      x y z
#    x 1.831800 0.005960 -0.004680 
#    y 0.005960 1.803660 -0.013880 
#    z -0.004680 -0.013880 1.783930 
# 
# From -- ./inp_files/239974.got.cif
#   From: 2010.06.25/outbox.cif.g09.slc.cpg/sg2_120_cif.got.tgz:239974.got - 2010.06.27 13:26:56.
