data_PCOD8003982
_publ_section_title
;
Structure prediction by ZEFSAII (Michael W. Deem and Ramdas Pophale) SiO2 
 PCOD8003982
Probable space group: P -1
;
_chemical_formula_sum "Si O2"
_cell_formula_units_Z 14
_cell_length_a 7.732364
_cell_length_b 7.600371
_cell_length_c 21.644198
_cell_angle_alpha 34.404830
_cell_angle_beta 53.204374
_cell_angle_gamma 57.730706
_cell_volume 573.320224
_symmetry_space_group_name_H-M "P -1"
_symmetry_group_IT_number 2
_symmetry_cell_setting 'triclinic'
loop_
_space_group_symop_operation_xyz
x,y,z
-x,-y,-z
loop_
_atom_site_type_symbol
_atom_site_label
_atom_site_fract_x
_atom_site_fract_y
_atom_site_fract_z
Si Si1 0.269806 0.792662 0.398598
Si Si2 0.544872 0.230313 0.503329
Si Si3 0.172038 0.329388 0.421831
Si Si4 0.623342 0.042738 0.794491
Si Si5 0.993841 0.717307 0.878652
Si Si6 0.862374 0.726524 0.130127
Si Si7 0.925540 0.611900 0.284784
O O1 0.309153 0.406887 0.486657
O O2 0.417187 0.842906 0.411734
O O3 0.360678 0.040611 0.257809
O O4 0.012452 0.831356 0.453730
O O5 0.687716 0.505353 0.371281
O O6 0.607754 0.901526 0.550714
O O7 0.222780 0.673449 0.329012
O O8 0.092290 0.361744 0.357341
O O9 0.385365 0.135495 0.844739
O O10 0.743962 0.778983 0.889428
O O11 0.137030 0.546216 0.842540
O O12 0.082757 0.042015 0.784243
O O13 0.000000 0.500000 0.000000
O O14 0.983410 0.604542 0.202001
O O15 0.000000 0.000000 0.000000
#
# Coordination Sequence:
#
# PCOD8003982 Si02
#       7
#     2   2   2   2   2   2   2
#     4  10  20  37  62  97 138 174 220 270 325 413
#     4  10  21  38  67  98 142 180 218 268 336 409
#     4  10  23  40  65 100 141 181 216 274 336 409
#     4  11  26  43  68 106 133 179 235 274 348 411
#     4  11  26  48  71  97 137 180 231 299 343 390
#     4  12  26  48  73  98 133 180 237 294 336 408
#     4  10  21  46  65 102 139 174 231 273 340 405
#
# _framework density 24.419162
#
# number of rings (size 3 to 8) (size 9 to 14) (size 15 to 20)
#    0.000    1.429    2.857    2.143    4.000    6.286 
#    0.000    0.000    0.000    0.000    0.000    0.000 
#    0.000    0.000    0.000    0.000    0.000    0.000 
#
# Total GULP energy -173443.386218 kJ/mol
# GULP energy per Si atom -12388.813301 kJ/mol
# Density = 2.436358 g / cm^3
# Si number density = 24.419162 Si / 1000 Ang^3
#
#
#
# Elastic Constant Matrix: (Units=GPa)
#
#
# Indices 1 2 3 4 5 6 
#
# 1 65.8953 15.9587 43.7205 12.9359 27.3358 -17.4341
# 2 15.9587 108.1457 48.5980 9.4073 25.6849 -6.0011
# 3 43.7205 48.5980 123.7246 16.2600 25.4970 -0.3793
# 4 12.9359 9.4073 16.2600 42.9560 3.7564 2.0581
# 5 27.3358 25.6849 25.4970 3.7564 42.5040 -5.5463
# 6 -17.4341 -6.0011 -0.3793 2.0581 -5.5463 45.6812
#
#
#
# Elastic Compliance Matrix: (Units=1/GPa)
#
#
# Indices 1 2 3 4 5 6 
#
# 1 0.029556 0.003841 -0.008142 -0.005873 -0.014594 0.010210
# 2 0.003841 0.012700 -0.004703 -0.001669 -0.006871 0.002336
# 3 -0.008142 -0.004703 0.012973 -0.001252 -0.000058 -0.003568
# 4 -0.005873 -0.001669 -0.001252 0.025798 0.002827 -0.003290
# 5 -0.014594 -0.006871 -0.000058 0.002827 0.036568 -0.002160
# 6 0.010210 0.002336 -0.003568 -0.003290 -0.002160 0.025951
#
#
# Mechanical properties :
#
#
# Convention : Reuss Voigt Hill
#
# Bulk Modulus (GPa) = 26.86765 57.14667 42.00716
# Shear Modulus (GPa) = 28.74198 38.86079 33.80138
#
# Velocity S-wave (km/s) = 3.43450 3.99357 3.72454
# Velocity P-wave (km/s) = 5.17246 6.68715 5.97797
#
# Compressibility (1/GPa) = 0.03721948
#
# Stress axis : x y z
#
# Youngs Moduli (GPa) = 33.83437 78.73828 77.08446
#
# Poissons Ratio (x) = -0.30243 0.62764
# Poissons Ratio (y) = -0.12996 0.36256
# Poissons Ratio (z) = 0.27549 0.37034
#
# Static dielectric constant tensor:
#      x y z
#    x 4.774750 0.200180 0.580260 
#    y 0.200180 4.774150 0.060310 
#    z 0.580260 0.060310 4.404680 
# 
# 
# High freq. dielectric constant tensor:
#      x y z
#    x 1.979540 0.007080 0.033730 
#    y 0.007080 1.979860 0.001650 
#    z 0.033730 0.001650 1.960350 
# 
# From -- ./inp_files/606302.got.cif
#   From: 2010.06.25/outbox.cif.g09.slc.cpg/sg2_304_cif.got.tgz:606302.got - 2010.06.27 13:26:56.
