data_PCOD8003903
_publ_section_title
;
Structure prediction by ZEFSAII (Michael W. Deem and Ramdas Pophale) SiO2 
 PCOD8003903
Probable space group: P -1
;
_chemical_formula_sum "Si O2"
_cell_formula_units_Z 12
_cell_length_a 9.576775
_cell_length_b 9.456158
_cell_length_c 14.764772
_cell_angle_alpha 64.530391
_cell_angle_beta 53.326284
_cell_angle_gamma 31.156599
_cell_volume 544.150988
_symmetry_space_group_name_H-M "P -1"
_symmetry_group_IT_number 2
_symmetry_cell_setting 'triclinic'
loop_
_space_group_symop_operation_xyz
x,y,z
-x,-y,-z
loop_
_atom_site_type_symbol
_atom_site_label
_atom_site_fract_x
_atom_site_fract_y
_atom_site_fract_z
Si Si1 0.566342 0.057145 0.166392
Si Si2 0.082188 0.160991 0.272433
Si Si3 0.839136 0.781190 0.962303
Si Si4 0.255664 0.462345 0.539652
Si Si5 0.968616 0.900176 0.385868
Si Si6 0.999212 0.332241 0.728551
O O1 0.750874 0.907184 0.229030
O O2 0.386436 0.028234 0.224268
O O3 0.321964 0.381137 0.177355
O O4 0.808783 0.908145 0.030909
O O5 0.988540 0.259550 0.175970
O O6 0.788206 0.436864 0.369709
O O7 0.152510 0.925037 0.323695
O O8 0.000000 0.500000 0.000000
O O9 0.500000 0.000000 0.000000
O O10 0.043788 0.722152 0.483949
O O11 0.134098 0.375185 0.605700
O O12 0.606390 0.209769 0.441934
O O13 0.064360 0.762731 0.288687
#
# Coordination Sequence:
#
# PCOD8003903 Si02
#       6
#     2   2   2   2   2   2
#     4  10  21  40  62  85 113 152 194 235 286 349
#     4  10  23  39  61  89 116 148 194 246 285 331
#     4  10  20  37  62  88 112 147 192 237 286 343
#     4  11  22  38  58  84 117 158 193 231 283 346
#     4  12  24  38  58  88 119 152 193 240 285 333
#     4  11  22  40  60  84 117 157 193 231 284 350
#
# _framework density 22.052703000000001
#
# number of rings (size 3 to 8) (size 9 to 14) (size 15 to 20)
#    0.000    1.333    0.000    8.000    0.000    6.667 
#    0.000    1.667    0.000    0.000    0.000    0.000 
#    0.000    0.000    0.000    0.000    0.000    0.000 
#
# Total GULP energy -148812.826903 kJ/mol
# GULP energy per Si atom -12401.068909 kJ/mol
# Density = 2.200251 g / cm^3
# Si number density = 22.052703 Si / 1000 Ang^3
#
#
#
# Elastic Constant Matrix: (Units=GPa)
#
#
# Indices 1 2 3 4 5 6 
#
# 1 81.3085 25.5535 26.4713 13.0326 22.3755 20.1768
# 2 25.5535 104.2098 22.7250 11.2237 8.5468 -5.9293
# 3 26.4713 22.7250 94.1113 11.5639 36.7977 5.4949
# 4 13.0326 11.2237 11.5639 38.5432 6.5647 12.4406
# 5 22.3755 8.5468 36.7977 6.5647 22.4331 3.3222
# 6 20.1768 -5.9293 5.4949 12.4406 3.3222 26.3906
#
#
#
# Elastic Compliance Matrix: (Units=1/GPa)
#
#
# Indices 1 2 3 4 5 6 
#
# 1 0.026111 -0.006967 0.009664 0.003206 -0.037163 -0.020373
# 2 -0.006967 0.012687 -0.005283 -0.004877 0.010694 0.010230
# 3 0.009664 -0.005283 0.033898 0.001462 -0.062405 -0.008467
# 4 0.003206 -0.004877 0.001462 0.033607 -0.010859 -0.018327
# 5 -0.037163 0.010694 -0.062405 -0.010859 0.179208 0.026368
# 6 -0.020373 0.010230 -0.008467 -0.018327 0.026368 0.062850
#
#
# Mechanical properties :
#
#
# Convention : Reuss Voigt Hill
#
# Bulk Modulus (GPa) = 14.80935 47.68101 31.24518
# Shear Modulus (GPa) = 13.29647 31.13205 22.21426
#
# Velocity S-wave (km/s) = 2.45815 3.76135 3.17728
# Velocity P-wave (km/s) = 3.84534 6.36648 5.25921
#
# Compressibility (1/GPa) = 0.06752492
#
# Stress axis : x y z
#
# Youngs Moduli (GPa) = 38.29837 78.82279 29.50002
#
# Poissons Ratio (x) = 0.54914 -0.28510
# Poissons Ratio (y) = 0.26681 0.15585
# Poissons Ratio (z) = -0.37013 0.41643
#
# Static dielectric constant tensor:
#      x y z
#    x 3.871700 0.132000 0.493090 
#    y 0.132000 3.945000 0.026110 
#    z 0.493090 0.026110 4.835290 
# 
# 
# High freq. dielectric constant tensor:
#      x y z
#    x 1.845770 0.004280 0.030280 
#    y 0.004280 1.879540 0.004750 
#    z 0.030280 0.004750 1.870910 
# 
# From -- ./inp_files/19685.got.cif
#   From: 2010.06.25/outbox.cif.g09.slc.cpg/sg2_10_cif.got.tgz:19685.got - 2010.06.27 13:26:56.
