data_PCOD8003036
_publ_section_title
;
Structure prediction by ZEFSAII (Michael W. Deem and Ramdas Pophale) SiO2 
 PCOD8003036
Probable space group: P -1
;
_chemical_formula_sum "Si O2"
_cell_formula_units_Z 16
_cell_length_a 8.863169
_cell_length_b 14.263608
_cell_length_c 11.689235
_cell_angle_alpha 148.903968
_cell_angle_beta 98.657233
_cell_angle_gamma 91.288285
_cell_volume 720.607139
_symmetry_space_group_name_H-M "P -1"
_symmetry_group_IT_number 2
_symmetry_cell_setting 'triclinic'
loop_
_space_group_symop_operation_xyz
x,y,z
-x,-y,-z
loop_
_atom_site_type_symbol
_atom_site_label
_atom_site_fract_x
_atom_site_fract_y
_atom_site_fract_z
Si Si1 0.841588 0.851565 0.228280
Si Si2 0.978856 0.434698 0.058791
Si Si3 0.445903 0.234347 0.446353
Si Si4 0.649446 0.838553 0.403328
Si Si5 0.443841 0.350758 0.160316
Si Si6 0.366946 0.750717 0.111358
Si Si7 0.341312 0.055844 0.031983
Si Si8 0.209955 0.810688 0.565632
O O1 0.811608 0.861462 0.373001
O O2 0.855576 0.057144 0.389982
O O3 0.992416 0.772856 0.142729
O O4 0.695193 0.689336 0.990914
O O5 0.098745 0.594905 0.319188
O O6 0.000000 0.500000 0.000000
O O7 0.798310 0.410042 0.049292
O O8 0.363426 0.276982 0.599141
O O9 0.502001 0.425675 0.578078
O O10 0.309062 0.094930 0.202626
O O11 0.603575 0.165149 0.418976
O O12 0.497237 0.730040 0.196530
O O13 0.647344 0.040458 0.661668
O O14 0.376511 0.247460 0.161924
O O15 0.584420 0.277997 0.043776
O O16 0.500000 0.000000 0.000000
O O17 0.204574 0.888169 0.776916
#
# Coordination Sequence:
#
# PCOD8003036 Si02
#       8
#     2   2   2   2   2   2   2   2
#     4  10  22  39  60  88 124 162 194 244 301 355
#     4  12  24  37  60  90 124 162 198 237 304 366
#     4  11  19  34  65  93 115 156 202 253 293 345
#     4  10  20  37  59  85 126 155 195 247 296 348
#     4  10  20  36  61  93 118 151 204 250 294 349
#     4  10  22  37  57  89 124 158 195 243 301 357
#     4   9  19  36  63  89 116 153 199 254 297 341
#     4  10  21  40  59  88 122 157 200 249 294 353
#
# _framework density 22.203499000000001
#
# number of rings (size 3 to 8) (size 9 to 14) (size 15 to 20)
#    0.000    1.750    1.250    5.625    1.750    3.000 
#    0.000    0.000    0.000    7.500    0.000    0.000 
#    0.000    0.000    0.000    0.000    0.000    0.000 
#
# Total GULP energy -198252.006483 kJ/mol
# GULP energy per Si atom -12390.750405 kJ/mol
# Density = 2.215296 g / cm^3
# Si number density = 22.203499 Si / 1000 Ang^3
#
#
#
# Elastic Constant Matrix: (Units=GPa)
#
#
# Indices 1 2 3 4 5 6 
#
# 1 46.2933 9.8892 24.2085 -3.0717 -4.5691 2.5654
# 2 9.8892 72.5539 28.9890 -9.5844 -3.9933 -8.3248
# 3 24.2085 28.9890 96.9787 -11.2145 5.8474 -8.3790
# 4 -3.0717 -9.5844 -11.2145 36.7025 -3.3676 -7.5658
# 5 -4.5691 -3.9933 5.8474 -3.3676 28.3993 5.5479
# 6 2.5654 -8.3248 -8.3790 -7.5658 5.5479 22.7149
#
#
#
# Elastic Compliance Matrix: (Units=1/GPa)
#
#
# Indices 1 2 3 4 5 6 
#
# 1 0.027020 -0.001419 -0.007694 -0.001591 0.007245 -0.008709
# 2 -0.001419 0.016903 -0.003800 0.004565 0.002318 0.005908
# 3 -0.007694 -0.003800 0.014843 0.003948 -0.005864 0.007699
# 4 -0.001591 0.004565 0.003948 0.032450 0.000696 0.013947
# 5 0.007245 0.002318 -0.005864 0.000696 0.040287 -0.011740
# 6 -0.008709 0.005908 0.007699 0.013947 -0.011740 0.057526
#
#
# Mechanical properties :
#
#
# Convention : Reuss Voigt Hill
#
# Bulk Modulus (GPa) = 30.35818 37.99994 34.17906
# Shear Modulus (GPa) = 22.13997 27.74594 24.94296
#
# Velocity S-wave (km/s) = 3.16118 3.53883 3.35532
# Velocity P-wave (km/s) = 5.19870 5.81802 5.51705
#
# Compressibility (1/GPa) = 0.03294006
#
# Stress axis : x y z
#
# Youngs Moduli (GPa) = 37.00942 59.16127 67.37017
#
# Poissons Ratio (x) = 0.08398 0.51834
# Poissons Ratio (y) = 0.05253 0.25599
# Poissons Ratio (z) = 0.28475 0.22480
#
# Static dielectric constant tensor:
#      x y z
#    x 3.824110 0.003530 -0.124900 
#    y 0.003530 4.102570 -0.378810 
#    z -0.124900 -0.378810 4.553710 
# 
# 
# High freq. dielectric constant tensor:
#      x y z
#    x 1.836850 -0.011300 -0.007790 
#    y -0.011300 1.862680 -0.000490 
#    z -0.007790 -0.000490 1.893740 
# 
# From -- ./inp_files/314801.got.cif
#   From: 2010.06.25/outbox.cif.g09.slc.cpg/sg2_158_cif.got.tgz:314801.got - 2010.06.27 13:26:56.
