data_PCOD8003667
_publ_section_title
;
Structure prediction by ZEFSAII (Michael W. Deem and Ramdas Pophale) SiO2 
 PCOD8003667
Probable space group: P -1
;
_chemical_formula_sum "Si O2"
_cell_formula_units_Z 16
_cell_length_a 15.344771
_cell_length_b 11.248844
_cell_length_c 8.420805
_cell_angle_alpha 70.135603
_cell_angle_beta 49.884264
_cell_angle_gamma 44.048003
_cell_volume 751.757561
_symmetry_space_group_name_H-M "P -1"
_symmetry_group_IT_number 2
_symmetry_cell_setting 'triclinic'
loop_
_space_group_symop_operation_xyz
x,y,z
-x,-y,-z
loop_
_atom_site_type_symbol
_atom_site_label
_atom_site_fract_x
_atom_site_fract_y
_atom_site_fract_z
Si Si1 0.328699 0.035087 0.646378
Si Si2 0.286869 0.524000 0.452856
Si Si3 0.768150 0.688572 0.805931
Si Si4 0.103865 0.016823 0.771600
Si Si5 0.435021 0.180934 0.292566
Si Si6 0.401377 0.660500 0.423789
Si Si7 0.029639 0.680733 0.437869
Si Si8 0.613475 0.695521 0.266633
O O1 0.383753 0.988679 0.788538
O O2 0.482361 0.870474 0.441470
O O3 0.175452 0.067876 0.783525
O O4 0.305423 0.198118 0.542562
O O5 0.404923 0.351988 0.282453
O O6 0.356478 0.613736 0.341096
O O7 0.114772 0.655441 0.513466
O O8 0.280188 0.472482 0.663350
O O9 0.600422 0.827807 0.844097
O O10 0.867612 0.495310 0.706424
O O11 0.862072 0.747222 0.650350
O O12 0.731241 0.696281 0.031498
O O13 0.997826 0.170186 0.696566
O O14 0.239685 0.831961 0.614011
O O15 0.000000 0.000000 0.000000
O O16 0.500000 0.500000 0.500000
O O17 0.519697 0.687010 0.243445
#
# Coordination Sequence:
#
# PCOD8003667 Si02
#       8
#     2   2   2   2   2   2   2   2
#     4   9  18  37  59  84 116 150 196 249 289 338
#     4   9  19  37  58  82 118 157 192 241 293 346
#     4  10  20  37  60  87 118 155 195 244 294 352
#     4  11  23  39  62  87 121 160 195 236 297 357
#     4   9  17  35  59  83 116 148 196 250 288 331
#     4   9  20  40  61  82 117 156 197 246 280 347
#     4  10  22  38  56  85 126 153 190 244 297 350
#     4   9  19  35  62  85 109 156 201 239 294 344
#
# _framework density 21.283456000000001
#
# number of rings (size 3 to 8) (size 9 to 14) (size 15 to 20)
#    0.000    2.500    1.250    0.750    3.500    1.500 
#    2.250    5.000    0.000    0.000    0.000    0.000 
#    0.000    0.000    0.000    0.000    0.000    0.000 
#
# Total GULP energy -198246.612865 kJ/mol
# GULP energy per Si atom -12390.413304 kJ/mol
# Density = 2.123501 g / cm^3
# Si number density = 21.283456 Si / 1000 Ang^3
#
#
#
# Elastic Constant Matrix: (Units=GPa)
#
#
# Indices 1 2 3 4 5 6 
#
# 1 143.7287 31.3709 26.7032 -9.6311 -6.4535 -11.6766
# 2 31.3709 79.1488 18.1298 -14.8695 -0.4011 -7.3801
# 3 26.7032 18.1298 87.0163 -19.6534 -8.3898 -11.2355
# 4 -9.6311 -14.8695 -19.6534 21.1427 -0.3039 2.7488
# 5 -6.4535 -0.4011 -8.3898 -0.3039 22.1532 -12.1371
# 6 -11.6766 -7.3801 -11.2355 2.7488 -12.1371 38.2219
#
#
#
# Elastic Compliance Matrix: (Units=1/GPa)
#
#
# Indices 1 2 3 4 5 6 
#
# 1 0.008144 -0.002601 -0.001181 0.000484 0.003345 0.002666
# 2 -0.002601 0.015632 -0.000016 0.009579 0.000592 0.001718
# 3 -0.001181 -0.000016 0.016962 0.014484 0.009976 0.006748
# 4 0.000484 0.009579 0.014484 0.067290 0.009078 0.004299
# 5 0.003345 0.000592 0.009976 0.009078 0.062830 0.023367
# 6 0.002666 0.001718 0.006748 0.004299 0.023367 0.036404
#
#
# Mechanical properties :
#
#
# Convention : Reuss Voigt Hill
#
# Bulk Modulus (GPa) = 30.17371 51.36686 40.77029
# Shear Modulus (GPa) = 22.13307 31.88289 27.00798
#
# Velocity S-wave (km/s) = 3.22828 3.87462 3.56612
# Velocity P-wave (km/s) = 5.30128 6.64860 6.01280
#
# Compressibility (1/GPa) = 0.03314143
#
# Stress axis : x y z
#
# Youngs Moduli (GPa) = 122.79125 63.97233 58.95360
#
# Poissons Ratio (x) = 0.16638 0.06963
# Poissons Ratio (y) = 0.31936 0.00097
# Poissons Ratio (z) = 0.14504 0.00105
#
# Static dielectric constant tensor:
#      x y z
#    x 4.466160 0.092900 -0.169340 
#    y 0.092900 3.939350 -0.215340 
#    z -0.169340 -0.215340 3.290000 
# 
# 
# High freq. dielectric constant tensor:
#      x y z
#    x 1.854870 0.000870 -0.006230 
#    y 0.000870 1.836020 -0.020250 
#    z -0.006230 -0.020250 1.782580 
# 
# From -- ./inp_files/304923.got.cif
#   From: 2010.06.25/outbox.cif.g09.slc.cpg/sg2_153_cif.got.tgz:304923.got - 2010.06.27 13:26:56.
