data_PCOD8003860
_publ_section_title
;
Structure prediction by ZEFSAII (Michael W. Deem and Ramdas Pophale) SiO2 
 PCOD8003860
Probable space group: P -1
;
_chemical_formula_sum "Si O2"
_cell_formula_units_Z 16
_cell_length_a 15.790303
_cell_length_b 8.978886
_cell_length_c 11.873941
_cell_angle_alpha 68.043385
_cell_angle_beta 28.693844
_cell_angle_gamma 70.923188
_cell_volume 749.657862
_symmetry_space_group_name_H-M "P -1"
_symmetry_group_IT_number 2
_symmetry_cell_setting 'triclinic'
loop_
_space_group_symop_operation_xyz
x,y,z
-x,-y,-z
loop_
_atom_site_type_symbol
_atom_site_label
_atom_site_fract_x
_atom_site_fract_y
_atom_site_fract_z
Si Si1 0.934055 0.025964 0.251506
Si Si2 0.641741 0.054649 0.910549
Si Si3 0.459217 0.560951 0.653939
Si Si4 0.079213 0.743503 0.604834
Si Si5 0.727483 0.707885 0.917739
Si Si6 0.130928 0.790247 0.943367
Si Si7 0.220859 0.411960 0.580395
Si Si8 0.332002 0.234180 0.285990
O O1 0.003169 0.157082 0.222772
O O2 0.789984 0.921016 0.513904
O O3 0.836559 0.109919 0.236404
O O4 0.095081 0.914654 0.052373
O O5 0.810219 0.142706 0.638156
O O6 0.704201 0.889472 0.942055
O O7 0.536124 0.177207 0.080450
O O8 0.500000 0.000000 0.000000
O O9 0.500000 0.500000 0.500000
O O10 0.635925 0.639939 0.478085
O O11 0.411445 0.409131 0.829365
O O12 0.303685 0.690474 0.799858
O O13 0.198991 0.603355 0.556636
O O14 0.925221 0.658393 0.736247
O O15 0.702973 0.691414 0.817201
O O16 0.961267 0.677107 0.153682
O O17 0.291306 0.369129 0.386519
#
# Coordination Sequence:
#
# PCOD8003860 Si02
#       8
#     2   2   2   2   2   2   2   2
#     4  10  22  42  71  90 140 177 218 277 328 393
#     4  10  20  37  61  94 131 172 219 269 327 387
#     4  12  27  44  70 102 135 172 223 275 331 402
#     4  12  22  39  68  97 132 180 219 272 334 394
#     4  11  24  41  64 103 133 174 224 271 334 399
#     4  10  24  47  65 101 134 178 223 271 332 394
#     4  11  25  45  68 100 134 180 220 272 342 383
#     4  10  23  44  66  97 136 174 221 279 328 393
#
# _framework density 21.343069
#
# number of rings (size 3 to 8) (size 9 to 14) (size 15 to 20)
#    0.000    1.250    3.750    2.625    3.500    4.500 
#    2.250    5.625    0.000    0.000    0.000    0.000 
#    0.000    0.000    0.000    0.000    0.000    0.000 
#
# Total GULP energy -198421.182201 kJ/mol
# GULP energy per Si atom -12401.323888 kJ/mol
# Density = 2.129449 g / cm^3
# Si number density = 21.343069 Si / 1000 Ang^3
#
#
#
# Elastic Constant Matrix: (Units=GPa)
#
#
# Indices 1 2 3 4 5 6 
#
# 1 114.5696 43.0310 48.9788 16.9085 1.5202 -1.3674
# 2 43.0310 117.3706 36.9906 18.7980 5.4082 -4.3054
# 3 48.9788 36.9906 80.8400 17.7532 4.5961 -6.2976
# 4 16.9085 18.7980 17.7532 37.5837 -6.0747 4.3669
# 5 1.5202 5.4082 4.5961 -6.0747 44.1095 2.9480
# 6 -1.3674 -4.3054 -6.2976 4.3669 2.9480 37.0239
#
#
#
# Elastic Compliance Matrix: (Units=1/GPa)
#
#
# Indices 1 2 3 4 5 6 
#
# 1 0.012496 -0.002452 -0.006248 -0.001292 0.000394 -0.000765
# 2 -0.002452 0.010907 -0.002534 -0.003558 -0.001565 0.001291
# 3 -0.006248 -0.002534 0.018988 -0.005706 -0.002477 0.003575
# 4 -0.001292 -0.003558 -0.005706 0.033321 0.006055 -0.005844
# 5 0.000394 -0.001565 -0.002477 0.006055 0.024157 -0.003226
# 6 -0.000765 0.001291 0.003575 -0.005844 -0.003226 0.028686
#
#
# Mechanical properties :
#
#
# Convention : Reuss Voigt Hill
#
# Bulk Modulus (GPa) = 50.19271 63.42013 56.80642
# Shear Modulus (GPa) = 31.71313 35.99540 33.85427
#
# Velocity S-wave (km/s) = 3.85889 4.11118 3.98703
# Velocity P-wave (km/s) = 6.58960 7.23290 6.91873
#
# Compressibility (1/GPa) = 0.01992321
#
# Stress axis : x y z
#
# Youngs Moduli (GPa) = 80.02320 91.68452 52.66606
#
# Poissons Ratio (x) = 0.22479 0.32904
# Poissons Ratio (y) = 0.19620 0.13348
# Poissons Ratio (z) = 0.49996 0.23236
#
# Static dielectric constant tensor:
#      x y z
#    x 3.730140 -0.111190 0.008020 
#    y -0.111190 4.192140 0.307210 
#    z 0.008020 0.307210 4.096660 
# 
# 
# High freq. dielectric constant tensor:
#      x y z
#    x 1.825880 -0.006280 0.003960 
#    y -0.006280 1.847180 0.004860 
#    z 0.003960 0.004860 1.845180 
# 
# From -- ./inp_files/332697.got.cif
#   From: 2010.06.25/outbox.cif.g09.slc.cpg/sg2_167_cif.got.tgz:332697.got - 2010.06.27 13:26:56.
