data_PCOD8003490
_publ_section_title
;
Structure prediction by ZEFSAII (Michael W. Deem and Ramdas Pophale) SiO2 
 PCOD8003490
Probable space group: P -1
;
_chemical_formula_sum "Si O2"
_cell_formula_units_Z 14
_cell_length_a 13.135414
_cell_length_b 12.141538
_cell_length_c 16.661308
_cell_angle_alpha 32.298063
_cell_angle_beta 33.162193
_cell_angle_gamma 55.324052
_cell_volume 683.676599
_symmetry_space_group_name_H-M "P -1"
_symmetry_group_IT_number 2
_symmetry_cell_setting 'triclinic'
loop_
_space_group_symop_operation_xyz
x,y,z
-x,-y,-z
loop_
_atom_site_type_symbol
_atom_site_label
_atom_site_fract_x
_atom_site_fract_y
_atom_site_fract_z
Si Si1 0.742358 0.072557 0.805745
Si Si2 0.307898 0.085912 0.492966
Si Si3 0.189252 0.200307 0.205072
Si Si4 0.512470 0.720913 0.899853
Si Si5 0.785967 0.320101 0.088261
Si Si6 0.052959 0.609037 0.232531
Si Si7 0.989787 0.740587 0.347597
O O1 0.798966 0.061286 0.869203
O O2 0.895649 0.331197 0.510407
O O3 0.787953 0.883951 0.845912
O O4 0.500000 0.000000 0.000000
O O5 0.324653 0.065497 0.397642
O O6 0.540989 0.205857 0.300813
O O7 0.207750 0.253067 0.482388
O O8 0.172011 0.825939 0.780003
O O9 0.400496 0.258901 0.080376
O O10 0.141184 0.416880 0.093083
O O11 0.000000 0.000000 0.500000
O O12 0.500000 0.500000 0.000000
O O13 0.278607 0.687338 0.077718
O O14 0.918906 0.315210 0.925403
O O15 0.972759 0.758538 0.250191
O O16 0.000000 0.500000 0.500000
#
# Coordination Sequence:
#
# PCOD8003490 Si02
#       7
#     2   2   2   2   2   2   2
#     4  11  23  35  56  92 119 150 199 253 300 338
#     4  10  21  38  60  92 120 150 206 244 293 353
#     4  12  21  36  61  90 122 156 197 246 301 348
#     4  11  18  35  62  84 116 152 202 245 279 354
#     4  10  22  37  60  92 121 157 192 249 300 350
#     4  10  20  37  58  85 118 157 202 242 294 347
#     4  10  21  36  60  86 114 154 201 245 288 350
#
# _framework density 20.477519000000001
#
# number of rings (size 3 to 8) (size 9 to 14) (size 15 to 20)
#    0.000    1.429    4.286    3.429    4.000    0.571 
#    0.000    2.857    0.000    0.857    0.000    0.000 
#    0.000    0.000    0.000    0.000    0.000    0.000 
#
# Total GULP energy -173441.317619 kJ/mol
# GULP energy per Si atom -12388.665544 kJ/mol
# Density = 2.043091 g / cm^3
# Si number density = 20.477519 Si / 1000 Ang^3
#
#
#
# Elastic Constant Matrix: (Units=GPa)
#
#
# Indices 1 2 3 4 5 6 
#
# 1 63.2685 31.0765 26.5922 -7.8027 8.0273 22.3499
# 2 31.0765 110.6990 35.0220 3.4982 3.6542 24.9923
# 3 26.5922 35.0220 94.9509 -0.0846 13.0443 6.1475
# 4 -7.8027 3.4982 -0.0846 33.0291 -4.6266 -2.9846
# 5 8.0273 3.6542 13.0443 -4.6266 31.8662 -2.0274
# 6 22.3499 24.9923 6.1475 -2.9846 -2.0274 37.9400
#
#
#
# Elastic Compliance Matrix: (Units=1/GPa)
#
#
# Indices 1 2 3 4 5 6 
#
# 1 0.024174 -0.002776 -0.004436 0.004381 -0.004055 -0.011565
# 2 -0.002776 0.012353 -0.003369 -0.002544 -0.000100 -0.006162
# 3 -0.004436 -0.003369 0.013409 -0.001000 -0.003980 0.002368
# 4 0.004381 -0.002544 -0.001000 0.032383 0.004429 0.002041
# 5 -0.004055 -0.000100 -0.003980 0.004429 0.035025 0.005319
# 6 -0.011565 -0.006162 0.002368 0.002041 0.005319 0.037290
#
#
# Mechanical properties :
#
#
# Convention : Reuss Voigt Hill
#
# Bulk Modulus (GPa) = 34.75370 50.47775 42.61573
# Shear Modulus (GPa) = 26.97035 32.31557 29.64296
#
# Velocity S-wave (km/s) = 3.63308 3.97684 3.80884
# Velocity P-wave (km/s) = 5.88282 6.76689 6.34028
#
# Compressibility (1/GPa) = 0.02877391
#
# Stress axis : x y z
#
# Youngs Moduli (GPa) = 41.36649 80.94917 74.57544
#
# Poissons Ratio (x) = 0.22475 0.33085
# Poissons Ratio (y) = 0.11485 0.25121
# Poissons Ratio (z) = 0.18352 0.27268
#
# Static dielectric constant tensor:
#      x y z
#    x 4.868570 1.160320 0.503900 
#    y 1.160320 4.688040 0.126460 
#    z 0.503900 0.126460 4.276660 
# 
# 
# High freq. dielectric constant tensor:
#      x y z
#    x 1.785330 0.019130 -0.003230 
#    y 0.019130 1.802450 0.018470 
#    z -0.003230 0.018470 1.792770 
# 
# From -- ./inp_files/154268.got.cif
#   From: 2010.06.25/outbox.cif.g09.slc.cpg/sg2_78_cif.got.tgz:154268.got - 2010.06.27 13:26:56.
