data_PCOD8003258
_publ_section_title
;
Structure prediction by ZEFSAII (Michael W. Deem and Ramdas Pophale) SiO2 
 PCOD8003258
Probable space group: P -1
;
_chemical_formula_sum "Si O2"
_cell_formula_units_Z 16
_cell_length_a 8.525816
_cell_length_b 15.521820
_cell_length_c 11.438688
_cell_angle_alpha 40.491748
_cell_angle_beta 126.191771
_cell_angle_gamma 104.233748
_cell_volume 731.219117
_symmetry_space_group_name_H-M "P -1"
_symmetry_group_IT_number 2
_symmetry_cell_setting 'triclinic'
loop_
_space_group_symop_operation_xyz
x,y,z
-x,-y,-z
loop_
_atom_site_type_symbol
_atom_site_label
_atom_site_fract_x
_atom_site_fract_y
_atom_site_fract_z
Si Si1 0.894940 0.360134 0.161915
Si Si2 0.527080 0.932805 0.427600
Si Si3 0.939333 0.913622 0.962745
Si Si4 0.318884 0.167652 0.653826
Si Si5 0.697306 0.123376 0.006308
Si Si6 0.142611 0.357023 0.052679
Si Si7 0.605981 0.205513 0.142697
Si Si8 0.127736 0.363011 0.774229
O O1 0.753326 0.267694 0.215886
O O2 0.104795 0.301281 0.394287
O O3 0.957151 0.352662 0.060063
O O4 0.773302 0.524349 0.981414
O O5 0.549162 0.895103 0.340163
O O6 0.660343 0.796626 0.706157
O O7 0.281346 0.984603 0.298850
O O8 0.606599 0.062118 0.354400
O O9 0.115041 0.853322 0.002405
O O10 0.913561 0.774083 0.151819
O O11 0.000000 0.000000 0.000000
O O12 0.262969 0.044203 0.818891
O O13 0.467724 0.217470 0.751739
O O14 0.705033 0.166905 0.097735
O O15 0.054884 0.394204 0.844889
O O16 0.374859 0.330712 0.905245
O O17 0.000000 0.500000 0.500000
#
# Coordination Sequence:
#
# PCOD8003258 Si02
#       8
#     2   2   2   2   2   2   2   2
#     4  10  22  41  67  97 124 170 214 261 321 382
#     4   9  20  40  64  92 128 161 213 269 312 374
#     4  11  22  39  66  96 125 169 218 261 321 375
#     4   9  19  35  62  95 132 163 206 264 317 378
#     4  10  20  36  64  98 127 166 211 265 317 373
#     4  10  23  43  65  91 132 166 216 262 322 376
#     4  10  23  41  65  96 128 167 214 259 323 380
#     4  11  27  45  60  93 135 172 210 267 322 384
#
# _framework density 21.881266
#
# number of rings (size 3 to 8) (size 9 to 14) (size 15 to 20)
#    0.000    2.000    1.250    0.750    3.500   10.000 
#    2.250    1.250    0.000    0.000    0.000    0.000 
#    0.000    0.000    0.000    0.000    0.000    0.000 
#
# Total GULP energy -198433.086250 kJ/mol
# GULP energy per Si atom -12402.067891 kJ/mol
# Density = 2.183146 g / cm^3
# Si number density = 21.881266 Si / 1000 Ang^3
#
#
#
# Elastic Constant Matrix: (Units=GPa)
#
#
# Indices 1 2 3 4 5 6 
#
# 1 83.3938 36.6968 47.4853 2.6493 16.1619 16.0196
# 2 36.6968 114.3712 49.1234 -6.7582 5.8151 16.0920
# 3 47.4853 49.1234 157.2711 -5.0535 5.1541 5.8765
# 4 2.6493 -6.7582 -5.0535 25.2358 -6.3150 -1.3810
# 5 16.1619 5.8151 5.1541 -6.3150 25.1105 4.4261
# 6 16.0196 16.0920 5.8765 -1.3810 4.4261 34.3114
#
#
#
# Elastic Compliance Matrix: (Units=1/GPa)
#
#
# Indices 1 2 3 4 5 6 
#
# 1 0.019616 -0.003404 -0.004496 -0.007109 -0.011721 -0.005566
# 2 -0.003404 0.011447 -0.002366 0.003115 0.001414 -0.003431
# 3 -0.004496 -0.002366 0.008398 0.002099 0.001963 0.001601
# 4 -0.007109 0.003115 0.002099 0.045353 0.014574 0.001444
# 5 -0.011721 0.001414 0.001963 0.014574 0.050561 -0.001463
# 6 -0.005566 -0.003431 0.001601 0.001444 -0.001463 0.033325
#
#
# Mechanical properties :
#
#
# Convention : Reuss Voigt Hill
#
# Bulk Modulus (GPa) = 52.82662 69.07190 60.94926
# Shear Modulus (GPa) = 25.57025 31.71358 28.64191
#
# Velocity S-wave (km/s) = 3.42217 3.81116 3.62189
# Velocity P-wave (km/s) = 6.30950 7.14155 6.73838
#
# Compressibility (1/GPa) = 0.01892985
#
# Stress axis : x y z
#
# Youngs Moduli (GPa) = 50.97970 87.36213 119.07541
#
# Poissons Ratio (x) = 0.29737 0.53533
# Poissons Ratio (y) = 0.17353 0.28169
# Poissons Ratio (z) = 0.22919 0.20667
#
# Static dielectric constant tensor:
#      x y z
#    x 3.921390 0.006410 -0.003590 
#    y 0.006410 3.859050 -0.061410 
#    z -0.003590 -0.061410 3.844750 
# 
# 
# High freq. dielectric constant tensor:
#      x y z
#    x 1.861360 -0.004560 -0.000170 
#    y -0.004560 1.859680 0.000640 
#    z -0.000170 0.000640 1.850100 
# 
# From -- ./inp_files/398469.got.cif
#   From: 2010.06.25/outbox.cif.g09.slc.cpg/sg2_200_cif.got.tgz:398469.got - 2010.06.27 13:26:56.
