data_PCOD8003983
_publ_section_title
;
Structure prediction by ZEFSAII (Michael W. Deem and Ramdas Pophale) SiO2 
 PCOD8003983
Probable space group: P -1
;
_chemical_formula_sum "Si O2"
_cell_formula_units_Z 16
_cell_length_a 11.834841
_cell_length_b 8.738233
_cell_length_c 11.089174
_cell_angle_alpha 65.558718
_cell_angle_beta 48.913642
_cell_angle_gamma 59.298461
_cell_volume 737.778025
_symmetry_space_group_name_H-M "P -1"
_symmetry_group_IT_number 2
_symmetry_cell_setting 'triclinic'
loop_
_space_group_symop_operation_xyz
x,y,z
-x,-y,-z
loop_
_atom_site_type_symbol
_atom_site_label
_atom_site_fract_x
_atom_site_fract_y
_atom_site_fract_z
Si Si1 0.446407 0.818380 0.220008
Si Si2 0.873997 0.916826 0.562483
Si Si3 0.826215 0.772598 0.392286
Si Si4 0.369281 0.366662 0.264395
Si Si5 0.874456 0.550115 0.772552
Si Si6 0.398434 0.907785 0.960725
Si Si7 0.187659 0.934123 0.872355
Si Si8 0.354092 0.540480 0.860118
O O1 0.540668 0.609000 0.261487
O O2 0.298060 0.921788 0.375386
O O3 0.589752 0.897439 0.092433
O O4 0.372062 0.827506 0.133775
O O5 0.904848 0.842267 0.427815
O O6 0.883918 0.749494 0.696930
O O7 0.000000 0.000000 0.500000
O O8 0.674981 0.715156 0.554796
O O9 0.952347 0.602138 0.292905
O O10 0.760348 0.927883 0.288607
O O11 0.204860 0.498275 0.278158
O O12 0.428428 0.207468 0.176818
O O13 0.506740 0.450625 0.149975
O O14 0.769672 0.536750 0.964781
O O15 0.258512 0.913962 0.963792
O O16 0.256313 0.741568 0.816736
O O17 0.000000 0.000000 0.000000
#
# Coordination Sequence:
#
# PCOD8003983 Si02
#       8
#     2   2   2   2   2   2   2   2
#     4  11  21  41  63  96 131 157 215 269 324 378
#     4  11  25  39  65  99 134 171 203 269 337 373
#     4  11  24  43  63  90 139 163 220 261 317 389
#     4  10  20  37  62  98 117 166 216 271 318 354
#     4  11  20  40  63  96 126 162 223 266 315 373
#     4  10  21  39  65  89 127 167 211 267 316 375
#     4  11  25  43  64  94 126 178 221 257 317 386
#     4  11  23  36  69  94 124 166 221 266 313 379
#
# _framework density 21.68674
#
# number of rings (size 3 to 8) (size 9 to 14) (size 15 to 20)
#    0.000    1.250    5.000    2.625    7.000    2.000 
#    0.000    2.500    0.000    0.000    0.000    0.000 
#    0.000    0.000    0.000    0.000    0.000    0.000 
#
# Total GULP energy -198224.057586 kJ/mol
# GULP energy per Si atom -12389.003599 kJ/mol
# Density = 2.163738 g / cm^3
# Si number density = 21.686740 Si / 1000 Ang^3
#
#
#
# Elastic Constant Matrix: (Units=GPa)
#
#
# Indices 1 2 3 4 5 6 
#
# 1 55.9942 12.0147 2.6569 3.8556 -10.7936 2.4005
# 2 12.0147 150.6301 14.4085 18.5424 -10.4833 -12.1825
# 3 2.6569 14.4085 56.8834 6.8984 -5.8200 -3.1158
# 4 3.8556 18.5424 6.8984 30.3554 -5.4773 0.5826
# 5 -10.7936 -10.4833 -5.8200 -5.4773 24.4306 -1.4810
# 6 2.4005 -12.1825 -3.1158 0.5826 -1.4810 28.1735
#
#
#
# Elastic Compliance Matrix: (Units=1/GPa)
#
#
# Indices 1 2 3 4 5 6 
#
# 1 0.019751 -0.001120 0.000139 -0.000363 0.008093 -0.001719
# 2 -0.001120 0.007744 -0.001029 -0.004082 0.001881 0.003514
# 3 0.000139 -0.001029 0.018661 -0.003034 0.003497 0.001854
# 4 -0.000363 -0.004082 -0.003034 0.037224 0.005556 -0.002548
# 5 0.008093 0.001881 0.003497 0.005556 0.047569 0.002896
# 6 -0.001719 0.003514 0.001854 -0.002548 0.002896 0.037570
#
#
# Mechanical properties :
#
#
# Convention : Reuss Voigt Hill
#
# Bulk Modulus (GPa) = 23.73217 35.74089 29.73653
# Shear Modulus (GPa) = 26.79729 32.22041 29.50885
#
# Velocity S-wave (km/s) = 3.51900 3.85868 3.69275
# Velocity P-wave (km/s) = 5.24195 6.03066 5.65009
#
# Compressibility (1/GPa) = 0.04213689
#
# Stress axis : x y z
#
# Youngs Moduli (GPa) = 50.62917 129.12961 53.58655
#
# Poissons Ratio (x) = 0.14460 -0.00745
# Poissons Ratio (y) = 0.05669 0.05516
# Poissons Ratio (z) = -0.00704 0.13291
#
# Static dielectric constant tensor:
#      x y z
#    x 3.581120 -0.007310 -0.149230 
#    y -0.007310 4.405380 0.067750 
#    z -0.149230 0.067750 3.765040 
# 
# 
# High freq. dielectric constant tensor:
#      x y z
#    x 1.815590 0.002810 -0.026440 
#    y 0.002810 1.873090 0.007130 
#    z -0.026440 0.007130 1.838510 
# 
# From -- ./inp_files/416791.got.cif
#   From: 2010.06.25/outbox.cif.g09.slc.cpg/sg2_209_cif.got.tgz:416791.got - 2010.06.27 13:26:56.
