data_PCOD8003162
_publ_section_title
;
Structure prediction by ZEFSAII (Michael W. Deem and Ramdas Pophale) SiO2 
 PCOD8003162
Probable space group: P -1
;
_chemical_formula_sum "Si O2"
_cell_formula_units_Z 16
_cell_length_a 17.416067
_cell_length_b 9.428386
_cell_length_c 11.073390
_cell_angle_alpha 67.210047
_cell_angle_beta 149.455930
_cell_angle_gamma 102.173773
_cell_volume 822.179981
_symmetry_space_group_name_H-M "P -1"
_symmetry_group_IT_number 2
_symmetry_cell_setting 'triclinic'
loop_
_space_group_symop_operation_xyz
x,y,z
-x,-y,-z
loop_
_atom_site_type_symbol
_atom_site_label
_atom_site_fract_x
_atom_site_fract_y
_atom_site_fract_z
Si Si1 0.643973 0.254969 0.299982
Si Si2 0.250839 0.411068 0.407168
Si Si3 0.664360 0.956268 0.298093
Si Si4 0.993109 0.123581 0.840268
Si Si5 0.065501 0.931977 0.481537
Si Si6 0.458472 0.503973 0.134750
Si Si7 0.956489 0.570944 0.103778
Si Si8 0.883901 0.431971 0.283796
O O1 0.824353 0.250881 0.560547
O O2 0.541552 0.331242 0.249769
O O3 0.643346 0.069050 0.350756
O O4 0.573787 0.356124 0.053693
O O5 0.271085 0.226419 0.522421
O O6 0.418729 0.452591 0.619138
O O7 0.133582 0.520206 0.309101
O O8 0.172953 0.447324 0.160434
O O9 0.782805 0.004374 0.349469
O O10 0.500000 0.000000 0.000000
O O11 0.035630 0.033033 0.795624
O O12 0.094787 0.247548 0.971729
O O13 0.000000 0.000000 0.000000
O O14 0.109819 0.744573 0.612318
O O15 0.000000 0.000000 0.500000
O O16 0.300577 0.476599 0.987687
O O17 0.944145 0.440232 0.228259
O O18 0.000000 0.500000 0.500000
#
# Coordination Sequence:
#
# PCOD8003162 Si02
#       8
#     2   2   2   2   2   2   2   2
#     4  10  20  36  63  89 121 166 214 252 318 368
#     4  11  23  40  66  94 124 166 215 265 311 378
#     4  11  20  38  61  92 122 163 206 258 310 376
#     4  11  21  41  67  93 130 165 213 265 315 380
#     4  11  23  40  60  96 128 163 208 263 326 369
#     4  11  21  39  63  91 127 166 210 266 311 378
#     4  11  23  40  64  95 123 164 217 257 320 385
#     4  12  23  40  64  93 128 164 210 259 323 384
#
# _framework density 19.460459
#
# number of rings (size 3 to 8) (size 9 to 14) (size 15 to 20)
#    0.000    1.000    6.250    2.250    1.750    2.500 
#    0.000    0.000    0.000    1.500    0.000    0.000 
#    0.000    0.000    0.000    0.000    0.000    0.000 
#
# Total GULP energy -198214.276934 kJ/mol
# GULP energy per Si atom -12388.392308 kJ/mol
# Density = 1.941617 g / cm^3
# Si number density = 19.460459 Si / 1000 Ang^3
#
#
#
# Elastic Constant Matrix: (Units=GPa)
#
#
# Indices 1 2 3 4 5 6 
#
# 1 110.7865 47.5524 40.9059 13.7636 -9.0626 -12.1709
# 2 47.5524 101.1167 32.3487 9.7446 5.3052 -11.8159
# 3 40.9059 32.3487 91.1721 14.3997 2.0716 -2.0774
# 4 13.7636 9.7446 14.3997 33.7661 9.9515 2.8052
# 5 -9.0626 5.3052 2.0716 9.9515 32.5290 0.0139
# 6 -12.1709 -11.8159 -2.0774 2.8052 0.0139 34.4743
#
#
#
# Elastic Compliance Matrix: (Units=1/GPa)
#
#
# Indices 1 2 3 4 5 6 
#
# 1 0.014043 -0.004825 -0.003889 -0.004856 0.006431 0.003462
# 2 -0.004825 0.013453 -0.002451 -0.000114 -0.003349 0.002771
# 3 -0.003889 -0.002451 0.014121 -0.003488 -0.000516 -0.001078
# 4 -0.004856 -0.000114 -0.003488 0.037212 -0.012494 -0.004987
# 5 0.006431 -0.003349 -0.000516 -0.012494 0.036934 0.002093
# 6 0.003462 0.002771 -0.001078 -0.004987 0.002093 0.031519
#
#
# Mechanical properties :
#
#
# Convention : Reuss Voigt Hill
#
# Bulk Modulus (GPa) = 51.84908 60.52103 56.18505
# Shear Modulus (GPa) = 28.40248 32.30509 30.35379
#
# Velocity S-wave (km/s) = 3.82448 4.07878 3.95367
# Velocity P-wave (km/s) = 6.79730 7.30403 7.05522
#
# Compressibility (1/GPa) = 0.01928675
#
# Stress axis : x y z
#
# Youngs Moduli (GPa) = 71.20992 74.33215 70.81691
#
# Poissons Ratio (x) = 0.35863 0.27541
# Poissons Ratio (y) = 0.34357 0.17360
# Poissons Ratio (z) = 0.27694 0.18222
#
# Static dielectric constant tensor:
#      x y z
#    x 3.630720 -0.178540 0.011420 
#    y -0.178540 3.242080 0.009430 
#    z 0.011420 0.009430 3.604400 
# 
# 
# High freq. dielectric constant tensor:
#      x y z
#    x 1.738590 -0.011590 -0.005260 
#    y -0.011590 1.773380 0.009580 
#    z -0.005260 0.009580 1.757050 
# 
# From -- ./inp_files/262312.got.cif
#   From: 2010.06.25/outbox.cif.g09.slc.cpg/sg2_132_cif.got.tgz:262312.got - 2010.06.27 13:26:56.
