data_PCOD8003584
_publ_section_title
;
Structure prediction by ZEFSAII (Michael W. Deem and Ramdas Pophale) SiO2 
 PCOD8003584
Probable space group: P -1
;
_chemical_formula_sum "Si O2"
_cell_formula_units_Z 14
_cell_length_a 11.480840
_cell_length_b 18.873124
_cell_length_c 15.371151
_cell_angle_alpha 155.258070
_cell_angle_beta 141.070318
_cell_angle_gamma 29.471168
_cell_volume 684.492015
_symmetry_space_group_name_H-M "P -1"
_symmetry_group_IT_number 2
_symmetry_cell_setting 'triclinic'
loop_
_space_group_symop_operation_xyz
x,y,z
-x,-y,-z
loop_
_atom_site_type_symbol
_atom_site_label
_atom_site_fract_x
_atom_site_fract_y
_atom_site_fract_z
Si Si1 0.893622 0.824694 0.284152
Si Si2 0.056709 0.661671 0.727487
Si Si3 0.659270 0.371146 0.289470
Si Si4 0.265671 0.868545 0.619480
Si Si5 0.319183 0.358354 0.959087
Si Si6 0.873632 0.010725 0.140563
Si Si7 0.387016 0.654685 0.025995
O O1 0.038152 0.877363 0.483710
O O2 0.072413 0.599723 0.086326
O O3 0.725717 0.005608 0.315261
O O4 0.728319 0.812660 0.240759
O O5 0.094776 0.731717 0.734469
O O6 0.311829 0.544486 0.793301
O O7 0.000000 0.500000 0.500000
O O8 0.852076 0.869702 0.899200
O O9 0.512495 0.627788 0.499527
O O10 0.500553 0.319722 0.093997
O O11 0.736246 0.255036 0.298609
O O12 0.233406 0.981574 0.819607
O O13 0.428192 0.322497 0.886465
O O14 0.153478 0.893597 0.184276
O O15 0.500000 0.500000 0.000000
#
# Coordination Sequence:
#
# PCOD8003584 Si02
#       7
#     2   2   2   2   2   2   2
#     4   9  19  36  59  84 122 152 204 242 306 351
#     4   9  21  39  60  85 118 160 194 244 302 362
#     4  10  20  38  58  83 119 164 197 237 302 362
#     4  10  20  37  59  88 119 160 197 252 294 353
#     4   9  18  35  60  84 113 163 198 239 299 364
#     4  10  21  37  61  83 122 152 200 250 298 347
#     4   9  19  36  63  85 119 153 198 246 303 349
#
# _framework density 20.453123999999999
#
# number of rings (size 3 to 8) (size 9 to 14) (size 15 to 20)
#    0.857    1.714    0.000    1.714    0.000    2.286 
#    2.571    5.000    0.000    0.000    0.000    0.000 
#    0.000    0.000    0.000    0.000    0.000    0.000 
#
# Total GULP energy -173499.728208 kJ/mol
# GULP energy per Si atom -12392.837729 kJ/mol
# Density = 2.040657 g / cm^3
# Si number density = 20.453124 Si / 1000 Ang^3
#
#
#
# Elastic Constant Matrix: (Units=GPa)
#
#
# Indices 1 2 3 4 5 6 
#
# 1 122.5961 40.3355 43.4517 5.2082 6.6305 20.8049
# 2 40.3355 112.3507 20.5940 24.4585 4.5567 25.0701
# 3 43.4517 20.5940 76.6518 13.0218 3.8235 6.7115
# 4 5.2082 24.4585 13.0218 22.3895 -0.0785 2.4075
# 5 6.6305 4.5567 3.8235 -0.0785 39.4863 1.9958
# 6 20.8049 25.0701 6.7115 2.4075 1.9958 30.0627
#
#
#
# Elastic Compliance Matrix: (Units=1/GPa)
#
#
# Indices 1 2 3 4 5 6 
#
# 1 0.012080 -0.003153 -0.006376 0.004840 -0.000803 -0.004641
# 2 -0.003153 0.015438 0.001214 -0.015805 -0.000914 -0.009637
# 3 -0.006376 0.001214 0.018125 -0.010414 -0.000858 0.000245
# 4 0.004840 -0.015805 -0.010414 0.066142 0.001810 0.006739
# 5 -0.000803 -0.000914 -0.000858 0.001810 0.025669 -0.000340
# 6 -0.004641 -0.009637 0.000245 0.006739 -0.000340 0.043940
#
#
# Mechanical properties :
#
#
# Convention : Reuss Voigt Hill
#
# Bulk Modulus (GPa) = 34.46878 57.81790 46.14334
# Shear Modulus (GPa) = 24.07368 32.20218 28.13793
#
# Velocity S-wave (km/s) = 3.43449 3.97222 3.71310
# Velocity P-wave (km/s) = 5.71111 7.02623 6.40253
#
# Compressibility (1/GPa) = 0.02901176
#
# Stress axis : x y z
#
# Youngs Moduli (GPa) = 82.78383 64.77359 55.17321
#
# Poissons Ratio (x) = 0.20426 0.35179
# Poissons Ratio (y) = 0.26106 -0.06699
# Poissons Ratio (z) = 0.52784 -0.07864
#
# Static dielectric constant tensor:
#      x y z
#    x 3.785430 0.015520 -0.054220 
#    y 0.015520 3.578600 0.065200 
#    z -0.054220 0.065200 3.400330 
# 
# 
# High freq. dielectric constant tensor:
#      x y z
#    x 1.803650 0.006650 -0.004440 
#    y 0.006650 1.795050 0.011070 
#    z -0.004440 0.011070 1.765840 
# 
# From -- ./inp_files/523071.got.cif
#   From: 2010.06.25/outbox.cif.g09.slc.cpg/sg2_262_cif.got.tgz:523071.got - 2010.06.27 13:26:56.
