data_PCOD8003778
_publ_section_title
;
Structure prediction by ZEFSAII (Michael W. Deem and Ramdas Pophale) SiO2 
 PCOD8003778
Probable space group: P -1
;
_chemical_formula_sum "Si O2"
_cell_formula_units_Z 16
_cell_length_a 13.737471
_cell_length_b 8.119635
_cell_length_c 14.939374
_cell_angle_alpha 107.045557
_cell_angle_beta 140.620439
_cell_angle_gamma 100.656243
_cell_volume 742.648102
_symmetry_space_group_name_H-M "P -1"
_symmetry_group_IT_number 2
_symmetry_cell_setting 'triclinic'
loop_
_space_group_symop_operation_xyz
x,y,z
-x,-y,-z
loop_
_atom_site_type_symbol
_atom_site_label
_atom_site_fract_x
_atom_site_fract_y
_atom_site_fract_z
Si Si1 0.004025 0.355592 0.054095
Si Si2 0.739996 0.678219 0.888045
Si Si3 0.905160 0.816714 0.208654
Si Si4 0.307441 0.322408 0.583085
Si Si5 0.827944 0.479240 0.601100
Si Si6 0.234940 0.644043 0.876907
Si Si7 0.616392 0.972969 0.813440
Si Si8 0.490873 0.629360 0.934874
O O1 0.156297 0.314515 0.127386
O O2 0.083289 0.466646 0.226567
O O3 0.000000 0.500000 0.000000
O O4 0.761859 0.117723 0.853609
O O5 0.529401 0.410103 0.722614
O O6 0.673849 0.826221 0.863443
O O7 0.916715 0.788080 0.106440
O O8 0.820063 0.581410 0.155948
O O9 0.731585 0.836375 0.106079
O O10 0.136249 0.046567 0.441647
O O11 0.223271 0.369215 0.446370
O O12 0.344909 0.459328 0.721690
O O13 0.010160 0.551547 0.675329
O O14 0.626049 0.203164 0.413292
O O15 0.388044 0.728430 0.914338
O O16 0.355120 0.863636 0.063609
O O17 0.500000 0.500000 0.000000
#
# Coordination Sequence:
#
# PCOD8003778 Si02
#       8
#     2   2   2   2   2   2   2   2
#     4  11  23  39  60  89 118 150 196 242 290 345
#     4  10  21  39  61  85 118 155 191 239 293 347
#     4  10  20  37  61  86 117 154 194 243 292 341
#     4  10  22  39  60  88 116 153 198 238 290 346
#     4  10  23  40  58  86 119 152 194 239 289 349
#     4  10  21  37  58  86 121 155 191 241 291 343
#     4  10  22  39  58  84 120 155 190 237 293 350
#     4   9  21  38  58  88 119 153 196 239 291 345
#
# _framework density 21.544525
#
# number of rings (size 3 to 8) (size 9 to 14) (size 15 to 20)
#    0.000    2.000    0.000    3.375    0.000   11.000 
#    0.000    8.750    0.000    0.000    0.000    0.000 
#    0.000    0.000    0.000    0.000    0.000    0.000 
#
# Total GULP energy -198246.099977 kJ/mol
# GULP energy per Si atom -12390.381249 kJ/mol
# Density = 2.149549 g / cm^3
# Si number density = 21.544525 Si / 1000 Ang^3
#
#
#
# Elastic Constant Matrix: (Units=GPa)
#
#
# Indices 1 2 3 4 5 6 
#
# 1 110.5610 3.2866 41.9792 13.9967 14.2181 -16.4776
# 2 3.2866 53.9032 26.4045 7.2693 -4.5683 2.9548
# 3 41.9792 26.4045 106.0568 17.9920 7.5666 2.8140
# 4 13.9967 7.2693 17.9920 40.1589 12.3179 -2.8485
# 5 14.2181 -4.5683 7.5666 12.3179 25.1907 -0.3531
# 6 -16.4776 2.9548 2.8140 -2.8485 -0.3531 27.9209
#
#
#
# Elastic Compliance Matrix: (Units=1/GPa)
#
#
# Indices 1 2 3 4 5 6 
#
# 1 0.012846 0.000840 -0.005097 -0.000129 -0.005393 0.007925
# 2 0.000840 0.022586 -0.005726 -0.004193 0.007369 -0.001652
# 3 -0.005097 -0.005726 0.013600 -0.003372 -0.000656 -0.004125
# 4 -0.000129 -0.004193 -0.003372 0.032198 -0.015366 0.003798
# 5 -0.005393 0.007369 -0.000656 -0.015366 0.051721 -0.004810
# 6 0.007925 -0.001652 -0.004125 0.003798 -0.004810 0.041410
#
#
# Mechanical properties :
#
#
# Convention : Reuss Voigt Hill
#
# Bulk Modulus (GPa) = 34.40558 45.98464 40.19511
# Shear Modulus (GPa) = 24.50777 31.91082 28.20929
#
# Velocity S-wave (km/s) = 3.37640 3.85275 3.62242
# Velocity P-wave (km/s) = 5.58608 6.41732 6.01607
#
# Compressibility (1/GPa) = 0.02906505
#
# Stress axis : x y z
#
# Youngs Moduli (GPa) = 77.84386 44.27508 73.52746
#
# Poissons Ratio (x) = -0.03718 0.37480
# Poissons Ratio (y) = -0.06536 0.42102
# Poissons Ratio (z) = 0.39680 0.25352
#
# Static dielectric constant tensor:
#      x y z
#    x 4.913380 0.115270 0.750420 
#    y 0.115270 3.757500 0.161780 
#    z 0.750420 0.161780 4.354590 
# 
# 
# High freq. dielectric constant tensor:
#      x y z
#    x 1.857250 0.006760 0.018180 
#    y 0.006760 1.832450 -0.000450 
#    z 0.018180 -0.000450 1.844490 
# 
# From -- ./inp_files/528576.got.cif
#   From: 2010.06.25/outbox.cif.g09.slc.cpg/sg2_265_cif.got.tgz:528576.got - 2010.06.27 13:26:56.
