data_PCOD8003034
_publ_section_title
;
Structure prediction by ZEFSAII (Michael W. Deem and Ramdas Pophale) SiO2 
 PCOD8003034
Probable space group: P -1
;
_chemical_formula_sum "Si O2"
_cell_formula_units_Z 14
_cell_length_a 10.495259
_cell_length_b 5.095972
_cell_length_c 19.402144
_cell_angle_alpha 74.112480
_cell_angle_beta 138.891286
_cell_angle_gamma 118.018484
_cell_volume 596.532488
_symmetry_space_group_name_H-M "P -1"
_symmetry_group_IT_number 2
_symmetry_cell_setting 'triclinic'
loop_
_space_group_symop_operation_xyz
x,y,z
-x,-y,-z
loop_
_atom_site_type_symbol
_atom_site_label
_atom_site_fract_x
_atom_site_fract_y
_atom_site_fract_z
Si Si1 0.600573 0.040844 0.963049
Si Si2 0.027160 0.118893 0.639039
Si Si3 0.585578 0.541120 0.318347
Si Si4 0.162952 0.631655 0.769891
Si Si5 0.862968 0.653062 0.073075
Si Si6 0.573375 0.088640 0.446357
Si Si7 0.655624 0.098018 0.764065
O O1 0.725879 0.401248 0.978636
O O2 0.763216 0.886557 0.032160
O O3 0.500000 0.000000 0.000000
O O4 0.406964 0.884952 0.841653
O O5 0.181231 0.234903 0.627685
O O6 0.115479 0.352904 0.720602
O O7 0.794783 0.068241 0.523168
O O8 0.009024 0.794943 0.679144
O O9 0.604183 0.425805 0.412299
O O10 0.421579 0.695494 0.236467
O O11 0.486244 0.250049 0.248737
O O12 0.122163 0.513029 0.839363
O O13 0.099138 0.827131 0.126385
O O14 0.500000 0.000000 0.500000
O O15 0.389075 0.855855 0.338392
#
# Coordination Sequence:
#
# PCOD8003034 Si02
#       7
#     2   2   2   2   2   2   2
#     4  10  20  36  61  92 129 157 202 259 318 364
#     4  12  24  40  63  89 132 164 203 250 306 370
#     4  10  24  42  61  86 129 170 206 241 306 367
#     4  11  23  36  63  93 123 160 208 253 311 364
#     4  11  20  38  64  93 126 157 204 264 316 350
#     4  10  25  40  65  94 125 157 210 257 302 362
#     4  10  23  39  65  87 125 160 211 244 311 361
#
# _framework density 23.468965000000001
#
# number of rings (size 3 to 8) (size 9 to 14) (size 15 to 20)
#    0.857    0.571    0.000    7.286    4.000    1.143 
#    0.000    0.000    0.000   17.143    0.000    0.000 
#    0.000    0.000    0.000    0.000    0.000    0.000 
#
# Total GULP energy -173531.211567 kJ/mol
# GULP energy per Si atom -12395.086540 kJ/mol
# Density = 2.341555 g / cm^3
# Si number density = 23.468965 Si / 1000 Ang^3
#
#
#
# Elastic Constant Matrix: (Units=GPa)
#
#
# Indices 1 2 3 4 5 6 
#
# 1 74.0026 27.6518 9.0078 -9.5432 27.5231 -14.9668
# 2 27.6518 75.4040 -6.6698 -14.9351 13.1291 -26.9238
# 3 9.0078 -6.6698 71.7722 5.5205 34.7496 -12.4729
# 4 -9.5432 -14.9351 5.5205 31.2855 -8.3348 13.6968
# 5 27.5231 13.1291 34.7496 -8.3348 51.2162 -5.9873
# 6 -14.9668 -26.9238 -12.4729 13.6968 -5.9873 31.2395
#
#
#
# Elastic Compliance Matrix: (Units=1/GPa)
#
#
# Indices 1 2 3 4 5 6 
#
# 1 0.020015 -0.001810 0.005865 -0.003521 -0.013760 0.009277
# 2 -0.001810 0.026088 0.014303 -0.006184 -0.013210 0.027507
# 3 0.005865 0.014303 0.037139 -0.020805 -0.031540 0.033042
# 4 -0.003521 -0.006184 -0.020805 0.052420 0.022142 -0.034063
# 5 -0.013760 -0.013210 -0.031540 0.022142 0.051759 -0.030358
# 6 0.009277 0.027507 0.033042 -0.034063 -0.030358 0.082472
#
#
# Mechanical properties :
#
#
# Convention : Reuss Voigt Hill
#
# Bulk Modulus (GPa) = 8.33625 31.23982 19.78803
# Shear Modulus (GPa) = 18.30406 35.49418 26.89912
#
# Velocity S-wave (km/s) = 2.79575 3.89316 3.38917
# Velocity P-wave (km/s) = 3.73916 5.79215 4.87495
#
# Compressibility (1/GPa) = 0.11995807
#
# Stress axis : x y z
#
# Youngs Moduli (GPa) = 49.96174 38.33220 26.92585
#
# Poissons Ratio (x) = 0.06939 -0.15791
# Poissons Ratio (y) = 0.09044 -0.38513
# Poissons Ratio (z) = -0.29302 -0.54828
#
# Static dielectric constant tensor:
#      x y z
#    x 3.966980 -0.116910 0.080720 
#    y -0.116910 4.396410 0.271660 
#    z 0.080720 0.271660 4.415430 
# 
# 
# High freq. dielectric constant tensor:
#      x y z
#    x 1.915650 -0.010500 0.010720 
#    y -0.010500 1.934430 0.002200 
#    z 0.010720 0.002200 1.931080 
# 
# From -- ./inp_files/122475.got.cif
#   From: 2010.06.25/outbox.cif.g09.slc.cpg/sg2_62_cif.got.tgz:122475.got - 2010.06.27 13:26:56.
