data_PCOD8003366
_publ_section_title
;
Structure prediction by ZEFSAII (Michael W. Deem and Ramdas Pophale) SiO2 
 PCOD8003366
Probable space group: P -1
;
_chemical_formula_sum "Si O2"
_cell_formula_units_Z 14
_cell_length_a 16.591860
_cell_length_b 20.019970
_cell_length_c 8.082222
_cell_angle_alpha 134.897245
_cell_angle_beta 51.032850
_cell_angle_gamma 160.883271
_cell_volume 614.379779
_symmetry_space_group_name_H-M "P -1"
_symmetry_group_IT_number 2
_symmetry_cell_setting 'triclinic'
loop_
_space_group_symop_operation_xyz
x,y,z
-x,-y,-z
loop_
_atom_site_type_symbol
_atom_site_label
_atom_site_fract_x
_atom_site_fract_y
_atom_site_fract_z
Si Si1 0.186116 0.905011 0.794073
Si Si2 0.089054 0.041644 0.703660
Si Si3 0.879481 0.751874 0.183852
Si Si4 0.032826 0.476607 0.179816
Si Si5 0.373389 0.874609 0.647501
Si Si6 0.946931 0.325859 0.706441
Si Si7 0.639704 0.759576 0.972058
O O1 0.357086 0.953038 0.684286
O O2 0.013940 0.738146 0.562097
O O3 0.014471 0.780664 0.957872
O O4 0.355304 0.135179 0.939810
O O5 0.062270 0.939174 0.420135
O O6 0.824209 0.840675 0.782406
O O7 0.191269 0.221796 0.802809
O O8 0.289215 0.172120 0.807049
O O9 0.635878 0.508492 0.158161
O O10 0.269626 0.694603 0.372830
O O11 0.948995 0.502337 0.237964
O O12 0.798778 0.247006 0.185584
O O13 0.091069 0.445834 0.907751
O O14 0.654313 0.093644 0.724464
#
# Coordination Sequence:
#
# PCOD8003366 Si02
#       7
#     2   2   2   2   2   2   2
#     4  10  22  34  51  85 113 136 184 223 261 323
#     4   9  20  38  60  83 104 140 185 210 262 336
#     4  10  20  37  58  82 111 140 175 223 266 316
#     4   9  19  34  57  76  95 143 190 219 267 316
#     4  10  20  37  55  76 108 145 183 226 264 312
#     4  10  20  37  55  77 108 144 184 225 264 315
#     4  10  20  37  58  80 111 143 171 222 271 314
#
# _framework density 22.787206999999999
#
# number of rings (size 3 to 8) (size 9 to 14) (size 15 to 20)
#    0.000    2.286    0.000    3.000    0.000    5.714 
#    0.000    8.571    0.000    0.000    0.000    0.000 
#    0.000    0.000    0.000    0.000    0.000    0.000 
#
# Total GULP energy -173580.192801 kJ/mol
# GULP energy per Si atom -12398.585200 kJ/mol
# Density = 2.273534 g / cm^3
# Si number density = 22.787207 Si / 1000 Ang^3
#
#
#
# Elastic Constant Matrix: (Units=GPa)
#
#
# Indices 1 2 3 4 5 6 
#
# 1 38.3687 12.7062 13.3794 4.8753 7.3550 -3.2404
# 2 12.7062 76.2460 22.6602 11.9738 -8.3029 -21.6283
# 3 13.3794 22.6602 138.8538 -20.0288 9.3965 1.6689
# 4 4.8753 11.9738 -20.0288 32.2310 -7.9596 -0.7955
# 5 7.3550 -8.3029 9.3965 -7.9596 28.6184 -6.6163
# 6 -3.2404 -21.6283 1.6689 -0.7955 -6.6163 28.0426
#
#
#
# Elastic Compliance Matrix: (Units=1/GPa)
#
#
# Indices 1 2 3 4 5 6 
#
# 1 0.031654 -0.005851 -0.002262 -0.007054 -0.011915 -0.003732
# 2 -0.005851 0.024641 -0.005777 -0.008041 0.013303 0.021583
# 3 -0.002262 -0.005777 0.009761 0.007524 -0.003578 -0.005929
# 4 -0.007054 -0.008041 0.007524 0.041499 0.007507 -0.004516
# 5 -0.011915 0.013303 -0.003578 0.007507 0.050007 0.021108
# 6 -0.003732 0.021583 -0.005929 -0.004516 0.021108 0.057080
#
#
# Mechanical properties :
#
#
# Convention : Reuss Voigt Hill
#
# Bulk Modulus (GPa) = 26.12525 38.99558 32.56042
# Shear Modulus (GPa) = 19.59385 31.42658 25.51022
#
# Velocity S-wave (km/s) = 2.93552 3.71770 3.34952
# Velocity P-wave (km/s) = 4.79369 5.96477 5.41100
#
# Compressibility (1/GPa) = 0.03827714
#
# Stress axis : x y z
#
# Youngs Moduli (GPa) = 31.59109 40.58203 102.44619
#
# Poissons Ratio (x) = 0.23746 0.23169
# Poissons Ratio (y) = 0.18485 0.59184
# Poissons Ratio (z) = 0.07145 0.23445
#
# Static dielectric constant tensor:
#      x y z
#    x 3.788300 -0.370750 0.164510 
#    y -0.370750 3.926460 -0.089790 
#    z 0.164510 -0.089790 4.416120 
# 
# 
# High freq. dielectric constant tensor:
#      x y z
#    x 1.866930 -0.035480 0.012070 
#    y -0.035480 1.895720 -0.002340 
#    z 0.012070 -0.002340 1.914600 
# 
# From -- ./inp_files/337904.got.cif
#   From: 2010.06.25/outbox.cif.g09.slc.cpg/sg2_169_cif.got.tgz:337904.got - 2010.06.27 13:26:56.
