data_PCOD8003045
_publ_section_title
;
Structure prediction by ZEFSAII (Michael W. Deem and Ramdas Pophale) SiO2 
 PCOD8003045
Probable space group: P -1
;
_chemical_formula_sum "Si O2"
_cell_formula_units_Z 14
_cell_length_a 16.980672
_cell_length_b 11.502250
_cell_length_c 11.552297
_cell_angle_alpha 63.251180
_cell_angle_beta 151.386864
_cell_angle_gamma 135.603512
_cell_volume 641.625219
_symmetry_space_group_name_H-M "P -1"
_symmetry_group_IT_number 2
_symmetry_cell_setting 'triclinic'
loop_
_space_group_symop_operation_xyz
x,y,z
-x,-y,-z
loop_
_atom_site_type_symbol
_atom_site_label
_atom_site_fract_x
_atom_site_fract_y
_atom_site_fract_z
Si Si1 0.110649 0.988533 0.258891
Si Si2 0.470331 0.577499 0.321295
Si Si3 0.322235 0.365738 0.996645
Si Si4 0.895832 0.263878 0.087297
Si Si5 0.745657 0.483315 0.354944
Si Si6 0.043921 0.411220 0.985770
Si Si7 0.652400 0.148106 0.433349
O O1 0.216185 0.908345 0.405146
O O2 0.893544 0.850571 0.133761
O O3 0.331205 0.191763 0.516831
O O4 0.000000 0.000000 0.000000
O O5 0.500000 0.500000 0.500000
O O6 0.488839 0.523966 0.243480
O O7 0.188195 0.456170 0.034591
O O8 0.209066 0.416244 0.752005
O O9 0.483762 0.367357 0.124354
O O10 0.037477 0.342100 0.356180
O O11 0.837983 0.378947 0.923282
O O12 0.061445 0.321388 0.160181
O O13 0.643910 0.034292 0.873057
O O14 0.737952 0.324093 0.388052
O O15 0.752412 0.244550 0.647891
#
# Coordination Sequence:
#
# PCOD8003045 Si02
#       7
#     2   2   2   2   2   2   2
#     4  12  25  41  71 103 134 169 219 282 341 394
#     4  12  22  40  66  95 133 171 215 274 340 386
#     4  11  25  48  66  97 137 174 231 272 329 402
#     4  10  21  38  64  95 137 169 221 270 330 402
#     4  10  26  45  69  93 134 188 219 273 328 398
#     4  10  20  36  61  97 132 171 211 272 331 385
#     4  11  22  42  67 103 132 173 225 273 336 396
#
# _framework density 21.819592
#
# number of rings (size 3 to 8) (size 9 to 14) (size 15 to 20)
#    0.000    1.143    4.286    1.286    0.000    6.286 
#    0.000    4.286    0.000    0.000    0.000    0.000 
#    0.000    0.000    0.000    0.000    0.000    0.000 
#
# Total GULP energy -173455.970840 kJ/mol
# GULP energy per Si atom -12389.712203 kJ/mol
# Density = 2.176993 g / cm^3
# Si number density = 21.819592 Si / 1000 Ang^3
#
#
#
# Elastic Constant Matrix: (Units=GPa)
#
#
# Indices 1 2 3 4 5 6 
#
# 1 64.8265 38.2022 19.7035 -0.3154 -8.2002 12.6340
# 2 38.2022 138.3762 68.6655 4.7323 -10.6884 9.0637
# 3 19.7035 68.6655 111.5616 16.7530 -18.6578 11.5542
# 4 -0.3154 4.7323 16.7530 51.2876 0.5746 -4.1819
# 5 -8.2002 -10.6884 -18.6578 0.5746 32.9440 -1.9750
# 6 12.6340 9.0637 11.5542 -4.1819 -1.9750 38.4549
#
#
#
# Elastic Compliance Matrix: (Units=1/GPa)
#
#
# Indices 1 2 3 4 5 6 
#
# 1 0.019734 -0.005283 0.000914 -0.000164 0.003397 -0.005356
# 2 -0.005283 0.011898 -0.006907 0.001228 -0.001324 0.001072
# 3 0.000914 -0.006907 0.015189 -0.004669 0.006466 -0.003412
# 4 -0.000164 0.001228 -0.004669 0.021209 -0.002456 0.003348
# 5 0.003397 -0.001324 0.006466 -0.002456 0.034401 -0.001247
# 6 -0.005356 0.001072 -0.003412 0.003348 -0.001247 0.028837
#
#
# Mechanical properties :
#
#
# Convention : Reuss Voigt Hill
#
# Bulk Modulus (GPa) = 41.20378 63.10075 52.15226
# Shear Modulus (GPa) = 30.88143 37.08351 33.98247
#
# Velocity S-wave (km/s) = 3.76614 4.12703 3.95071
# Velocity P-wave (km/s) = 6.15114 7.18971 6.69061
#
# Compressibility (1/GPa) = 0.02426962
#
# Stress axis : x y z
#
# Youngs Moduli (GPa) = 50.67416 84.04770 65.83537
#
# Poissons Ratio (x) = 0.44399 -0.06015
# Poissons Ratio (y) = 0.26769 0.45472
# Poissons Ratio (z) = -0.04630 0.58052
#
# Static dielectric constant tensor:
#      x y z
#    x 2.807660 -0.164720 -0.674020 
#    y -0.164720 3.983100 -0.065790 
#    z -0.674020 -0.065790 3.583950 
# 
# 
# High freq. dielectric constant tensor:
#      x y z
#    x 1.848860 -0.006310 -0.000760 
#    y -0.006310 1.860280 0.009840 
#    z -0.000760 0.009840 1.865050 
# 
# From -- ./inp_files/261903.got.cif
#   From: 2010.06.25/outbox.cif.g09.slc.cpg/sg2_131_cif.got.tgz:261903.got - 2010.06.27 13:26:56.
