data_PCOD8003735
_publ_section_title
;
Structure prediction by ZEFSAII (Michael W. Deem and Ramdas Pophale) SiO2 
 PCOD8003735
Probable space group: P -1
;
_chemical_formula_sum "Si O2"
_cell_formula_units_Z 16
_cell_length_a 13.367194
_cell_length_b 10.726698
_cell_length_c 9.618500
_cell_angle_alpha 78.736177
_cell_angle_beta 91.110559
_cell_angle_gamma 35.802514
_cell_volume 752.301986
_symmetry_space_group_name_H-M "P -1"
_symmetry_group_IT_number 2
_symmetry_cell_setting 'triclinic'
loop_
_space_group_symop_operation_xyz
x,y,z
-x,-y,-z
loop_
_atom_site_type_symbol
_atom_site_label
_atom_site_fract_x
_atom_site_fract_y
_atom_site_fract_z
Si Si1 0.398084 0.791581 0.341067
Si Si2 0.426999 0.745065 0.765951
Si Si3 0.732102 0.729609 0.157244
Si Si4 0.304843 0.609117 0.368871
Si Si5 0.638179 0.904400 0.412544
Si Si6 0.094176 0.263386 0.370856
Si Si7 0.953677 0.930044 0.417101
Si Si8 0.453642 0.832696 0.033796
O O1 0.301359 0.760426 0.380991
O O2 0.585588 0.593103 0.473264
O O3 0.431545 0.773821 0.183430
O O4 0.268157 0.040546 0.334224
O O5 0.603483 0.494540 0.758016
O O6 0.413318 0.897955 0.667426
O O7 0.248083 0.852422 0.699224
O O8 0.456946 0.723710 0.936297
O O9 0.644433 0.814348 0.291798
O O10 0.637549 0.720896 0.064220
O O11 0.944198 0.480258 0.218736
O O12 0.707153 0.895942 0.053954
O O13 0.098910 0.776948 0.327529
O O14 0.837696 0.697863 0.530715
O O15 0.500000 0.000000 0.500000
O O16 0.011201 0.233411 0.458317
O O17 0.000000 0.000000 0.500000
#
# Coordination Sequence:
#
# PCOD8003735 Si02
#       8
#     2   2   2   2   2   2   2   2
#     4  11  21  39  64  93 124 163 210 257 313 375
#     4  10  23  42  61  96 130 162 212 258 311 381
#     4  10  22  39  62  84 127 171 207 256 322 369
#     4  11  21  40  67  94 121 165 211 261 311 362
#     4  10  20  37  60  94 122 159 213 266 306 366
#     4  11  21  37  62 100 123 158 218 262 308 374
#     4  11  20  38  66  97 126 160 209 271 308 363
#     4  10  23  44  59  86 132 171 205 256 319 381
#
# _framework density 21.268056999999999
#
# number of rings (size 3 to 8) (size 9 to 14) (size 15 to 20)
#    0.000    1.500    3.750    2.625    1.750    1.000 
#    2.250    0.625    0.000    0.000    0.000    0.000 
#    0.000    0.000    0.000    0.000    0.000    0.000 
#
# Total GULP energy -198387.851643 kJ/mol
# GULP energy per Si atom -12399.240728 kJ/mol
# Density = 2.121965 g / cm^3
# Si number density = 21.268057 Si / 1000 Ang^3
#
#
#
# Elastic Constant Matrix: (Units=GPa)
#
#
# Indices 1 2 3 4 5 6 
#
# 1 92.0715 28.2389 27.4747 10.8025 18.4361 -10.8864
# 2 28.2389 90.7483 29.1973 4.5958 7.3380 -16.6914
# 3 27.4747 29.1973 106.1215 10.8828 7.9773 -1.6587
# 4 10.8025 4.5958 10.8828 33.9344 1.2663 -2.4101
# 5 18.4361 7.3380 7.9773 1.2663 34.6195 8.7361
# 6 -10.8864 -16.6914 -1.6587 -2.4101 8.7361 25.5813
#
#
#
# Elastic Compliance Matrix: (Units=1/GPa)
#
#
# Indices 1 2 3 4 5 6 
#
# 1 0.015195 -0.001577 -0.002384 -0.002940 -0.009153 0.008132
# 2 -0.001577 0.014730 -0.003218 0.000416 -0.004125 0.010179
# 3 -0.002384 -0.003218 0.011136 -0.002573 0.000158 -0.002688
# 4 -0.002940 0.000416 -0.002573 0.031269 0.000517 0.001623
# 5 -0.009153 -0.004125 0.000158 0.000517 0.039642 -0.020066
# 6 0.008132 0.010179 -0.002688 0.001623 -0.020066 0.056025
#
#
# Mechanical properties :
#
#
# Convention : Reuss Voigt Hill
#
# Bulk Modulus (GPa) = 37.44688 50.97369 44.21028
# Shear Modulus (GPa) = 26.14299 32.42906 29.28603
#
# Velocity S-wave (km/s) = 3.50982 3.90908 3.71482
# Velocity P-wave (km/s) = 5.83699 6.66287 6.26355
#
# Compressibility (1/GPa) = 0.02670450
#
# Stress axis : x y z
#
# Youngs Moduli (GPa) = 65.81006 67.88716 89.80175
#
# Poissons Ratio (x) = 0.10705 0.21405
# Poissons Ratio (y) = 0.10377 0.28898
# Poissons Ratio (z) = 0.15686 0.21846
#
# Static dielectric constant tensor:
#      x y z
#    x 3.823690 0.036240 0.098090 
#    y 0.036240 3.802620 0.018980 
#    z 0.098090 0.018980 3.713690 
# 
# 
# High freq. dielectric constant tensor:
#      x y z
#    x 1.837440 0.003760 0.003100 
#    y 0.003760 1.830100 0.005030 
#    z 0.003100 0.005030 1.819690 
# 
# From -- ./inp_files/239753.got.cif
#   From: 2010.06.25/outbox.cif.g09.slc.cpg/sg2_120_cif.got.tgz:239753.got - 2010.06.27 13:26:56.
