data_PCOD8003571
_publ_section_title
;
Structure prediction by ZEFSAII (Michael W. Deem and Ramdas Pophale) SiO2 
 PCOD8003571
Probable space group: P -1
;
_chemical_formula_sum "Si O2"
_cell_formula_units_Z 16
_cell_length_a 9.896011
_cell_length_b 27.343686
_cell_length_c 27.343678
_cell_angle_alpha 15.408794
_cell_angle_beta 27.498846
_cell_angle_gamma 27.498867
_cell_volume 876.548244
_symmetry_space_group_name_H-M "P -1"
_symmetry_group_IT_number 2
_symmetry_cell_setting 'triclinic'
loop_
_space_group_symop_operation_xyz
x,y,z
-x,-y,-z
loop_
_atom_site_type_symbol
_atom_site_label
_atom_site_fract_x
_atom_site_fract_y
_atom_site_fract_z
Si Si1 0.579736 0.568346 0.460805
Si Si2 0.579736 0.960805 0.068345
Si Si3 0.619056 0.419284 0.919285
Si Si4 0.230382 0.404685 0.904684
Si Si5 0.873514 0.781855 0.704552
Si Si6 0.759473 0.653542 0.153541
Si Si7 0.873513 0.204554 0.281854
Si Si8 0.836193 0.329664 0.829665
O O1 0.500000 0.500000 0.500000
O O2 0.449576 0.478978 0.634041
O O3 0.947302 0.527176 0.386706
O O4 0.427225 0.794562 0.294562
O O5 0.449577 0.134041 0.978977
O O6 0.947302 0.886707 0.027176
O O7 0.500000 0.000000 0.000000
O O8 0.446476 0.639436 0.772913
O O9 0.638283 0.386755 0.886759
O O10 0.950751 0.376372 0.876373
O O11 0.446473 0.272913 0.139438
O O12 0.134664 0.391842 0.891846
O O13 0.596281 0.346579 0.846578
O O14 0.105611 0.622914 0.751525
O O15 0.105610 0.251528 0.122911
O O16 0.000002 0.774838 0.725161
O O17 0.833592 0.991599 0.491597
#
# Coordination Sequence:
#
# PCOD8003571 Si02
#       8
#     2   2   2   2   2   2   2   2
#     4  10  20  37  59  86 116 150 208 235 273 350
#     4  10  20  37  59  86 116 150 208 235 273 350
#     4  11  19  38  63  90 114 156 198 240 295 345
#     4  11  23  42  59  86 130 150 190 251 305 338
#     4  10  21  39  64  93 113 151 203 243 288 370
#     4  12  24  39  60  88 124 163 185 251 300 331
#     4  10  21  39  64  93 113 151 203 243 288 370
#     4  10  20  39  62  86 120 157 196 247 282 347
#
# _framework density 18.253415
#
# number of rings (size 3 to 8) (size 9 to 14) (size 15 to 20)
#    0.750    0.750    6.250    0.750    0.000    5.000 
#    4.500    1.250    0.000    0.000    0.000    0.000 
#    0.000    0.000    0.000    0.000    0.000    0.000 
#
# Total GULP energy -198330.507458 kJ/mol
# GULP energy per Si atom -12395.656716 kJ/mol
# Density = 1.821187 g / cm^3
# Si number density = 18.253415 Si / 1000 Ang^3
#
#
#
# Elastic Constant Matrix: (Units=GPa)
#
#
# Indices 1 2 3 4 5 6 
#
# 1 42.2869 18.4647 19.5075 -0.4476 2.4266 6.5530
# 2 18.4647 96.5012 57.8885 -8.2704 -0.7784 -3.9848
# 3 19.5075 57.8885 151.9856 -15.5467 0.7223 3.8352
# 4 -0.4476 -8.2704 -15.5467 32.0626 -1.8855 -2.8973
# 5 2.4266 -0.7784 0.7223 -1.8855 12.7839 10.0382
# 6 6.5530 -3.9848 3.8352 -2.8973 10.0382 36.1738
#
#
#
# Elastic Compliance Matrix: (Units=1/GPa)
#
#
# Indices 1 2 3 4 5 6 
#
# 1 0.027331 -0.004507 -0.001888 -0.002249 -0.001823 -0.004922
# 2 -0.004507 0.014373 -0.004811 0.001579 -0.000190 0.003089
# 3 -0.001888 -0.004811 0.008990 0.003041 0.000909 -0.001150
# 4 -0.002249 0.001579 0.003041 0.033433 0.003805 0.001881
# 5 -0.001823 -0.000190 0.000909 0.003805 0.100577 -0.027392
# 6 -0.004922 0.003089 -0.001150 0.001881 -0.027392 0.036750
#
#
# Mechanical properties :
#
#
# Convention : Reuss Voigt Hill
#
# Bulk Modulus (GPa) = 35.36107 53.61057 44.48582
# Shear Modulus (GPa) = 19.73986 29.19823 24.46904
#
# Velocity S-wave (km/s) = 3.29208 4.00384 3.66528
# Velocity P-wave (km/s) = 5.81934 7.12799 6.50665
#
# Compressibility (1/GPa) = 0.02827969
#
# Stress axis : x y z
#
# Youngs Moduli (GPa) = 36.58882 69.57729 111.23199
#
# Poissons Ratio (x) = 0.31361 0.21004
# Poissons Ratio (y) = 0.16492 0.53516
# Poissons Ratio (z) = 0.06909 0.33475
#
# Static dielectric constant tensor:
#      x y z
#    x 3.107960 -0.069220 -0.025640 
#    y -0.069220 3.388130 -0.089350 
#    z -0.025640 -0.089350 3.596290 
# 
# 
# High freq. dielectric constant tensor:
#      x y z
#    x 1.693260 -0.006160 -0.002280 
#    y -0.006160 1.709490 0.000390 
#    z -0.002280 0.000390 1.708600 
# 
# From -- ./inp_files/608771.got.cif
#   From: 2010.06.25/outbox.cif.g09.slc.cpg/sg2_305_cif.got.tgz:608771.got - 2010.06.27 13:26:56.
