data_PCOD8003924
_publ_section_title
;
Structure prediction by ZEFSAII (Michael W. Deem and Ramdas Pophale) SiO2 
 PCOD8003924
Probable space group: P -1
;
_chemical_formula_sum "Si O2"
_cell_formula_units_Z 16
_cell_length_a 12.615019
_cell_length_b 14.826066
_cell_length_c 16.850446
_cell_angle_alpha 145.360646
_cell_angle_beta 28.489073
_cell_angle_gamma 127.484577
_cell_volume 774.430495
_symmetry_space_group_name_H-M "P -1"
_symmetry_group_IT_number 2
_symmetry_cell_setting 'triclinic'
loop_
_space_group_symop_operation_xyz
x,y,z
-x,-y,-z
loop_
_atom_site_type_symbol
_atom_site_label
_atom_site_fract_x
_atom_site_fract_y
_atom_site_fract_z
Si Si1 0.975166 0.414722 0.036706
Si Si2 0.487116 0.816655 0.483670
Si Si3 0.770105 0.469797 0.778433
Si Si4 0.806744 0.626825 0.457796
Si Si5 0.208368 0.164217 0.995557
Si Si6 0.057622 0.836218 0.673526
Si Si7 0.282952 0.816189 0.918963
Si Si8 0.726383 0.312521 0.339210
O O1 0.236199 0.271677 0.794654
O O2 0.000000 0.500000 0.000000
O O3 0.867922 0.565891 0.282534
O O4 0.802817 0.311002 0.064922
O O5 0.299610 0.850275 0.558455
O O6 0.469873 0.678220 0.458450
O O7 0.445168 0.996358 0.687455
O O8 0.754779 0.660806 0.911069
O O9 0.857490 0.354544 0.558489
O O10 0.957810 0.362861 0.648538
O O11 0.500000 0.500000 0.000000
O O12 0.550449 0.803762 0.761542
O O13 0.744423 0.494554 0.457106
O O14 0.148189 0.140495 0.108799
O O15 0.988436 0.162637 0.084702
O O16 0.926842 0.986015 0.801302
O O17 0.344015 0.736316 0.733461
#
# Coordination Sequence:
#
# PCOD8003924 Si02
#       8
#     2   2   2   2   2   2   2   2
#     4  11  23  35  59  93 123 152 190 248 305 342
#     4  11  19  35  63  95 122 143 197 249 294 338
#     4  11  25  42  59  85 123 157 197 244 296 348
#     4  10  22  39  58  82 122 162 193 236 296 355
#     4  10  20  37  62  90 119 155 195 243 290 349
#     4  11  22  38  64  91 116 160 200 237 290 353
#     4  11  20  36  60  86 121 153 200 236 290 354
#     4   9  16  35  58  90 117 152 187 243 286 346
#
# _framework density 20.660343999999998
#
# number of rings (size 3 to 8) (size 9 to 14) (size 15 to 20)
#    0.000    1.500    2.500    4.875    1.750    1.000 
#    0.000    1.250    0.000    1.500    0.000    0.000 
#    0.000    0.000    0.000    0.000    0.000    0.000 
#
# Total GULP energy -198323.241164 kJ/mol
# GULP energy per Si atom -12395.202573 kJ/mol
# Density = 2.061332 g / cm^3
# Si number density = 20.660344 Si / 1000 Ang^3
#
#
#
# Elastic Constant Matrix: (Units=GPa)
#
#
# Indices 1 2 3 4 5 6 
#
# 1 76.4136 46.3563 44.5105 -0.3716 -12.3316 2.2458
# 2 46.3563 73.1076 34.7013 -2.8751 -5.0449 -6.6481
# 3 44.5105 34.7013 118.6939 -1.0696 -16.9263 7.7250
# 4 -0.3716 -2.8751 -1.0696 24.6213 8.2400 -1.6067
# 5 -12.3316 -5.0449 -16.9263 8.2400 36.6405 -1.5046
# 6 2.2458 -6.6481 7.7250 -1.6067 -1.5046 29.6598
#
#
#
# Elastic Compliance Matrix: (Units=1/GPa)
#
#
# Indices 1 2 3 4 5 6 
#
# 1 0.024968 -0.013889 -0.004362 -0.003382 0.005081 -0.003793
# 2 -0.013889 0.024435 -0.002837 0.004082 -0.003238 0.007324
# 3 -0.004362 -0.002837 0.011611 -0.001332 0.003673 -0.003216
# 4 -0.003382 0.004082 -0.001332 0.044938 -0.011159 0.003386
# 5 0.005081 -0.003238 0.003673 -0.011159 0.032721 -0.001012
# 6 -0.003793 0.007324 -0.003216 0.003386 -0.001012 0.036614
#
#
# Mechanical properties :
#
#
# Convention : Reuss Voigt Hill
#
# Bulk Modulus (GPa) = 53.08129 57.70570 55.39350
# Shear Modulus (GPa) = 22.34716 27.69410 25.02063
#
# Velocity S-wave (km/s) = 3.29241 3.66518 3.48378
# Velocity P-wave (km/s) = 6.34046 6.77516 6.56141
#
# Compressibility (1/GPa) = 0.01883903
#
# Stress axis : x y z
#
# Youngs Moduli (GPa) = 40.05154 40.92507 86.12441
#
# Poissons Ratio (x) = 0.56840 0.37564
# Poissons Ratio (y) = 0.55627 0.24434
# Poissons Ratio (z) = 0.17469 0.11611
#
# Static dielectric constant tensor:
#      x y z
#    x 3.793600 -0.034030 -0.289400 
#    y -0.034030 3.840650 0.022160 
#    z -0.289400 0.022160 3.841750 
# 
# 
# High freq. dielectric constant tensor:
#      x y z
#    x 1.794480 -0.012690 -0.019420 
#    y -0.012690 1.796250 -0.001920 
#    z -0.019420 -0.001920 1.816130 
# 
# From -- ./inp_files/205213.got.cif
#   From: 2010.06.25/outbox.cif.g09.slc.cpg/sg2_103_cif.got.tgz:205213.got - 2010.06.27 13:26:56.
