data_PCOD8003316
_publ_section_title
;
Structure prediction by ZEFSAII (Michael W. Deem and Ramdas Pophale) SiO2 
 PCOD8003316
Probable space group: P -1
;
_chemical_formula_sum "Si O2"
_cell_formula_units_Z 16
_cell_length_a 12.240225
_cell_length_b 12.797138
_cell_length_c 8.669279
_cell_angle_alpha 70.805622
_cell_angle_beta 51.082363
_cell_angle_gamma 47.300946
_cell_volume 765.180287
_symmetry_space_group_name_H-M "P -1"
_symmetry_group_IT_number 2
_symmetry_cell_setting 'triclinic'
loop_
_space_group_symop_operation_xyz
x,y,z
-x,-y,-z
loop_
_atom_site_type_symbol
_atom_site_label
_atom_site_fract_x
_atom_site_fract_y
_atom_site_fract_z
Si Si1 0.633377 0.054008 0.490899
Si Si2 0.991402 0.126668 0.884931
Si Si3 0.312118 0.327184 0.770724
Si Si4 0.229712 0.389475 0.165586
Si Si5 0.284169 0.592103 0.166105
Si Si6 0.514259 0.098317 0.225898
Si Si7 0.129216 0.187301 0.015612
Si Si8 0.094669 0.603152 0.620832
O O1 0.529687 0.202884 0.605952
O O2 0.555917 0.104718 0.362446
O O3 0.851121 0.950599 0.346984
O O4 0.600329 0.955655 0.653526
O O5 0.803869 0.252407 0.903883
O O6 0.010397 0.203470 0.970865
O O7 0.000000 0.000000 0.000000
O O8 0.232245 0.462979 0.669882
O O9 0.283740 0.374198 0.948250
O O10 0.207325 0.266359 0.853075
O O11 0.201304 0.527040 0.185539
O O12 0.399098 0.253522 0.175882
O O13 0.046894 0.407229 0.337545
O O14 0.219821 0.611729 0.390666
O O15 0.500000 0.500000 0.000000
O O16 0.703631 0.982948 0.020218
O O17 0.014380 0.256132 0.241042
#
# Coordination Sequence:
#
# PCOD8003316 Si02
#       8
#     2   2   2   2   2   2   2   2
#     4   9  19  36  58  92 120 158 206 246 308 357
#     4  11  24  42  64  83 123 173 208 241 299 377
#     4  10  20  36  66  96 121 155 199 266 308 367
#     4  11  22  39  66  93 124 160 207 253 317 364
#     4  12  28  43  61  92 128 162 210 257 304 371
#     4   9  18  33  63  91 126 152 196 263 304 361
#     4   9  20  39  63  94 125 153 207 254 308 361
#     4  11  22  40  67  89 125 160 205 258 317 358
#
# _framework density 20.910107
#
# number of rings (size 3 to 8) (size 9 to 14) (size 15 to 20)
#    0.000    1.750    0.000    5.625    5.250    5.500 
#    2.250    1.875    0.000    0.000    0.000    0.000 
#    0.000    0.000    0.000    0.000    0.000    0.000 
#
# Total GULP energy -198368.154763 kJ/mol
# GULP energy per Si atom -12398.009673 kJ/mol
# Density = 2.086251 g / cm^3
# Si number density = 20.910107 Si / 1000 Ang^3
#
#
#
# Elastic Constant Matrix: (Units=GPa)
#
#
# Indices 1 2 3 4 5 6 
#
# 1 48.9761 20.5888 33.0486 0.1808 0.0430 -11.1897
# 2 20.5888 118.5375 47.1032 -7.1732 3.9397 -23.4370
# 3 33.0486 47.1032 131.9813 18.6219 -3.7113 -5.2520
# 4 0.1808 -7.1732 18.6219 35.8064 -9.1856 5.1069
# 5 0.0430 3.9397 -3.7113 -9.1856 23.9596 8.5969
# 6 -11.1897 -23.4370 -5.2520 5.1069 8.5969 35.3114
#
#
#
# Elastic Compliance Matrix: (Units=1/GPa)
#
#
# Indices 1 2 3 4 5 6 
#
# 1 0.026782 -0.000283 -0.006553 0.001200 -0.003421 0.007984
# 2 -0.000283 0.012137 -0.004404 0.002366 -0.004679 0.008108
# 3 -0.006553 -0.004404 0.011593 -0.006220 0.001095 -0.002642
# 4 0.001200 0.002366 -0.006220 0.036807 0.015667 -0.008112
# 5 -0.003421 -0.004679 0.001095 0.015667 0.055823 -0.019884
# 6 0.007984 0.008108 -0.002642 -0.008112 -0.019884 0.041852
#
#
# Mechanical properties :
#
#
# Convention : Reuss Voigt Hill
#
# Bulk Modulus (GPa) = 35.67317 55.66399 45.66858
# Shear Modulus (GPa) = 23.06106 32.26580 27.66343
#
# Velocity S-wave (km/s) = 3.32455 3.93246 3.64121
# Velocity P-wave (km/s) = 5.64217 6.87731 6.29013
#
# Compressibility (1/GPa) = 0.02803227
#
# Stress axis : x y z
#
# Youngs Moduli (GPa) = 37.33904 82.39319 86.26146
#
# Poissons Ratio (x) = 0.02331 0.56528
# Poissons Ratio (y) = 0.01056 0.37986
# Poissons Ratio (z) = 0.24468 0.36282
#
# Static dielectric constant tensor:
#      x y z
#    x 3.585600 0.014280 0.059340 
#    y 0.014280 3.948280 0.263560 
#    z 0.059340 0.263560 3.881110 
# 
# 
# High freq. dielectric constant tensor:
#      x y z
#    x 1.790900 -0.010770 0.010140 
#    y -0.010770 1.833730 0.016060 
#    z 0.010140 0.016060 1.819870 
# 
# From -- ./inp_files/262274.got.cif
#   From: 2010.06.25/outbox.cif.g09.slc.cpg/sg2_132_cif.got.tgz:262274.got - 2010.06.27 13:26:56.
