data_PCOD8003671
_publ_section_title
;
Structure prediction by ZEFSAII (Michael W. Deem and Ramdas Pophale) SiO2 
 PCOD8003671
Probable space group: P -1
;
_chemical_formula_sum "Si O2"
_cell_formula_units_Z 16
_cell_length_a 13.592999
_cell_length_b 12.832326
_cell_length_c 9.391339
_cell_angle_alpha 127.336540
_cell_angle_beta 142.225918
_cell_angle_gamma 72.934797
_cell_volume 737.389197
_symmetry_space_group_name_H-M "P -1"
_symmetry_group_IT_number 2
_symmetry_cell_setting 'triclinic'
loop_
_space_group_symop_operation_xyz
x,y,z
-x,-y,-z
loop_
_atom_site_type_symbol
_atom_site_label
_atom_site_fract_x
_atom_site_fract_y
_atom_site_fract_z
Si Si1 0.809617 0.418260 0.269775
Si Si2 0.820153 0.758393 0.108257
Si Si3 0.242881 0.309520 0.557040
Si Si4 0.203310 0.536281 0.254667
Si Si5 0.750968 0.875771 0.856951
Si Si6 0.525730 0.627264 0.871273
Si Si7 0.394094 0.652830 0.298446
Si Si8 0.925023 0.196162 0.318355
O O1 0.736383 0.533098 0.346653
O O2 0.815715 0.297765 0.286166
O O3 0.000000 0.500000 0.500000
O O4 0.698879 0.334777 0.941231
O O5 0.997116 0.800043 0.433235
O O6 0.766005 0.607057 0.847055
O O7 0.861597 0.871632 0.120679
O O8 0.657112 0.745367 0.012481
O O9 0.213172 0.206638 0.304844
O O10 0.078034 0.251937 0.424168
O O11 0.416065 0.321506 0.855980
O O12 0.327499 0.612332 0.595884
O O13 0.267529 0.636140 0.272891
O O14 0.000000 0.500000 0.000000
O O15 0.553108 0.802088 0.619992
O O16 0.797580 0.037663 0.000000
O O17 0.545098 0.478098 0.748012
#
# Coordination Sequence:
#
# PCOD8003671 Si02
#       8
#     2   2   2   2   2   2   2   2
#     4   9  19  39  59  84 125 157 200 255 302 350
#     4  10  20  38  60  85 119 164 201 246 301 365
#     4   9  21  37  62  91 119 162 206 252 295 355
#     4  11  20  35  62  93 120 154 205 261 303 350
#     4  12  21  36  62  91 122 159 209 244 296 372
#     4   9  17  39  59  85 124 153 202 251 303 362
#     4  10  20  37  60  87 121 162 198 247 311 356
#     4  10  22  39  60  88 125 165 199 247 307 359
#
# _framework density 21.698174000000002
#
# number of rings (size 3 to 8) (size 9 to 14) (size 15 to 20)
#    0.000    2.000    2.500    3.750    0.000    5.500 
#    4.500    0.000    0.000    0.750    0.000    0.000 
#    0.000    0.000    0.000    0.000    0.000    0.000 
#
# Total GULP energy -198285.826112 kJ/mol
# GULP energy per Si atom -12392.864132 kJ/mol
# Density = 2.164879 g / cm^3
# Si number density = 21.698174 Si / 1000 Ang^3
#
#
#
# Elastic Constant Matrix: (Units=GPa)
#
#
# Indices 1 2 3 4 5 6 
#
# 1 71.1787 35.0712 38.4939 -11.7570 -3.4500 3.6987
# 2 35.0712 113.8096 66.0286 -0.8346 -9.3062 3.8144
# 3 38.4939 66.0286 117.8093 -15.6660 -10.1911 4.2180
# 4 -11.7570 -0.8346 -15.6660 41.8219 -1.0319 3.5158
# 5 -3.4500 -9.3062 -10.1911 -1.0319 27.4747 1.4935
# 6 3.6987 3.8144 4.2180 3.5158 1.4935 15.9330
#
#
#
# Elastic Compliance Matrix: (Units=1/GPa)
#
#
# Indices 1 2 3 4 5 6 
#
# 1 0.018509 -0.003609 -0.003324 0.004185 0.000216 -0.003496
# 2 -0.003609 0.014074 -0.007007 -0.003311 0.001595 -0.000095
# 3 -0.003324 -0.007007 0.014465 0.004640 0.002894 -0.002675
# 4 0.004185 -0.003311 0.004640 0.027471 0.002576 -0.007711
# 5 0.000216 0.001595 0.002894 0.002576 0.038427 -0.005369
# 6 -0.003496 -0.000095 -0.002675 -0.007711 -0.005369 0.066510
#
#
# Mechanical properties :
#
#
# Convention : Reuss Voigt Hill
#
# Bulk Modulus (GPa) = 52.17770 64.66498 58.42134
# Shear Modulus (GPa) = 23.39434 27.92620 25.66027
#
# Velocity S-wave (km/s) = 3.28711 3.59141 3.44263
# Velocity P-wave (km/s) = 6.20533 6.86035 6.54104
#
# Compressibility (1/GPa) = 0.01916528
#
# Stress axis : x y z
#
# Youngs Moduli (GPa) = 54.02817 71.05442 69.13135
#
# Poissons Ratio (x) = 0.25647 0.22982
# Poissons Ratio (y) = 0.19501 0.48443
# Poissons Ratio (z) = 0.17961 0.49791
#
# Static dielectric constant tensor:
#      x y z
#    x 3.837480 0.221410 0.066320 
#    y 0.221410 3.886640 -0.194650 
#    z 0.066320 -0.194650 4.084700 
# 
# 
# High freq. dielectric constant tensor:
#      x y z
#    x 1.840630 0.026590 0.005360 
#    y 0.026590 1.830810 -0.021790 
#    z 0.005360 -0.021790 1.864400 
# 
# From -- ./inp_files/308409.got.cif
#   From: 2010.06.25/outbox.cif.g09.slc.cpg/sg2_155_cif.got.tgz:308409.got - 2010.06.27 13:26:56.
