data_PCOD8003448
_publ_section_title
;
Structure prediction by ZEFSAII (Michael W. Deem and Ramdas Pophale) SiO2 
 PCOD8003448
Probable space group: P -1
;
_chemical_formula_sum "Si O2"
_cell_formula_units_Z 16
_cell_length_a 8.872879
_cell_length_b 5.163403
_cell_length_c 19.003751
_cell_angle_alpha 88.191545
_cell_angle_beta 78.643854
_cell_angle_gamma 119.525341
_cell_volume 734.260388
_symmetry_space_group_name_H-M "P -1"
_symmetry_group_IT_number 2
_symmetry_cell_setting 'triclinic'
loop_
_space_group_symop_operation_xyz
x,y,z
-x,-y,-z
loop_
_atom_site_type_symbol
_atom_site_label
_atom_site_fract_x
_atom_site_fract_y
_atom_site_fract_z
Si Si1 0.241447 0.318594 0.163392
Si Si2 0.848986 0.041271 0.221459
Si Si3 0.271387 0.989318 0.289452
Si Si4 0.223175 0.959340 0.450775
Si Si5 0.532109 0.783289 0.950083
Si Si6 0.802612 0.574151 0.468965
Si Si7 0.534218 0.957299 0.166500
Si Si8 0.125810 0.459192 0.692287
O O1 0.252879 0.236411 0.244285
O O2 0.274840 0.109001 0.106507
O O3 0.396662 0.665251 0.135119
O O4 0.044821 0.265105 0.168564
O O5 0.802375 0.213159 0.283807
O O6 0.709122 0.946015 0.171257
O O7 0.838197 0.743266 0.255379
O O8 0.313646 0.090874 0.365721
O O9 0.435335 0.960431 0.246598
O O10 0.084134 0.675105 0.302760
O O11 0.287227 0.741723 0.478709
O O12 0.011383 0.773218 0.463654
O O13 0.287344 0.239569 0.495794
O O14 0.411733 0.750975 0.891649
O O15 0.500000 0.500000 0.000000
O O16 0.500000 0.000000 0.000000
O O17 0.768187 0.509351 0.389610
#
# Coordination Sequence:
#
# PCOD8003448 Si02
#       8
#     2   2   2   2   2   2   2   2
#     4  10  22  42  66  94 126 160 203 248 301 360
#     4  11  24  38  64  94 124 159 207 256 298 355
#     4   9  20  34  60  89 121 160 207 259 307 356
#     4   9  17  28  50  81 112 153 207 251 300 364
#     4  11  23  43  70  95 127 165 195 240 299 359
#     4   9  17  29  49  79 115 156 202 252 304 365
#     4  11  23  41  68  94 124 160 205 247 302 359
#     4  10  20  37  57  87 125 161 205 259 312 355
#
# _framework density 21.790635000000002
#
# number of rings (size 3 to 8) (size 9 to 14) (size 15 to 20)
#    0.000    2.000    2.500    0.750    5.250    3.000 
#    0.000    1.250    0.000    4.500    0.000    0.000 
#    0.000    0.000    0.000    0.000    0.000    0.000 
#
# Total GULP energy -198250.311904 kJ/mol
# GULP energy per Si atom -12390.644494 kJ/mol
# Density = 2.174104 g / cm^3
# Si number density = 21.790635 Si / 1000 Ang^3
#
#
#
# Elastic Constant Matrix: (Units=GPa)
#
#
# Indices 1 2 3 4 5 6 
#
# 1 118.1890 37.6863 55.5389 2.2920 3.4554 -8.0517
# 2 37.6863 70.3728 37.6311 2.4716 -7.9945 -25.2346
# 3 55.5389 37.6311 153.5107 -3.1568 -9.4647 -15.2020
# 4 2.2920 2.4716 -3.1568 32.2736 -17.7184 -1.3961
# 5 3.4554 -7.9945 -9.4647 -17.7184 24.3988 5.2670
# 6 -8.0517 -25.2346 -15.2020 -1.3961 5.2670 33.4943
#
#
#
# Elastic Compliance Matrix: (Units=1/GPa)
#
#
# Indices 1 2 3 4 5 6 
#
# 1 0.012521 -0.006271 -0.003905 -0.005906 -0.009136 -0.002297
# 2 -0.006271 0.024712 -0.001772 0.002966 0.007148 0.015306
# 3 -0.003905 -0.001772 0.008993 0.005195 0.007035 0.000918
# 4 -0.005906 0.002966 0.005195 0.056381 0.045106 -0.001570
# 5 -0.009136 0.007148 0.007035 0.045106 0.081075 -0.004487
# 6 -0.002297 0.015306 0.000918 -0.001570 -0.004487 0.041892
#
#
# Mechanical properties :
#
#
# Convention : Reuss Voigt Hill
#
# Bulk Modulus (GPa) = 44.78151 67.08724 55.93438
# Shear Modulus (GPa) = 19.46188 32.11442 25.78815
#
# Velocity S-wave (km/s) = 2.99177 3.84314 3.44386
# Velocity P-wave (km/s) = 5.70348 7.10964 6.44502
#
# Compressibility (1/GPa) = 0.02233065
#
# Stress axis : x y z
#
# Youngs Moduli (GPa) = 79.86765 40.46619 111.20116
#
# Poissons Ratio (x) = 0.25376 0.43422
# Poissons Ratio (y) = 0.50085 0.19700
# Poissons Ratio (z) = 0.31187 0.07169
#
# Static dielectric constant tensor:
#      x y z
#    x 3.847690 -0.324080 -0.120450 
#    y -0.324080 3.949190 -0.011870 
#    z -0.120450 -0.011870 4.212740 
# 
# 
# High freq. dielectric constant tensor:
#      x y z
#    x 1.841190 -0.033290 -0.005560 
#    y -0.033290 1.833200 -0.001600 
#    z -0.005560 -0.001600 1.864370 
# 
# From -- ./inp_files/105596.got.cif
#   From: 2010.06.25/outbox.cif.g09.slc.cpg/sg2_53_cif.got.tgz:105596.got - 2010.06.27 13:26:56.
