data_PCOD8003006
_publ_section_title
;
Structure prediction by ZEFSAII (Michael W. Deem and Ramdas Pophale) SiO2 
 PCOD8003006
Probable space group: P -1
;
_chemical_formula_sum "Si O2"
_cell_formula_units_Z 16
_cell_length_a 8.589114
_cell_length_b 16.790322
_cell_length_c 10.603342
_cell_angle_alpha 110.529156
_cell_angle_beta 109.629893
_cell_angle_gamma 33.615176
_cell_volume 789.947133
_symmetry_space_group_name_H-M "P -1"
_symmetry_group_IT_number 2
_symmetry_cell_setting 'triclinic'
loop_
_space_group_symop_operation_xyz
x,y,z
-x,-y,-z
loop_
_atom_site_type_symbol
_atom_site_label
_atom_site_fract_x
_atom_site_fract_y
_atom_site_fract_z
Si Si1 0.814521 0.107009 0.892364
Si Si2 0.230232 0.275460 0.830175
Si Si3 0.732279 0.059122 0.282940
Si Si4 0.051317 0.777729 0.317124
Si Si5 0.182301 0.267223 0.104482
Si Si6 0.050636 0.474752 0.690157
Si Si7 0.738801 0.328402 0.960217
Si Si8 0.465240 0.325934 0.503441
O O1 0.564993 0.143063 0.828925
O O2 0.681359 0.258086 0.963362
O O3 0.995309 0.026091 0.769272
O O4 0.000000 0.000000 0.000000
O O5 0.115134 0.239377 0.707526
O O6 0.078202 0.416847 0.798613
O O7 0.159288 0.308675 0.977181
O O8 0.503461 0.120192 0.153683
O O9 0.617293 0.181934 0.405049
O O10 0.816823 0.949393 0.341209
O O11 0.215901 0.701490 0.190285
O O12 0.298853 0.697846 0.440115
O O13 0.028001 0.395717 0.228769
O O14 0.022202 0.243986 0.059170
O O15 0.342832 0.351524 0.622434
O O16 0.798631 0.534467 0.576220
O O17 0.500000 0.500000 0.000000
#
# Coordination Sequence:
#
# PCOD8003006 Si02
#       8
#     2   2   2   2   2   2   2   2
#     4  11  22  37  59  88 123 151 191 244 299 351
#     4  11  22  36  58  89 121 148 189 250 300 340
#     4  10  21  39  61  84 114 160 194 238 288 359
#     4  10  22  36  60  84 120 157 193 239 290 349
#     4  10  20  36  61  89 118 148 193 238 302 351
#     4  10  21  38  63  86 116 153 199 244 285 349
#     4  10  21  36  59  86 118 157 194 238 294 360
#     4  10  21  41  61  81 113 162 205 231 285 348
#
# _framework density 20.254519999999999
#
# number of rings (size 3 to 8) (size 9 to 14) (size 15 to 20)
#    0.000    1.750    1.250    3.750    1.750    3.000 
#    0.000    2.500    2.750    0.000    0.000    0.000 
#    0.000    0.000    0.000    0.000    0.000    0.000 
#
# Total GULP energy -198338.767292 kJ/mol
# GULP energy per Si atom -12396.172956 kJ/mol
# Density = 2.020842 g / cm^3
# Si number density = 20.254520 Si / 1000 Ang^3
#
#
#
# Elastic Constant Matrix: (Units=GPa)
#
#
# Indices 1 2 3 4 5 6 
#
# 1 98.2140 40.6066 37.8117 -7.7054 25.1059 -14.2655
# 2 40.6066 99.2765 32.6254 0.0323 12.7938 -10.5948
# 3 37.8117 32.6254 83.9161 -8.2357 22.9799 -19.5991
# 4 -7.7054 0.0323 -8.2357 39.6354 -8.9532 1.1051
# 5 25.1059 12.7938 22.9799 -8.9532 34.4184 -9.8022
# 6 -14.2655 -10.5948 -19.5991 1.1051 -9.8022 27.1780
#
#
#
# Elastic Compliance Matrix: (Units=1/GPa)
#
#
# Indices 1 2 3 4 5 6 
#
# 1 0.015050 -0.004164 -0.002799 0.000747 -0.006868 0.001750
# 2 -0.004164 0.012864 -0.003159 -0.001455 0.000179 0.000674
# 3 -0.002799 -0.003159 0.018145 0.001608 -0.006176 0.008091
# 4 0.000747 -0.001455 0.001608 0.027145 0.006630 0.002272
# 5 -0.006868 0.000179 -0.006176 0.006630 0.041786 0.006812
# 6 0.001750 0.000674 0.008091 0.002272 0.006812 0.046175
#
#
# Mechanical properties :
#
#
# Convention : Reuss Voigt Hill
#
# Bulk Modulus (GPa) = 38.74002 55.94378 47.34190
# Shear Modulus (GPa) = 26.31376 31.60387 28.95882
#
# Velocity S-wave (km/s) = 3.60829 3.95440 3.78530
# Velocity P-wave (km/s) = 6.04382 6.96635 6.52142
#
# Compressibility (1/GPa) = 0.02581310
#
# Stress axis : x y z
#
# Youngs Moduli (GPa) = 66.44635 77.73799 55.11126
#
# Poissons Ratio (x) = 0.32371 0.15428
# Poissons Ratio (y) = 0.27669 0.17410
# Poissons Ratio (z) = 0.18602 0.24558
#
# Static dielectric constant tensor:
#      x y z
#    x 3.798010 -0.060840 0.300370 
#    y -0.060840 3.869980 -0.145990 
#    z 0.300370 -0.145990 3.789860 
# 
# 
# High freq. dielectric constant tensor:
#      x y z
#    x 1.777260 -0.014210 0.017620 
#    y -0.014210 1.799270 -0.009000 
#    z 0.017620 -0.009000 1.794230 
# 
# From -- ./inp_files/187430.got.cif
#   From: 2010.06.25/outbox.cif.g09.slc.cpg/sg2_94_cif.got.tgz:187430.got - 2010.06.27 13:26:56.
