data_PCOD8003111
_publ_section_title
;
Structure prediction by ZEFSAII (Michael W. Deem and Ramdas Pophale) SiO2 
 PCOD8003111
Probable space group: P -1
;
_chemical_formula_sum "Si O2"
_cell_formula_units_Z 16
_cell_length_a 9.022313
_cell_length_b 23.376409
_cell_length_c 8.763146
_cell_angle_alpha 30.154656
_cell_angle_beta 61.743669
_cell_angle_gamma 54.968449
_cell_volume 759.051148
_symmetry_space_group_name_H-M "P -1"
_symmetry_group_IT_number 2
_symmetry_cell_setting 'triclinic'
loop_
_space_group_symop_operation_xyz
x,y,z
-x,-y,-z
loop_
_atom_site_type_symbol
_atom_site_label
_atom_site_fract_x
_atom_site_fract_y
_atom_site_fract_z
Si Si1 0.940432 0.335314 0.207523
Si Si2 0.848570 0.956741 0.604552
Si Si3 0.534199 0.939034 0.286280
Si Si4 0.762278 0.669449 0.710275
Si Si5 0.774938 0.503144 0.607825
Si Si6 0.867312 0.948315 0.270330
Si Si7 0.914373 0.679202 0.280655
Si Si8 0.409032 0.525787 0.821168
O O1 0.768589 0.348912 0.370757
O O2 0.073685 0.384287 0.125246
O O3 0.036289 0.197260 0.429323
O O4 0.863796 0.423459 0.898400
O O5 0.830924 0.999934 0.338902
O O6 0.653968 0.025801 0.615028
O O7 0.910331 0.810600 0.927478
O O8 0.000000 0.000000 0.500000
O O9 0.619941 0.794128 0.559690
O O10 0.673411 0.988496 0.189749
O O11 0.500000 0.000000 0.000000
O O12 0.838867 0.690846 0.460991
O O13 0.651852 0.582505 0.951865
O O14 0.796708 0.633805 0.320909
O O15 0.562131 0.533467 0.613457
O O16 0.881045 0.424610 0.591126
O O17 0.000000 0.000000 0.000000
O O18 0.500000 0.500000 0.000000
#
# Coordination Sequence:
#
# PCOD8003111 Si02
#       8
#     2   2   2   2   2   2   2   2
#     4  10  21  39  64  90 125 165 210 261 322 378
#     4  12  26  43  67  94 135 176 218 279 327 390
#     4  11  24  42  66  95 127 172 224 267 332 389
#     4  11  22  38  65  91 129 166 211 264 324 382
#     4  10  22  40  66  94 125 171 212 259 325 381
#     4  11  25  44  66  96 129 174 222 277 328 394
#     4  11  22  40  65  92 131 164 213 260 329 380
#     4  10  20  36  62  94 118 164 210 257 309 386
#
# _framework density 21.078949000000001
#
# number of rings (size 3 to 8) (size 9 to 14) (size 15 to 20)
#    0.000    1.250    5.000    1.500    3.500    3.000 
#    0.000    0.625    0.000    0.000    0.000    0.000 
#    0.000    0.000    0.000    0.000    0.000    0.000 
#
# Total GULP energy -198336.646752 kJ/mol
# GULP energy per Si atom -12396.040422 kJ/mol
# Density = 2.103097 g / cm^3
# Si number density = 21.078949 Si / 1000 Ang^3
#
#
#
# Elastic Constant Matrix: (Units=GPa)
#
#
# Indices 1 2 3 4 5 6 
#
# 1 172.4094 74.7964 39.7854 1.7044 -16.1664 -16.5126
# 2 74.7964 149.4071 29.4429 9.9392 -11.2605 -16.0044
# 3 39.7854 29.4429 60.3906 4.9290 -13.6854 2.4290
# 4 1.7044 9.9392 4.9290 29.6853 -3.2589 -2.1191
# 5 -16.1664 -11.2605 -13.6854 -3.2589 32.6619 5.5950
# 6 -16.5126 -16.0044 2.4290 -2.1191 5.5950 43.3837
#
#
#
# Elastic Compliance Matrix: (Units=1/GPa)
#
#
# Indices 1 2 3 4 5 6 
#
# 1 0.008400 -0.003217 -0.003906 0.001528 0.001196 0.002149
# 2 -0.003217 0.009129 -0.002222 -0.002347 0.000022 0.002150
# 3 -0.003906 -0.002222 0.022208 -0.002260 0.007166 -0.004584
# 4 0.001528 -0.002347 -0.002260 0.035101 0.002286 0.001262
# 5 0.001196 0.000022 0.007166 0.002286 0.035195 -0.004365
# 6 0.002149 0.002150 -0.004584 0.001262 -0.004365 0.025543
#
#
# Mechanical properties :
#
#
# Convention : Reuss Voigt Hill
#
# Bulk Modulus (GPa) = 47.50845 74.47293 60.99069
# Shear Modulus (GPa) = 31.00194 37.02502 34.01348
#
# Velocity S-wave (km/s) = 3.83920 4.19560 4.02135
# Velocity P-wave (km/s) = 6.49922 7.67320 7.11048
#
# Compressibility (1/GPa) = 0.02104889
#
# Stress axis : x y z
#
# Youngs Moduli (GPa) = 119.04958 109.53540 45.02932
#
# Poissons Ratio (x) = 0.35234 0.17587
# Poissons Ratio (y) = 0.38295 0.10005
# Poissons Ratio (z) = 0.46496 0.24336
#
# Static dielectric constant tensor:
#      x y z
#    x 4.505330 -0.605130 0.057470 
#    y -0.605130 4.720630 -0.234770 
#    z 0.057470 -0.234770 3.806210 
# 
# 
# High freq. dielectric constant tensor:
#      x y z
#    x 1.834520 -0.007120 -0.009490 
#    y -0.007120 1.851040 -0.003270 
#    z -0.009490 -0.003270 1.807090 
# 
# From -- ./inp_files/225155.got.cif
#   From: 2010.06.25/outbox.cif.g09.slc.cpg/sg2_113_cif.got.tgz:225155.got - 2010.06.27 13:26:56.
