data_PCOD8003739
_publ_section_title
;
Structure prediction by ZEFSAII (Michael W. Deem and Ramdas Pophale) SiO2 
 PCOD8003739
Probable space group: P -1
;
_chemical_formula_sum "Si O2"
_cell_formula_units_Z 16
_cell_length_a 17.376570
_cell_length_b 5.070142
_cell_length_c 11.171132
_cell_angle_alpha 67.908375
_cell_angle_beta 66.723842
_cell_angle_gamma 103.519586
_cell_volume 748.418810
_symmetry_space_group_name_H-M "P -1"
_symmetry_group_IT_number 2
_symmetry_cell_setting 'triclinic'
loop_
_space_group_symop_operation_xyz
x,y,z
-x,-y,-z
loop_
_atom_site_type_symbol
_atom_site_label
_atom_site_fract_x
_atom_site_fract_y
_atom_site_fract_z
Si Si1 0.702584 0.178967 0.935413
Si Si2 0.609644 0.632648 0.921614
Si Si3 0.184216 0.160508 0.599229
Si Si4 0.247237 0.869198 0.422951
Si Si5 0.126985 0.777015 0.305228
Si Si6 0.980579 0.365771 0.296346
Si Si7 0.898476 0.756652 0.145536
Si Si8 0.843882 0.571123 0.953126
O O1 0.635405 0.345997 0.932069
O O2 0.793691 0.331926 0.766085
O O3 0.747938 0.261370 0.026490
O O4 0.643657 0.803387 0.002538
O O5 0.660077 0.898539 0.744444
O O6 0.500000 0.500000 0.000000
O O7 0.248381 0.533449 0.482661
O O8 0.154480 0.078681 0.772147
O O9 0.248257 0.003844 0.533132
O O10 0.083830 0.016878 0.610944
O O11 0.148852 0.833348 0.424810
O O12 0.024521 0.494768 0.379579
O O13 0.146593 0.107678 0.172236
O O14 0.067138 0.485396 0.129234
O O15 0.909136 0.506665 0.273049
O O16 0.836427 0.591493 0.096534
O O17 0.000000 0.000000 0.000000
#
# Coordination Sequence:
#
# PCOD8003739 Si02
#       8
#     2   2   2   2   2   2   2   2
#     4  10  20  37  60  98 123 147 198 240 316 358
#     4  11  22  42  70  96 122 153 189 247 317 390
#     4  12  25  40  57  85 125 173 208 247 306 342
#     4  11  24  41  59  87 130 152 198 250 311 394
#     4  10  21  38  60  84 125 168 200 256 304 346
#     4  11  22  37  55  88 115 169 228 248 301 329
#     4  12  23  40  58  84 119 171 234 265 278 330
#     4  11  21  37  64  84 124 164 214 269 286 336
#
# _framework density 21.378405000000001
#
# number of rings (size 3 to 8) (size 9 to 14) (size 15 to 20)
#    0.000    1.000    6.250    2.250    1.750    1.000 
#    0.000    0.000    0.000    0.000    0.000    5.250 
#    0.000    0.000    0.000    0.000    0.000    0.000 
#
# Total GULP energy -198242.797542 kJ/mol
# GULP energy per Si atom -12390.174846 kJ/mol
# Density = 2.132975 g / cm^3
# Si number density = 21.378405 Si / 1000 Ang^3
#
#
#
# Elastic Constant Matrix: (Units=GPa)
#
#
# Indices 1 2 3 4 5 6 
#
# 1 35.2620 19.5065 -9.9561 2.8018 -17.2706 -0.4335
# 2 19.5065 134.0429 29.2503 20.7817 -5.6818 7.4098
# 3 -9.9561 29.2503 48.6588 11.9120 -5.1035 9.8352
# 4 2.8018 20.7817 11.9120 36.8948 8.3038 3.5789
# 5 -17.2706 -5.6818 -5.1035 8.3038 32.7302 -3.2568
# 6 -0.4335 7.4098 9.8352 3.5789 -3.2568 36.6055
#
#
#
# Elastic Compliance Matrix: (Units=1/GPa)
#
#
# Indices 1 2 3 4 5 6 
#
# 1 0.063191 -0.010999 0.027661 -0.016615 0.040035 0.000729
# 2 -0.010999 0.011040 -0.009036 -0.001319 -0.004987 -0.000252
# 3 0.027661 -0.009036 0.038327 -0.013879 0.022044 -0.004823
# 4 -0.016615 -0.001319 -0.013879 0.038522 -0.021117 -0.001846
# 5 0.040035 -0.004987 0.022044 -0.021117 0.059901 0.002955
# 6 0.000729 -0.000252 -0.004823 -0.001846 0.002955 0.029117
#
#
# Mechanical properties :
#
#
# Convention : Reuss Voigt Hill
#
# Bulk Modulus (GPa) = 7.82418 32.84057 20.33237
# Shear Modulus (GPa) = 18.69506 33.19030 25.94268
#
# Velocity S-wave (km/s) = 2.96037 3.94447 3.48731
# Velocity P-wave (km/s) = 3.91828 6.01166 5.07410
#
# Compressibility (1/GPa) = 0.12780892
#
# Stress axis : x y z
#
# Youngs Moduli (GPa) = 15.82500 90.58147 26.09101
#
# Poissons Ratio (x) = 0.99632 -0.72169
# Poissons Ratio (y) = 0.17406 0.23576
# Poissons Ratio (z) = -0.43773 0.81851
#
# Static dielectric constant tensor:
#      x y z
#    x 3.623860 0.079800 0.124300 
#    y 0.079800 4.514230 0.322510 
#    z 0.124300 0.322510 3.797200 
# 
# 
# High freq. dielectric constant tensor:
#      x y z
#    x 1.787440 -0.006350 -0.001840 
#    y -0.006350 1.875510 0.021770 
#    z -0.001840 0.021770 1.812940 
# 
# From -- ./inp_files/459079.got.cif
#   From: 2010.06.25/outbox.cif.g09.slc.cpg/sg2_230_cif.got.tgz:459079.got - 2010.06.27 13:26:56.
