data_PCOD8003020
_publ_section_title
;
Structure prediction by ZEFSAII (Michael W. Deem and Ramdas Pophale) SiO2 
 PCOD8003020
Probable space group: P -1
;
_chemical_formula_sum "Si O2"
_cell_formula_units_Z 12
_cell_length_a 9.484852
_cell_length_b 15.568995
_cell_length_c 9.156650
_cell_angle_alpha 38.717213
_cell_angle_beta 110.822594
_cell_angle_gamma 132.141036
_cell_volume 584.508450
_symmetry_space_group_name_H-M "P -1"
_symmetry_group_IT_number 2
_symmetry_cell_setting 'triclinic'
loop_
_space_group_symop_operation_xyz
x,y,z
-x,-y,-z
loop_
_atom_site_type_symbol
_atom_site_label
_atom_site_fract_x
_atom_site_fract_y
_atom_site_fract_z
Si Si1 0.153818 0.470153 0.624370
Si Si2 0.332037 0.515593 0.935847
Si Si3 0.221107 0.905247 0.952310
Si Si4 0.532471 0.212154 0.851455
Si Si5 0.443321 0.118822 0.279156
Si Si6 0.064820 0.891850 0.616944
O O1 0.273217 0.552351 0.713371
O O2 0.325480 0.568890 0.427939
O O3 0.000000 0.500000 0.500000
O O4 0.012852 0.247749 0.871356
O O5 0.418274 0.688468 0.839160
O O6 0.500000 0.500000 0.000000
O O7 0.128765 0.326762 0.186508
O O8 0.220934 0.934896 0.740949
O O9 0.324630 0.088331 0.844030
O O10 0.339883 0.835670 0.105030
O O11 0.482704 0.173624 0.052541
O O12 0.500000 0.000000 0.500000
O O13 0.200885 0.987279 0.394116
O O14 0.000000 0.000000 0.500000
#
# Coordination Sequence:
#
# PCOD8003020 Si02
#       6
#     2   2   2   2   2   2
#     4   9  20  37  63  91 121 170 219 253 315 394
#     4  11  24  43  69  92 131 177 214 264 332 389
#     4   9  19  37  61  89 122 169 205 254 323 379
#     4  10  20  36  61  91 126 160 208 268 313 370
#     4  12  25  40  65 103 130 162 221 277 316 378
#     4  11  22  42  68  91 128 174 215 256 329 397
#
# _framework density 20.530071
#
# number of rings (size 3 to 8) (size 9 to 14) (size 15 to 20)
#    0.000    1.667    3.333    1.000    4.667    2.000 
#    0.000    1.667    0.000    0.000    0.000    0.000 
#    0.000    0.000    0.000    0.000    0.000    0.000 
#
# Total GULP energy -148694.779393 kJ/mol
# GULP energy per Si atom -12391.231616 kJ/mol
# Density = 2.048334 g / cm^3
# Si number density = 20.530071 Si / 1000 Ang^3
#
#
#
# Elastic Constant Matrix: (Units=GPa)
#
#
# Indices 1 2 3 4 5 6 
#
# 1 82.1873 48.0042 49.8889 -13.1779 -26.6996 -1.1084
# 2 48.0042 141.3596 62.6098 -12.7193 -23.1356 7.6932
# 3 49.8889 62.6098 127.6285 -12.3896 -50.9445 -3.0202
# 4 -13.1779 -12.7193 -12.3896 33.5315 -0.0161 2.4052
# 5 -26.6996 -23.1356 -50.9445 -0.0161 51.9762 -0.5524
# 6 -1.1084 7.6932 -3.0202 2.4052 -0.5524 24.6629
#
#
#
# Elastic Compliance Matrix: (Units=1/GPa)
#
#
# Indices 1 2 3 4 5 6 
#
# 1 0.018566 -0.003863 -0.002874 0.004675 0.005016 0.001344
# 2 -0.003863 0.010288 -0.004109 0.001154 -0.001475 -0.004031
# 3 -0.002874 -0.004109 0.016515 0.003194 0.012916 0.003153
# 4 0.004675 0.001154 0.003194 0.033488 0.006026 -0.002890
# 5 0.005016 -0.001475 0.012916 0.006026 0.033847 0.002438
# 6 0.001344 -0.004031 0.003153 -0.002890 0.002438 0.042587
#
#
# Mechanical properties :
#
#
# Convention : Reuss Voigt Hill
#
# Bulk Modulus (GPa) = 42.23751 74.68681 58.46216
# Shear Modulus (GPa) = 27.04535 34.74562 30.89548
#
# Velocity S-wave (km/s) = 3.63347 4.11837 3.88350
# Velocity P-wave (km/s) = 6.18231 7.68589 6.97473
#
# Compressibility (1/GPa) = 0.02367564
#
# Stress axis : x y z
#
# Youngs Moduli (GPa) = 53.86285 97.20271 60.55264
#
# Poissons Ratio (x) = 0.37552 0.17404
# Poissons Ratio (y) = 0.20809 0.24880
# Poissons Ratio (z) = 0.15481 0.39938
#
# Static dielectric constant tensor:
#      x y z
#    x 3.544310 0.334400 -0.241770 
#    y 0.334400 3.870070 -0.302470 
#    z -0.241770 -0.302470 4.021960 
# 
# 
# High freq. dielectric constant tensor:
#      x y z
#    x 1.773520 0.028590 -0.017440 
#    y 0.028590 1.802400 -0.008530 
#    z -0.017440 -0.008530 1.826310 
# 
# From -- ./inp_files/160302.got.cif
#   From: 2010.06.25/outbox.cif.g09.slc.cpg/sg2_81_cif.got.tgz:160302.got - 2010.06.27 13:26:56.
