data_PCOD8003971
_publ_section_title
;
Structure prediction by ZEFSAII (Michael W. Deem and Ramdas Pophale) SiO2 
 PCOD8003971
Probable space group: P -1
;
_chemical_formula_sum "Si O2"
_cell_formula_units_Z 14
_cell_length_a 5.119587
_cell_length_b 9.578884
_cell_length_c 19.280748
_cell_angle_alpha 139.146102
_cell_angle_beta 92.257291
_cell_angle_gamma 91.266431
_cell_volume 616.068786
_symmetry_space_group_name_H-M "P -1"
_symmetry_group_IT_number 2
_symmetry_cell_setting 'triclinic'
loop_
_space_group_symop_operation_xyz
x,y,z
-x,-y,-z
loop_
_atom_site_type_symbol
_atom_site_label
_atom_site_fract_x
_atom_site_fract_y
_atom_site_fract_z
Si Si1 0.987590 0.246158 0.573637
Si Si2 0.616236 0.741748 0.080576
Si Si3 0.004259 0.158503 0.386768
Si Si4 0.484819 0.494686 0.297056
Si Si5 0.630858 0.569916 0.877202
Si Si6 0.509070 0.828560 0.699079
Si Si7 0.892625 0.693164 0.191182
O O1 0.225949 0.388778 0.665392
O O2 0.715500 0.322470 0.627575
O O3 0.005829 0.289139 0.507316
O O4 0.000000 0.000000 0.500000
O O5 0.892604 0.753877 0.130916
O O6 0.448888 0.928491 0.179621
O O7 0.500000 0.500000 0.000000
O O8 0.639172 0.768116 0.006848
O O9 0.973299 0.909022 0.315146
O O10 0.277638 0.213734 0.372087
O O11 0.772496 0.222118 0.358304
O O12 0.413164 0.356756 0.174528
O O13 0.463026 0.331314 0.297983
O O14 0.407289 0.382315 0.821700
O O15 0.915707 0.483839 0.854997
#
# Coordination Sequence:
#
# PCOD8003971 Si02
#       7
#     2   2   2   2   2   2   2
#     4  12  26  44  68  93 120 162 211 255 308 366
#     4   9  20  38  65  93 121 161 209 252 301 366
#     4  11  22  41  65  88 123 161 204 258 306 359
#     4  12  26  42  61  93 131 163 204 253 305 371
#     4  11  21  37  61  88 127 163 199 255 310 356
#     4  11  25  41  62  94 127 163 205 250 308 368
#     4  10  20  37  62  94 120 155 207 262 306 356
#
# _framework density 22.724737000000001
#
# number of rings (size 3 to 8) (size 9 to 14) (size 15 to 20)
#    0.000    1.143    0.000    7.714    0.000    7.429 
#    0.000    0.000    0.000   10.286    0.000    0.000 
#    0.000    0.000    0.000    0.000    0.000    0.000 
#
# Total GULP energy -173550.926718 kJ/mol
# GULP energy per Si atom -12396.494766 kJ/mol
# Density = 2.267301 g / cm^3
# Si number density = 22.724737 Si / 1000 Ang^3
#
#
#
# Elastic Constant Matrix: (Units=GPa)
#
#
# Indices 1 2 3 4 5 6 
#
# 1 89.2588 10.7502 7.1269 6.0244 -6.8887 -19.4287
# 2 10.7502 78.1729 19.4984 -7.7733 -3.6906 -12.7502
# 3 7.1269 19.4984 103.5654 -33.7183 -2.5541 -17.1861
# 4 6.0244 -7.7733 -33.7183 38.2683 4.9425 7.4608
# 5 -6.8887 -3.6906 -2.5541 4.9425 24.1089 -4.2151
# 6 -19.4287 -12.7502 -17.1861 7.4608 -4.2151 26.6530
#
#
#
# Elastic Compliance Matrix: (Units=1/GPa)
#
#
# Indices 1 2 3 4 5 6 
#
# 1 0.015394 0.000059 -0.000796 -0.006890 0.008176 0.013958
# 2 0.000059 0.014371 -0.001625 -0.000190 0.003208 0.006430
# 3 -0.000796 -0.001625 0.014638 0.011849 -0.000537 0.004679
# 4 -0.006890 -0.000190 0.011849 0.041138 -0.011053 -0.010736
# 5 0.008176 0.003208 -0.000537 -0.011053 0.049679 0.018099
# 6 0.013958 0.006430 0.004679 -0.010736 0.018099 0.059655
#
#
# Mechanical properties :
#
#
# Convention : Reuss Voigt Hill
#
# Bulk Modulus (GPa) = 25.20273 38.41648 31.80960
# Shear Modulus (GPa) = 23.49343 33.38082 28.43712
#
# Velocity S-wave (km/s) = 3.21881 3.83681 3.54131
# Velocity P-wave (km/s) = 4.99287 6.04731 5.54521
#
# Compressibility (1/GPa) = 0.03967824
#
# Stress axis : x y z
#
# Youngs Moduli (GPa) = 64.95998 69.58572 68.31716
#
# Poissons Ratio (x) = -0.00411 0.05436
# Poissons Ratio (y) = -0.00383 0.11105
# Poissons Ratio (z) = 0.05169 0.11311
#
# Static dielectric constant tensor:
#      x y z
#    x 4.026890 -0.128390 0.036880 
#    y -0.128390 4.048160 -0.518680 
#    z 0.036880 -0.518680 4.853920 
# 
# 
# High freq. dielectric constant tensor:
#      x y z
#    x 1.895700 -0.014630 0.002790 
#    y -0.014630 1.883540 -0.024950 
#    z 0.002790 -0.024950 1.911420 
# 
# From -- ./inp_files/118452.got.cif
#   From: 2010.06.25/outbox.cif.g09.slc.cpg/sg2_60_cif.got.tgz:118452.got - 2010.06.27 13:26:56.
