data_PCOD8003223
_publ_section_title
;
Structure prediction by ZEFSAII (Michael W. Deem and Ramdas Pophale) SiO2 
 PCOD8003223
Probable space group: P -1
;
_chemical_formula_sum "Si O2"
_cell_formula_units_Z 12
_cell_length_a 13.138878
_cell_length_b 12.634814
_cell_length_c 13.982934
_cell_angle_alpha 136.982330
_cell_angle_beta 36.132975
_cell_angle_gamma 109.240832
_cell_volume 710.646812
_symmetry_space_group_name_H-M "P -1"
_symmetry_group_IT_number 2
_symmetry_cell_setting 'triclinic'
loop_
_space_group_symop_operation_xyz
x,y,z
-x,-y,-z
loop_
_atom_site_type_symbol
_atom_site_label
_atom_site_fract_x
_atom_site_fract_y
_atom_site_fract_z
Si Si1 0.808962 0.653031 0.171495
Si Si2 0.848479 0.567250 0.869328
Si Si3 0.078692 0.710943 0.692293
Si Si4 0.318906 0.857150 0.674801
Si Si5 0.328608 0.929132 0.495405
Si Si6 0.241516 0.654293 0.327651
O O1 0.573272 0.716320 0.429118
O O2 0.784669 0.851807 0.315315
O O3 0.875408 0.541606 0.945490
O O4 0.000000 0.500000 0.000000
O O5 0.899484 0.364226 0.654921
O O6 0.032483 0.577625 0.693512
O O7 0.596089 0.766788 0.159885
O O8 0.243414 0.721417 0.639695
O O9 0.200718 0.600576 0.426903
O O10 0.848736 0.943762 0.000267
O O11 0.307317 0.941875 0.634442
O O12 0.183254 0.871710 0.522011
O O13 0.500000 0.500000 0.000000
#
# Coordination Sequence:
#
# PCOD8003223 Si02
#       6
#     2   2   2   2   2   2
#     4  11  20  33  52  73 101 136 168 199 241 294
#     4  10  17  32  52  77  99 129 165 204 242 293
#     4  10  16  28  55  78 102 120 163 209 250 285
#     4   9  17  30  52  78  98 128 162 206 248 286
#     4   9  16  33  51  74 101 128 164 205 244 292
#     4   9  19  29  50  80 101 124 161 207 254 291
#
# _framework density 16.886025
#
# number of rings (size 3 to 8) (size 9 to 14) (size 15 to 20)
#    0.000    2.333    3.333    2.500    0.000    0.000 
#    0.000    1.667    0.000    1.000    0.000    0.000 
#    0.000    0.000    0.000    0.000    0.000    0.000 
#
# Total GULP energy -148738.465791 kJ/mol
# GULP energy per Si atom -12394.872149 kJ/mol
# Density = 1.684759 g / cm^3
# Si number density = 16.886025 Si / 1000 Ang^3
#
#
#
# Elastic Constant Matrix: (Units=GPa)
#
#
# Indices 1 2 3 4 5 6 
#
# 1 106.8119 51.3647 41.4624 9.2367 -3.4076 12.7645
# 2 51.3647 73.8663 27.2165 -4.9681 -13.6674 15.9650
# 3 41.4624 27.2165 74.5694 -14.7810 -1.5799 -2.2882
# 4 9.2367 -4.9681 -14.7810 30.2580 1.0115 -3.4247
# 5 -3.4076 -13.6674 -1.5799 1.0115 31.7029 -0.6597
# 6 12.7645 15.9650 -2.2882 -3.4247 -0.6597 27.8103
#
#
#
# Elastic Compliance Matrix: (Units=1/GPa)
#
#
# Indices 1 2 3 4 5 6 
#
# 1 0.020090 -0.010250 -0.010328 -0.013446 -0.002468 -0.005901
# 2 -0.010250 0.025911 -0.002952 0.004532 0.009577 -0.009628
# 3 -0.010328 -0.002952 0.023563 0.015386 -0.001486 0.010233
# 4 -0.013446 0.004532 0.015386 0.046611 0.000008 0.010576
# 5 -0.002468 0.009577 -0.001486 0.000008 0.035256 -0.003650
# 6 -0.005901 -0.009628 0.010233 0.010576 -0.003650 0.046251
#
#
# Mechanical properties :
#
#
# Convention : Reuss Voigt Hill
#
# Bulk Modulus (GPa) = 44.43803 55.03719 49.73761
# Shear Modulus (GPa) = 19.82222 26.96784 23.39503
#
# Velocity S-wave (km/s) = 3.42991 4.00065 3.72622
# Velocity P-wave (km/s) = 6.48532 7.34876 6.93050
#
# Compressibility (1/GPa) = 0.02250325
#
# Stress axis : x y z
#
# Youngs Moduli (GPa) = 49.77659 38.59366 42.44006
#
# Poissons Ratio (x) = 0.39559 0.43832
# Poissons Ratio (y) = 0.51022 0.12528
# Poissons Ratio (z) = 0.51409 0.11393
#
# Static dielectric constant tensor:
#      x y z
#    x 3.336620 0.578730 0.263230 
#    y 0.578730 3.111120 -0.238030 
#    z 0.263230 -0.238030 3.256150 
# 
# 
# High freq. dielectric constant tensor:
#      x y z
#    x 1.634370 0.046080 0.023960 
#    y 0.046080 1.633910 -0.031600 
#    z 0.023960 -0.031600 1.644860 
# 
# From -- ./inp_files/145636.got.cif
#   From: 2010.06.25/outbox.cif.g09.slc.cpg/sg2_73_cif.got.tgz:145636.got - 2010.06.27 13:26:56.
