data_PCOD8003050
_publ_section_title
;
Structure prediction by ZEFSAII (Michael W. Deem and Ramdas Pophale) SiO2 
 PCOD8003050
Probable space group: P -1
;
_chemical_formula_sum "Si O2"
_cell_formula_units_Z 16
_cell_length_a 14.464531
_cell_length_b 9.814172
_cell_length_c 9.517729
_cell_angle_alpha 112.015838
_cell_angle_beta 130.658775
_cell_angle_gamma 99.506143
_cell_volume 772.625976
_symmetry_space_group_name_H-M "P -1"
_symmetry_group_IT_number 2
_symmetry_cell_setting 'triclinic'
loop_
_space_group_symop_operation_xyz
x,y,z
-x,-y,-z
loop_
_atom_site_type_symbol
_atom_site_label
_atom_site_fract_x
_atom_site_fract_y
_atom_site_fract_z
Si Si1 0.871639 0.467066 0.460187
Si Si2 0.705293 0.622655 0.274403
Si Si3 0.670785 0.050827 0.102932
Si Si4 0.350799 0.467030 0.267664
Si Si5 0.406199 0.962969 0.671450
Si Si6 0.513267 0.693237 0.254141
Si Si7 0.827837 0.875732 0.235851
Si Si8 0.851923 0.437992 0.748345
O O1 0.844151 0.616522 0.446928
O O2 0.731994 0.259081 0.226361
O O3 0.915173 0.501713 0.679315
O O4 0.000000 0.500000 0.500000
O O5 0.652599 0.674800 0.382671
O O6 0.739444 0.768695 0.246990
O O7 0.580145 0.420461 0.019315
O O8 0.596965 0.967512 0.149521
O O9 0.797704 0.017237 0.200955
O O10 0.545868 0.945395 0.814401
O O11 0.500000 0.500000 0.500000
O O12 0.415616 0.618332 0.269178
O O13 0.246049 0.488551 0.276014
O O14 0.230362 0.270116 0.003848
O O15 0.251311 0.775876 0.414233
O O16 0.431531 0.101188 0.629140
O O17 0.000000 0.000000 0.500000
O O18 0.000000 0.500000 0.000000
#
# Coordination Sequence:
#
# PCOD8003050 Si02
#       8
#     2   2   2   2   2   2   2   2
#     4  11  23  40  67  93 133 171 223 272 330 396
#     4  10  20  36  61  99 125 160 224 278 322 377
#     4  10  20  36  64  97 125 162 223 274 322 381
#     4  11  25  44  65  92 136 182 222 269 347 411
#     4  10  20  38  63  92 128 169 217 273 327 392
#     4  10  20  36  66  92 126 167 221 277 323 390
#     4  11  23  38  67  95 133 173 225 277 330 395
#     4  11  27  42  63  95 139 177 215 273 348 407
#
# _framework density 20.708597999999999
#
# number of rings (size 3 to 8) (size 9 to 14) (size 15 to 20)
#    0.000    1.500    2.500    2.250    7.000    0.500 
#    0.000    2.500    0.000    5.250    0.000    0.000 
#    0.000    0.000    0.000    0.000    0.000    0.000 
#
# Total GULP energy -198228.585947 kJ/mol
# GULP energy per Si atom -12389.286622 kJ/mol
# Density = 2.066146 g / cm^3
# Si number density = 20.708598 Si / 1000 Ang^3
#
#
#
# Elastic Constant Matrix: (Units=GPa)
#
#
# Indices 1 2 3 4 5 6 
#
# 1 133.1292 42.9507 46.2493 -15.3969 10.4499 -7.3945
# 2 42.9507 115.1760 45.1386 -7.9314 8.2212 -12.4187
# 3 46.2493 45.1386 128.4077 -8.4299 19.2158 -8.2658
# 4 -15.3969 -7.9314 -8.4299 21.4989 -3.9695 10.1848
# 5 10.4499 8.2212 19.2158 -3.9695 32.8247 -9.6355
# 6 -7.3945 -12.4187 -8.2658 10.1848 -9.6355 33.7405
#
#
#
# Elastic Compliance Matrix: (Units=1/GPa)
#
#
# Indices 1 2 3 4 5 6 
#
# 1 0.009720 -0.002439 -0.002225 0.005625 -0.000870 -0.001259
# 2 -0.002439 0.010998 -0.002890 -0.000143 0.000581 0.003015
# 3 -0.002225 -0.002890 0.010321 0.000808 -0.004690 -0.000606
# 4 0.005625 -0.000143 0.000808 0.058527 0.000074 -0.016268
# 5 -0.000870 0.000581 -0.004690 0.000074 0.036035 0.009142
# 6 -0.001259 0.003015 -0.000606 -0.016268 0.009142 0.037845
#
#
# Mechanical properties :
#
#
# Convention : Reuss Voigt Hill
#
# Bulk Modulus (GPa) = 62.77050 71.70999 67.24025
# Shear Modulus (GPa) = 27.19397 33.77110 30.48254
#
# Velocity S-wave (km/s) = 3.62770 4.04267 3.84079
# Velocity P-wave (km/s) = 6.92272 7.51626 7.22559
#
# Compressibility (1/GPa) = 0.01593105
#
# Stress axis : x y z
#
# Youngs Moduli (GPa) = 102.87692 90.92353 96.89044
#
# Poissons Ratio (x) = 0.22177 0.21560
# Poissons Ratio (y) = 0.25092 0.28002
# Poissons Ratio (z) = 0.22892 0.26277
#
# Static dielectric constant tensor:
#      x y z
#    x 3.818020 -0.040870 0.119900 
#    y -0.040870 3.883150 -0.002620 
#    z 0.119900 -0.002620 3.705820 
# 
# 
# High freq. dielectric constant tensor:
#      x y z
#    x 1.807890 -0.005030 0.013830 
#    y -0.005030 1.820480 -0.002440 
#    z 0.013830 -0.002440 1.795940 
# 
# From -- ./inp_files/299357.got.cif
#   From: 2010.06.25/outbox.cif.g09.slc.cpg/sg2_150_cif.got.tgz:299357.got - 2010.06.27 13:26:56.
