data_PCOD8003559
_publ_section_title
;
Structure prediction by ZEFSAII (Michael W. Deem and Ramdas Pophale) SiO2 
 PCOD8003559
Probable space group: P -1
;
_chemical_formula_sum "Si O2"
_cell_formula_units_Z 14
_cell_length_a 16.630771
_cell_length_b 9.477268
_cell_length_c 6.018543
_cell_angle_alpha 47.573376
_cell_angle_beta 106.686261
_cell_angle_gamma 104.264555
_cell_volume 668.857988
_symmetry_space_group_name_H-M "P -1"
_symmetry_group_IT_number 2
_symmetry_cell_setting 'triclinic'
loop_
_space_group_symop_operation_xyz
x,y,z
-x,-y,-z
loop_
_atom_site_type_symbol
_atom_site_label
_atom_site_fract_x
_atom_site_fract_y
_atom_site_fract_z
Si Si1 0.317409 0.930564 0.426948
Si Si2 0.816895 0.288431 0.721842
Si Si3 0.974204 0.209714 0.217312
Si Si4 0.620088 0.656487 0.835490
Si Si5 0.562395 0.316477 0.460421
Si Si6 0.313706 0.640848 0.108730
Si Si7 0.068797 0.525710 0.714578
O O1 0.241936 0.888314 0.235855
O O2 0.402838 0.851739 0.482302
O O3 0.327371 0.157115 0.228279
O O4 0.295342 0.826630 0.753044
O O5 0.764275 0.401792 0.739237
O O6 0.841714 0.437765 0.380180
O O7 0.899331 0.207750 0.979928
O O8 0.944163 0.288535 0.343948
O O9 0.000000 0.000000 0.500000
O O10 0.057832 0.337112 0.062125
O O11 0.538238 0.716987 0.572108
O O12 0.680409 0.546833 0.837491
O O13 0.591159 0.523634 0.160717
O O14 0.598273 0.311901 0.742886
O O15 0.000000 0.500000 0.500000
#
# Coordination Sequence:
#
# PCOD8003559 Si02
#       7
#     2   2   2   2   2   2   2
#     4  10  21  37  56  84 119 155 195 241 292 340
#     4  10  21  40  57  82 125 155 182 237 294 344
#     4  10  21  41  66  90 111 146 196 236 283 347
#     4  10  20  37  59  85 115 155 201 242 288 340
#     4   9  20  37  58  83 116 153 199 250 288 335
#     4  10  21  37  56  83 119 155 195 239 288 343
#     4   9  20  40  63  86 116 147 183 233 288 342
#
# _framework density 20.9312
#
# number of rings (size 3 to 8) (size 9 to 14) (size 15 to 20)
#    0.000    2.286    0.000    1.714    0.000    5.143 
#    0.000   34.286    0.000    0.000    0.000    0.000 
#    0.000    0.000    0.000    0.000    0.000    0.000 
#
# Total GULP energy -173599.368499 kJ/mol
# GULP energy per Si atom -12399.954893 kJ/mol
# Density = 2.088356 g / cm^3
# Si number density = 20.931200 Si / 1000 Ang^3
#
#
#
# Elastic Constant Matrix: (Units=GPa)
#
#
# Indices 1 2 3 4 5 6 
#
# 1 103.1214 53.0492 37.1811 -8.1468 -13.0702 2.7794
# 2 53.0492 142.4704 56.4995 -15.7856 -7.4874 -1.1932
# 3 37.1811 56.4995 78.1741 -0.6035 1.3284 -8.7116
# 4 -8.1468 -15.7856 -0.6035 35.0502 2.6371 3.2931
# 5 -13.0702 -7.4874 1.3284 2.6371 31.9889 9.9387
# 6 2.7794 -1.1932 -8.7116 3.2931 9.9387 24.5785
#
#
#
# Elastic Compliance Matrix: (Units=1/GPa)
#
#
# Indices 1 2 3 4 5 6 
#
# 1 0.014472 -0.002372 -0.006100 0.002301 0.007701 -0.007336
# 2 -0.002372 0.011569 -0.007651 0.004658 0.002803 -0.003640
# 3 -0.006100 -0.007651 0.022733 -0.004997 -0.008721 0.012572
# 4 0.002301 0.004658 -0.004997 0.031580 0.001727 -0.006735
# 5 0.007701 0.002803 -0.008721 0.001727 0.041795 -0.020957
# 6 -0.007336 -0.003640 0.012572 -0.006735 -0.020957 0.055171
#
#
# Mechanical properties :
#
#
# Convention : Reuss Voigt Hill
#
# Bulk Modulus (GPa) = 60.49508 68.58062 64.53785
# Shear Modulus (GPa) = 23.24769 30.12594 26.68682
#
# Velocity S-wave (km/s) = 3.33629 3.79791 3.57456
# Velocity P-wave (km/s) = 6.61859 7.21582 6.92365
#
# Compressibility (1/GPa) = 0.01653027
#
# Stress axis : x y z
#
# Youngs Moduli (GPa) = 69.09816 86.43682 43.98836
#
# Poissons Ratio (x) = 0.20499 0.26832
# Poissons Ratio (y) = 0.16387 0.33655
# Poissons Ratio (z) = 0.42148 0.66131
#
# Static dielectric constant tensor:
#      x y z
#    x 4.016140 0.085090 -0.219790 
#    y 0.085090 3.774010 0.250030 
#    z -0.219790 0.250030 3.854260 
# 
# 
# High freq. dielectric constant tensor:
#      x y z
#    x 1.817100 0.002620 -0.007100 
#    y 0.002620 1.821410 0.021010 
#    z -0.007100 0.021010 1.812140 
# 
# From -- ./inp_files/8203.got.cif
#   From: 2010.06.25/outbox.cif.g09.slc.cpg/sg2_5_cif.got.tgz:8203.got - 2010.06.27 13:26:56.
