data_PCOD8003711
_publ_section_title
;
Structure prediction by ZEFSAII (Michael W. Deem and Ramdas Pophale) SiO2 
 PCOD8003711
Probable space group: P -1
;
_chemical_formula_sum "Si O2"
_cell_formula_units_Z 14
_cell_length_a 13.106607
_cell_length_b 13.531834
_cell_length_c 9.174830
_cell_angle_alpha 128.768845
_cell_angle_beta 131.972519
_cell_angle_gamma 34.939230
_cell_volume 681.140782
_symmetry_space_group_name_H-M "P -1"
_symmetry_group_IT_number 2
_symmetry_cell_setting 'triclinic'
loop_
_space_group_symop_operation_xyz
x,y,z
-x,-y,-z
loop_
_atom_site_type_symbol
_atom_site_label
_atom_site_fract_x
_atom_site_fract_y
_atom_site_fract_z
Si Si1 0.510803 0.805515 0.376923
Si Si2 0.750526 0.824797 0.439613
Si Si3 0.618897 0.557274 0.498375
Si Si4 0.111438 0.057749 0.125116
Si Si5 0.689986 0.252101 0.404979
Si Si6 0.031423 0.357924 0.803792
Si Si7 0.962668 0.872210 0.201530
O O1 0.697820 0.736057 0.406621
O O2 0.556079 0.650072 0.367414
O O3 0.439757 0.965945 0.564379
O O4 0.338109 0.881898 0.171206
O O5 0.913087 0.813194 0.658045
O O6 0.813848 0.728716 0.256385
O O7 0.605398 0.412976 0.363836
O O8 0.484289 0.701245 0.630756
O O9 0.834441 0.456112 0.630531
O O10 0.031367 0.165990 0.998130
O O11 0.000000 0.000000 0.000000
O O12 0.828729 0.219525 0.632433
O O13 0.805723 0.081484 0.259827
O O14 0.106473 0.201378 0.837749
O O15 0.000000 0.500000 0.000000
#
# Coordination Sequence:
#
# PCOD8003711 Si02
#       7
#     2   2   2   2   2   2   2
#     4   9  20  40  64  88 125 164 205 255 313 362
#     4   9  22  42  61  88 126 168 206 249 311 371
#     4  10  20  37  60  90 123 158 200 258 312 362
#     4  10  21  36  67  91 116 159 215 250 301 372
#     4   9  20  37  63  88 125 161 200 255 316 362
#     4  11  25  39  62  90 121 166 209 250 307 368
#     4  10  21  39  63  89 119 162 211 250 303 371
#
# _framework density 20.553754999999999
#
# number of rings (size 3 to 8) (size 9 to 14) (size 15 to 20)
#    0.857    1.429    0.000    1.714    8.000    1.714 
#    0.000    2.857    0.000    0.000    0.000    0.000 
#    0.000    0.000    0.000    0.000    0.000    0.000 
#
# Total GULP energy -173475.616054 kJ/mol
# GULP energy per Si atom -12391.115432 kJ/mol
# Density = 2.050697 g / cm^3
# Si number density = 20.553755 Si / 1000 Ang^3
#
#
#
# Elastic Constant Matrix: (Units=GPa)
#
#
# Indices 1 2 3 4 5 6 
#
# 1 149.5986 44.5372 46.6119 1.7606 -10.6035 9.0569
# 2 44.5372 84.3308 20.8526 1.0538 -12.0647 21.5814
# 3 46.6119 20.8526 92.2952 4.2317 -13.8929 9.0796
# 4 1.7606 1.0538 4.2317 24.9164 -2.8170 -8.1270
# 5 -10.6035 -12.0647 -13.8929 -2.8170 32.2496 -1.8156
# 6 9.0569 21.5814 9.0796 -8.1270 -1.8156 36.2289
#
#
#
# Elastic Compliance Matrix: (Units=1/GPa)
#
#
# Indices 1 2 3 4 5 6 
#
# 1 0.009014 -0.004185 -0.003779 0.000599 -0.000104 0.001316
# 2 -0.004185 0.017197 -0.000042 -0.003101 0.004224 -0.009671
# 3 -0.003779 -0.000042 0.013795 -0.002512 0.004305 -0.002835
# 4 0.000599 -0.003101 -0.002512 0.045040 0.002596 0.012561
# 5 -0.000104 0.004224 0.004305 0.002596 0.034565 -0.001255
# 6 0.001316 -0.009671 -0.002835 0.012561 -0.001255 0.036500
#
#
# Mechanical properties :
#
#
# Convention : Reuss Voigt Hill
#
# Bulk Modulus (GPa) = 41.67973 61.13644 51.40809
# Shear Modulus (GPa) = 27.75894 32.96050 30.35972
#
# Velocity S-wave (km/s) = 3.67897 4.00887 3.84746
# Velocity P-wave (km/s) = 6.19426 7.15802 6.69351
#
# Compressibility (1/GPa) = 0.02399248
#
# Stress axis : x y z
#
# Youngs Moduli (GPa) = 110.93857 58.15026 72.48899
#
# Poissons Ratio (x) = 0.24336 0.27396
# Poissons Ratio (y) = 0.46429 0.00307
# Poissons Ratio (z) = 0.41927 0.00246
#
# Static dielectric constant tensor:
#      x y z
#    x 3.768070 0.049450 0.059150 
#    y 0.049450 3.692890 -0.007210 
#    z 0.059150 -0.007210 3.422990 
# 
# 
# High freq. dielectric constant tensor:
#      x y z
#    x 1.813880 0.004480 -0.001070 
#    y 0.004480 1.800850 -0.000590 
#    z -0.001070 -0.000590 1.769770 
# 
# From -- ./inp_files/312173.got.cif
#   From: 2010.06.25/outbox.cif.g09.slc.cpg/sg2_157_cif.got.tgz:312173.got - 2010.06.27 13:26:56.
