data_PCOD8003648
_publ_section_title
;
Structure prediction by ZEFSAII (Michael W. Deem and Ramdas Pophale) SiO2 
 PCOD8003648
Probable space group: P -1
;
_chemical_formula_sum "Si O2"
_cell_formula_units_Z 16
_cell_length_a 22.609697
_cell_length_b 6.597217
_cell_length_c 5.100726
_cell_angle_alpha 72.853121
_cell_angle_beta 104.373156
_cell_angle_gamma 88.294406
_cell_volume 699.887419
_symmetry_space_group_name_H-M "P -1"
_symmetry_group_IT_number 2
_symmetry_cell_setting 'triclinic'
loop_
_space_group_symop_operation_xyz
x,y,z
-x,-y,-z
loop_
_atom_site_type_symbol
_atom_site_label
_atom_site_fract_x
_atom_site_fract_y
_atom_site_fract_z
Si Si1 0.422796 0.621076 0.125243
Si Si2 0.911383 0.818231 0.441919
Si Si3 0.223282 0.889795 0.239693
Si Si4 0.280702 0.678160 0.866766
Si Si5 0.481380 0.773397 0.641512
Si Si6 0.014869 0.236589 0.947173
Si Si7 0.111328 0.716481 0.993939
Si Si8 0.187758 0.355194 0.896491
O O1 0.436404 0.696853 0.401971
O O2 0.456485 0.385644 0.200628
O O3 0.351132 0.605324 0.029001
O O4 0.445354 0.785152 0.873829
O O5 0.932521 0.760473 0.778257
O O6 0.845961 0.723343 0.371309
O O7 0.959489 0.696948 0.330605
O O8 0.905137 0.074323 0.287515
O O9 0.273115 0.815167 0.541826
O O10 0.159724 0.778891 0.245797
O O11 0.250346 0.824673 0.009580
O O12 0.208464 0.142531 0.166871
O O13 0.248732 0.464264 0.859083
O O14 0.500000 0.000000 0.500000
O O15 0.949945 0.368670 0.911922
O O16 0.000000 0.000000 0.000000
O O17 0.139690 0.518522 0.933427
#
# Coordination Sequence:
#
# PCOD8003648 Si02
#       8
#     2   2   2   2   2   2   2   2
#     4  10  22  39  65  98 128 166 212 245 296 364
#     4  10  22  38  59  87 116 151 200 251 311 382
#     4  10  24  42  61  88 123 164 211 258 308 365
#     4  11  24  43  64  91 128 166 208 256 296 355
#     4  10  21  41  66  97 134 166 199 252 304 348
#     4  10  20  37  60  85 115 151 195 256 317 374
#     4   9  20  38  60  83 118 156 197 256 316 370
#     4  10  24  42  63  89 122 164 206 254 314 366
#
# _framework density 22.86082
#
# number of rings (size 3 to 8) (size 9 to 14) (size 15 to 20)
#    0.000    2.000    0.000    2.625    0.000   18.000 
#    0.000    0.000    0.000    0.000    0.000    0.000 
#    0.000    0.000    0.000    0.000    0.000    0.000 
#
# Total GULP energy -198396.160958 kJ/mol
# GULP energy per Si atom -12399.760060 kJ/mol
# Density = 2.280879 g / cm^3
# Si number density = 22.860820 Si / 1000 Ang^3
#
#
#
# Elastic Constant Matrix: (Units=GPa)
#
#
# Indices 1 2 3 4 5 6 
#
# 1 118.5627 38.3597 28.8821 -4.8761 26.8824 8.4061
# 2 38.3597 110.2921 37.1436 -17.2326 6.8069 6.0331
# 3 28.8821 37.1436 75.9524 14.4779 11.1758 -7.7922
# 4 -4.8761 -17.2326 14.4779 24.9087 1.5480 -4.0889
# 5 26.8824 6.8069 11.1758 1.5480 40.2279 2.8821
# 6 8.4061 6.0331 -7.7922 -4.0889 2.8821 22.4447
#
#
#
# Elastic Compliance Matrix: (Units=1/GPa)
#
#
# Indices 1 2 3 4 5 6 
#
# 1 0.011727 -0.001827 -0.003566 0.002877 -0.006376 -0.003796
# 2 -0.001827 0.016122 -0.010960 0.016328 0.001242 -0.004639
# 3 -0.003566 -0.010960 0.025303 -0.021258 -0.002657 0.009535
# 4 0.002877 0.016328 -0.021258 0.064273 -0.001183 -0.000986
# 5 -0.006376 0.001242 -0.002657 -0.001183 0.029902 -0.002924
# 6 -0.003796 -0.004639 0.009535 -0.000986 -0.002924 0.050729
#
#
# Mechanical properties :
#
#
# Convention : Reuss Voigt Hill
#
# Bulk Modulus (GPa) = 48.90964 57.06420 52.98692
# Shear Modulus (GPa) = 21.04572 30.87773 25.96172
#
# Velocity S-wave (km/s) = 3.03743 3.67915 3.37359
# Velocity P-wave (km/s) = 5.80881 6.56231 6.19703
#
# Compressibility (1/GPa) = 0.02044587
#
# Stress axis : x y z
#
# Youngs Moduli (GPa) = 85.27192 62.02801 39.52043
#
# Poissons Ratio (x) = 0.11334 0.14091
# Poissons Ratio (y) = 0.15581 0.43316
# Poissons Ratio (z) = 0.30405 0.67985
#
# Static dielectric constant tensor:
#      x y z
#    x 4.615940 -0.041740 0.015950 
#    y -0.041740 4.456630 0.049770 
#    z 0.015950 0.049770 4.107700 
# 
# 
# High freq. dielectric constant tensor:
#      x y z
#    x 1.891150 0.001330 0.003820 
#    y 0.001330 1.916610 -0.000410 
#    z 0.003820 -0.000410 1.904640 
# 
# From -- ./inp_files/14123.got.cif
#   From: 2010.06.25/outbox.cif.g09.slc.cpg/sg2_8_cif.got.tgz:14123.got - 2010.06.27 13:26:56.
