data_PCOD8003764
_publ_section_title
;
Structure prediction by ZEFSAII (Michael W. Deem and Ramdas Pophale) SiO2 
 PCOD8003764
Probable space group: P -1
;
_chemical_formula_sum "Si O2"
_cell_formula_units_Z 16
_cell_length_a 9.602775
_cell_length_b 12.569162
_cell_length_c 10.964610
_cell_angle_alpha 52.741456
_cell_angle_beta 120.306365
_cell_angle_gamma 136.590938
_cell_volume 718.745602
_symmetry_space_group_name_H-M "P -1"
_symmetry_group_IT_number 2
_symmetry_cell_setting 'triclinic'
loop_
_space_group_symop_operation_xyz
x,y,z
-x,-y,-z
loop_
_atom_site_type_symbol
_atom_site_label
_atom_site_fract_x
_atom_site_fract_y
_atom_site_fract_z
Si Si1 0.657310 0.786096 0.993493
Si Si2 0.650783 0.222002 0.303232
Si Si3 0.956242 0.138003 0.007921
Si Si4 0.351144 0.320142 0.496490
Si Si5 0.979716 0.434829 0.861129
Si Si6 0.723005 0.499095 0.841426
Si Si7 0.005488 0.994556 0.358263
Si Si8 0.580884 0.892495 0.485052
O O1 0.508967 0.758926 0.840353
O O2 0.824611 0.772132 0.021157
O O3 0.513070 0.635328 0.130433
O O4 0.773665 0.966844 0.982568
O O5 0.881383 0.391174 0.272956
O O6 0.613936 0.199000 0.448480
O O7 0.625621 0.064705 0.335197
O O8 0.967114 0.104017 0.180151
O O9 0.902333 0.266003 0.870739
O O10 0.500000 0.500000 0.500000
O O11 0.250786 0.340995 0.318659
O O12 0.452948 0.232756 0.552027
O O13 0.184638 0.203324 0.609439
O O14 0.776892 0.409247 0.831308
O O15 0.113230 0.433743 0.026925
O O16 0.224240 0.044602 0.386057
O O17 0.000000 0.000000 0.500000
#
# Coordination Sequence:
#
# PCOD8003764 Si02
#       8
#     2   2   2   2   2   2   2   2
#     4  10  23  38  62  88 130 155 199 247 305 372
#     4  10  21  39  60  90 117 163 201 251 302 357
#     4  11  22  39  60  94 120 164 196 248 309 353
#     4  11  23  37  60  89 120 160 200 251 302 359
#     4  10  22  38  63  88 119 152 204 253 293 357
#     4  10  22  39  58  91 118 157 199 248 299 356
#     4  10  20  37  61  85 119 161 201 245 290 363
#     4  10  21  38  61  85 120 158 207 245 300 365
#
# _framework density 22.261005000000001
#
# number of rings (size 3 to 8) (size 9 to 14) (size 15 to 20)
#    0.000    1.750    1.250    3.000    1.750    7.500 
#    0.000    0.000    0.000    3.750    0.000    0.000 
#    0.000    0.000    0.000    0.000    0.000    0.000 
#
# Total GULP energy -198268.770369 kJ/mol
# GULP energy per Si atom -12391.798148 kJ/mol
# Density = 2.221034 g / cm^3
# Si number density = 22.261005 Si / 1000 Ang^3
#
#
#
# Elastic Constant Matrix: (Units=GPa)
#
#
# Indices 1 2 3 4 5 6 
#
# 1 100.0310 30.4336 25.3823 -25.1417 -14.8637 -3.9292
# 2 30.4336 65.3524 8.3410 -22.4491 -13.8301 -8.6861
# 3 25.3823 8.3410 60.8077 -32.7016 -15.1088 3.3580
# 4 -25.1417 -22.4491 -32.7016 40.4055 1.2971 2.9585
# 5 -14.8637 -13.8301 -15.1088 1.2971 28.8782 -10.4438
# 6 -3.9292 -8.6861 3.3580 2.9585 -10.4438 37.8246
#
#
#
# Elastic Compliance Matrix: (Units=1/GPa)
#
#
# Indices 1 2 3 4 5 6 
#
# 1 0.013405 -0.002628 -0.000708 0.005981 0.005711 0.001961
# 2 -0.002628 0.030411 0.017552 0.027958 0.024675 0.009779
# 3 -0.000708 0.017552 0.046576 0.045596 0.032226 0.005154
# 4 0.005981 0.027958 0.045596 0.079070 0.039569 0.007735
# 5 0.005711 0.024675 0.032226 0.039569 0.071742 0.020113
# 6 0.001961 0.009779 0.005154 0.007735 0.020113 0.033378
#
#
# Mechanical properties :
#
#
# Convention : Reuss Voigt Hill
#
# Bulk Modulus (GPa) = 8.41577 39.38943 23.90260
# Shear Modulus (GPa) = 17.49735 32.22393 24.86064
#
# Velocity S-wave (km/s) = 2.80663 3.80880 3.34545
# Velocity P-wave (km/s) = 3.78042 6.08895 5.06789
#
# Compressibility (1/GPa) = 0.11882450
#
# Stress axis : x y z
#
# Youngs Moduli (GPa) = 74.59859 32.88293 21.47015
#
# Poissons Ratio (x) = 0.08643 0.01519
# Poissons Ratio (y) = 0.19608 -0.37685
# Poissons Ratio (z) = 0.05279 -0.57717
#
# Static dielectric constant tensor:
#      x y z
#    x 4.270100 0.315700 -0.156160 
#    y 0.315700 4.160880 -0.369320 
#    z -0.156160 -0.369320 4.054900 
# 
# 
# High freq. dielectric constant tensor:
#      x y z
#    x 1.875690 0.008610 -0.004950 
#    y 0.008610 1.873000 -0.025100 
#    z -0.004950 -0.025100 1.871570 
# 
# From -- ./inp_files/283016.got.cif
#   From: 2010.06.25/outbox.cif.g09.slc.cpg/sg2_142_cif.got.tgz:283016.got - 2010.06.27 13:26:56.
