data_PCOD8003406
_publ_section_title
;
Structure prediction by ZEFSAII (Michael W. Deem and Ramdas Pophale) SiO2 
 PCOD8003406
Probable space group: P -1
;
_chemical_formula_sum "Si O2"
_cell_formula_units_Z 16
_cell_length_a 8.394014
_cell_length_b 9.203485
_cell_length_c 21.078226
_cell_angle_alpha 58.868579
_cell_angle_beta 30.873778
_cell_angle_gamma 57.448205
_cell_volume 698.576913
_symmetry_space_group_name_H-M "P -1"
_symmetry_group_IT_number 2
_symmetry_cell_setting 'triclinic'
loop_
_space_group_symop_operation_xyz
x,y,z
-x,-y,-z
loop_
_atom_site_type_symbol
_atom_site_label
_atom_site_fract_x
_atom_site_fract_y
_atom_site_fract_z
Si Si1 0.747908 0.859409 0.484787
Si Si2 0.071707 0.326414 0.762766
Si Si3 0.203711 0.078854 0.283861
Si Si4 0.567018 0.034946 0.302497
Si Si5 0.324148 0.636486 0.645209
Si Si6 0.087784 0.685448 0.854771
Si Si7 0.226754 0.818576 0.980793
Si Si8 0.421856 0.498123 0.893680
O O1 0.683448 0.882071 0.576971
O O2 0.682186 0.673468 0.524297
O O3 0.500000 0.000000 0.500000
O O4 0.101787 0.894462 0.343799
O O5 0.800569 0.444117 0.785646
O O6 0.330638 0.440120 0.666688
O O7 0.898572 0.260355 0.896418
O O8 0.280160 0.166228 0.689439
O O9 0.390870 0.061378 0.289719
O O10 0.427549 0.131905 0.140257
O O11 0.881229 0.227977 0.365435
O O12 0.866650 0.127689 0.178576
O O13 0.138901 0.669274 0.766804
O O14 0.347038 0.537232 0.836385
O O15 0.732488 0.662483 0.996180
O O16 0.259621 0.671070 0.949050
O O17 0.000000 0.000000 0.000000
#
# Coordination Sequence:
#
# PCOD8003406 Si02
#       8
#     2   2   2   2   2   2   2   2
#     4   9  22  42  65  88 119 169 211 256 311 365
#     4  12  22  38  62  98 124 165 205 256 315 365
#     4  11  20  40  64  90 120 169 208 249 312 368
#     4  11  22  39  63  93 123 160 215 258 298 376
#     4  10  20  38  65  88 122 162 207 257 310 367
#     4  10  20  37  56  87 123 167 207 248 309 368
#     4  12  21  36  62  94 127 158 206 252 301 380
#     4  11  21  36  60  86 128 172 201 248 316 375
#
# _framework density 22.903706
#
# number of rings (size 3 to 8) (size 9 to 14) (size 15 to 20)
#    0.000    1.250    5.000    1.500    0.000    0.500 
#    0.000   14.375    0.000    0.000    0.000    0.000 
#    0.000    0.000    0.000    0.000    0.000    0.000 
#
# Total GULP energy -198266.351425 kJ/mol
# GULP energy per Si atom -12391.646964 kJ/mol
# Density = 2.285158 g / cm^3
# Si number density = 22.903706 Si / 1000 Ang^3
#
#
#
# Elastic Constant Matrix: (Units=GPa)
#
#
# Indices 1 2 3 4 5 6 
#
# 1 71.5967 26.6977 9.8846 -7.6831 -14.9465 3.4344
# 2 26.6977 114.1421 34.5106 -26.2143 -29.0686 14.0106
# 3 9.8846 34.5106 98.4604 -45.4333 -28.9968 25.4589
# 4 -7.6831 -26.2143 -45.4333 42.0694 12.9948 -16.0139
# 5 -14.9465 -29.0686 -28.9968 12.9948 28.5039 -21.2974
# 6 3.4344 14.0106 25.4589 -16.0139 -21.2974 27.1974
#
#
#
# Elastic Compliance Matrix: (Units=1/GPa)
#
#
# Indices 1 2 3 4 5 6 
#
# 1 0.017802 -0.000481 0.003247 0.005573 0.019988 0.013893
# 2 -0.000481 0.014649 0.002992 0.010438 0.023809 0.014504
# 3 0.003247 0.002992 0.026287 0.026350 0.027069 0.010154
# 4 0.005573 0.010438 0.026350 0.061373 0.039576 0.036381
# 5 0.019988 0.023809 0.027069 0.039576 0.160922 0.109187
# 6 0.013893 0.014504 0.010154 0.036381 0.109187 0.124959
#
#
# Mechanical properties :
#
#
# Convention : Reuss Voigt Hill
#
# Bulk Modulus (GPa) = 14.23400 47.37611 30.80506
# Shear Modulus (GPa) = 11.96471 33.76122 22.86297
#
# Velocity S-wave (km/s) = 2.28807 3.84350 3.16289
# Velocity P-wave (km/s) = 3.63436 6.35818 5.17856
#
# Compressibility (1/GPa) = 0.07025431
#
# Stress axis : x y z
#
# Youngs Moduli (GPa) = 56.17221 68.26239 38.04141
#
# Poissons Ratio (x) = 0.03282 -0.12351
# Poissons Ratio (y) = 0.02701 -0.11381
# Poissons Ratio (z) = -0.18238 -0.20422
#
# Static dielectric constant tensor:
#      x y z
#    x 4.279650 0.116500 -0.270680 
#    y 0.116500 4.293290 -0.805710 
#    z -0.270680 -0.805710 4.758090 
# 
# 
# High freq. dielectric constant tensor:
#      x y z
#    x 1.912290 -0.000210 -0.009280 
#    y -0.000210 1.883130 -0.048800 
#    z -0.009280 -0.048800 1.898380 
# 
# From -- ./inp_files/205810.got.cif
#   From: 2010.06.25/outbox.cif.g09.slc.cpg/sg2_103_cif.got.tgz:205810.got - 2010.06.27 13:26:56.
