data_PCOD8003685
_publ_section_title
;
Structure prediction by ZEFSAII (Michael W. Deem and Ramdas Pophale) SiO2 
 PCOD8003685
Probable space group: P -1
;
_chemical_formula_sum "Si O2"
_cell_formula_units_Z 16
_cell_length_a 11.185452
_cell_length_b 12.899356
_cell_length_c 14.032151
_cell_angle_alpha 46.535693
_cell_angle_beta 149.501635
_cell_angle_gamma 136.537390
_cell_volume 695.397270
_symmetry_space_group_name_H-M "P -1"
_symmetry_group_IT_number 2
_symmetry_cell_setting 'triclinic'
loop_
_space_group_symop_operation_xyz
x,y,z
-x,-y,-z
loop_
_atom_site_type_symbol
_atom_site_label
_atom_site_fract_x
_atom_site_fract_y
_atom_site_fract_z
Si Si1 0.471212 0.778452 0.156933
Si Si2 0.978258 0.116305 0.804521
Si Si3 0.139326 0.656760 0.552260
Si Si4 0.349710 0.356390 0.052606
Si Si5 0.109665 0.641518 0.154435
Si Si6 0.315150 0.952142 0.182863
Si Si7 0.126481 0.347616 0.435111
Si Si8 0.702579 0.098129 0.213351
O O1 0.197325 0.703936 0.067849
O O2 0.619378 0.661652 0.339788
O O3 0.654302 0.940360 0.224672
O O4 0.418744 0.799969 0.996741
O O5 0.935903 0.203949 0.628205
O O6 0.716195 0.028197 0.737730
O O7 0.162195 0.229437 0.936596
O O8 0.103582 0.990076 0.947573
O O9 0.440342 0.701255 0.720231
O O10 0.000000 0.500000 0.500000
O O11 0.056360 0.633593 0.619574
O O12 0.500000 0.500000 0.000000
O O13 0.187171 0.395207 0.002198
O O14 0.286251 0.776959 0.257686
O O15 0.190824 0.496557 0.319264
O O16 0.582895 0.067582 0.256752
O O17 0.993883 0.198480 0.371059
#
# Coordination Sequence:
#
# PCOD8003685 Si02
#       8
#     2   2   2   2   2   2   2   2
#     4  10  23  44  66  91 126 166 212 262 316 378
#     4  10  20  37  60  88 125 170 209 255 316 380
#     4  12  23  37  63  99 127 164 212 255 320 381
#     4  11  20  39  61  90 129 162 207 264 313 371
#     4  10  22  40  61  91 128 166 205 261 317 369
#     4   9  19  39  60  84 130 169 201 262 319 364
#     4  12  23  39  67  95 124 165 213 263 314 374
#     4  10  22  42  66  92 123 166 214 259 318 375
#
# _framework density 23.008431999999999
#
# number of rings (size 3 to 8) (size 9 to 14) (size 15 to 20)
#    0.000    1.500    2.500    3.000    0.000    1.500 
#    0.000   20.000    0.000    0.000    0.000    0.000 
#    0.000    0.000    0.000    0.000    0.000    0.000 
#
# Total GULP energy -198301.205224 kJ/mol
# GULP energy per Si atom -12393.825326 kJ/mol
# Density = 2.295606 g / cm^3
# Si number density = 23.008432 Si / 1000 Ang^3
#
#
#
# Elastic Constant Matrix: (Units=GPa)
#
#
# Indices 1 2 3 4 5 6 
#
# 1 61.3596 30.6296 2.6762 7.0144 7.1215 15.4761
# 2 30.6296 87.1777 26.8371 -12.0105 -4.7612 17.8834
# 3 2.6762 26.8371 83.7598 -3.5574 6.5289 5.9222
# 4 7.0144 -12.0105 -3.5574 32.8227 2.9624 -3.7059
# 5 7.1215 -4.7612 6.5289 2.9624 34.5739 -1.1443
# 6 15.4761 17.8834 5.9222 -3.7059 -1.1443 24.5507
#
#
#
# Elastic Compliance Matrix: (Units=1/GPa)
#
#
# Indices 1 2 3 4 5 6 
#
# 1 0.025546 -0.009114 0.003078 -0.009200 -0.006704 -0.011908
# 2 -0.009114 0.018645 -0.005372 0.007175 0.004671 -0.005240
# 3 0.003078 -0.005372 0.013954 -0.000946 -0.003985 -0.001722
# 4 -0.009200 0.007175 -0.000946 0.035635 0.000213 0.006190
# 5 -0.006704 0.004671 -0.003985 0.000213 0.031791 0.003299
# 6 -0.011908 -0.005240 -0.001722 0.006190 0.003299 0.053559
#
#
# Mechanical properties :
#
#
# Convention : Reuss Voigt Hill
#
# Bulk Modulus (GPa) = 28.30504 39.17588 33.74046
# Shear Modulus (GPa) = 23.39485 29.86641 26.63063
#
# Velocity S-wave (km/s) = 3.19218 3.60677 3.40579
# Velocity P-wave (km/s) = 5.09072 5.86590 5.49200
#
# Compressibility (1/GPa) = 0.03532940
#
# Stress axis : x y z
#
# Youngs Moduli (GPa) = 39.14526 53.63364 71.66482
#
# Poissons Ratio (x) = 0.48880 -0.22056
# Poissons Ratio (y) = 0.35676 0.38496
# Poissons Ratio (z) = -0.12048 0.28810
#
# Static dielectric constant tensor:
#      x y z
#    x 4.194890 0.329550 0.101940 
#    y 0.329550 4.445900 -0.265580 
#    z 0.101940 -0.265580 4.045390 
# 
# 
# High freq. dielectric constant tensor:
#      x y z
#    x 1.901070 0.017190 0.008990 
#    y 0.017190 1.916970 -0.023510 
#    z 0.008990 -0.023510 1.888980 
# 
# From -- ./inp_files/521509.got.cif
#   From: 2010.06.25/outbox.cif.g09.slc.cpg/sg2_261_cif.got.tgz:521509.got - 2010.06.27 13:26:56.
