data_PCOD8003858
_publ_section_title
;
Structure prediction by ZEFSAII (Michael W. Deem and Ramdas Pophale) SiO2 
 PCOD8003858
Probable space group: P -1
;
_chemical_formula_sum "Si O2"
_cell_formula_units_Z 16
_cell_length_a 11.620060
_cell_length_b 14.478287
_cell_length_c 14.449003
_cell_angle_alpha 29.355491
_cell_angle_beta 53.715669
_cell_angle_gamma 73.826437
_cell_volume 768.199342
_symmetry_space_group_name_H-M "P -1"
_symmetry_group_IT_number 2
_symmetry_cell_setting 'triclinic'
loop_
_space_group_symop_operation_xyz
x,y,z
-x,-y,-z
loop_
_atom_site_type_symbol
_atom_site_label
_atom_site_fract_x
_atom_site_fract_y
_atom_site_fract_z
Si Si1 0.881321 0.119111 0.731523
Si Si2 0.653939 0.180698 0.336762
Si Si3 0.123358 0.624096 0.108581
Si Si4 0.548881 0.617984 0.274543
Si Si5 0.495894 0.409898 0.299643
Si Si6 0.084098 0.996189 0.867702
Si Si7 0.518753 0.181264 0.118469
Si Si8 0.608073 0.156313 0.901389
O O1 0.793472 0.189049 0.789534
O O2 0.987310 0.340968 0.418851
O O3 0.013068 0.075895 0.752271
O O4 0.727554 0.884785 0.955154
O O5 0.622575 0.369820 0.218549
O O6 0.500000 0.000000 0.500000
O O7 0.647829 0.031881 0.556619
O O8 0.834840 0.308178 0.079523
O O9 0.030458 0.737516 0.096598
O O10 0.295428 0.704624 0.016812
O O11 0.500000 0.500000 0.500000
O O12 0.572033 0.475093 0.311719
O O13 0.377764 0.606961 0.330328
O O14 0.296959 0.172262 0.609076
O O15 0.508412 0.619280 0.059094
O O16 0.000000 0.000000 0.000000
O O17 0.516801 0.060848 0.128617
O O18 0.500000 0.000000 0.000000
#
# Coordination Sequence:
#
# PCOD8003858 Si02
#       8
#     2   2   2   2   2   2   2   2
#     4  11  24  40  60  91 134 164 203 266 324 376
#     4  10  22  40  62  92 127 171 218 258 306 382
#     4  11  24  40  61  94 131 169 211 261 325 364
#     4  10  23  41  63  94 126 172 209 252 318 392
#     4  11  22  40  65  94 124 166 218 260 311 379
#     4  12  24  36  63  99 130 161 209 269 331 373
#     4  10  20  37  61  94 125 161 214 261 311 370
#     4   9  21  38  60  88 126 168 204 251 317 384
#
# _framework density 20.827926000000001
#
# number of rings (size 3 to 8) (size 9 to 14) (size 15 to 20)
#    0.000    1.500    3.750    1.500    8.750    4.000 
#    0.000    0.625    0.000    9.000    0.000    0.000 
#    0.000    0.000    0.000    0.000    0.000    0.000 
#
# Total GULP energy -198271.135563 kJ/mol
# GULP energy per Si atom -12391.945973 kJ/mol
# Density = 2.078052 g / cm^3
# Si number density = 20.827926 Si / 1000 Ang^3
#
#
#
# Elastic Constant Matrix: (Units=GPa)
#
#
# Indices 1 2 3 4 5 6 
#
# 1 59.8248 37.7072 41.3918 0.0908 18.4514 4.6321
# 2 37.7072 136.8450 39.8950 2.2447 10.3863 1.1449
# 3 41.3918 39.8950 116.2699 -4.5688 18.1340 3.1603
# 4 0.0908 2.2447 -4.5688 31.3355 2.1121 7.0704
# 5 18.4514 10.3863 18.1340 2.1121 33.7193 -0.0640
# 6 4.6321 1.1449 3.1603 7.0704 -0.0640 32.2929
#
#
#
# Elastic Compliance Matrix: (Units=1/GPa)
#
#
# Indices 1 2 3 4 5 6 
#
# 1 0.027720 -0.004967 -0.006447 0.000783 -0.010227 -0.003361
# 2 -0.004967 0.009073 -0.001537 -0.001091 0.000820 0.000782
# 3 -0.006447 -0.001537 0.011925 0.002191 -0.002551 -0.000673
# 4 0.000783 -0.001091 0.002191 0.034301 -0.003434 -0.007805
# 5 -0.010227 0.000820 -0.002551 -0.003434 0.036592 0.002512
# 6 -0.003361 0.000782 -0.000673 -0.007805 0.002512 0.033201
#
#
# Mechanical properties :
#
#
# Convention : Reuss Voigt Hill
#
# Bulk Modulus (GPa) = 43.82717 61.21418 52.52067
# Shear Modulus (GPa) = 26.83565 32.39925 29.61745
#
# Velocity S-wave (km/s) = 3.59339 3.94835 3.77504
# Velocity P-wave (km/s) = 6.18908 7.08803 6.65376
#
# Compressibility (1/GPa) = 0.02281690
#
# Stress axis : x y z
#
# Youngs Moduli (GPa) = 36.07515 110.21141 83.85556
#
# Poissons Ratio (x) = 0.54744 0.54059
# Poissons Ratio (y) = 0.17919 0.12888
# Poissons Ratio (z) = 0.23256 0.16939
#
# Static dielectric constant tensor:
#      x y z
#    x 3.876140 -0.112740 0.302570 
#    y -0.112740 4.288380 0.166370 
#    z 0.302570 0.166370 4.158370 
# 
# 
# High freq. dielectric constant tensor:
#      x y z
#    x 1.803730 -0.004430 0.024680 
#    y -0.004430 1.826470 -0.005960 
#    z 0.024680 -0.005960 1.806990 
# 
# From -- ./inp_files/500458.got.cif
#   From: 2010.06.25/outbox.cif.g09.slc.cpg/sg2_251_cif.got.tgz:500458.got - 2010.06.27 13:26:56.
