data_PCOD8003861
_publ_section_title
;
Structure prediction by ZEFSAII (Michael W. Deem and Ramdas Pophale) SiO2 
 PCOD8003861
Probable space group: P -1
;
_chemical_formula_sum "Si O2"
_cell_formula_units_Z 12
_cell_length_a 7.151758
_cell_length_b 18.166845
_cell_length_c 13.597216
_cell_angle_alpha 22.004067
_cell_angle_beta 53.239995
_cell_angle_gamma 45.981891
_cell_volume 469.059044
_symmetry_space_group_name_H-M "P -1"
_symmetry_group_IT_number 2
_symmetry_cell_setting 'triclinic'
loop_
_space_group_symop_operation_xyz
x,y,z
-x,-y,-z
loop_
_atom_site_type_symbol
_atom_site_label
_atom_site_fract_x
_atom_site_fract_y
_atom_site_fract_z
Si Si1 0.834299 0.634719 0.716702
Si Si2 0.465699 0.727101 0.547428
Si Si3 0.997862 0.849564 0.776501
Si Si4 0.732878 0.897513 0.130098
Si Si5 0.801381 0.040003 0.135761
Si Si6 0.473066 0.299115 0.085067
O O1 0.566734 0.682106 0.683756
O O2 0.739926 0.722243 0.750338
O O3 0.958228 0.781051 0.444983
O O4 0.028965 0.367807 0.984152
O O5 0.710852 0.688335 0.445138
O O6 0.349748 0.557741 0.768513
O O7 0.249039 0.985344 0.282906
O O8 0.253354 0.766119 0.866260
O O9 0.000000 0.000000 0.500000
O O10 0.705265 0.062612 0.025359
O O11 0.010815 0.841520 0.059328
O O12 0.500000 0.000000 0.000000
O O13 0.538924 0.151841 0.148255
#
# Coordination Sequence:
#
# PCOD8003861 Si02
#       6
#     2   2   2   2   2   2
#     4  10  20  37  61  94 137 168 204 265 330 386
#     4  10  20  37  64  95 123 173 220 255 322 389
#     4  11  18  35  63  95 130 174 213 251 318 396
#     4  10  22  45  67  88 127 174 227 268 314 390
#     4  10  23  41  65  97 130 170 214 273 331 375
#     4  11  20  36  63  96 133 168 204 269 332 384
#
# _framework density 25.583136
#
# number of rings (size 3 to 8) (size 9 to 14) (size 15 to 20)
#    0.000    1.667    3.333    2.500    0.000    0.667 
#    0.000   12.500    0.000    0.000    0.000    0.000 
#    0.000    0.000    0.000    0.000    0.000    0.000 
#
# Total GULP energy -148669.517569 kJ/mol
# GULP energy per Si atom -12389.126464 kJ/mol
# Density = 2.552491 g / cm^3
# Si number density = 25.583136 Si / 1000 Ang^3
#
#
#
# Elastic Constant Matrix: (Units=GPa)
#
#
# Indices 1 2 3 4 5 6 
#
# 1 43.0899 21.3764 14.2686 11.8983 8.6019 2.7703
# 2 21.3764 96.9675 68.1495 13.1482 -0.6024 8.6938
# 3 14.2686 68.1495 121.2134 2.8626 -7.3126 -3.1940
# 4 11.8983 13.1482 2.8626 45.3926 -6.6673 -2.7531
# 5 8.6019 -0.6024 -7.3126 -6.6673 36.2978 4.7214
# 6 2.7703 8.6938 -3.1940 -2.7531 4.7214 32.0219
#
#
#
# Elastic Compliance Matrix: (Units=1/GPa)
#
#
# Indices 1 2 3 4 5 6 
#
# 1 0.029852 -0.004601 -0.001293 -0.007743 -0.008724 -0.000842
# 2 -0.004601 0.020169 -0.010908 -0.004449 -0.000752 -0.006437
# 3 -0.001293 -0.010908 0.014761 0.003293 0.003136 0.004366
# 4 -0.007743 -0.004449 0.003293 0.026352 0.006814 0.003467
# 5 -0.008724 -0.000752 0.003136 0.006814 0.031858 -0.002839
# 6 -0.000842 -0.006437 0.004366 0.003467 -0.002839 0.034201
#
#
# Mechanical properties :
#
#
# Convention : Reuss Voigt Hill
#
# Bulk Modulus (GPa) = 32.07343 52.09554 42.08449
# Shear Modulus (GPa) = 24.85231 33.24087 29.04659
#
# Velocity S-wave (km/s) = 3.12016 3.60853 3.37320
# Velocity P-wave (km/s) = 5.05418 6.14568 5.62646
#
# Compressibility (1/GPa) = 0.03117846
#
# Stress axis : x y z
#
# Youngs Moduli (GPa) = 33.49907 49.58133 67.74491
#
# Poissons Ratio (x) = 0.22813 0.08758
# Poissons Ratio (y) = 0.15413 0.73895
# Poissons Ratio (z) = 0.04331 0.54082
#
# Static dielectric constant tensor:
#      x y z
#    x 4.412070 0.034520 -0.103340 
#    y 0.034520 5.064690 0.134220 
#    z -0.103340 0.134220 4.992670 
# 
# 
# High freq. dielectric constant tensor:
#      x y z
#    x 2.016290 0.007960 -0.001860 
#    y 0.007960 2.012410 0.022920 
#    z -0.001860 0.022920 2.019000 
# 
# From -- ./inp_files/246238.got.cif
#   From: 2010.06.25/outbox.cif.g09.slc.cpg/sg2_124_cif.got.tgz:246238.got - 2010.06.27 13:26:56.
