data_PCOD8003115
_publ_section_title
;
Structure prediction by ZEFSAII (Michael W. Deem and Ramdas Pophale) SiO2 
 PCOD8003115
Probable space group: P -1
;
_chemical_formula_sum "Si O2"
_cell_formula_units_Z 14
_cell_length_a 10.823118
_cell_length_b 9.100550
_cell_length_c 10.577416
_cell_angle_alpha 66.361957
_cell_angle_beta 47.678067
_cell_angle_gamma 90.070386
_cell_volume 646.645274
_symmetry_space_group_name_H-M "P -1"
_symmetry_group_IT_number 2
_symmetry_cell_setting 'triclinic'
loop_
_space_group_symop_operation_xyz
x,y,z
-x,-y,-z
loop_
_atom_site_type_symbol
_atom_site_label
_atom_site_fract_x
_atom_site_fract_y
_atom_site_fract_z
Si Si1 0.088619 0.362131 0.012130
Si Si2 0.743178 0.241272 0.422717
Si Si3 0.799204 0.621497 0.335103
Si Si4 0.541550 0.347469 0.322281
Si Si5 0.636193 0.688060 0.798279
Si Si6 0.017295 0.316907 0.558113
Si Si7 0.335392 0.978410 0.209835
O O1 0.116765 0.277158 0.889315
O O2 0.290659 0.467765 0.894804
O O3 0.000000 0.500000 0.000000
O O4 0.936154 0.224304 0.257063
O O5 0.782513 0.423499 0.403166
O O6 0.618405 0.223573 0.390045
O O7 0.639687 0.089283 0.645455
O O8 0.599255 0.614832 0.502249
O O9 0.938244 0.719066 0.317186
O O10 0.442867 0.255659 0.293250
O O11 0.824858 0.672632 0.649200
O O12 0.668377 0.831299 0.835861
O O13 0.500000 0.500000 0.000000
O O14 0.000000 0.500000 0.500000
O O15 0.840806 0.153475 0.694176
O O16 0.500000 0.000000 0.000000
#
# Coordination Sequence:
#
# PCOD8003115 Si02
#       7
#     2   2   2   2   2   2   2
#     4   8  16  30  57  92 120 156 204 253 311 379
#     4  10  20  36  62  94 128 164 214 266 317 383
#     4   9  17  35  62  96 124 165 208 256 325 388
#     4   9  19  36  63  95 125 168 211 260 320 388
#     4  11  26  43  66  95 130 176 220 267 328 385
#     4  11  22  42  68  90 131 170 214 268 323 392
#     4  12  27  43  63  96 133 173 223 271 322 385
#
# _framework density 21.650199000000001
#
# number of rings (size 3 to 8) (size 9 to 14) (size 15 to 20)
#    0.000    2.286    1.429    3.000    4.000    5.143 
#    0.000    0.000    0.000    3.429    0.000    0.000 
#    0.000    0.000    0.000    0.000    0.000    0.000 
#
# Total GULP energy -173500.102572 kJ/mol
# GULP energy per Si atom -12392.864469 kJ/mol
# Density = 2.160092 g / cm^3
# Si number density = 21.650199 Si / 1000 Ang^3
#
#
#
# Elastic Constant Matrix: (Units=GPa)
#
#
# Indices 1 2 3 4 5 6 
#
# 1 82.7437 31.0531 45.0172 -1.5853 -27.6475 11.0633
# 2 31.0531 124.4499 58.3723 8.7619 -18.4811 16.1645
# 3 45.0172 58.3723 177.5996 24.0184 -19.4412 -1.0133
# 4 -1.5853 8.7619 24.0184 39.5379 -5.5386 -3.1465
# 5 -27.6475 -18.4811 -19.4412 -5.5386 34.5558 -2.1106
# 6 11.0633 16.1645 -1.0133 -3.1465 -2.1106 26.5268
#
#
#
# Elastic Compliance Matrix: (Units=1/GPa)
#
#
# Indices 1 2 3 4 5 6 
#
# 1 0.020121 -0.000526 -0.004099 0.004837 0.013887 -0.006549
# 2 -0.000526 0.010959 -0.003065 -0.000645 0.003222 -0.006396
# 3 -0.004099 -0.003065 0.008191 -0.004309 -0.000798 0.003316
# 4 0.004837 -0.000645 -0.004309 0.029247 0.005920 0.002151
# 5 0.013887 0.003222 -0.000798 0.005920 0.042044 -0.003738
# 6 -0.006549 -0.006396 0.003316 0.002151 -0.003738 0.044411
#
#
# Mechanical properties :
#
#
# Convention : Reuss Voigt Hill
#
# Bulk Modulus (GPa) = 41.85557 72.63093 57.24325
# Shear Modulus (GPa) = 28.03993 36.81412 32.42703
#
# Velocity S-wave (km/s) = 3.60270 4.12807 3.87430
# Velocity P-wave (km/s) = 6.05645 7.50610 6.81990
#
# Compressibility (1/GPa) = 0.02389169
#
# Stress axis : x y z
#
# Youngs Moduli (GPa) = 49.69870 91.25021 122.08056
#
# Poissons Ratio (x) = 0.04799 0.50039
# Poissons Ratio (y) = 0.02614 0.37419
# Poissons Ratio (z) = 0.20371 0.27969
#
# Static dielectric constant tensor:
#      x y z
#    x 4.090790 0.162470 -0.013930 
#    y 0.162470 3.694960 0.399250 
#    z -0.013930 0.399250 4.687480 
# 
# 
# High freq. dielectric constant tensor:
#      x y z
#    x 1.854440 0.014020 -0.008260 
#    y 0.014020 1.827030 0.027320 
#    z -0.008260 0.027320 1.859650 
# 
# From -- ./inp_files/416773.got.cif
#   From: 2010.06.25/outbox.cif.g09.slc.cpg/sg2_209_cif.got.tgz:416773.got - 2010.06.27 13:26:56.
