data_PCOD8003185
_publ_section_title
;
Structure prediction by ZEFSAII (Michael W. Deem and Ramdas Pophale) SiO2 
 PCOD8003185
Probable space group: P -1
;
_chemical_formula_sum "Si O2"
_cell_formula_units_Z 16
_cell_length_a 8.617190
_cell_length_b 11.377567
_cell_length_c 12.311530
_cell_angle_alpha 45.963749
_cell_angle_beta 111.290058
_cell_angle_gamma 87.694599
_cell_volume 727.304664
_symmetry_space_group_name_H-M "P -1"
_symmetry_group_IT_number 2
_symmetry_cell_setting 'triclinic'
loop_
_space_group_symop_operation_xyz
x,y,z
-x,-y,-z
loop_
_atom_site_type_symbol
_atom_site_label
_atom_site_fract_x
_atom_site_fract_y
_atom_site_fract_z
Si Si1 0.334297 0.688293 0.305378
Si Si2 0.000145 0.614009 0.820345
Si Si3 0.853001 0.747937 0.327576
Si Si4 0.345683 0.695694 0.865723
Si Si5 0.312512 0.999738 0.491532
Si Si6 0.711483 0.139119 0.030513
Si Si7 0.879361 0.094140 0.696534
Si Si8 0.039299 0.554143 0.296829
O O1 0.500000 0.500000 0.500000
O O2 0.398243 0.764251 0.168074
O O3 0.272542 0.839142 0.288247
O O4 0.155440 0.666405 0.231931
O O5 0.039370 0.480325 0.813790
O O6 0.149822 0.692089 0.812149
O O7 0.808746 0.791834 0.638450
O O8 0.000000 0.500000 0.000000
O O9 0.689984 0.951817 0.158486
O O10 0.818082 0.631081 0.487591
O O11 0.053596 0.747248 0.407991
O O12 0.867840 0.662227 0.265937
O O13 0.348042 0.858559 0.689367
O O14 0.500000 0.500000 0.000000
O O15 0.383890 0.730902 0.976424
O O16 0.215582 0.939468 0.411012
O O17 0.500000 0.000000 0.500000
O O18 0.933099 0.088187 0.110209
#
# Coordination Sequence:
#
# PCOD8003185 Si02
#       8
#     2   2   2   2   2   2   2   2
#     4  11  24  38  65  97 130 170 216 283 328 394
#     4  12  24  41  69 100 134 178 219 273 341 410
#     4   8  18  38  64  86 116 166 212 263 314 391
#     4  12  26  45  68  98 139 179 228 285 338 402
#     4  12  26  43  68 100 137 178 230 279 338 406
#     4  10  21  44  66  90 126 176 223 260 342 395
#     4   9  21  41  69  88 129 171 223 261 341 393
#     4  10  20  36  63  93 123 156 218 258 324 387
#
# _framework density 21.999034000000002
#
# number of rings (size 3 to 8) (size 9 to 14) (size 15 to 20)
#    0.750    0.750    1.250    3.750    3.500    0.000 
#    0.000    0.625    0.000    0.000    0.000    0.000 
#    0.000    0.000    0.000    0.000    0.000    0.000 
#
# Total GULP energy -198317.522166 kJ/mol
# GULP energy per Si atom -12394.845135 kJ/mol
# Density = 2.194896 g / cm^3
# Si number density = 21.999034 Si / 1000 Ang^3
#
#
#
# Elastic Constant Matrix: (Units=GPa)
#
#
# Indices 1 2 3 4 5 6 
#
# 1 62.9547 6.0153 12.3034 -8.1650 -11.1087 -8.2820
# 2 6.0153 131.7147 30.6827 4.4666 -11.0179 -30.4243
# 3 12.3034 30.6827 105.2875 -15.1712 -15.9967 -21.9414
# 4 -8.1650 4.4666 -15.1712 42.7690 -6.2495 0.5231
# 5 -11.1087 -11.0179 -15.9967 -6.2495 32.1302 -3.1110
# 6 -8.2820 -30.4243 -21.9414 0.5231 -3.1110 38.7707
#
#
#
# Elastic Compliance Matrix: (Units=1/GPa)
#
#
# Indices 1 2 3 4 5 6 
#
# 1 0.018556 0.000836 0.000791 0.004923 0.008604 0.005691
# 2 0.000836 0.009901 -0.000881 -0.000718 0.003858 0.007768
# 3 0.000791 -0.000881 0.013472 0.006188 0.008628 0.007710
# 4 0.004923 -0.000718 0.006188 0.028060 0.010425 0.004448
# 5 0.008604 0.003858 0.008628 0.010425 0.043009 0.013059
# 6 0.005691 0.007768 0.007710 0.004448 0.013059 0.038455
#
#
# Mechanical properties :
#
#
# Convention : Reuss Voigt Hill
#
# Bulk Modulus (GPa) = 23.03186 44.21774 33.62480
# Shear Modulus (GPa) = 30.40709 39.46437 34.93573
#
# Velocity S-wave (km/s) = 3.72183 4.24006 3.98937
# Velocity P-wave (km/s) = 5.38160 6.64186 6.04466
#
# Compressibility (1/GPa) = 0.04341811
#
# Stress axis : x y z
#
# Youngs Moduli (GPa) = 53.89228 101.00245 74.23012
#
# Poissons Ratio (x) = -0.08441 -0.05871
# Poissons Ratio (y) = -0.04504 0.06543
# Poissons Ratio (z) = -0.04262 0.08903
#
# Static dielectric constant tensor:
#      x y z
#    x 3.867620 -0.075670 -0.188500 
#    y -0.075670 4.348550 -0.145730 
#    z -0.188500 -0.145730 3.742500 
# 
# 
# High freq. dielectric constant tensor:
#      x y z
#    x 1.849550 -0.005340 -0.016220 
#    y -0.005340 1.881770 -0.005600 
#    z -0.016220 -0.005600 1.858990 
# 
# From -- ./inp_files/392158.got.cif
#   From: 2010.06.25/outbox.cif.g09.slc.cpg/sg2_197_cif.got.tgz:392158.got - 2010.06.27 13:26:56.
