data_PCOD8003173
_publ_section_title
;
Structure prediction by ZEFSAII (Michael W. Deem and Ramdas Pophale) SiO2 
 PCOD8003173
Probable space group: P -1
;
_chemical_formula_sum "Si O2"
_cell_formula_units_Z 16
_cell_length_a 12.057396
_cell_length_b 15.377946
_cell_length_c 8.768584
_cell_angle_alpha 109.208107
_cell_angle_beta 81.539019
_cell_angle_gamma 149.439602
_cell_volume 748.589757
_symmetry_space_group_name_H-M "P -1"
_symmetry_group_IT_number 2
_symmetry_cell_setting 'triclinic'
loop_
_space_group_symop_operation_xyz
x,y,z
-x,-y,-z
loop_
_atom_site_type_symbol
_atom_site_label
_atom_site_fract_x
_atom_site_fract_y
_atom_site_fract_z
Si Si1 0.944938 0.602722 0.312528
Si Si2 0.299281 0.881144 0.156010
Si Si3 0.472498 0.505303 0.334771
Si Si4 0.516701 0.680640 0.899168
Si Si5 0.044270 0.313642 0.319041
Si Si6 0.695430 0.710236 0.129194
Si Si7 0.219585 0.716817 0.783933
Si Si8 0.135010 0.932375 0.040140
O O1 0.754427 0.508388 0.181845
O O2 0.858158 0.443936 0.306244
O O3 0.182127 0.761772 0.265992
O O4 0.993268 0.706686 0.502843
O O5 0.151763 0.860456 0.111888
O O6 0.559561 0.099720 0.259026
O O7 0.290271 0.789685 0.986170
O O8 0.500000 0.500000 0.500000
O O9 0.381012 0.343868 0.192262
O O10 0.696189 0.703879 0.311785
O O11 0.302444 0.469089 0.326109
O O12 0.628281 0.843445 0.876661
O O13 0.602930 0.742038 0.095126
O O14 0.992179 0.373998 0.284269
O O15 0.894225 0.126771 0.160867
O O16 0.939079 0.859628 0.097012
O O17 0.500000 0.500000 0.000000
#
# Coordination Sequence:
#
# PCOD8003173 Si02
#       8
#     2   2   2   2   2   2   2   2
#     4  12  23  42  68  95 126 172 208 265 329 377
#     4  10  22  41  69  93 125 165 220 262 316 380
#     4  11  22  41  62  94 130 165 209 263 323 371
#     4  11  22  38  67  94 128 167 216 259 313 386
#     4  11  24  39  66  89 133 167 205 271 325 365
#     4  10  20  36  63  91 122 173 212 252 311 386
#     4  10  23  44  63  95 125 167 215 267 313 381
#     4  11  21  41  63  94 129 169 213 267 310 379
#
# _framework density 21.373522999999999
#
# number of rings (size 3 to 8) (size 9 to 14) (size 15 to 20)
#    0.000    1.250    5.000    2.625    1.750    0.500 
#    0.000    3.125    0.000    0.000    0.000    0.000 
#    0.000    0.000    0.000    0.000    0.000    0.000 
#
# Total GULP energy -198230.153989 kJ/mol
# GULP energy per Si atom -12389.384624 kJ/mol
# Density = 2.132488 g / cm^3
# Si number density = 21.373523 Si / 1000 Ang^3
#
#
#
# Elastic Constant Matrix: (Units=GPa)
#
#
# Indices 1 2 3 4 5 6 
#
# 1 100.0939 27.5299 27.8936 -0.6179 8.4265 9.4886
# 2 27.5299 122.1740 43.9321 -10.8712 -10.2477 2.9003
# 3 27.8936 43.9321 82.1923 -19.7708 -1.0079 -1.4035
# 4 -0.6179 -10.8712 -19.7708 23.9760 1.8269 1.1800
# 5 8.4265 -10.2477 -1.0079 1.8269 26.8835 -4.1824
# 6 9.4886 2.9003 -1.4035 1.1800 -4.1824 25.5485
#
#
#
# Elastic Compliance Matrix: (Units=1/GPa)
#
#
# Indices 1 2 3 4 5 6 
#
# 1 0.012666 -0.001969 -0.004213 -0.003353 -0.005500 -0.005457
# 2 -0.001969 0.010833 -0.004965 0.000425 0.004524 -0.000050
# 3 -0.004213 -0.004965 0.019582 0.013693 -0.000378 0.002510
# 4 -0.003353 0.000425 0.013693 0.053302 -0.002027 -0.000845
# 5 -0.005500 0.004524 -0.000378 -0.002027 0.042091 0.008492
# 6 -0.005457 -0.000050 0.002510 -0.000845 0.008492 0.042741
#
#
# Mechanical properties :
#
#
# Convention : Reuss Voigt Hill
#
# Bulk Modulus (GPa) = 48.10895 55.90793 52.00844
# Shear Modulus (GPa) = 23.76004 28.95524 26.35764
#
# Velocity S-wave (km/s) = 3.33777 3.68465 3.51549
# Velocity P-wave (km/s) = 6.11652 6.65707 6.39251
#
# Compressibility (1/GPa) = 0.02078615
#
# Stress axis : x y z
#
# Youngs Moduli (GPa) = 78.95183 92.31458 51.06683
#
# Poissons Ratio (x) = 0.18179 0.21515
# Poissons Ratio (y) = 0.15547 0.25355
# Poissons Ratio (z) = 0.33263 0.45834
#
# Static dielectric constant tensor:
#      x y z
#    x 4.035890 0.105880 0.080580 
#    y 0.105880 2.077210 0.906100 
#    z 0.080580 0.906100 3.261810 
# 
# 
# High freq. dielectric constant tensor:
#      x y z
#    x 1.850620 0.003060 0.009450 
#    y 0.003060 1.823180 -0.013550 
#    z 0.009450 -0.013550 1.818710 
# 
# From -- ./inp_files/187236.got.cif
#   From: 2010.06.25/outbox.cif.g09.slc.cpg/sg2_94_cif.got.tgz:187236.got - 2010.06.27 13:26:56.
