data_PCOD8003492
_publ_section_title
;
Structure prediction by ZEFSAII (Michael W. Deem and Ramdas Pophale) SiO2 
 PCOD8003492
Probable space group: P -1
;
_chemical_formula_sum "Si O2"
_cell_formula_units_Z 16
_cell_length_a 21.973535
_cell_length_b 18.215357
_cell_length_c 11.531260
_cell_angle_alpha 147.054365
_cell_angle_beta 42.645109
_cell_angle_gamma 160.562235
_cell_volume 794.629788
_symmetry_space_group_name_H-M "P -1"
_symmetry_group_IT_number 2
_symmetry_cell_setting 'triclinic'
loop_
_space_group_symop_operation_xyz
x,y,z
-x,-y,-z
loop_
_atom_site_type_symbol
_atom_site_label
_atom_site_fract_x
_atom_site_fract_y
_atom_site_fract_z
Si Si1 0.019644 0.838869 0.349258
Si Si2 0.498669 0.910077 0.567269
Si Si3 0.676209 0.183951 0.921914
Si Si4 0.879922 0.149958 0.179434
Si Si5 0.597488 0.756638 0.255309
Si Si6 0.196674 0.188396 0.334538
Si Si7 0.752893 0.262937 0.457934
Si Si8 0.638498 0.826672 0.545052
O O1 0.913347 0.816694 0.540591
O O2 0.082761 0.965479 0.301156
O O3 0.216841 0.061958 0.429871
O O4 0.872406 0.519930 0.122961
O O5 0.451702 0.692567 0.382727
O O6 0.313200 0.759046 0.602352
O O7 0.629810 0.145384 0.798666
O O8 0.586012 0.018696 0.460681
O O9 0.706048 0.070105 0.765810
O O10 0.500000 0.000000 0.000000
O O11 0.841084 0.231844 0.263021
O O12 0.102602 0.442332 0.289346
O O13 0.777349 0.036459 0.296095
O O14 0.815345 0.925806 0.911497
O O15 0.662522 0.797149 0.344614
O O16 0.500000 0.500000 0.000000
O O17 0.419564 0.516176 0.486321
#
# Coordination Sequence:
#
# PCOD8003492 Si02
#       8
#     2   2   2   2   2   2   2   2
#     4  11  25  42  63  93 120 166 212 251 306 363
#     4   9  20  36  59  85 117 155 198 246 296 358
#     4  11  22  40  63  87 126 161 207 257 298 363
#     4  10  20  37  62  87 121 153 196 251 300 363
#     4  10  20  37  58  85 122 154 192 241 306 363
#     4  11  23  43  63  91 128 156 205 263 302 365
#     4   9  19  38  59  88 115 154 200 243 302 361
#     4  11  23  43  65  88 126 167 201 254 311 364
#
# _framework density 20.135161
#
# number of rings (size 3 to 8) (size 9 to 14) (size 15 to 20)
#    0.000    1.750    2.500    1.500    0.000    4.000 
#    6.750    1.250    0.000    0.000    0.000    0.000 
#    0.000    0.000    0.000    0.000    0.000    0.000 
#
# Total GULP energy -198294.484090 kJ/mol
# GULP energy per Si atom -12393.405256 kJ/mol
# Density = 2.008933 g / cm^3
# Si number density = 20.135161 Si / 1000 Ang^3
#
#
#
# Elastic Constant Matrix: (Units=GPa)
#
#
# Indices 1 2 3 4 5 6 
#
# 1 55.6803 14.3916 15.4371 0.4013 0.4217 20.6899
# 2 14.3916 75.7888 25.1253 9.7119 -4.9765 11.3887
# 3 15.4371 25.1253 111.6266 7.7546 -7.0118 8.5307
# 4 0.4013 9.7119 7.7546 36.7708 -5.8848 2.8216
# 5 0.4217 -4.9765 -7.0118 -5.8848 19.4149 0.9116
# 6 20.6899 11.3887 8.5307 2.8216 0.9116 34.9600
#
#
#
# Elastic Compliance Matrix: (Units=1/GPa)
#
#
# Indices 1 2 3 4 5 6 
#
# 1 0.023924 -0.002176 -0.001975 0.001624 -0.000684 -0.013081
# 2 -0.002176 0.015436 -0.002602 -0.002908 0.002320 -0.002932
# 3 -0.001975 -0.002602 0.010089 -0.000944 0.002754 -0.000441
# 4 0.001624 -0.002908 -0.000944 0.029602 0.007962 -0.002380
# 5 -0.000684 0.002320 0.002754 0.007962 0.055671 -0.003118
# 6 -0.013081 -0.002932 -0.000441 -0.002380 -0.003118 0.037682
#
#
# Mechanical properties :
#
#
# Convention : Reuss Voigt Hill
#
# Bulk Modulus (GPa) = 27.82047 39.22264 33.52155
# Shear Modulus (GPa) = 25.26660 30.77191 28.01926
#
# Velocity S-wave (km/s) = 3.54623 3.91355 3.73441
# Velocity P-wave (km/s) = 5.53304 6.32006 5.93960
#
# Compressibility (1/GPa) = 0.03594476
#
# Stress axis : x y z
#
# Youngs Moduli (GPa) = 41.79960 64.78462 99.11315
#
# Poissons Ratio (x) = 0.14094 0.19574
# Poissons Ratio (y) = 0.09094 0.25786
# Poissons Ratio (z) = 0.08255 0.16855
#
# Static dielectric constant tensor:
#      x y z
#    x 4.174690 -0.330600 -0.103810 
#    y -0.330600 4.121920 -0.159580 
#    z -0.103810 -0.159580 3.668440 
# 
# 
# High freq. dielectric constant tensor:
#      x y z
#    x 1.785870 -0.003670 -0.008380 
#    y -0.003670 1.783920 0.000270 
#    z -0.008380 0.000270 1.790470 
# 
# From -- ./inp_files/333241.got.cif
#   From: 2010.06.25/outbox.cif.g09.slc.cpg/sg2_167_cif.got.tgz:333241.got - 2010.06.27 13:26:56.
