data_PCOD8003927
_publ_section_title
;
Structure prediction by ZEFSAII (Michael W. Deem and Ramdas Pophale) SiO2 
 PCOD8003927
Probable space group: P -1
;
_chemical_formula_sum "Si O2"
_cell_formula_units_Z 16
_cell_length_a 8.623294
_cell_length_b 14.026461
_cell_length_c 14.683207
_cell_angle_alpha 133.816700
_cell_angle_beta 130.143443
_cell_angle_gamma 34.756768
_cell_volume 718.030135
_symmetry_space_group_name_H-M "P -1"
_symmetry_group_IT_number 2
_symmetry_cell_setting 'triclinic'
loop_
_space_group_symop_operation_xyz
x,y,z
-x,-y,-z
loop_
_atom_site_type_symbol
_atom_site_label
_atom_site_fract_x
_atom_site_fract_y
_atom_site_fract_z
Si Si1 0.916956 0.065501 0.646189
Si Si2 0.706912 0.301137 0.347548
Si Si3 0.517555 0.060187 0.882664
Si Si4 0.369831 0.697728 0.885376
Si Si5 0.008734 0.677316 0.864270
Si Si6 0.108320 0.562603 0.366705
Si Si7 0.103488 0.668465 0.098833
Si Si8 0.752161 0.926038 0.372301
O O1 0.164792 0.871879 0.656574
O O2 0.686300 0.065048 0.518290
O O3 0.020666 0.109965 0.631740
O O4 0.797878 0.221282 0.778636
O O5 0.771752 0.252458 0.233995
O O6 0.379005 0.440849 0.326156
O O7 0.826510 0.390426 0.483011
O O8 0.512424 0.000939 0.738835
O O9 0.211926 0.207479 0.905858
O O10 0.705473 0.878015 0.892469
O O11 0.661806 0.138088 0.985081
O O12 0.694177 0.513505 0.885299
O O13 0.208131 0.677101 0.879427
O O14 0.989667 0.542671 0.720697
O O15 0.135335 0.609657 0.968039
O O16 0.868713 0.742295 0.339866
#
# Coordination Sequence:
#
# PCOD8003927 Si02
#       8
#     2   2   2   2   2   2   2   2
#     4   9  18  34  59  90 117 146 193 250 297 341
#     4  10  20  37  62  90 121 158 202 247 294 356
#     4  11  22  39  63  87 117 159 206 249 292 354
#     4  12  25  40  60  89 126 160 197 249 306 357
#     4  12  25  40  60  89 126 160 197 249 306 357
#     4  10  20  37  62  90 121 158 202 247 294 356
#     4  11  22  39  63  87 117 159 206 249 292 354
#     4   9  18  34  59  90 117 146 193 250 297 341
#
# _framework density 22.283187000000002
#
# number of rings (size 3 to 8) (size 9 to 14) (size 15 to 20)
#    0.000    1.500    0.000    6.750    0.000    3.500 
#    0.000    0.000    0.000    3.750    0.000    0.000 
#    0.000    0.000    0.000    0.000    0.000    0.000 
#
# Total GULP energy -198370.861203 kJ/mol
# GULP energy per Si atom -12398.178825 kJ/mol
# Density = 2.223247 g / cm^3
# Si number density = 22.283187 Si / 1000 Ang^3
#
#
#
# Elastic Constant Matrix: (Units=GPa)
#
#
# Indices 1 2 3 4 5 6 
#
# 1 60.3851 13.0042 29.8495 -4.7167 12.9394 14.4986
# 2 13.0042 87.8184 38.3575 7.8834 9.7102 17.0521
# 3 29.8495 38.3575 184.4998 6.6139 21.2626 22.0610
# 4 -4.7167 7.8834 6.6139 38.5852 15.1124 3.6957
# 5 12.9394 9.7102 21.2626 15.1124 18.2832 8.3577
# 6 14.4986 17.0521 22.0610 3.6957 8.3577 24.7312
#
#
#
# Elastic Compliance Matrix: (Units=1/GPa)
#
#
# Indices 1 2 3 4 5 6 
#
# 1 0.025144 -0.000452 -0.000738 0.013613 -0.024510 -0.007522
# 2 -0.000452 0.013863 -0.001867 -0.001882 0.000051 -0.007364
# 3 -0.000738 -0.001867 0.006976 0.002195 -0.007338 -0.002351
# 4 0.013613 -0.001882 0.002195 0.047466 -0.051127 0.001544
# 5 -0.024510 0.000051 -0.007338 -0.051127 0.129827 -0.015354
# 6 -0.007522 -0.007364 -0.002351 0.001544 -0.015354 0.056977
#
#
# Mechanical properties :
#
#
# Convention : Reuss Voigt Hill
#
# Bulk Modulus (GPa) = 25.08260 55.01398 40.04829
# Shear Modulus (GPa) = 16.68585 33.08606 24.88596
#
# Velocity S-wave (km/s) = 2.73941 3.85749 3.34549
# Velocity P-wave (km/s) = 4.61373 6.67701 5.73886
#
# Compressibility (1/GPa) = 0.03986828
#
# Stress axis : x y z
#
# Youngs Moduli (GPa) = 39.77116 72.13602 143.35584
#
# Poissons Ratio (x) = 0.03264 0.10577
# Poissons Ratio (y) = 0.01799 0.26760
# Poissons Ratio (z) = 0.02934 0.13466
#
# Static dielectric constant tensor:
#      x y z
#    x 3.391690 0.110220 0.087900 
#    y 0.110220 4.103430 0.022180 
#    z 0.087900 0.022180 4.834170 
# 
# 
# High freq. dielectric constant tensor:
#      x y z
#    x 1.828220 0.016230 0.008510 
#    y 0.016230 1.885210 0.000000 
#    z 0.008510 0.000000 1.908460 
# 
# From -- ./inp_files/175308.got.cif
#   From: 2010.06.25/outbox.cif.g09.slc.cpg/sg2_88_cif.got.tgz:175308.got - 2010.06.27 13:26:56.
