data_PCOD8003164
_publ_section_title
;
Structure prediction by ZEFSAII (Michael W. Deem and Ramdas Pophale) SiO2 
 PCOD8003164
Probable space group: P -1
;
_chemical_formula_sum "Si O2"
_cell_formula_units_Z 14
_cell_length_a 12.230884
_cell_length_b 9.302916
_cell_length_c 9.181602
_cell_angle_alpha 68.166262
_cell_angle_beta 132.372417
_cell_angle_gamma 85.608509
_cell_volume 629.628710
_symmetry_space_group_name_H-M "P -1"
_symmetry_group_IT_number 2
_symmetry_cell_setting 'triclinic'
loop_
_space_group_symop_operation_xyz
x,y,z
-x,-y,-z
loop_
_atom_site_type_symbol
_atom_site_label
_atom_site_fract_x
_atom_site_fract_y
_atom_site_fract_z
Si Si1 0.058346 0.118061 0.358937
Si Si2 0.285284 0.771527 0.160432
Si Si3 0.169908 0.323104 0.188501
Si Si4 0.200103 0.414689 0.675449
Si Si5 0.349938 0.443559 0.503574
Si Si6 0.802635 0.845049 0.031901
Si Si7 0.907037 0.236499 0.472063
O O1 0.031966 0.211029 0.457466
O O2 0.174905 0.164695 0.347014
O O3 0.875739 0.175572 0.104580
O O4 0.159651 0.905529 0.549864
O O5 0.281975 0.653618 0.339030
O O6 0.449635 0.654166 0.253118
O O7 0.296136 0.944359 0.161497
O O8 0.320383 0.361043 0.358578
O O9 0.187979 0.264875 0.060893
O O10 0.000000 0.500000 0.000000
O O11 0.251227 0.401697 0.557550
O O12 0.288667 0.222474 0.904384
O O13 0.244819 0.561213 0.733626
O O14 0.000000 0.500000 0.500000
O O15 0.989384 0.797550 0.270909
#
# Coordination Sequence:
#
# PCOD8003164 Si02
#       7
#     2   2   2   2   2   2   2
#     4  10  20  36  63  89 123 156 206 249 304 362
#     4  10  24  42  62  89 124 170 202 245 307 374
#     4  12  21  35  65  94 117 161 205 257 296 359
#     4  10  20  37  61  90 119 156 198 259 299 354
#     4  11  24  42  64  85 130 164 204 248 309 363
#     4  10  22  37  63  92 126 154 209 252 307 358
#     4   9  19  35  58  91 123 151 197 262 301 356
#
# _framework density 22.235326000000001
#
# number of rings (size 3 to 8) (size 9 to 14) (size 15 to 20)
#    0.000    1.714    1.429    4.286    2.000    2.286 
#    0.000    0.714    0.000    0.000    0.000    0.000 
#    0.000    0.000    0.000    0.000    0.000    0.000 
#
# Total GULP energy -173460.242043 kJ/mol
# GULP energy per Si atom -12390.017289 kJ/mol
# Density = 2.218472 g / cm^3
# Si number density = 22.235326 Si / 1000 Ang^3
#
#
#
# Elastic Constant Matrix: (Units=GPa)
#
#
# Indices 1 2 3 4 5 6 
#
# 1 98.7922 29.0939 33.4171 -8.6022 -31.9723 9.0933
# 2 29.0939 138.6348 47.8498 -13.2185 -24.0125 1.9534
# 3 33.4171 47.8498 55.1266 -13.6084 -21.6804 6.7931
# 4 -8.6022 -13.2185 -13.6084 36.9774 5.5510 -16.5022
# 5 -31.9723 -24.0125 -21.6804 5.5510 42.0474 -2.3787
# 6 9.0933 1.9534 6.7931 -16.5022 -2.3787 29.4576
#
#
#
# Elastic Compliance Matrix: (Units=1/GPa)
#
#
# Indices 1 2 3 4 5 6 
#
# 1 0.014976 0.000285 -0.005907 -0.001361 0.008494 -0.003356
# 2 0.000285 0.010496 -0.008514 0.001347 0.001760 0.002076
# 3 -0.005907 -0.008514 0.033608 0.006335 0.007068 -0.001243
# 4 -0.001361 0.001347 0.006335 0.038861 -0.000966 0.020562
# 5 0.008494 0.001760 0.007068 -0.000966 0.034900 -0.002092
# 6 -0.003356 0.002076 -0.001243 0.020562 -0.002092 0.046482
#
#
# Mechanical properties :
#
#
# Convention : Reuss Voigt Hill
#
# Bulk Modulus (GPa) = 32.46060 57.03059 44.74560
# Shear Modulus (GPa) = 22.94981 33.84266 28.39623
#
# Velocity S-wave (km/s) = 3.21617 3.90554 3.57750
# Velocity P-wave (km/s) = 5.33123 6.78543 6.10180
#
# Compressibility (1/GPa) = 0.03080658
#
# Stress axis : x y z
#
# Youngs Moduli (GPa) = 66.77398 95.27203 29.75469
#
# Poissons Ratio (x) = -0.02713 0.17577
# Poissons Ratio (y) = -0.01902 0.25334
# Poissons Ratio (z) = 0.39445 0.81118
#
# Static dielectric constant tensor:
#      x y z
#    x 3.780070 0.384440 -0.409520 
#    y 0.384440 4.808470 -0.416490 
#    z -0.409520 -0.416490 3.973370 
# 
# 
# High freq. dielectric constant tensor:
#      x y z
#    x 1.847950 0.018050 -0.038450 
#    y 0.018050 1.901880 -0.013870 
#    z -0.038450 -0.013870 1.847510 
# 
# From -- ./inp_files/237963.got.cif
#   From: 2010.06.25/outbox.cif.g09.slc.cpg/sg2_119_cif.got.tgz:237963.got - 2010.06.27 13:26:56.
