data_PCOD8003072
_publ_section_title
;
Structure prediction by ZEFSAII (Michael W. Deem and Ramdas Pophale) SiO2 
 PCOD8003072
Probable space group: P -1
;
_chemical_formula_sum "Si O2"
_cell_formula_units_Z 16
_cell_length_a 14.437108
_cell_length_b 14.347303
_cell_length_c 8.703350
_cell_angle_alpha 66.420442
_cell_angle_beta 41.601898
_cell_angle_gamma 40.790084
_cell_volume 722.325867
_symmetry_space_group_name_H-M "P -1"
_symmetry_group_IT_number 2
_symmetry_cell_setting 'triclinic'
loop_
_space_group_symop_operation_xyz
x,y,z
-x,-y,-z
loop_
_atom_site_type_symbol
_atom_site_label
_atom_site_fract_x
_atom_site_fract_y
_atom_site_fract_z
Si Si1 0.072161 0.675312 0.242063
Si Si2 0.315772 0.849131 0.915771
Si Si3 0.305817 0.690222 0.453738
Si Si4 0.349350 0.019478 0.565968
Si Si5 0.990148 0.131423 0.555941
Si Si6 0.619723 0.663773 0.923543
Si Si7 0.466238 0.906701 0.167790
Si Si8 0.385065 0.647977 0.711934
O O1 0.084690 0.726645 0.355245
O O2 0.830554 0.808012 0.394293
O O3 0.150840 0.515225 0.271713
O O4 0.212048 0.656873 0.956357
O O5 0.408696 0.717344 0.768015
O O6 0.242458 0.988210 0.819095
O O7 0.111947 0.914115 0.212652
O O8 0.513307 0.771407 0.832426
O O9 0.075428 0.820647 0.573149
O O10 0.463795 0.657376 0.161820
O O11 0.309414 0.741256 0.583456
O O12 0.384376 0.530311 0.479864
O O13 0.500000 0.000000 0.500000
O O14 0.483472 0.898461 0.336792
O O15 0.242184 0.981315 0.343421
O O16 0.640423 0.736687 0.985527
O O17 0.500000 0.000000 0.000000
#
# Coordination Sequence:
#
# PCOD8003072 Si02
#       8
#     2   2   2   2   2   2   2   2
#     4   9  20  38  59  83 116 154 194 237 287 347
#     4  10  20  36  62  88 116 152 197 240 287 343
#     4   9  17  30  53  87 123 151 188 239 293 341
#     4  11  24  42  61  85 118 155 195 241 291 344
#     4   9  20  37  60  86 116 155 195 237 288 346
#     4  10  20  37  60  85 116 153 193 239 288 345
#     4  11  24  41  59  85 119 154 195 241 290 344
#     4   9  17  30  53  88 121 151 189 241 290 340
#
# _framework density 22.150665
#
# number of rings (size 3 to 8) (size 9 to 14) (size 15 to 20)
#    0.000    2.250    0.000    2.250    0.000   12.500 
#    0.000    7.500    0.000    0.000    0.000    0.000 
#    0.000    0.000    0.000    0.000    0.000    0.000 
#
# Total GULP energy -198378.755622 kJ/mol
# GULP energy per Si atom -12398.672226 kJ/mol
# Density = 2.210025 g / cm^3
# Si number density = 22.150665 Si / 1000 Ang^3
#
#
#
# Elastic Constant Matrix: (Units=GPa)
#
#
# Indices 1 2 3 4 5 6 
#
# 1 139.4180 43.4727 25.5538 1.1657 17.9134 -6.5824
# 2 43.4727 102.9567 19.3128 2.8442 6.6978 8.1072
# 3 25.5538 19.3128 51.4445 -10.7116 7.5143 -1.7647
# 4 1.1657 2.8442 -10.7116 27.8203 2.7384 10.6142
# 5 17.9134 6.6978 7.5143 2.7384 34.0111 -5.8400
# 6 -6.5824 8.1072 -1.7647 10.6142 -5.8400 34.0203
#
#
#
# Elastic Compliance Matrix: (Units=1/GPa)
#
#
# Indices 1 2 3 4 5 6 
#
# 1 0.009309 -0.003264 -0.003300 -0.002003 -0.002935 0.002529
# 2 -0.003264 0.012006 -0.003130 -0.000936 -0.000469 -0.003444
# 3 -0.003300 -0.003130 0.025302 0.011841 -0.004719 -0.003085
# 4 -0.002003 -0.000936 0.011841 0.047455 -0.007896 -0.015712
# 5 -0.002935 -0.000469 -0.004719 -0.007896 0.034024 0.007603
# 6 0.002529 -0.003444 -0.003085 -0.015712 0.007603 0.036751
#
#
# Mechanical properties :
#
#
# Convention : Reuss Voigt Hill
#
# Bulk Modulus (GPa) = 36.72736 52.27754 44.50245
# Shear Modulus (GPa) = 25.86494 32.86900 29.36697
#
# Velocity S-wave (km/s) = 3.42084 3.85630 3.64508
# Velocity P-wave (km/s) = 5.67623 6.59395 6.15223
#
# Compressibility (1/GPa) = 0.02722766
#
# Stress axis : x y z
#
# Youngs Moduli (GPa) = 107.42651 83.29266 39.52311
#
# Poissons Ratio (x) = 0.27190 0.13042
# Poissons Ratio (y) = 0.35068 0.12371
# Poissons Ratio (z) = 0.35450 0.26071
#
# Static dielectric constant tensor:
#      x y z
#    x 3.953110 -0.061890 0.275010 
#    y -0.061890 4.131580 -0.053350 
#    z 0.275010 -0.053350 3.875390 
# 
# 
# High freq. dielectric constant tensor:
#      x y z
#    x 1.870310 0.004490 0.025250 
#    y 0.004490 1.872020 -0.001510 
#    z 0.025250 -0.001510 1.851030 
# 
# From -- ./inp_files/312613.got.cif
#   From: 2010.06.25/outbox.cif.g09.slc.cpg/sg2_157_cif.got.tgz:312613.got - 2010.06.27 13:26:56.
