data_PCOD8003558
_publ_section_title
;
Structure prediction by ZEFSAII (Michael W. Deem and Ramdas Pophale) SiO2 
 PCOD8003558
Probable space group: P -1
;
_chemical_formula_sum "Si O2"
_cell_formula_units_Z 16
_cell_length_a 8.773429
_cell_length_b 11.888867
_cell_length_c 13.660016
_cell_angle_alpha 70.261402
_cell_angle_beta 71.160475
_cell_angle_gamma 35.812168
_cell_volume 781.603789
_symmetry_space_group_name_H-M "P -1"
_symmetry_group_IT_number 2
_symmetry_cell_setting 'triclinic'
loop_
_space_group_symop_operation_xyz
x,y,z
-x,-y,-z
loop_
_atom_site_type_symbol
_atom_site_label
_atom_site_fract_x
_atom_site_fract_y
_atom_site_fract_z
Si Si1 0.796343 0.062281 0.949631
Si Si2 0.368350 0.994559 0.832763
Si Si3 0.550068 0.742471 0.695140
Si Si4 0.473663 0.399396 0.775993
Si Si5 0.543103 0.149447 0.697862
Si Si6 0.748441 0.727350 0.471552
Si Si7 0.082965 0.687056 0.296358
Si Si8 0.916374 0.166082 0.238139
O O1 0.953586 0.911095 0.872737
O O2 0.585137 0.281261 0.889215
O O3 0.629964 0.058484 0.042522
O O4 0.000000 0.000000 0.000000
O O5 0.554189 0.805933 0.779697
O O6 0.468250 0.071301 0.791668
O O7 0.069691 0.161559 0.805847
O O8 0.587798 0.821695 0.578951
O O9 0.790779 0.509487 0.711613
O O10 0.279997 0.829532 0.708524
O O11 0.403500 0.338231 0.730749
O O12 0.698952 0.351722 0.695391
O O13 0.219020 0.626258 0.783721
O O14 0.442976 0.213754 0.589037
O O15 0.857333 0.980208 0.684300
O O16 0.000000 0.500000 0.500000
O O17 0.861791 0.790104 0.395470
#
# Coordination Sequence:
#
# PCOD8003558 Si02
#       8
#     2   2   2   2   2   2   2   2
#     4  11  20  37  62  88 113 149 194 242 281 334
#     4  11  21  37  59  86 114 151 194 239 285 330
#     4  10  20  37  59  85 114 149 197 237 281 339
#     4  10  21  39  59  85 121 153 187 233 288 346
#     4  10  23  39  57  83 121 153 185 238 289 340
#     4   9  20  39  61  86 113 149 196 240 282 335
#     4   9  19  36  58  83 114 148 190 239 280 332
#     4  10  22  38  58  87 119 152 190 232 290 345
#
# _framework density 20.470728999999999
#
# number of rings (size 3 to 8) (size 9 to 14) (size 15 to 20)
#    0.000    2.000    2.500    0.750    0.000    9.000 
#    0.000    9.375    0.000    0.000    0.000    0.000 
#    0.000    0.000    0.000    0.000    0.000    0.000 
#
# Total GULP energy -198364.239586 kJ/mol
# GULP energy per Si atom -12397.764974 kJ/mol
# Density = 2.042414 g / cm^3
# Si number density = 20.470729 Si / 1000 Ang^3
#
#
#
# Elastic Constant Matrix: (Units=GPa)
#
#
# Indices 1 2 3 4 5 6 
#
# 1 69.0934 36.3223 28.7688 5.7437 -5.2118 12.9129
# 2 36.3223 114.0689 42.5446 8.6863 1.9892 2.4223
# 3 28.7688 42.5446 134.9674 12.3678 -7.6165 -0.0995
# 4 5.7437 8.6863 12.3678 27.6561 -5.3291 2.3947
# 5 -5.2118 1.9892 -7.6165 -5.3291 29.3489 -7.9750
# 6 12.9129 2.4223 -0.0995 2.3947 -7.9750 30.1888
#
#
#
# Elastic Compliance Matrix: (Units=1/GPa)
#
#
# Indices 1 2 3 4 5 6 
#
# 1 0.019807 -0.005195 -0.002486 -0.000501 0.001027 -0.007753
# 2 -0.005195 0.011525 -0.002484 -0.001979 -0.002494 0.000787
# 3 -0.002486 -0.002484 0.009078 -0.002521 0.002188 0.002071
# 4 -0.000501 -0.001979 -0.002521 0.039307 0.006227 -0.001108
# 5 0.001027 -0.002494 0.002188 0.006227 0.038704 0.009499
# 6 -0.007753 0.000787 0.002071 -0.001108 0.009499 0.038982
#
#
# Mechanical properties :
#
#
# Convention : Reuss Voigt Hill
#
# Bulk Modulus (GPa) = 49.80277 59.26678 54.53477
# Shear Modulus (GPa) = 27.11091 31.47169 29.29130
#
# Velocity S-wave (km/s) = 3.64314 3.92522 3.78681
# Velocity P-wave (km/s) = 6.48677 7.03974 6.76891
#
# Compressibility (1/GPa) = 0.02007920
#
# Stress axis : x y z
#
# Youngs Moduli (GPa) = 50.48620 86.76883 110.15284
#
# Poissons Ratio (x) = 0.45076 0.27388
# Poissons Ratio (y) = 0.26227 0.27366
# Poissons Ratio (z) = 0.12553 0.21557
#
# Static dielectric constant tensor:
#      x y z
#    x 3.782650 -0.078990 -0.225510 
#    y -0.078990 3.820220 -0.104950 
#    z -0.225510 -0.104950 4.121100 
# 
# 
# High freq. dielectric constant tensor:
#      x y z
#    x 1.794950 -0.002120 -0.015290 
#    y -0.002120 1.809090 -0.007550 
#    z -0.015290 -0.007550 1.796170 
# 
# From -- ./inp_files/312986.got.cif
#   From: 2010.06.25/outbox.cif.g09.slc.cpg/sg2_157_cif.got.tgz:312986.got - 2010.06.27 13:26:56.
