data_PCOD8003894
_publ_section_title
;
Structure prediction by ZEFSAII (Michael W. Deem and Ramdas Pophale) SiO2 
 PCOD8003894
Probable space group: P -1
;
_chemical_formula_sum "Si O2"
_cell_formula_units_Z 16
_cell_length_a 16.607670
_cell_length_b 23.972598
_cell_length_c 12.593784
_cell_angle_alpha 19.493298
_cell_angle_beta 39.384639
_cell_angle_gamma 31.232741
_cell_volume 851.475112
_symmetry_space_group_name_H-M "P -1"
_symmetry_group_IT_number 2
_symmetry_cell_setting 'triclinic'
loop_
_space_group_symop_operation_xyz
x,y,z
-x,-y,-z
loop_
_atom_site_type_symbol
_atom_site_label
_atom_site_fract_x
_atom_site_fract_y
_atom_site_fract_z
Si Si1 0.756434 0.612201 0.245578
Si Si2 0.307700 0.504768 0.264429
Si Si3 0.254314 0.226402 0.388092
Si Si4 0.991080 0.203448 0.635161
Si Si5 0.900568 0.063530 0.380369
Si Si6 0.577573 0.240427 0.315796
Si Si7 0.445789 0.032437 0.325893
Si Si8 0.990995 0.305255 0.211352
O O1 0.726085 0.601270 0.419417
O O2 0.822990 0.395100 0.509064
O O3 0.590764 0.790157 0.038617
O O4 0.872180 0.679117 0.996426
O O5 0.409882 0.330474 0.381528
O O6 0.420064 0.570554 0.070827
O O7 0.139607 0.715331 0.016420
O O8 0.125415 0.181368 0.610958
O O9 0.343795 0.139368 0.342499
O O10 0.369456 0.111894 0.576050
O O11 0.176927 0.471396 0.035263
O O12 0.017170 0.249811 0.407546
O O13 0.000000 0.000000 0.000000
O O14 0.008265 0.872169 0.532360
O O15 0.728199 0.104786 0.488132
O O16 0.000000 0.000000 0.500000
O O17 0.602468 0.104862 0.431945
#
# Coordination Sequence:
#
# PCOD8003894 Si02
#       8
#     2   2   2   2   2   2   2   2
#     4  11  19  37  62  85 114 155 193 234 288 357
#     4   9  21  37  59  88 111 154 198 233 294 343
#     4  10  22  36  59  92 113 153 198 236 288 345
#     4  11  21  37  62  86 119 154 191 234 295 348
#     4  10  20  37  62  87 114 150 199 238 285 343
#     4   9  20  40  59  79 117 161 186 238 296 336
#     4  11  20  38  61  83 120 152 195 238 285 350
#     4  11  20  39  60  84 118 158 186 236 300 338
#
# _framework density 18.790918999999999
#
# number of rings (size 3 to 8) (size 9 to 14) (size 15 to 20)
#    0.750    1.000    3.750    1.500    3.500    0.500 
#    0.000    6.250    0.000    0.000    0.000    0.000 
#    0.000    0.000    0.000    0.000    0.000    0.000 
#
# Total GULP energy -198270.019074 kJ/mol
# GULP energy per Si atom -12391.876192 kJ/mol
# Density = 1.874815 g / cm^3
# Si number density = 18.790919 Si / 1000 Ang^3
#
#
#
# Elastic Constant Matrix: (Units=GPa)
#
#
# Indices 1 2 3 4 5 6 
#
# 1 99.4304 27.5955 34.7451 -15.5323 23.8978 -6.6382
# 2 27.5955 84.4333 39.7731 -9.4355 11.0065 4.5632
# 3 34.7451 39.7731 99.9381 -9.1651 23.6126 -10.5042
# 4 -15.5323 -9.4355 -9.1651 42.0274 2.9327 1.7777
# 5 23.8978 11.0065 23.6126 2.9327 30.2986 -5.7837
# 6 -6.6382 4.5632 -10.5042 1.7777 -5.7837 21.1797
#
#
#
# Elastic Compliance Matrix: (Units=1/GPa)
#
#
# Indices 1 2 3 4 5 6 
#
# 1 0.014370 -0.002389 -0.001103 0.005164 -0.009849 0.001349
# 2 -0.002389 0.016206 -0.006033 0.001828 -0.000937 -0.007642
# 3 -0.001103 -0.006033 0.015523 0.001916 -0.008019 0.006303
# 4 0.005164 0.001828 0.001916 0.027299 -0.009384 -0.002679
# 5 -0.009849 -0.000937 -0.008019 -0.009384 0.049702 0.007498
# 6 0.001349 -0.007642 0.006303 -0.002679 0.007498 0.054682
#
#
# Mechanical properties :
#
#
# Convention : Reuss Voigt Hill
#
# Bulk Modulus (GPa) = 36.96959 54.22546 45.59752
# Shear Modulus (GPa) = 24.28968 30.81370 27.55169
#
# Velocity S-wave (km/s) = 3.59922 4.05386 3.83328
# Velocity P-wave (km/s) = 6.08189 7.12963 6.62650
#
# Compressibility (1/GPa) = 0.02704926
#
# Stress axis : x y z
#
# Youngs Moduli (GPa) = 69.59158 61.70599 64.41857
#
# Poissons Ratio (x) = 0.14741 0.07103
# Poissons Ratio (y) = 0.16625 0.38865
# Poissons Ratio (z) = 0.07674 0.37229
#
# Static dielectric constant tensor:
#      x y z
#    x 3.327430 0.013220 0.095050 
#    y 0.013220 3.516170 -0.416100 
#    z 0.095050 -0.416100 3.542380 
# 
# 
# High freq. dielectric constant tensor:
#      x y z
#    x 1.708750 0.010350 0.003960 
#    y 0.010350 1.728240 -0.031610 
#    z 0.003960 -0.031610 1.727300 
# 
# From -- ./inp_files/467413.got.cif
#   From: 2010.06.25/outbox.cif.g09.slc.cpg/sg2_234_cif.got.tgz:467413.got - 2010.06.27 13:26:56.
