data_PCOD8003161
_publ_section_title
;
Structure prediction by ZEFSAII (Michael W. Deem and Ramdas Pophale) SiO2 
 PCOD8003161
Probable space group: P -1
;
_chemical_formula_sum "Si O2"
_cell_formula_units_Z 14
_cell_length_a 14.787356
_cell_length_b 8.748594
_cell_length_c 11.794365
_cell_angle_alpha 83.087235
_cell_angle_beta 122.543375
_cell_angle_gamma 50.089742
_cell_volume 684.791786
_symmetry_space_group_name_H-M "P -1"
_symmetry_group_IT_number 2
_symmetry_cell_setting 'triclinic'
loop_
_space_group_symop_operation_xyz
x,y,z
-x,-y,-z
loop_
_atom_site_type_symbol
_atom_site_label
_atom_site_fract_x
_atom_site_fract_y
_atom_site_fract_z
Si Si1 0.830239 0.178670 0.084050
Si Si2 0.551080 0.795228 0.208363
Si Si3 0.963255 0.664733 0.616630
Si Si4 0.775893 0.097842 0.630523
Si Si5 0.619164 0.245932 0.751370
Si Si6 0.994782 0.292439 0.605183
Si Si7 0.386419 0.300057 0.989567
O O1 0.649320 0.502105 0.981477
O O2 0.761091 0.193664 0.916815
O O3 0.026072 0.041734 0.206617
O O4 0.868033 0.999397 0.216428
O O5 0.398735 0.891825 0.179729
O O6 0.778077 0.479504 0.421718
O O7 0.503517 0.797043 0.047064
O O8 0.518809 0.019285 0.177157
O O9 0.969826 0.472632 0.651632
O O10 0.898466 0.790855 0.433907
O O11 0.180317 0.466909 0.805705
O O12 0.805313 0.925464 0.575473
O O13 0.718585 0.088531 0.711804
O O14 0.601091 0.418985 0.440701
#
# Coordination Sequence:
#
# PCOD8003161 Si02
#       7
#     2   2   2   2   2   2   2
#     4  11  22  39  63  89 115 156 199 248 293 348
#     4  10  20  38  57  89 125 154 192 248 290 360
#     4   9  20  38  60  84 122 157 194 244 295 352
#     4  10  23  42  58  88 120 159 200 244 282 354
#     4  11  23  39  62  85 123 159 198 240 293 346
#     4  10  20  36  63  89 120 152 195 246 305 341
#     4   9  21  36  59  89 122 151 196 245 302 343
#
# _framework density 20.444171999999998
#
# number of rings (size 3 to 8) (size 9 to 14) (size 15 to 20)
#    0.000    2.000    1.429    1.286    4.000    3.429 
#    0.000    8.571    0.000    0.000    0.000    0.000 
#    0.000    0.000    0.000    0.000    0.000    0.000 
#
# Total GULP energy -173647.751002 kJ/mol
# GULP energy per Si atom -12403.410786 kJ/mol
# Density = 2.039764 g / cm^3
# Si number density = 20.444172 Si / 1000 Ang^3
#
#
#
# Elastic Constant Matrix: (Units=GPa)
#
#
# Indices 1 2 3 4 5 6 
#
# 1 116.3305 61.9572 23.5027 -0.1355 -18.1688 -8.6100
# 2 61.9572 153.1721 31.3751 -1.1415 -15.8772 -11.5817
# 3 23.5027 31.3751 51.8930 -1.0735 -17.6382 -6.4997
# 4 -0.1355 -1.1415 -1.0735 27.8722 3.4300 1.7063
# 5 -18.1688 -15.8772 -17.6382 3.4300 23.8526 2.0156
# 6 -8.6100 -11.5817 -6.4997 1.7063 2.0156 26.8000
#
#
#
# Elastic Compliance Matrix: (Units=1/GPa)
#
#
# Indices 1 2 3 4 5 6 
#
# 1 0.011876 -0.003916 -0.000865 -0.000945 0.005806 0.001537
# 2 -0.003916 0.008962 -0.003287 0.000064 0.000392 0.001784
# 3 -0.000865 -0.003287 0.028183 -0.001492 0.017880 0.003887
# 4 -0.000945 0.000064 -0.001492 0.036814 -0.006866 -0.002465
# 5 0.005806 0.000392 0.017880 -0.006866 0.060627 0.002249
# 6 0.001537 0.001784 0.003887 -0.002465 0.002249 0.039509
#
#
# Mechanical properties :
#
#
# Convention : Reuss Voigt Hill
#
# Bulk Modulus (GPa) = 30.40841 61.67395 46.04118
# Shear Modulus (GPa) = 23.46689 29.34232 26.40461
#
# Velocity S-wave (km/s) = 3.39167 3.79257 3.59771
# Velocity P-wave (km/s) = 5.49946 7.02927 6.31089
#
# Compressibility (1/GPa) = 0.03288564
#
# Stress axis : x y z
#
# Youngs Moduli (GPa) = 84.20503 111.58569 35.48290
#
# Poissons Ratio (x) = 0.43692 0.03069
# Poissons Ratio (y) = 0.32971 0.11663
# Poissons Ratio (z) = 0.07282 0.36677
#
# Static dielectric constant tensor:
#      x y z
#    x 3.564780 -0.045260 -0.029530 
#    y -0.045260 3.793110 -0.017850 
#    z -0.029530 -0.017850 3.679130 
# 
# 
# High freq. dielectric constant tensor:
#      x y z
#    x 1.792330 0.002900 0.003670 
#    y 0.002900 1.792110 -0.003600 
#    z 0.003670 -0.003600 1.805100 
# 
# From -- ./inp_files/165357.got.cif
#   From: 2010.06.25/outbox.cif.g09.slc.cpg/sg2_83_cif.got.tgz:165357.got - 2010.06.27 13:26:56.
