data_PCOD8003060
_publ_section_title
;
Structure prediction by ZEFSAII (Michael W. Deem and Ramdas Pophale) SiO2 
 PCOD8003060
Probable space group: P -1
;
_chemical_formula_sum "Si O2"
_cell_formula_units_Z 14
_cell_length_a 21.656063
_cell_length_b 8.727782
_cell_length_c 18.691306
_cell_angle_alpha 53.318801
_cell_angle_beta 162.055087
_cell_angle_gamma 135.874708
_cell_volume 694.971392
_symmetry_space_group_name_H-M "P -1"
_symmetry_group_IT_number 2
_symmetry_cell_setting 'triclinic'
loop_
_space_group_symop_operation_xyz
x,y,z
-x,-y,-z
loop_
_atom_site_type_symbol
_atom_site_label
_atom_site_fract_x
_atom_site_fract_y
_atom_site_fract_z
Si Si1 0.234967 0.218863 0.354538
Si Si2 0.982106 0.842243 0.588484
Si Si3 0.430836 0.736557 0.410261
Si Si4 0.708910 0.926869 0.808371
Si Si5 0.448778 0.455510 0.144919
Si Si6 0.934401 0.064260 0.611568
Si Si7 0.529082 0.095073 0.926251
O O1 0.250219 0.457327 0.309337
O O2 0.462887 0.249239 0.555406
O O3 0.216451 0.131699 0.438252
O O4 0.991867 0.015561 0.098700
O O5 0.711331 0.577798 0.356272
O O6 0.217930 0.835994 0.849911
O O7 0.000000 0.000000 0.500000
O O8 0.002943 0.957676 0.654690
O O9 0.638782 0.874279 0.663050
O O10 0.291022 0.858190 0.219549
O O11 0.541485 0.695805 0.739291
O O12 0.450918 0.665895 0.122373
O O13 0.200757 0.303363 0.864153
O O14 0.732575 0.107466 0.348118
O O15 0.500000 0.000000 0.000000
#
# Coordination Sequence:
#
# PCOD8003060 Si02
#       7
#     2   2   2   2   2   2   2
#     4  10  21  38  58  89 122 154 199 240 292 349
#     4  11  22  42  61  85 119 155 200 249 305 356
#     4  10  20  36  62  86 120 160 192 238 294 348
#     4  10  21  38  58  89 122 154 199 240 292 349
#     4  10  23  40  61  91 122 156 201 250 295 359
#     4  10  23  40  61  91 122 156 201 250 295 359
#     4  11  22  42  61  85 119 155 200 249 305 356
#
# _framework density 20.144715000000001
#
# number of rings (size 3 to 8) (size 9 to 14) (size 15 to 20)
#    0.000    1.714    2.857    2.571    0.000    6.857 
#    0.000    7.143    0.000    0.000    0.000    0.000 
#    0.000    0.000    0.000    0.000    0.000    0.000 
#
# Total GULP energy -173510.532123 kJ/mol
# GULP energy per Si atom -12393.609437 kJ/mol
# Density = 2.009886 g / cm^3
# Si number density = 20.144715 Si / 1000 Ang^3
#
#
#
# Elastic Constant Matrix: (Units=GPa)
#
#
# Indices 1 2 3 4 5 6 
#
# 1 98.8362 18.1958 31.1673 -4.4057 4.3678 1.6782
# 2 18.1958 55.8620 6.4266 -4.1398 5.9835 -4.6080
# 3 31.1673 6.4266 130.2354 1.1514 13.6426 -2.9718
# 4 -4.4057 -4.1398 1.1514 32.8133 0.4670 -1.4365
# 5 4.3678 5.9835 13.6426 0.4670 34.8035 -1.1612
# 6 1.6782 -4.6080 -2.9718 -1.4365 -1.1612 22.4144
#
#
#
# Elastic Compliance Matrix: (Units=1/GPa)
#
#
# Indices 1 2 3 4 5 6 
#
# 1 0.011704 -0.003588 -0.002690 0.001128 0.000124 -0.001892
# 2 -0.003588 0.019884 0.000267 0.002251 -0.002957 0.004383
# 3 -0.002690 0.000267 0.008661 -0.000535 -0.003056 0.001212
# 4 0.001128 0.002251 -0.000535 0.031038 -0.000660 0.002262
# 5 0.000124 -0.002957 -0.003056 -0.000660 0.030449 0.000513
# 6 -0.001892 0.004383 0.001212 0.002262 0.000513 0.045989
#
#
# Mechanical properties :
#
#
# Convention : Reuss Voigt Hill
#
# Bulk Modulus (GPa) = 35.42636 44.05699 39.74168
# Shear Modulus (GPa) = 29.55824 33.28249 31.42036
#
# Velocity S-wave (km/s) = 3.83468 4.06910 3.95363
# Velocity P-wave (km/s) = 6.10168 6.63283 6.37279
#
# Compressibility (1/GPa) = 0.02822757
#
# Stress axis : x y z
#
# Youngs Moduli (GPa) = 85.44404 50.29048 115.45395
#
# Poissons Ratio (x) = 0.18047 0.31056
# Poissons Ratio (y) = 0.30661 -0.03088
# Poissons Ratio (z) = 0.22984 -0.01345
#
# Static dielectric constant tensor:
#      x y z
#    x 3.349470 0.127110 -0.088750 
#    y 0.127110 3.698730 0.128470 
#    z -0.088750 0.128470 3.976200 
# 
# 
# High freq. dielectric constant tensor:
#      x y z
#    x 1.785920 0.011460 -0.002090 
#    y 0.011460 1.782350 0.004050 
#    z -0.002090 0.004050 1.801620 
# 
# From -- ./inp_files/315453.got.cif
#   From: 2010.06.25/outbox.cif.g09.slc.cpg/sg2_158_cif.got.tgz:315453.got - 2010.06.27 13:26:56.
