data_PCOD8003756
_publ_section_title
;
Structure prediction by ZEFSAII (Michael W. Deem and Ramdas Pophale) SiO2 
 PCOD8003756
Probable space group: P -1
;
_chemical_formula_sum "Si O2"
_cell_formula_units_Z 10
_cell_length_a 14.914774
_cell_length_b 8.700285
_cell_length_c 8.999689
_cell_angle_alpha 89.938548
_cell_angle_beta 140.187315
_cell_angle_gamma 119.042844
_cell_volume 488.650772
_symmetry_space_group_name_H-M "P -1"
_symmetry_group_IT_number 2
_symmetry_cell_setting 'triclinic'
loop_
_space_group_symop_operation_xyz
x,y,z
-x,-y,-z
loop_
_atom_site_type_symbol
_atom_site_label
_atom_site_fract_x
_atom_site_fract_y
_atom_site_fract_z
Si Si1 0.928158 0.100344 0.732077
Si Si2 0.103975 0.435976 0.698279
Si Si3 0.522265 0.744366 0.391650
Si Si4 0.643392 0.505545 0.542728
Si Si5 0.270010 0.366120 0.653714
O O1 0.945800 0.239242 0.623248
O O2 0.743879 0.999622 0.614564
O O3 0.872696 0.892214 0.587723
O O4 0.145360 0.266265 0.099924
O O5 0.135799 0.337692 0.609620
O O6 0.000000 0.500000 0.500000
O O7 0.332500 0.669594 0.060530
O O8 0.503496 0.544462 0.339773
O O9 0.486193 0.730980 0.525564
O O10 0.695973 0.488002 0.443804
O O11 0.500000 0.500000 0.000000
#
# Coordination Sequence:
#
# PCOD8003756 Si02
#       5
#     2   2   2   2   2
#     4  10  20  37  61  84 112 150 192 229 283 333
#     4  11  23  37  56  85 121 150 182 235 288 332
#     4   9  17  35  54  81 112 147 183 225 284 324
#     4   9  18  33  61  83 112 143 192 237 274 327
#     4  11  19  37  59  90 110 145 192 240 271 329
#
# _framework density 20.464511999999999
#
# number of rings (size 3 to 8) (size 9 to 14) (size 15 to 20)
#    0.000    2.000    4.000    3.000    0.000    0.800 
#    3.600    4.000    0.000    6.000    0.000    0.000 
#    0.000    0.000    0.000    0.000    0.000    0.000 
#
# Total GULP energy -123925.655936 kJ/mol
# GULP energy per Si atom -12392.565594 kJ/mol
# Density = 2.041793 g / cm^3
# Si number density = 20.464512 Si / 1000 Ang^3
#
#
#
# Elastic Constant Matrix: (Units=GPa)
#
#
# Indices 1 2 3 4 5 6 
#
# 1 80.5926 64.4936 52.6600 -0.5340 4.1562 41.3492
# 2 64.4936 102.4106 55.4663 -16.9449 10.4811 38.2009
# 3 52.6600 55.4663 97.2696 -19.8884 10.0996 15.8982
# 4 -0.5340 -16.9449 -19.8884 34.8297 5.8481 4.9703
# 5 4.1562 10.4811 10.0996 5.8481 32.3907 -1.3229
# 6 41.3492 38.2009 15.8982 4.9703 -1.3229 43.8253
#
#
#
# Elastic Compliance Matrix: (Units=1/GPa)
#
#
# Indices 1 2 3 4 5 6 
#
# 1 0.046030 -0.013977 -0.016201 -0.012794 0.005007 -0.023767
# 2 -0.013977 0.027987 -0.002115 0.015649 -0.009940 -0.012516
# 3 -0.016201 -0.002115 0.021838 0.011042 -0.005722 0.007782
# 4 -0.012794 0.015649 0.011042 0.046699 -0.015760 -0.011347
# 5 0.005007 -0.009940 -0.005722 -0.015760 0.038443 0.008963
# 6 -0.023767 -0.012516 0.007782 -0.011347 0.008963 0.054886
#
#
# Mechanical properties :
#
#
# Convention : Reuss Voigt Hill
#
# Bulk Modulus (GPa) = 31.98066 69.50139 50.74102
# Shear Modulus (GPa) = 16.08281 29.38599 22.73440
#
# Velocity S-wave (km/s) = 2.80641 3.79350 3.33666
# Velocity P-wave (km/s) = 5.11493 7.29542 6.30023
#
# Compressibility (1/GPa) = 0.03126890
#
# Stress axis : x y z
#
# Youngs Moduli (GPa) = 21.72514 35.73027 45.79264
#
# Poissons Ratio (x) = 0.49940 0.74188
# Poissons Ratio (y) = 0.30365 0.09685
# Poissons Ratio (z) = 0.35197 0.07557
#
# Static dielectric constant tensor:
#      x y z
#    x 4.189280 0.849530 -0.017270 
#    y 0.849530 3.748420 -0.176270 
#    z -0.017270 -0.176270 3.689150 
# 
# 
# High freq. dielectric constant tensor:
#      x y z
#    x 1.790690 0.059340 0.005900 
#    y 0.059340 1.775610 -0.017860 
#    z 0.005900 -0.017860 1.805090 
# 
# From -- ./inp_files/27956.got.cif
#   From: 2010.06.25/outbox.cif.g09.slc.cpg/sg2_14_cif.got.tgz:27956.got - 2010.06.27 13:26:56.
