data_PCOD8003079
_publ_section_title
;
Structure prediction by ZEFSAII (Michael W. Deem and Ramdas Pophale) SiO2 
 PCOD8003079
Probable space group: P -1
;
_chemical_formula_sum "Si O2"
_cell_formula_units_Z 16
_cell_length_a 15.467754
_cell_length_b 9.942232
_cell_length_c 11.808935
_cell_angle_alpha 113.072436
_cell_angle_beta 110.626851
_cell_angle_gamma 29.830747
_cell_volume 830.802114
_symmetry_space_group_name_H-M "P -1"
_symmetry_group_IT_number 2
_symmetry_cell_setting 'triclinic'
loop_
_space_group_symop_operation_xyz
x,y,z
-x,-y,-z
loop_
_atom_site_type_symbol
_atom_site_label
_atom_site_fract_x
_atom_site_fract_y
_atom_site_fract_z
Si Si1 0.094805 0.675880 0.875106
Si Si2 0.104030 0.148990 0.377716
Si Si3 0.443665 0.151736 0.347098
Si Si4 0.239157 0.276332 0.491574
Si Si5 0.601365 0.460538 0.625019
Si Si6 0.216050 0.838595 0.972564
Si Si7 0.509416 0.389252 0.119592
Si Si8 0.535836 0.866851 0.083117
O O1 0.171478 0.730510 0.896103
O O2 0.264761 0.354683 0.872954
O O3 0.984386 0.763781 0.751800
O O4 0.969982 0.837237 0.981185
O O5 0.234013 0.110775 0.406288
O O6 0.952722 0.398618 0.476785
O O7 0.208840 0.866808 0.378385
O O8 0.316973 0.263886 0.421452
O O9 0.384849 0.394829 0.369407
O O10 0.642407 0.870878 0.389770
O O11 0.419221 0.080319 0.203543
O O12 0.500000 0.500000 0.500000
O O13 0.502459 0.603294 0.747723
O O14 0.308461 0.775385 0.880952
O O15 0.342437 0.698706 0.093690
O O16 0.506974 0.242419 0.999945
O O17 0.500000 0.000000 0.000000
#
# Coordination Sequence:
#
# PCOD8003079 Si02
#       8
#     2   2   2   2   2   2   2   2
#     4  10  20  36  62  89 122 161 204 255 308 368
#     4  11  22  41  66  91 125 166 209 262 310 369
#     4  11  23  42  64  95 125 168 214 255 316 373
#     4  10  24  42  65  91 123 169 219 252 306 386
#     4  12  24  40  65  95 130 163 205 267 320 365
#     4   9  20  36  60  93 117 153 209 256 301 371
#     4  10  21  38  62  91 120 162 207 250 312 372
#     4  11  22  39  64  86 125 164 205 255 308 372
#
# _framework density 19.258497999999999
#
# number of rings (size 3 to 8) (size 9 to 14) (size 15 to 20)
#    0.000    1.500    5.000    0.000    1.750    2.500 
#    0.000    1.875    0.000    0.000    0.000    0.000 
#    0.000    0.000    0.000    0.000    0.000    0.000 
#
# Total GULP energy -198309.638905 kJ/mol
# GULP energy per Si atom -12394.352432 kJ/mol
# Density = 1.921466 g / cm^3
# Si number density = 19.258498 Si / 1000 Ang^3
#
#
#
# Elastic Constant Matrix: (Units=GPa)
#
#
# Indices 1 2 3 4 5 6 
#
# 1 119.9546 46.6442 47.8881 4.2117 -13.0646 -2.8324
# 2 46.6442 105.0741 35.6956 5.6589 -7.9972 12.7810
# 3 47.8881 35.6956 126.9427 -2.1306 0.8976 6.2322
# 4 4.2117 5.6589 -2.1306 25.7367 3.0347 -1.1316
# 5 -13.0646 -7.9972 0.8976 3.0347 26.5911 -6.3784
# 6 -2.8324 12.7810 6.2322 -1.1316 -6.3784 21.6130
#
#
#
# Elastic Compliance Matrix: (Units=1/GPa)
#
#
# Indices 1 2 3 4 5 6 
#
# 1 0.012697 -0.004567 -0.003954 -0.001899 0.007008 0.007473
# 2 -0.004567 0.013241 -0.001652 -0.002674 0.000170 -0.008042
# 3 -0.003954 -0.001652 0.010067 0.002146 -0.003857 -0.003470
# 4 -0.001899 -0.002674 0.002146 0.040709 -0.006213 0.001012
# 5 0.007008 0.000170 -0.003857 -0.006213 0.045549 0.015047
# 6 0.007473 -0.008042 -0.003470 0.001012 0.015047 0.057497
#
#
# Mechanical properties :
#
#
# Convention : Reuss Voigt Hill
#
# Bulk Modulus (GPa) = 63.85640 68.04748 65.95194
# Shear Modulus (GPa) = 24.35160 29.57106 26.96133
#
# Velocity S-wave (km/s) = 3.55978 3.92277 3.74568
# Velocity P-wave (km/s) = 7.07994 7.47850 7.28195
#
# Compressibility (1/GPa) = 0.01566014
#
# Stress axis : x y z
#
# Youngs Moduli (GPa) = 78.75813 75.52524 99.33103
#
# Poissons Ratio (x) = 0.34489 0.39276
# Poissons Ratio (y) = 0.35966 0.16407
# Poissons Ratio (z) = 0.31142 0.12475
#
# Static dielectric constant tensor:
#      x y z
#    x 3.306720 -0.047580 0.039050 
#    y -0.047580 3.731110 0.023490 
#    z 0.039050 0.023490 3.521030 
# 
# 
# High freq. dielectric constant tensor:
#      x y z
#    x 1.744110 -0.004840 0.005900 
#    y -0.004840 1.749900 0.006440 
#    z 0.005900 0.006440 1.756780 
# 
# From -- ./inp_files/332897.got.cif
#   From: 2010.06.25/outbox.cif.g09.slc.cpg/sg2_167_cif.got.tgz:332897.got - 2010.06.27 13:26:56.
