data_PCOD8003193
_publ_section_title
;
Structure prediction by ZEFSAII (Michael W. Deem and Ramdas Pophale) SiO2 
 PCOD8003193
Probable space group: P -1
;
_chemical_formula_sum "Si O2"
_cell_formula_units_Z 14
_cell_length_a 8.986125
_cell_length_b 20.084578
_cell_length_c 7.820283
_cell_angle_alpha 55.228978
_cell_angle_beta 33.333316
_cell_angle_gamma 57.277276
_cell_volume 630.643051
_symmetry_space_group_name_H-M "P -1"
_symmetry_group_IT_number 2
_symmetry_cell_setting 'triclinic'
loop_
_space_group_symop_operation_xyz
x,y,z
-x,-y,-z
loop_
_atom_site_type_symbol
_atom_site_label
_atom_site_fract_x
_atom_site_fract_y
_atom_site_fract_z
Si Si1 0.405078 0.570778 0.120322
Si Si2 0.967060 0.265381 0.330333
Si Si3 0.929530 0.570823 0.827609
Si Si4 0.216899 0.734273 0.870493
Si Si5 0.672185 0.826838 0.393855
Si Si6 0.733897 0.999806 0.142081
Si Si7 0.509686 0.172688 0.040855
O O1 0.120611 0.555156 0.500559
O O2 0.500000 0.500000 0.000000
O O3 0.619020 0.571779 0.066600
O O4 0.380542 0.655982 0.919209
O O5 0.863969 0.290473 0.204088
O O6 0.049283 0.343137 0.232302
O O7 0.236519 0.196841 0.154710
O O8 0.727565 0.234407 0.714613
O O9 0.000000 0.500000 0.000000
O O10 0.421061 0.802855 0.557557
O O11 0.947733 0.764545 0.194235
O O12 0.583709 0.822603 0.680729
O O13 0.740162 0.917396 0.143297
O O14 0.662220 0.081794 0.976075
O O15 0.500000 0.000000 0.500000
O O16 0.000000 0.000000 0.000000
#
# Coordination Sequence:
#
# PCOD8003193 Si02
#       7
#     2   2   2   2   2   2   2
#     4  12  26  45  69  96 127 165 208 258 313 373
#     4  12  25  42  63  94 131 168 208 257 313 374
#     4  12  26  45  69  96 127 165 208 258 313 373
#     4  12  25  42  63  94 131 168 208 257 313 374
#     4  11  22  41  66  93 124 167 216 262 311 371
#     4  10  20  36  63  94 123 160 213 266 311 368
#     4  11  22  41  66  93 124 167 216 262 311 371
#
# _framework density 22.199562
#
# number of rings (size 3 to 8) (size 9 to 14) (size 15 to 20)
#    0.000    0.571    0.000   11.143    0.000    2.286 
#    0.000    4.286    0.000    0.000    0.000    0.000 
#    0.000    0.000    0.000    0.000    0.000    0.000 
#
# Total GULP energy -173653.140127 kJ/mol
# GULP energy per Si atom -12403.795723 kJ/mol
# Density = 2.214903 g / cm^3
# Si number density = 22.199562 Si / 1000 Ang^3
#
#
#
# Elastic Constant Matrix: (Units=GPa)
#
#
# Indices 1 2 3 4 5 6 
#
# 1 102.7679 51.6008 20.7318 -3.4334 -14.8379 -10.2023
# 2 51.6008 129.4321 41.4573 -0.1663 3.8550 -6.0129
# 3 20.7318 41.4573 100.7061 3.6691 -19.4974 -2.5358
# 4 -3.4334 -0.1663 3.6691 32.8424 -5.8984 -3.8421
# 5 -14.8379 3.8550 -19.4974 -5.8984 37.7388 3.7192
# 6 -10.2023 -6.0129 -2.5358 -3.8421 3.7192 39.3061
#
#
#
# Elastic Compliance Matrix: (Units=1/GPa)
#
#
# Indices 1 2 3 4 5 6 
#
# 1 0.013787 -0.005839 0.000809 0.002792 0.006637 0.002383
# 2 -0.005839 0.011797 -0.004803 -0.001073 -0.006195 0.000461
# 3 0.000809 -0.004803 0.013217 -0.000088 0.007663 -0.000406
# 4 0.002792 -0.001073 -0.000088 0.032168 0.005880 0.003143
# 5 0.006637 -0.006195 0.007663 0.005880 0.034761 -0.001445
# 6 0.002383 0.000461 -0.000406 0.003143 -0.001445 0.026548
#
#
# Mechanical properties :
#
#
# Convention : Reuss Voigt Hill
#
# Bulk Modulus (GPa) = 52.26154 62.27622 57.26888
# Shear Modulus (GPa) = 31.58076 36.58519 34.08297
#
# Velocity S-wave (km/s) = 3.77581 4.06398 3.92254
# Velocity P-wave (km/s) = 6.52700 7.08061 6.80943
#
# Compressibility (1/GPa) = 0.01913453
#
# Stress axis : x y z
#
# Youngs Moduli (GPa) = 72.52997 84.76813 75.65793
#
# Poissons Ratio (x) = 0.49496 -0.06117
# Poissons Ratio (y) = 0.42350 0.36339
# Poissons Ratio (z) = -0.05864 0.40715
#
# Static dielectric constant tensor:
#      x y z
#    x 3.965040 -0.128050 -0.264440 
#    y -0.128050 1.874890 0.701190 
#    z -0.264440 0.701190 4.004790 
# 
# 
# High freq. dielectric constant tensor:
#      x y z
#    x 1.865880 -0.004790 -0.017910 
#    y -0.004790 1.889970 0.002150 
#    z -0.017910 0.002150 1.888260 
# 
# From -- ./inp_files/223107.got.cif
#   From: 2010.06.25/outbox.cif.g09.slc.cpg/sg2_112_cif.got.tgz:223107.got - 2010.06.27 13:26:56.
