data_PCOD8003549
_publ_section_title
;
Structure prediction by ZEFSAII (Michael W. Deem and Ramdas Pophale) SiO2 
 PCOD8003549
Probable space group: P -1
;
_chemical_formula_sum "Si O2"
_cell_formula_units_Z 14
_cell_length_a 23.901617
_cell_length_b 18.253289
_cell_length_c 6.013843
_cell_angle_alpha 107.548609
_cell_angle_beta 117.437828
_cell_angle_gamma 18.945335
_cell_volume 668.864209
_symmetry_space_group_name_H-M "P -1"
_symmetry_group_IT_number 2
_symmetry_cell_setting 'triclinic'
loop_
_space_group_symop_operation_xyz
x,y,z
-x,-y,-z
loop_
_atom_site_type_symbol
_atom_site_label
_atom_site_fract_x
_atom_site_fract_y
_atom_site_fract_z
Si Si1 0.018943 0.600704 0.041067
Si Si2 0.648069 0.669392 0.444598
Si Si3 0.084301 0.847364 0.202347
Si Si4 0.643468 0.540918 0.986794
Si Si5 0.743166 0.817736 0.047222
Si Si6 0.313256 0.659161 0.833404
Si Si7 0.651178 0.029519 0.448678
O O1 0.140208 0.530636 0.305614
O O2 0.909167 0.680456 0.107193
O O3 0.180438 0.358822 0.981008
O O4 0.843360 0.838640 0.770537
O O5 0.549386 0.755535 0.572091
O O6 0.716287 0.516695 0.283735
O O7 0.483340 0.914706 0.238884
O O8 0.187244 0.655632 0.085919
O O9 0.264857 0.677801 0.523730
O O10 0.887467 0.057039 0.193304
O O11 0.000000 0.000000 0.000000
O O12 0.418085 0.828303 0.736045
O O13 0.621727 0.481948 0.999785
O O14 0.724218 0.865651 0.312903
O O15 0.500000 0.500000 0.000000
#
# Coordination Sequence:
#
# PCOD8003549 Si02
#       7
#     2   2   2   2   2   2   2
#     4  10  20  37  59  84 115 156 202 243 288 343
#     4  10  21  37  57  84 118 157 197 239 292 343
#     4   9  20  40  62  86 115 145 184 234 286 345
#     4  10  21  40  57  82 125 154 184 240 292 346
#     4   9  20  37  57  84 118 152 199 253 289 334
#     4  10  21  41  66  90 113 147 193 237 286 347
#     4  10  21  37  55  83 119 155 196 244 291 340
#
# _framework density 20.931004000000001
#
# number of rings (size 3 to 8) (size 9 to 14) (size 15 to 20)
#    0.000    2.286    0.000    1.714    0.000    5.143 
#    0.000   34.286    0.000    0.000    0.000    0.000 
#    0.000    0.000    0.000    0.000    0.000    0.000 
#
# Total GULP energy -173583.064121 kJ/mol
# GULP energy per Si atom -12398.790294 kJ/mol
# Density = 2.088336 g / cm^3
# Si number density = 20.931004 Si / 1000 Ang^3
#
#
#
# Elastic Constant Matrix: (Units=GPa)
#
#
# Indices 1 2 3 4 5 6 
#
# 1 67.6448 36.6058 61.2339 -2.9468 12.5432 3.1032
# 2 36.6058 121.8718 61.3180 29.2965 15.6593 -2.9495
# 3 61.2339 61.3180 140.1940 2.0811 15.8955 -16.5364
# 4 -2.9468 29.2965 2.0811 46.2440 -4.8930 -6.1076
# 5 12.5432 15.6593 15.8955 -4.8930 33.2038 -2.8858
# 6 3.1032 -2.9495 -16.5364 -6.1076 -2.8858 26.1045
#
#
#
# Elastic Compliance Matrix: (Units=1/GPa)
#
#
# Indices 1 2 3 4 5 6 
#
# 1 0.028805 -0.002679 -0.012297 0.002098 -0.004422 -0.011515
# 2 -0.002679 0.014547 -0.004921 -0.010282 -0.005369 -0.004154
# 3 -0.012297 -0.004921 0.015907 0.003274 0.000863 0.011844
# 4 0.002098 -0.010282 0.003274 0.030064 0.007662 0.008544
# 5 -0.004422 -0.005369 0.000863 0.007662 0.035574 0.006191
# 6 -0.011515 -0.004154 0.011844 0.008544 0.006191 0.049393
#
#
# Mechanical properties :
#
#
# Convention : Reuss Voigt Hill
#
# Bulk Modulus (GPa) = 51.37824 72.00288 61.69056
# Shear Modulus (GPa) = 22.66835 32.48065 27.57450
#
# Velocity S-wave (km/s) = 3.29447 3.94356 3.63354
# Velocity P-wave (km/s) = 6.25069 7.43036 6.86591
#
# Compressibility (1/GPa) = 0.01946349
#
# Stress axis : x y z
#
# Youngs Moduli (GPa) = 34.71678 68.74311 62.86497
#
# Poissons Ratio (x) = 0.18418 0.77307
# Poissons Ratio (y) = 0.09301 0.30935
# Poissons Ratio (z) = 0.42692 0.33828
#
# Static dielectric constant tensor:
#      x y z
#    x 3.416060 0.016840 -0.313200 
#    y 0.016840 4.491490 0.165770 
#    z -0.313200 0.165770 3.855330 
# 
# 
# High freq. dielectric constant tensor:
#      x y z
#    x 1.784790 0.002290 -0.025200 
#    y 0.002290 1.839590 0.005260 
#    z -0.025200 0.005260 1.827280 
# 
# From -- ./inp_files/7601.got.cif
#   From: 2010.06.25/outbox.cif.g09.slc.cpg/sg2_4_cif.got.tgz:7601.got - 2010.06.27 13:26:56.
