data_PCOD8003457
_publ_section_title
;
Structure prediction by ZEFSAII (Michael W. Deem and Ramdas Pophale) SiO2 
 PCOD8003457
Probable space group: P -1
;
_chemical_formula_sum "Si O2"
_cell_formula_units_Z 16
_cell_length_a 8.742693
_cell_length_b 11.562782
_cell_length_c 11.725994
_cell_angle_alpha 77.863959
_cell_angle_beta 55.300504
_cell_angle_gamma 54.839487
_cell_volume 784.454021
_symmetry_space_group_name_H-M "P -1"
_symmetry_group_IT_number 2
_symmetry_cell_setting 'triclinic'
loop_
_space_group_symop_operation_xyz
x,y,z
-x,-y,-z
loop_
_atom_site_type_symbol
_atom_site_label
_atom_site_fract_x
_atom_site_fract_y
_atom_site_fract_z
Si Si1 0.749552 0.466282 0.475800
Si Si2 0.556259 0.798553 0.099331
Si Si3 0.299750 0.730090 0.604727
Si Si4 0.430761 0.157126 0.508175
Si Si5 0.162822 0.364539 0.764984
Si Si6 0.235984 0.296079 0.328065
Si Si7 0.199810 0.117645 0.184486
Si Si8 0.350793 0.436175 0.063764
O O1 0.524102 0.599249 0.605386
O O2 0.712872 0.340735 0.492330
O O3 0.792713 0.518589 0.324800
O O4 0.978041 0.405883 0.462930
O O5 0.671025 0.717771 0.183938
O O6 0.312014 0.947992 0.191883
O O7 0.706737 0.847913 0.971224
O O8 0.529924 0.694058 0.050737
O O9 0.357179 0.845830 0.528678
O O10 0.062673 0.807306 0.753552
O O11 0.217013 0.251885 0.662904
O O12 0.392057 0.218284 0.384987
O O13 0.500000 0.000000 0.500000
O O14 0.902590 0.441357 0.897663
O O15 0.235477 0.182447 0.269020
O O16 0.329045 0.378143 0.206617
O O17 0.500000 0.500000 0.000000
#
# Coordination Sequence:
#
# PCOD8003457 Si02
#       8
#     2   2   2   2   2   2   2   2
#     4   8  17  35  55  78 105 140 184 227 274 323
#     4  10  20  37  58  78 110 150 185 229 274 327
#     4   9  18  34  55  80 104 135 187 230 265 324
#     4  11  23  37  55  83 117 150 180 223 283 335
#     4  10  21  37  56  80 113 148 185 226 276 331
#     4   9  19  38  59  80 115 148 179 228 280 330
#     4   9  19  37  59  80 105 147 193 226 272 326
#     4  10  22  37  58  88 112 142 187 232 280 326
#
# _framework density 20.396350999999999
#
# number of rings (size 3 to 8) (size 9 to 14) (size 15 to 20)
#    0.000    2.500    0.000    1.875    0.000    7.500 
#    0.000   16.250    0.000    6.000    0.000    0.000 
#    0.000    0.000    0.000    0.000    0.000    0.000 
#
# Total GULP energy -198234.043826 kJ/mol
# GULP energy per Si atom -12389.627739 kJ/mol
# Density = 2.034993 g / cm^3
# Si number density = 20.396351 Si / 1000 Ang^3
#
#
#
# Elastic Constant Matrix: (Units=GPa)
#
#
# Indices 1 2 3 4 5 6 
#
# 1 104.1979 70.8070 51.3198 -4.3675 -19.3137 16.0597
# 2 70.8070 129.9433 40.4721 7.3357 -12.8762 11.4951
# 3 51.3198 40.4721 54.4429 6.6271 -3.4625 -10.4004
# 4 -4.3675 7.3357 6.6271 34.7530 -9.9715 -0.5802
# 5 -19.3137 -12.8762 -3.4625 -9.9715 35.7825 0.6194
# 6 16.0597 11.4951 -10.4004 -0.5802 0.6194 38.0747
#
#
#
# Elastic Compliance Matrix: (Units=1/GPa)
#
#
# Indices 1 2 3 4 5 6 
#
# 1 0.049326 -0.007912 -0.047893 0.024046 0.026389 -0.031562
# 2 -0.007912 0.012813 -0.001890 -0.003593 -0.000825 -0.001089
# 3 -0.047893 -0.001890 0.074305 -0.027016 -0.027580 0.041106
# 4 0.024046 -0.003593 -0.027016 0.043607 0.021503 -0.016123
# 5 0.026389 -0.000825 -0.027580 0.021503 0.045543 -0.018829
# 6 -0.031562 -0.001089 0.041106 -0.016123 -0.018829 0.051194
#
#
# Mechanical properties :
#
#
# Convention : Reuss Voigt Hill
#
# Bulk Modulus (GPa) = 47.49513 68.19798 57.84655
# Shear Modulus (GPa) = 12.52520 30.12106 21.32313
#
# Velocity S-wave (km/s) = 2.48077 3.84707 3.23683
# Velocity P-wave (km/s) = 5.61625 7.29672 6.51093
#
# Compressibility (1/GPa) = 0.02105479
#
# Stress axis : x y z
#
# Youngs Moduli (GPa) = 20.27347 78.04602 13.45799
#
# Poissons Ratio (x) = 0.61748 0.64454
# Poissons Ratio (y) = 0.16040 0.02544
# Poissons Ratio (z) = 0.97095 0.14752
#
# Static dielectric constant tensor:
#      x y z
#    x 3.827180 0.172100 -0.201620 
#    y 0.172100 4.273190 0.184780 
#    z -0.201620 0.184780 3.568180 
# 
# 
# High freq. dielectric constant tensor:
#      x y z
#    x 1.792770 0.005830 -0.008820 
#    y 0.005830 1.807490 0.015180 
#    z -0.008820 0.015180 1.773590 
# 
# From -- ./inp_files/392463.got.cif
#   From: 2010.06.25/outbox.cif.g09.slc.cpg/sg2_197_cif.got.tgz:392463.got - 2010.06.27 13:26:56.
