data_PCOD8003766
_publ_section_title
;
Structure prediction by ZEFSAII (Michael W. Deem and Ramdas Pophale) SiO2 
 PCOD8003766
Probable space group: P -1
;
_chemical_formula_sum "Si O2"
_cell_formula_units_Z 14
_cell_length_a 6.436360
_cell_length_b 9.212697
_cell_length_c 15.311325
_cell_angle_alpha 64.752115
_cell_angle_beta 97.612879
_cell_angle_gamma 127.264142
_cell_volume 643.477277
_symmetry_space_group_name_H-M "P -1"
_symmetry_group_IT_number 2
_symmetry_cell_setting 'triclinic'
loop_
_space_group_symop_operation_xyz
x,y,z
-x,-y,-z
loop_
_atom_site_type_symbol
_atom_site_label
_atom_site_fract_x
_atom_site_fract_y
_atom_site_fract_z
Si Si1 0.457518 0.436376 0.886472
Si Si2 0.278466 0.346929 0.456065
Si Si3 0.821024 0.477196 0.746718
Si Si4 0.395388 0.772895 0.767092
Si Si5 0.305479 0.032239 0.434371
Si Si6 0.380555 0.769122 0.957174
Si Si7 0.127947 0.811051 0.082005
O O1 0.612140 0.462334 0.801523
O O2 0.457592 0.626127 0.844383
O O3 0.153290 0.235788 0.910045
O O4 0.597789 0.415706 0.983463
O O5 0.500000 0.500000 0.500000
O O6 0.247380 0.496353 0.361122
O O7 0.359291 0.233097 0.428585
O O8 0.998835 0.166883 0.529991
O O9 0.814573 0.282065 0.808763
O O10 0.120467 0.676324 0.728779
O O11 0.627959 0.936332 0.673476
O O12 0.374884 0.849417 0.840795
O O13 0.500000 0.000000 0.500000
O O14 0.648034 0.950766 0.973850
O O15 0.129526 0.708351 0.017345
#
# Coordination Sequence:
#
# PCOD8003766 Si02
#       7
#     2   2   2   2   2   2   2
#     4  10  20  37  61  85 125 162 202 258 309 374
#     4  11  25  45  70  99 130 172 222 276 335 393
#     4  10  21  40  60  88 126 161 208 265 314 390
#     4  11  22  38  62  89 123 167 208 259 323 381
#     4  11  24  46  68  98 134 168 223 276 327 400
#     4  10  21  37  58  91 122 164 209 256 313 378
#     4   9  21  38  57  89 127 159 211 259 308 387
#
# _framework density 21.756791
#
# number of rings (size 3 to 8) (size 9 to 14) (size 15 to 20)
#    0.000    1.714    2.857    0.857    0.000    9.143 
#    0.000    0.000    0.000    0.000    0.000    0.000 
#    0.000    0.000    0.000    0.000    0.000    0.000 
#
# Total GULP energy -173461.187120 kJ/mol
# GULP energy per Si atom -12390.084794 kJ/mol
# Density = 2.170727 g / cm^3
# Si number density = 21.756791 Si / 1000 Ang^3
#
#
#
# Elastic Constant Matrix: (Units=GPa)
#
#
# Indices 1 2 3 4 5 6 
#
# 1 104.8438 28.3116 54.8689 -2.2419 -2.5000 11.0350
# 2 28.3116 53.2723 32.1411 2.1826 5.2352 12.8593
# 3 54.8689 32.1411 174.5624 11.0668 1.7325 15.0694
# 4 -2.2419 2.1826 11.0668 23.2593 12.4129 -3.0029
# 5 -2.5000 5.2352 1.7325 12.4129 36.3480 -3.5821
# 6 11.0350 12.8593 15.0694 -3.0029 -3.5821 21.9792
#
#
#
# Elastic Compliance Matrix: (Units=1/GPa)
#
#
# Indices 1 2 3 4 5 6 
#
# 1 0.012671 -0.004763 -0.003207 0.002707 0.000698 -0.000892
# 2 -0.004763 0.026084 -0.002139 -0.000864 -0.004902 -0.012320
# 3 -0.003207 -0.002139 0.007664 -0.004678 0.001038 -0.002863
# 4 0.002707 -0.000864 -0.004678 0.056031 -0.017902 0.007092
# 5 0.000698 -0.004902 0.001038 -0.017902 0.034826 0.005036
# 6 -0.000892 -0.012320 -0.002863 0.007092 0.005036 0.056907
#
#
# Mechanical properties :
#
#
# Convention : Reuss Voigt Hill
#
# Bulk Modulus (GPa) = 38.16591 62.59128 50.37859
# Shear Modulus (GPa) = 22.40794 30.80774 26.60784
#
# Velocity S-wave (km/s) = 3.21273 3.76707 3.50089
# Velocity P-wave (km/s) = 5.59842 6.91029 6.28866
#
# Compressibility (1/GPa) = 0.02620139
#
# Stress axis : x y z
#
# Youngs Moduli (GPa) = 78.91927 38.33738 130.48063
#
# Poissons Ratio (x) = 0.18260 0.41849
# Poissons Ratio (y) = 0.37590 0.27904
# Poissons Ratio (z) = 0.25312 0.08199
#
# Static dielectric constant tensor:
#      x y z
#    x 4.162640 -0.055610 -0.132710 
#    y -0.055610 3.614390 -0.158500 
#    z -0.132710 -0.158500 4.091970 
# 
# 
# High freq. dielectric constant tensor:
#      x y z
#    x 1.872060 0.003430 -0.003490 
#    y 0.003430 1.824650 -0.015470 
#    z -0.003490 -0.015470 1.869520 
# 
# From -- ./inp_files/141076.got.cif
#   From: 2010.06.25/outbox.cif.g09.slc.cpg/sg2_71_cif.got.tgz:141076.got - 2010.06.27 13:26:56.
