data_PCOD8003029
_publ_section_title
;
Structure prediction by ZEFSAII (Michael W. Deem and Ramdas Pophale) SiO2 
 PCOD8003029
Probable space group: P -1
;
_chemical_formula_sum "Si O2"
_cell_formula_units_Z 16
_cell_length_a 9.678263
_cell_length_b 18.591557
_cell_length_c 10.736671
_cell_angle_alpha 25.287553
_cell_angle_beta 106.451032
_cell_angle_gamma 104.217659
_cell_volume 791.188951
_symmetry_space_group_name_H-M "P -1"
_symmetry_group_IT_number 2
_symmetry_cell_setting 'triclinic'
loop_
_space_group_symop_operation_xyz
x,y,z
-x,-y,-z
loop_
_atom_site_type_symbol
_atom_site_label
_atom_site_fract_x
_atom_site_fract_y
_atom_site_fract_z
Si Si1 0.607155 0.741207 0.647307
Si Si2 0.916013 0.378651 0.753479
Si Si3 0.362985 0.121150 0.291282
Si Si4 0.354253 0.610440 0.665747
Si Si5 0.043616 0.023819 0.333267
Si Si6 0.110976 0.264714 0.393077
Si Si7 0.387432 0.482491 0.609180
Si Si8 0.047017 0.550505 0.742646
O O1 0.638510 0.848624 0.609001
O O2 0.445299 0.761936 0.514587
O O3 0.722553 0.798129 0.482114
O O4 0.627823 0.548135 0.991662
O O5 0.749224 0.423130 0.633404
O O6 0.000000 0.500000 0.500000
O O7 0.969828 0.413491 0.852181
O O8 0.957916 0.193188 0.005032
O O9 0.216437 0.032892 0.352201
O O10 0.500000 0.000000 0.500000
O O11 0.370473 0.287547 0.947366
O O12 0.423427 0.579266 0.595147
O O13 0.180595 0.644753 0.560415
O O14 0.000000 0.000000 0.500000
O O15 0.998246 0.871640 0.472830
O O16 0.065813 0.304642 0.462525
O O17 0.104864 0.442071 0.042348
O O18 0.500000 0.500000 0.500000
#
# Coordination Sequence:
#
# PCOD8003029 Si02
#       8
#     2   2   2   2   2   2   2   2
#     4   9  18  35  56  85 122 156 194 254 305 354
#     4  12  22  43  67  87 128 171 208 258 310 375
#     4  11  24  40  62  94 127 159 207 261 309 366
#     4   9  18  36  56  83 121 157 200 249 301 362
#     4  12  22  41  66  95 124 165 212 260 311 363
#     4  10  21  35  61  95 121 153 213 259 303 365
#     4  11  25  40  63  93 123 167 210 250 312 377
#     4  10  20  36  61  92 121 161 206 255 307 368
#
# _framework density 20.222731
#
# number of rings (size 3 to 8) (size 9 to 14) (size 15 to 20)
#    0.000    1.500    5.000    0.750    5.250    0.000 
#    0.000    0.625    2.750    1.500    0.000    0.000 
#    0.000    0.000    0.000    0.000    0.000    0.000 
#
# Total GULP energy -198230.146315 kJ/mol
# GULP energy per Si atom -12389.384145 kJ/mol
# Density = 2.017670 g / cm^3
# Si number density = 20.222731 Si / 1000 Ang^3
#
#
#
# Elastic Constant Matrix: (Units=GPa)
#
#
# Indices 1 2 3 4 5 6 
#
# 1 162.7523 45.3401 34.2238 -8.9752 -0.0557 1.4513
# 2 45.3401 83.6376 5.6590 -17.3269 -12.4562 0.7627
# 3 34.2238 5.6590 46.3099 -0.9330 4.6566 -7.8836
# 4 -8.9752 -17.3269 -0.9330 24.8782 -1.7589 0.1199
# 5 -0.0557 -12.4562 4.6566 -1.7589 31.4164 3.3740
# 6 1.4513 0.7627 -7.8836 0.1199 3.3740 39.8143
#
#
#
# Elastic Compliance Matrix: (Units=1/GPa)
#
#
# Indices 1 2 3 4 5 6 
#
# 1 0.008637 -0.004417 -0.006008 -0.000229 -0.000712 -0.001359
# 2 -0.004417 0.017844 0.000402 0.011400 0.007731 -0.000791
# 3 -0.006008 0.000402 0.027455 -0.001215 -0.004638 0.006044
# 4 -0.000229 0.011400 -0.001215 0.048547 0.007550 -0.001237
# 5 -0.000712 0.007731 -0.004638 0.007550 0.036450 -0.004152
# 6 -0.001359 -0.000791 0.006044 -0.001237 -0.004152 0.026734
#
#
# Mechanical properties :
#
#
# Convention : Reuss Voigt Hill
#
# Bulk Modulus (GPa) = 29.50731 51.46061 40.48396
# Shear Modulus (GPa) = 25.37939 33.05358 29.21648
#
# Velocity S-wave (km/s) = 3.54643 4.04725 3.80509
# Velocity P-wave (km/s) = 5.60289 6.88059 6.27435
#
# Compressibility (1/GPa) = 0.03388991
#
# Stress axis : x y z
#
# Youngs Moduli (GPa) = 115.77607 56.04180 36.42294
#
# Poissons Ratio (x) = 0.24754 0.21882
# Poissons Ratio (y) = 0.51139 -0.01462
# Poissons Ratio (z) = 0.69555 -0.02250
#
# Static dielectric constant tensor:
#      x y z
#    x 3.877080 -0.385730 0.079520 
#    y -0.385730 3.180780 0.214700 
#    z 0.079520 0.214700 3.258010 
# 
# 
# High freq. dielectric constant tensor:
#      x y z
#    x 1.805680 -0.000900 -0.008470 
#    y -0.000900 1.790520 -0.003900 
#    z -0.008470 -0.003900 1.753490 
# 
# From -- ./inp_files/239309.got.cif
#   From: 2010.06.25/outbox.cif.g09.slc.cpg/sg2_120_cif.got.tgz:239309.got - 2010.06.27 13:26:56.
