data_PCOD8003319
_publ_section_title
;
Structure prediction by ZEFSAII (Michael W. Deem and Ramdas Pophale) SiO2 
 PCOD8003319
Probable space group: P -1
;
_chemical_formula_sum "Si O2"
_cell_formula_units_Z 16
_cell_length_a 11.993140
_cell_length_b 20.305991
_cell_length_c 8.759052
_cell_angle_alpha 99.730097
_cell_angle_beta 101.889451
_cell_angle_gamma 148.989562
_cell_volume 782.972174
_symmetry_space_group_name_H-M "P -1"
_symmetry_group_IT_number 2
_symmetry_cell_setting 'triclinic'
loop_
_space_group_symop_operation_xyz
x,y,z
-x,-y,-z
loop_
_atom_site_type_symbol
_atom_site_label
_atom_site_fract_x
_atom_site_fract_y
_atom_site_fract_z
Si Si1 0.948320 0.378303 0.070347
Si Si2 0.310655 0.315214 0.232175
Si Si3 0.230317 0.671489 0.324749
Si Si4 0.455534 0.547322 0.324959
Si Si5 0.237126 0.988819 0.221551
Si Si6 0.898787 0.604465 0.376142
Si Si7 0.178485 0.308065 0.769395
Si Si8 0.346060 0.851117 0.839208
O O1 0.120863 0.536802 0.239592
O O2 0.192158 0.451620 0.146649
O O3 0.690587 0.220334 0.059012
O O4 0.773418 0.297592 0.832120
O O5 0.305081 0.393016 0.247895
O O6 0.397876 0.341954 0.438263
O O7 0.541107 0.408375 0.212741
O O8 0.992192 0.109117 0.012109
O O9 0.007688 0.593013 0.337895
O O10 0.567147 0.852426 0.562307
O O11 0.741739 0.698432 0.350712
O O12 0.038489 0.840105 0.225437
O O13 0.475663 0.074616 0.230976
O O14 0.994017 0.718336 0.341778
O O15 0.014072 0.683289 0.612308
O O16 0.500000 0.500000 0.000000
O O17 0.500000 0.000000 0.000000
#
# Coordination Sequence:
#
# PCOD8003319 Si02
#       8
#     2   2   2   2   2   2   2   2
#     4  11  23  46  65  90 126 177 211 253 324 380
#     4  10  20  38  62  96 125 161 209 260 323 376
#     4  10  26  42  66  89 129 173 217 254 308 388
#     4  10  20  36  67  89 123 167 210 252 317 380
#     4  11  24  39  59 100 127 163 215 265 314 368
#     4  10  21  38  61  93 124 172 201 254 319 376
#     4  11  21  35  62  94 130 162 201 266 321 367
#     4  11  25  37  65  95 128 161 209 271 315 372
#
# _framework density 20.434951999999999
#
# number of rings (size 3 to 8) (size 9 to 14) (size 15 to 20)
#    0.000    1.500    3.750    1.500    7.000    3.000 
#    0.000    1.250    0.000    0.000    0.000    0.000 
#    0.000    0.000    0.000    0.000    0.000    0.000 
#
# Total GULP energy -198287.298932 kJ/mol
# GULP energy per Si atom -12392.956183 kJ/mol
# Density = 2.038844 g / cm^3
# Si number density = 20.434952 Si / 1000 Ang^3
#
#
#
# Elastic Constant Matrix: (Units=GPa)
#
#
# Indices 1 2 3 4 5 6 
#
# 1 68.8534 29.1526 22.3641 5.8873 -1.8549 5.1986
# 2 29.1526 109.9977 36.1408 -5.0358 -8.2147 3.9101
# 3 22.3641 36.1408 149.4222 9.3634 -12.6234 -5.4659
# 4 5.8873 -5.0358 9.3634 31.0757 2.0820 1.1448
# 5 -1.8549 -8.2147 -12.6234 2.0820 25.9032 -0.9942
# 6 5.1986 3.9101 -5.4659 1.1448 -0.9942 24.1321
#
#
#
# Elastic Compliance Matrix: (Units=1/GPa)
#
#
# Indices 1 2 3 4 5 6 
#
# 1 0.017303 -0.004163 -0.001554 -0.003317 -0.000697 -0.003276
# 2 -0.004163 0.011257 -0.002196 0.003203 0.001887 -0.001499
# 3 -0.001554 -0.002196 0.008024 -0.002812 0.003436 0.002783
# 4 -0.003317 0.003203 -0.002812 0.034487 -0.003449 -0.002219
# 5 -0.000697 0.001887 0.003436 -0.003449 0.041200 0.002484
# 6 -0.003276 -0.001499 0.002783 -0.002219 0.002484 0.043225
#
#
# Mechanical properties :
#
#
# Convention : Reuss Voigt Hill
#
# Bulk Modulus (GPa) = 48.17113 55.95425 52.06269
# Shear Modulus (GPa) = 28.05188 32.26325 30.15756
#
# Velocity S-wave (km/s) = 3.70907 3.97776 3.84576
# Velocity P-wave (km/s) = 6.47820 6.96691 6.72699
#
# Compressibility (1/GPa) = 0.02075932
#
# Stress axis : x y z
#
# Youngs Moduli (GPa) = 57.79336 88.83674 124.62054
#
# Poissons Ratio (x) = 0.36981 0.19364
# Poissons Ratio (y) = 0.24058 0.27364
# Poissons Ratio (z) = 0.08980 0.19506
#
# Static dielectric constant tensor:
#      x y z
#    x 3.578130 0.517380 0.178880 
#    y 0.517380 3.736230 -0.823670 
#    z 0.178880 -0.823670 3.307040 
# 
# 
# High freq. dielectric constant tensor:
#      x y z
#    x 1.773600 0.024410 0.002990 
#    y 0.024410 1.791910 -0.016740 
#    z 0.002990 -0.016740 1.820610 
# 
# From -- ./inp_files/282026.got.cif
#   From: 2010.06.25/outbox.cif.g09.slc.cpg/sg2_142_cif.got.tgz:282026.got - 2010.06.27 13:26:56.
