data_PCOD8003794
_publ_section_title
;
Structure prediction by ZEFSAII (Michael W. Deem and Ramdas Pophale) SiO2 
 PCOD8003794
Probable space group: P -1
;
_chemical_formula_sum "Si O2"
_cell_formula_units_Z 14
_cell_length_a 9.574863
_cell_length_b 17.293188
_cell_length_c 8.934816
_cell_angle_alpha 68.242608
_cell_angle_beta 30.899183
_cell_angle_gamma 79.782727
_cell_volume 674.210822
_symmetry_space_group_name_H-M "P -1"
_symmetry_group_IT_number 2
_symmetry_cell_setting 'triclinic'
loop_
_space_group_symop_operation_xyz
x,y,z
-x,-y,-z
loop_
_atom_site_type_symbol
_atom_site_label
_atom_site_fract_x
_atom_site_fract_y
_atom_site_fract_z
Si Si1 0.802839 0.302584 0.210685
Si Si2 0.476090 0.113858 0.668230
Si Si3 0.928796 0.258784 0.791994
Si Si4 0.088184 0.984659 0.596032
Si Si5 0.382928 0.414846 0.572117
Si Si6 0.346671 0.147175 0.437202
Si Si7 0.212688 0.447242 0.378157
O O1 0.646119 0.210953 0.500271
O O2 0.624228 0.370258 0.345947
O O3 0.832855 0.282196 0.025012
O O4 0.120400 0.347221 0.951336
O O5 0.454384 0.106098 0.513346
O O6 0.629382 0.045845 0.639800
O O7 0.161391 0.090113 0.042610
O O8 0.162033 0.207600 0.623760
O O9 0.078240 0.349454 0.503339
O O10 0.625578 0.200507 0.044244
O O11 0.145838 0.074202 0.569719
O O12 0.000000 0.000000 0.500000
O O13 0.500000 0.500000 0.500000
O O14 0.258203 0.442546 0.515927
O O15 0.000000 0.500000 0.500000
O O16 0.500000 0.500000 0.000000
#
# Coordination Sequence:
#
# PCOD8003794 Si02
#       7
#     2   2   2   2   2   2   2
#     4  10  20  38  62  87 113 150 198 246 282 328
#     4  11  21  40  64  85 109 155 204 237 275 344
#     4  10  20  37  61  88 114 149 197 248 283 325
#     4  12  25  40  57  88 126 153 179 237 305 349
#     4  11  22  39  60  88 120 153 191 240 291 341
#     4  11  21  39  64  87 109 151 205 243 275 337
#     4  11  21  37  58  85 117 153 190 235 287 342
#
# _framework density 20.765017
#
# number of rings (size 3 to 8) (size 9 to 14) (size 15 to 20)
#    0.000    1.143    0.000   11.143    0.000    0.000 
#    0.000    8.571    0.000    0.000    0.000    0.000 
#    0.000    0.000    0.000    0.000    0.000    0.000 
#
# Total GULP energy -173579.417257 kJ/mol
# GULP energy per Si atom -12398.529804 kJ/mol
# Density = 2.071776 g / cm^3
# Si number density = 20.765017 Si / 1000 Ang^3
#
#
#
# Elastic Constant Matrix: (Units=GPa)
#
#
# Indices 1 2 3 4 5 6 
#
# 1 81.7573 42.7031 27.6178 -3.9553 -5.2381 4.4432
# 2 42.7031 129.5887 39.1231 2.9102 -7.1435 -3.7294
# 3 27.6178 39.1231 147.5698 -22.4635 -25.9308 4.1575
# 4 -3.9553 2.9102 -22.4635 49.9822 -4.1519 -17.3454
# 5 -5.2381 -7.1435 -25.9308 -4.1519 25.7148 -3.3051
# 6 4.4432 -3.7294 4.1575 -17.3454 -3.3051 30.7709
#
#
#
# Elastic Compliance Matrix: (Units=1/GPa)
#
#
# Indices 1 2 3 4 5 6 
#
# 1 0.015331 -0.004645 -0.001623 -0.000193 -0.000181 -0.002685
# 2 -0.004645 0.009927 -0.002086 -0.001465 -0.000362 0.001291
# 3 -0.001623 -0.002086 0.010591 0.006985 0.011374 0.003710
# 4 -0.000193 -0.001465 0.006985 0.030451 0.013770 0.017550
# 5 -0.000181 -0.000362 0.011374 0.013770 0.053987 0.012006
# 6 -0.002685 0.001291 0.003710 0.017550 0.012006 0.043724
#
#
# Mechanical properties :
#
#
# Convention : Reuss Voigt Hill
#
# Bulk Modulus (GPa) = 52.24298 64.20042 58.22170
# Shear Modulus (GPa) = 26.72411 37.92503 32.32457
#
# Velocity S-wave (km/s) = 3.59134 4.27827 3.94976
# Velocity P-wave (km/s) = 6.51235 7.44241 6.99286
#
# Compressibility (1/GPa) = 0.01914133
#
# Stress axis : x y z
#
# Youngs Moduli (GPa) = 65.22861 100.73519 94.42403
#
# Poissons Ratio (x) = 0.46789 0.15327
# Poissons Ratio (y) = 0.30297 0.19692
# Poissons Ratio (z) = 0.10588 0.21009
#
# Static dielectric constant tensor:
#      x y z
#    x 3.487160 0.093230 -0.422580 
#    y 0.093230 3.979120 -0.517770 
#    z -0.422580 -0.517770 4.653450 
# 
# 
# High freq. dielectric constant tensor:
#      x y z
#    x 1.774530 -0.002050 -0.030480 
#    y -0.002050 1.827640 -0.007740 
#    z -0.030480 -0.007740 1.839140 
# 
# From -- ./inp_files/127143.got.cif
#   From: 2010.06.25/outbox.cif.g09.slc.cpg/sg2_64_cif.got.tgz:127143.got - 2010.06.27 13:26:56.
