data_PCOD8003972
_publ_section_title
;
Structure prediction by ZEFSAII (Michael W. Deem and Ramdas Pophale) SiO2 
 PCOD8003972
Probable space group: P -1
;
_chemical_formula_sum "Si O2"
_cell_formula_units_Z 12
_cell_length_a 9.374544
_cell_length_b 8.594351
_cell_length_c 13.809360
_cell_angle_alpha 31.815469
_cell_angle_beta 85.575253
_cell_angle_gamma 97.408176
_cell_volume 543.285245
_symmetry_space_group_name_H-M "P -1"
_symmetry_group_IT_number 2
_symmetry_cell_setting 'triclinic'
loop_
_space_group_symop_operation_xyz
x,y,z
-x,-y,-z
loop_
_atom_site_type_symbol
_atom_site_label
_atom_site_fract_x
_atom_site_fract_y
_atom_site_fract_z
Si Si1 0.234519 0.323199 0.361736
Si Si2 0.977993 0.049634 0.180919
Si Si3 0.340109 0.429753 0.600061
Si Si4 0.774340 0.211114 0.717199
Si Si5 0.560742 0.722172 0.120523
Si Si6 0.019480 0.665539 0.767326
O O1 0.230297 0.491910 0.375777
O O2 0.407876 0.421149 0.259690
O O3 0.129482 0.436616 0.238019
O O4 0.170008 0.940455 0.571236
O O5 0.025277 0.201918 0.202603
O O6 0.793881 0.893837 0.258767
O O7 0.052396 0.783557 0.302142
O O8 0.052054 0.343421 0.947591
O O9 0.500000 0.500000 0.500000
O O10 0.288686 0.728003 0.417154
O O11 0.357377 0.383625 0.738223
O O12 0.675143 0.860480 0.950971
O O13 0.500000 0.000000 0.000000
#
# Coordination Sequence:
#
# PCOD8003972 Si02
#       6
#     2   2   2   2   2   2
#     4  10  20  40  63  90 119 166 206 243 308 370
#     4  11  23  41  60  96 121 159 209 251 304 364
#     4  12  21  37  67  92 121 160 205 259 305 351
#     4  11  23  40  66  96 118 157 216 260 288 354
#     4  10  20  37  62  94 122 155 208 256 302 354
#     4  10  22  38  64  82 133 165 192 245 324 368
#
# _framework density 22.087845000000002
#
# number of rings (size 3 to 8) (size 9 to 14) (size 15 to 20)
#    0.000    1.333    5.000    2.500    0.000    2.667 
#    3.000    1.667    0.000    0.000    0.000    0.000 
#    0.000    0.000    0.000    0.000    0.000    0.000 
#
# Total GULP energy -148692.921705 kJ/mol
# GULP energy per Si atom -12391.076809 kJ/mol
# Density = 2.203757 g / cm^3
# Si number density = 22.087845 Si / 1000 Ang^3
#
#
#
# Elastic Constant Matrix: (Units=GPa)
#
#
# Indices 1 2 3 4 5 6 
#
# 1 112.1832 22.3753 61.2359 -8.6544 3.3341 26.1746
# 2 22.3753 32.9262 37.0005 4.9836 1.2725 22.7794
# 3 61.2359 37.0005 159.0107 17.5418 19.8456 24.7256
# 4 -8.6544 4.9836 17.5418 27.2696 12.2812 8.2121
# 5 3.3341 1.2725 19.8456 12.2812 28.4568 -0.0809
# 6 26.1746 22.7794 24.7256 8.2121 -0.0809 32.0162
#
#
#
# Elastic Compliance Matrix: (Units=1/GPa)
#
#
# Indices 1 2 3 4 5 6 
#
# 1 0.016174 0.004332 -0.005901 0.014808 -0.004408 -0.015557
# 2 0.004332 0.073728 -0.012361 0.010620 0.000093 -0.049177
# 3 -0.005901 -0.012361 0.011713 -0.007431 -0.003699 0.006470
# 4 0.014808 0.010620 -0.007431 0.064693 -0.025034 -0.030580
# 5 -0.004408 0.000093 -0.003699 -0.025034 0.049074 0.012940
# 6 -0.015557 -0.049177 0.006470 -0.030580 0.012940 0.081822
#
#
# Mechanical properties :
#
#
# Convention : Reuss Voigt Hill
#
# Bulk Modulus (GPa) = 13.55814 60.59374 37.07594
# Shear Modulus (GPa) = 14.30004 29.78242 22.04123
#
# Velocity S-wave (km/s) = 2.54720 3.67599 3.16237
# Velocity P-wave (km/s) = 3.84741 6.74610 5.49147
#
# Compressibility (1/GPa) = 0.07375641
#
# Stress axis : x y z
#
# Youngs Moduli (GPa) = 61.82647 13.56331 85.37463
#
# Poissons Ratio (x) = -0.05876 0.50381
# Poissons Ratio (y) = -0.26784 1.05529
# Poissons Ratio (z) = 0.36485 0.16765
#
# Static dielectric constant tensor:
#      x y z
#    x 4.079000 0.344160 -0.254950 
#    y 0.344160 3.598990 0.302920 
#    z -0.254950 0.302920 4.835040 
# 
# 
# High freq. dielectric constant tensor:
#      x y z
#    x 1.867380 0.030090 -0.006080 
#    y 0.030090 1.822150 0.020010 
#    z -0.006080 0.020010 1.903850 
# 
# From -- ./inp_files/147283.got.cif
#   From: 2010.06.25/outbox.cif.g09.slc.cpg/sg2_74_cif.got.tgz:147283.got - 2010.06.27 13:26:56.
