data_PCOD8003819
_publ_section_title
;
Structure prediction by ZEFSAII (Michael W. Deem and Ramdas Pophale) SiO2 
 PCOD8003819
Probable space group: P -1
;
_chemical_formula_sum "Si O2"
_cell_formula_units_Z 16
_cell_length_a 14.268939
_cell_length_b 10.733270
_cell_length_c 15.816208
_cell_angle_alpha 126.781742
_cell_angle_beta 152.973613
_cell_angle_gamma 38.903173
_cell_volume 652.274609
_symmetry_space_group_name_H-M "P -1"
_symmetry_group_IT_number 2
_symmetry_cell_setting 'triclinic'
loop_
_space_group_symop_operation_xyz
x,y,z
-x,-y,-z
loop_
_atom_site_type_symbol
_atom_site_label
_atom_site_fract_x
_atom_site_fract_y
_atom_site_fract_z
Si Si1 0.067460 0.705037 0.083394
Si Si2 0.586027 0.146125 0.192687
Si Si3 0.490323 0.839708 0.186360
Si Si4 0.045110 0.646164 0.555567
Si Si5 0.038591 0.570375 0.173719
Si Si6 0.147708 0.685252 0.471726
Si Si7 0.502850 0.630262 0.954539
Si Si8 0.729515 0.244835 0.886276
O O1 0.185635 0.585177 0.219106
O O2 0.312150 0.667216 0.208537
O O3 0.933165 0.630273 0.892027
O O4 0.820224 0.952532 0.999609
O O5 0.567280 0.202164 0.102209
O O6 0.654615 0.262894 0.353339
O O7 0.823144 0.898322 0.294249
O O8 0.291428 0.221411 0.013770
O O9 0.716601 0.866261 0.375734
O O10 0.508542 0.740168 0.252912
O O11 0.594696 0.661899 0.128094
O O12 0.197105 0.571397 0.554444
O O13 0.000000 0.500000 0.500000
O O14 0.217983 0.678227 0.764586
O O15 0.194731 0.546100 0.374086
O O16 0.749499 0.390040 0.020474
O O17 0.000000 0.000000 0.000000
#
# Coordination Sequence:
#
# PCOD8003819 Si02
#       8
#     2   2   2   2   2   2   2   2
#     4  10  23  38  61  91 119 159 203 244 296 355
#     4  10  20  37  61  90 122 148 200 252 292 352
#     4  11  22  40  64  87 121 159 201 245 295 354
#     4  11  23  36  61  94 120 149 204 249 290 356
#     4  11  20  39  63  81 121 162 195 241 303 353
#     4  10  22  36  59  92 119 155 197 247 300 351
#     4  11  21  39  67  90 116 160 199 244 303 352
#     4  10  21  38  61  87 124 160 195 246 296 352
#
# _framework density 24.529547000000001
#
# number of rings (size 3 to 8) (size 9 to 14) (size 15 to 20)
#    0.000    1.500    2.500    3.000    0.000    0.000 
#    0.000    3.750    0.000    5.250    0.000    0.000 
#    0.000    0.000    0.000    0.000    0.000    0.000 
#
# Total GULP energy -198230.490495 kJ/mol
# GULP energy per Si atom -12389.405656 kJ/mol
# Density = 2.447372 g / cm^3
# Si number density = 24.529547 Si / 1000 Ang^3
#
#
#
# Elastic Constant Matrix: (Units=GPa)
#
#
# Indices 1 2 3 4 5 6 
#
# 1 148.2494 14.9411 20.2710 6.8768 8.6015 5.9431
# 2 14.9411 62.1682 9.2460 17.5913 -14.4356 0.9214
# 3 20.2710 9.2460 76.4635 16.5129 0.0033 -7.0858
# 4 6.8768 17.5913 16.5129 22.5856 -2.9111 -3.2732
# 5 8.6015 -14.4356 0.0033 -2.9111 36.4411 -5.0965
# 6 5.9431 0.9214 -7.0858 -3.2732 -5.0965 31.8072
#
#
#
# Elastic Compliance Matrix: (Units=1/GPa)
#
#
# Indices 1 2 3 4 5 6 
#
# 1 0.007488 -0.002205 -0.001961 0.000171 -0.002938 -0.002225
# 2 -0.002205 0.023292 0.001526 -0.017576 0.008287 -0.000404
# 3 -0.001961 0.001526 0.016267 -0.012017 0.000496 0.002789
# 4 0.000171 -0.017576 -0.012017 0.067232 -0.000993 0.004560
# 5 -0.002938 0.008287 0.000496 -0.000993 0.032102 0.005461
# 6 -0.002225 -0.000404 0.002789 0.004560 0.005461 0.033833
#
#
# Mechanical properties :
#
#
# Convention : Reuss Voigt Hill
#
# Bulk Modulus (GPa) = 23.94309 41.75526 32.84917
# Shear Modulus (GPa) = 25.07312 34.32831 29.70071
#
# Velocity S-wave (km/s) = 3.20059 3.74500 3.48345
# Velocity P-wave (km/s) = 4.84154 5.97992 5.44059
#
# Compressibility (1/GPa) = 0.04176571
#
# Stress axis : x y z
#
# Youngs Moduli (GPa) = 133.55375 42.93303 61.47385
#
# Poissons Ratio (x) = 0.09469 0.12057
# Poissons Ratio (y) = 0.29455 -0.09382
# Poissons Ratio (z) = 0.26194 -0.06552
#
# Static dielectric constant tensor:
#      x y z
#    x 5.091370 -0.083170 0.307350 
#    y -0.083170 4.568870 -0.330870 
#    z 0.307350 -0.330870 4.637770 
# 
# 
# High freq. dielectric constant tensor:
#      x y z
#    x 2.003530 0.008320 0.005870 
#    y 0.008320 1.977110 -0.016870 
#    z 0.005870 -0.016870 1.948900 
# 
# From -- ./inp_files/532681.got.cif
#   From: 2010.06.25/outbox.cif.g09.slc.cpg/sg2_267_cif.got.tgz:532681.got - 2010.06.27 13:26:56.
