data_PCOD8003393
_publ_section_title
;
Structure prediction by ZEFSAII (Michael W. Deem and Ramdas Pophale) SiO2 
 PCOD8003393
Probable space group: P -1
;
_chemical_formula_sum "Si O2"
_cell_formula_units_Z 16
_cell_length_a 14.234639
_cell_length_b 9.015682
_cell_length_c 12.464290
_cell_angle_alpha 96.132656
_cell_angle_beta 136.116642
_cell_angle_gamma 115.803456
_cell_volume 737.549406
_symmetry_space_group_name_H-M "P -1"
_symmetry_group_IT_number 2
_symmetry_cell_setting 'triclinic'
loop_
_space_group_symop_operation_xyz
x,y,z
-x,-y,-z
loop_
_atom_site_type_symbol
_atom_site_label
_atom_site_fract_x
_atom_site_fract_y
_atom_site_fract_z
Si Si1 0.124843 0.340267 0.597682
Si Si2 0.828563 0.853262 0.756887
Si Si3 0.505201 0.351161 0.393904
Si Si4 0.198384 0.242955 0.967761
Si Si5 0.141209 0.511511 0.846379
Si Si6 0.762440 0.352587 0.476949
Si Si7 0.274396 0.178337 0.797850
Si Si8 0.524865 0.932177 0.122710
O O1 0.114976 0.448038 0.694726
O O2 0.170813 0.461361 0.534314
O O3 0.290845 0.345467 0.756521
O O4 0.915775 0.081234 0.403571
O O5 0.715509 0.602940 0.622193
O O6 0.640135 0.807230 0.635235
O O7 0.959798 0.004608 0.772141
O O8 0.000000 0.000000 0.000000
O O9 0.571270 0.254748 0.380775
O O10 0.360059 0.340822 0.202088
O O11 0.185192 0.409360 0.952321
O O12 0.278158 0.216577 0.929694
O O13 0.945429 0.450418 0.713281
O O14 0.329511 0.779488 0.027143
O O15 0.706779 0.154879 0.354554
O O16 0.459117 0.228676 0.912250
O O17 0.500000 0.000000 0.000000
#
# Coordination Sequence:
#
# PCOD8003393 Si02
#       8
#     2   2   2   2   2   2   2   2
#     4  10  20  37  56  81 123 172 214 250 289 346
#     4   9  20  43  69  95 118 146 203 262 310 368
#     4  10  22  39  69  94 116 158 204 250 314 373
#     4  10  22  39  61  92 124 159 206 259 303 358
#     4  11  24  37  56  87 130 168 207 252 302 351
#     4  12  23  39  60  89 128 166 203 253 305 358
#     4  10  21  35  58  87 121 171 212 248 292 356
#     4  12  23  36  56  83 129 171 211 246 297 357
#
# _framework density 21.693463000000001
#
# number of rings (size 3 to 8) (size 9 to 14) (size 15 to 20)
#    0.000    1.500    2.500    2.625    1.750    4.000 
#    0.000    0.625    0.000    7.500    0.000    0.000 
#    0.000    0.000    0.000    0.000    0.000    0.000 
#
# Total GULP energy -198225.981535 kJ/mol
# GULP energy per Si atom -12389.123846 kJ/mol
# Density = 2.164409 g / cm^3
# Si number density = 21.693463 Si / 1000 Ang^3
#
#
#
# Elastic Constant Matrix: (Units=GPa)
#
#
# Indices 1 2 3 4 5 6 
#
# 1 89.9146 31.7575 26.2792 -4.3383 22.1498 -9.5715
# 2 31.7575 79.4894 45.3108 8.0749 12.9008 -16.2951
# 3 26.2792 45.3108 93.8203 1.7774 20.5677 0.7738
# 4 -4.3383 8.0749 1.7774 36.4023 -0.9352 11.0755
# 5 22.1498 12.9008 20.5677 -0.9352 34.0586 -0.6221
# 6 -9.5715 -16.2951 0.7738 11.0755 -0.6221 21.2964
#
#
#
# Elastic Compliance Matrix: (Units=1/GPa)
#
#
# Indices 1 2 3 4 5 6 
#
# 1 0.014991 -0.004050 -0.000596 0.001746 -0.007762 0.002526
# 2 -0.004050 0.028830 -0.012619 -0.014931 -0.000556 0.028446
# 3 -0.000596 -0.012619 0.018222 0.005892 -0.005927 -0.013822
# 4 0.001746 -0.014931 0.005892 0.040427 0.001491 -0.031835
# 5 -0.007762 -0.000556 -0.005927 0.001491 0.038179 -0.003359
# 6 0.002526 0.028446 -0.013822 -0.031835 -0.003359 0.086818
#
#
# Mechanical properties :
#
#
# Convention : Reuss Voigt Hill
#
# Bulk Modulus (GPa) = 36.34462 52.21327 44.27895
# Shear Modulus (GPa) = 18.43885 29.00992 23.72438
#
# Velocity S-wave (km/s) = 2.91859 3.66083 3.31058
# Velocity P-wave (km/s) = 5.30544 6.47996 5.92189
#
# Compressibility (1/GPa) = 0.02751439
#
# Stress axis : x y z
#
# Youngs Moduli (GPa) = 66.70559 34.68637 54.87966
#
# Poissons Ratio (x) = 0.14047 0.03269
# Poissons Ratio (y) = 0.27013 0.69252
# Poissons Ratio (z) = 0.03973 0.43770
#
# Static dielectric constant tensor:
#      x y z
#    x 5.003310 -0.784310 0.107630 
#    y -0.784310 4.583490 0.300750 
#    z 0.107630 0.300750 4.213540 
# 
# 
# High freq. dielectric constant tensor:
#      x y z
#    x 1.843620 -0.006200 0.017820 
#    y -0.006200 1.831800 0.018280 
#    z 0.017820 0.018280 1.871640 
# 
# From -- ./inp_files/338148.got.cif
#   From: 2010.06.25/outbox.cif.g09.slc.cpg/sg2_170_cif.got.tgz:338148.got - 2010.06.27 13:26:56.
