data_PCOD8003058
_publ_section_title
;
Structure prediction by ZEFSAII (Michael W. Deem and Ramdas Pophale) SiO2 
 PCOD8003058
Probable space group: P -1
;
_chemical_formula_sum "Si O2"
_cell_formula_units_Z 16
_cell_length_a 16.070607
_cell_length_b 23.493798
_cell_length_c 21.506215
_cell_angle_alpha 19.436277
_cell_angle_beta 16.299478
_cell_angle_gamma 26.060792
_cell_volume 756.323400
_symmetry_space_group_name_H-M "P -1"
_symmetry_group_IT_number 2
_symmetry_cell_setting 'triclinic'
loop_
_space_group_symop_operation_xyz
x,y,z
-x,-y,-z
loop_
_atom_site_type_symbol
_atom_site_label
_atom_site_fract_x
_atom_site_fract_y
_atom_site_fract_z
Si Si1 0.573640 0.079944 0.768895
Si Si2 0.351211 0.746955 0.856028
Si Si3 0.971155 0.451558 0.224604
Si Si4 0.096183 0.324419 0.139254
Si Si5 0.709562 0.170441 0.859696
Si Si6 0.781096 0.553282 0.821855
Si Si7 0.380129 0.248950 0.850469
Si Si8 0.913733 0.963218 0.173003
O O1 0.423069 0.219110 0.776605
O O2 0.867427 0.174962 0.429911
O O3 0.336371 0.008037 0.961921
O O4 0.694040 0.930442 0.878646
O O5 0.472064 0.620753 0.951585
O O6 0.144873 0.868786 0.916901
O O7 0.611062 0.840106 0.529245
O O8 0.148134 0.620477 0.086670
O O9 0.667148 0.351115 0.571092
O O10 0.897671 0.635989 0.059244
O O11 0.097175 0.331813 0.205461
O O12 0.220603 0.485932 0.063117
O O13 0.426628 0.276410 0.937999
O O14 0.000000 0.500000 0.000000
O O15 0.984697 0.286836 0.518412
O O16 0.793972 0.118936 0.923078
O O17 0.000000 0.000000 0.000000
#
# Coordination Sequence:
#
# PCOD8003058 Si02
#       8
#     2   2   2   2   2   2   2   2
#     4  10  20  38  58  86 126 160 203 256 300 366
#     4   9  22  45  66  94 124 160 204 272 319 365
#     4  10  20  36  62  85 120 165 204 254 299 381
#     4  11  25  39  56  89 133 163 203 259 306 365
#     4  11  23  39  64  89 121 169 203 250 322 373
#     4  10  21  41  67  88 121 161 212 255 314 381
#     4   9  19  35  59  88 115 161 212 246 298 361
#     4  10  23  45  68  93 128 158 209 268 319 377
#
# _framework density 21.154972000000001
#
# number of rings (size 3 to 8) (size 9 to 14) (size 15 to 20)
#    0.000    2.000    1.250    1.125    7.000    0.000 
#    6.750    1.875    0.000    0.000    0.000    0.000 
#    0.000    0.000    0.000    0.000    0.000    0.000 
#
# Total GULP energy -198223.601924 kJ/mol
# GULP energy per Si atom -12388.975120 kJ/mol
# Density = 2.110682 g / cm^3
# Si number density = 21.154972 Si / 1000 Ang^3
#
#
#
# Elastic Constant Matrix: (Units=GPa)
#
#
# Indices 1 2 3 4 5 6 
#
# 1 114.2862 14.3112 35.0637 -0.4064 -18.4136 14.6255
# 2 14.3112 70.1648 19.8625 -7.3323 -5.4602 11.5068
# 3 35.0637 19.8625 66.2130 -13.0879 -10.2339 -2.5986
# 4 -0.4064 -7.3323 -13.0879 29.5365 6.0753 0.2057
# 5 -18.4136 -5.4602 -10.2339 6.0753 33.8736 -1.9827
# 6 14.6255 11.5068 -2.5986 0.2057 -1.9827 24.8979
#
#
#
# Elastic Compliance Matrix: (Units=1/GPa)
#
#
# Indices 1 2 3 4 5 6 
#
# 1 0.012730 0.000796 -0.007277 -0.003835 0.005059 -0.008171
# 2 0.000796 0.017378 -0.005524 0.001793 0.000715 -0.009034
# 3 -0.007277 -0.005524 0.022792 0.008341 0.001084 0.009224
# 4 -0.003835 0.001793 0.008341 0.039214 -0.006223 0.001475
# 5 0.005059 0.000715 0.001084 -0.006223 0.033804 -0.000446
# 6 -0.008171 -0.009034 0.009224 0.001475 -0.000446 0.050054
#
#
# Mechanical properties :
#
#
# Convention : Reuss Voigt Hill
#
# Bulk Modulus (GPa) = 34.61441 43.23765 38.92603
# Shear Modulus (GPa) = 23.85355 29.75670 26.80513
#
# Velocity S-wave (km/s) = 3.36156 3.75454 3.56347
# Velocity P-wave (km/s) = 5.60933 6.26724 5.94739
#
# Compressibility (1/GPa) = 0.02888971
#
# Stress axis : x y z
#
# Youngs Moduli (GPa) = 78.55423 57.54369 43.87555
#
# Poissons Ratio (x) = -0.04583 0.31928
# Poissons Ratio (y) = -0.06256 0.24239
# Poissons Ratio (z) = 0.57164 0.31790
#
# Static dielectric constant tensor:
#      x y z
#    x 4.289400 0.017490 -0.124830 
#    y 0.017490 3.966770 -0.210520 
#    z -0.124830 -0.210520 3.744700 
# 
# 
# High freq. dielectric constant tensor:
#      x y z
#    x 1.837190 0.003170 -0.007450 
#    y 0.003170 1.825540 -0.024770 
#    z -0.007450 -0.024770 1.815730 
# 
# From -- ./inp_files/598515.got.cif
#   From: 2010.06.25/outbox.cif.g09.slc.cpg/sg2_300_cif.got.tgz:598515.got - 2010.06.27 13:26:56.
