data_PCOD8003723
_publ_section_title
;
Structure prediction by ZEFSAII (Michael W. Deem and Ramdas Pophale) SiO2 
 PCOD8003723
Probable space group: P -1
;
_chemical_formula_sum "Si O2"
_cell_formula_units_Z 14
_cell_length_a 10.814980
_cell_length_b 10.255435
_cell_length_c 12.394450
_cell_angle_alpha 45.000634
_cell_angle_beta 124.368202
_cell_angle_gamma 139.423963
_cell_volume 631.162440
_symmetry_space_group_name_H-M "P -1"
_symmetry_group_IT_number 2
_symmetry_cell_setting 'triclinic'
loop_
_space_group_symop_operation_xyz
x,y,z
-x,-y,-z
loop_
_atom_site_type_symbol
_atom_site_label
_atom_site_fract_x
_atom_site_fract_y
_atom_site_fract_z
Si Si1 0.775048 0.833818 0.177720
Si Si2 0.107150 0.452269 0.496694
Si Si3 0.719603 0.638823 0.043740
Si Si4 0.499458 0.782253 0.398457
Si Si5 0.918834 0.669680 0.926618
Si Si6 0.174734 0.673556 0.747579
Si Si7 0.386956 0.516405 0.285029
O O1 0.881138 0.747318 0.340055
O O2 0.798933 0.837620 0.057635
O O3 0.551384 0.665471 0.190159
O O4 0.864238 0.093157 0.114629
O O5 0.320187 0.692403 0.440179
O O6 0.000000 0.500000 0.500000
O O7 0.991046 0.352710 0.385431
O O8 0.757142 0.456470 0.208713
O O9 0.500000 0.500000 0.000000
O O10 0.823399 0.748351 0.915772
O O11 0.417085 0.685970 0.295257
O O12 0.615537 0.692113 0.547876
O O13 0.642404 0.060456 0.302253
O O14 0.815444 0.595711 0.804066
O O15 0.905257 0.453584 0.098974
#
# Coordination Sequence:
#
# PCOD8003723 Si02
#       7
#     2   2   2   2   2   2   2
#     4  11  20  39  63  89 122 159 201 247 295 364
#     4  11  22  39  62  91 121 154 199 246 307 352
#     4  10  20  37  60  91 124 153 201 244 300 354
#     4  10  24  42  63  85 126 156 203 253 292 358
#     4  10  22  36  62  88 120 160 199 245 299 349
#     4  10  23  39  58  95 121 156 198 251 302 350
#     4  10  22  43  62  88 115 168 205 241 299 355
#
# _framework density 22.181294999999999
#
# number of rings (size 3 to 8) (size 9 to 14) (size 15 to 20)
#    0.857    0.857    2.857    1.286    0.000    5.714 
#    0.000    5.714    0.000    0.000    0.000    0.000 
#    0.000    0.000    0.000    0.000    0.000    0.000 
#
# Total GULP energy -173578.040441 kJ/mol
# GULP energy per Si atom -12398.431460 kJ/mol
# Density = 2.213081 g / cm^3
# Si number density = 22.181295 Si / 1000 Ang^3
#
#
#
# Elastic Constant Matrix: (Units=GPa)
#
#
# Indices 1 2 3 4 5 6 
#
# 1 27.2017 -2.0853 3.2849 -2.6670 6.2915 -9.0656
# 2 -2.0853 144.8202 53.9257 -3.2839 5.0876 -16.3189
# 3 3.2849 53.9257 81.6814 1.2301 -9.6678 -6.8432
# 4 -2.6670 -3.2839 1.2301 52.5286 -2.7527 -1.6206
# 5 6.2915 5.0876 -9.6678 -2.7527 21.7862 8.2586
# 6 -9.0656 -16.3189 -6.8432 -1.6206 8.2586 25.2328
#
#
#
# Elastic Compliance Matrix: (Units=1/GPa)
#
#
# Indices 1 2 3 4 5 6 
#
# 1 0.061653 0.010977 -0.011189 0.003206 -0.039893 0.039478
# 2 0.010977 0.012931 -0.009633 0.001216 -0.016000 0.015009
# 3 -0.011189 -0.009633 0.020348 -0.001012 0.018495 -0.010850
# 4 0.003206 0.001216 -0.001012 0.019374 -0.000358 0.003025
# 5 -0.039893 -0.016000 0.018495 -0.000358 0.087659 -0.048378
# 6 0.039478 0.015009 -0.010850 0.003025 -0.048378 0.076607
#
#
# Mechanical properties :
#
#
# Convention : Reuss Voigt Hill
#
# Bulk Modulus (GPa) = 13.29050 40.43932 26.86491
# Shear Modulus (GPa) = 15.46341 33.14806 24.30574
#
# Velocity S-wave (km/s) = 2.64320 3.86996 3.31384
# Velocity P-wave (km/s) = 3.91409 6.18382 5.17493
#
# Compressibility (1/GPa) = 0.07524174
#
# Stress axis : x y z
#
# Youngs Moduli (GPa) = 16.21971 77.33247 49.14532
#
# Poissons Ratio (x) = -0.84886 0.54988
# Poissons Ratio (y) = -0.17804 0.47343
# Poissons Ratio (z) = 0.18148 0.74496
#
# Static dielectric constant tensor:
#      x y z
#    x 3.967560 -0.005700 -0.099370 
#    y -0.005700 3.883630 0.020450 
#    z -0.099370 0.020450 4.048620 
# 
# 
# High freq. dielectric constant tensor:
#      x y z
#    x 1.867380 0.002840 -0.008810 
#    y 0.002840 1.879060 0.009610 
#    z -0.008810 0.009610 1.866210 
# 
# From -- ./inp_files/518672.got.cif
#   From: 2010.06.25/outbox.cif.g09.slc.cpg/sg2_260_cif.got.tgz:518672.got - 2010.06.27 13:26:56.
