data_PCOD8003866
_publ_section_title
;
Structure prediction by ZEFSAII (Michael W. Deem and Ramdas Pophale) SiO2 
 PCOD8003866
Probable space group: P -1
;
_chemical_formula_sum "Si O2"
_cell_formula_units_Z 16
_cell_length_a 19.254861
_cell_length_b 7.982088
_cell_length_c 9.308636
_cell_angle_alpha 98.615326
_cell_angle_beta 120.074392
_cell_angle_gamma 123.716839
_cell_volume 828.032017
_symmetry_space_group_name_H-M "P -1"
_symmetry_group_IT_number 2
_symmetry_cell_setting 'triclinic'
loop_
_space_group_symop_operation_xyz
x,y,z
-x,-y,-z
loop_
_atom_site_type_symbol
_atom_site_label
_atom_site_fract_x
_atom_site_fract_y
_atom_site_fract_z
Si Si1 0.846731 0.976554 0.500867
Si Si2 0.504185 0.181120 0.365473
Si Si3 0.222562 0.213962 0.909182
Si Si4 0.456453 0.735069 0.258394
Si Si5 0.967584 0.903488 0.115266
Si Si6 0.958963 0.524696 0.103329
Si Si7 0.628781 0.691544 0.431117
Si Si8 0.726382 0.986546 0.860090
O O1 0.844013 0.932839 0.324851
O O2 0.714847 0.801982 0.399664
O O3 0.909668 0.917201 0.642263
O O4 0.927648 0.271158 0.647424
O O5 0.567261 0.295462 0.599436
O O6 0.561043 0.407269 0.346282
O O7 0.364903 0.001439 0.219198
O O8 0.514813 0.003141 0.297320
O O9 0.122924 0.106481 0.909068
O O10 0.325494 0.512437 0.023704
O O11 0.293113 0.165075 0.043419
O O12 0.540269 0.707029 0.301393
O O13 0.903763 0.620766 0.013886
O O14 0.000000 0.000000 0.000000
O O15 0.000000 0.500000 0.000000
O O16 0.859899 0.261325 0.045266
O O17 0.704748 0.852948 0.672003
#
# Coordination Sequence:
#
# PCOD8003866 Si02
#       8
#     2   2   2   2   2   2   2   2
#     4  10  25  38  61  90 130 167 200 264 315 381
#     4  10  20  37  61  98 114 162 220 258 312 359
#     4  12  21  40  62  92 128 165 205 252 335 365
#     4  10  21  35  65  92 123 163 206 270 305 377
#     4  10  22  40  63  88 118 164 212 256 304 372
#     4  10  20  38  60  90 116 161 211 254 305 362
#     4  11  19  42  61  91 125 161 219 252 314 368
#     4  11  19  37  64  86 126 160 207 269 302 375
#
# _framework density 19.322924
#
# number of rings (size 3 to 8) (size 9 to 14) (size 15 to 20)
#    0.750    0.750    3.750    3.375    0.000    1.000 
#    0.000    0.625    2.750    0.000    0.000    0.000 
#    0.000    0.000    0.000    0.000    0.000    0.000 
#
# Total GULP energy -198329.543970 kJ/mol
# GULP energy per Si atom -12395.596498 kJ/mol
# Density = 1.927894 g / cm^3
# Si number density = 19.322924 Si / 1000 Ang^3
#
#
#
# Elastic Constant Matrix: (Units=GPa)
#
#
# Indices 1 2 3 4 5 6 
#
# 1 94.7225 54.1295 47.3765 3.1501 2.4262 -0.7705
# 2 54.1295 99.8050 29.3663 18.8957 -6.0652 -2.6566
# 3 47.3765 29.3663 104.9338 3.9684 -9.7506 8.9081
# 4 3.1501 18.8957 3.9684 37.0679 2.0710 3.3761
# 5 2.4262 -6.0652 -9.7506 2.0710 20.7201 1.2401
# 6 -0.7705 -2.6566 8.9081 3.3761 1.2401 34.5399
#
#
#
# Elastic Compliance Matrix: (Units=1/GPa)
#
#
# Indices 1 2 3 4 5 6 
#
# 1 0.020193 -0.010176 -0.007443 0.004659 -0.009400 0.001470
# 2 -0.010176 0.017499 0.000577 -0.008670 0.007359 0.001553
# 3 -0.007443 0.000577 0.013837 -0.001234 0.007906 -0.003854
# 4 0.004659 -0.008670 -0.001234 0.031788 -0.006655 -0.003113
# 5 -0.009400 0.007359 0.007906 -0.006655 0.056085 -0.003046
# 6 0.001470 0.001553 -0.003854 -0.003113 -0.003046 0.030512
#
#
# Mechanical properties :
#
#
# Convention : Reuss Voigt Hill
#
# Bulk Modulus (GPa) = 57.32526 62.35623 59.84074
# Shear Modulus (GPa) = 23.83072 29.70484 26.76778
#
# Velocity S-wave (km/s) = 3.51563 3.92508 3.72598
# Velocity P-wave (km/s) = 6.79786 7.27202 7.03893
#
# Compressibility (1/GPa) = 0.01744432
#
# Stress axis : x y z
#
# Youngs Moduli (GPa) = 49.52265 57.14762 72.26765
#
# Poissons Ratio (x) = 0.58152 0.53792
# Poissons Ratio (y) = 0.50393 -0.04169
# Poissons Ratio (z) = 0.36862 -0.03297
#
# Static dielectric constant tensor:
#      x y z
#    x 3.455330 -0.136250 0.075270 
#    y -0.136250 3.654150 0.110800 
#    z 0.075270 0.110800 3.408460 
# 
# 
# High freq. dielectric constant tensor:
#      x y z
#    x 1.748400 -0.006360 0.012650 
#    y -0.006360 1.743550 0.015120 
#    z 0.012650 0.015120 1.739560 
# 
# From -- ./inp_files/329180.got.cif
#   From: 2010.06.25/outbox.cif.g09.slc.cpg/sg2_165_cif.got.tgz:329180.got - 2010.06.27 13:26:56.
