data_PCOD8003204
_publ_section_title
;
Structure prediction by ZEFSAII (Michael W. Deem and Ramdas Pophale) SiO2 
 PCOD8003204
Probable space group: P -1
;
_chemical_formula_sum "Si O2"
_cell_formula_units_Z 16
_cell_length_a 13.975620
_cell_length_b 9.427216
_cell_length_c 9.213803
_cell_angle_alpha 134.287449
_cell_angle_beta 68.566719
_cell_angle_gamma 90.987318
_cell_volume 755.568893
_symmetry_space_group_name_H-M "P -1"
_symmetry_group_IT_number 2
_symmetry_cell_setting 'triclinic'
loop_
_space_group_symop_operation_xyz
x,y,z
-x,-y,-z
loop_
_atom_site_type_symbol
_atom_site_label
_atom_site_fract_x
_atom_site_fract_y
_atom_site_fract_z
Si Si1 0.984371 0.733747 0.723599
Si Si2 0.537929 0.151148 0.191370
Si Si3 0.926357 0.087570 0.463408
Si Si4 0.884290 0.679907 0.211319
Si Si5 0.623264 0.499124 0.294985
Si Si6 0.815569 0.504672 0.385814
Si Si7 0.742416 0.515921 0.969853
Si Si8 0.744525 0.786785 0.905158
O O1 0.857563 0.826177 0.913915
O O2 0.000000 0.500000 0.500000
O O3 0.003236 0.872225 0.679714
O O4 0.076848 0.704325 0.777301
O O5 0.553917 0.345464 0.235854
O O6 0.447634 0.259326 0.443547
O O7 0.500000 0.000000 0.000000
O O8 0.653979 0.017331 0.102164
O O9 0.825267 0.295985 0.706482
O O10 0.879767 0.906210 0.317853
O O11 0.000000 0.000000 0.500000
O O12 0.853191 0.671913 0.392080
O O13 0.797625 0.629403 0.127728
O O14 0.000000 0.500000 0.000000
O O15 0.734752 0.420036 0.275515
O O16 0.646150 0.487983 0.101098
O O17 0.755162 0.638311 0.653173
O O18 0.698003 0.671838 0.971433
#
# Coordination Sequence:
#
# PCOD8003204 Si02
#       8
#     2   2   2   2   2   2   2   2
#     4  10  20  36  63  97 132 174 213 252 319 403
#     4  11  24  46  72  94 124 171 221 274 332 382
#     4  12  22  36  63  89 135 183 211 258 333 376
#     4  11  23  37  59  94 132 174 222 262 309 392
#     4  10  25  43  71 100 122 167 228 269 322 394
#     4  10  20  41  65  93 138 166 213 267 320 395
#     4  11  24  42  61  97 132 164 218 274 319 391
#     4  11  22  41  68  91 135 178 209 271 328 380
#
# _framework density 21.176099000000001
#
# number of rings (size 3 to 8) (size 9 to 14) (size 15 to 20)
#    0.000    1.250    5.000    2.250    3.500    1.500 
#    0.000    2.500    0.000    0.000    0.000    0.000 
#    0.000    0.000    0.000    0.000    0.000    0.000 
#
# Total GULP energy -198325.128418 kJ/mol
# GULP energy per Si atom -12395.320526 kJ/mol
# Density = 2.112790 g / cm^3
# Si number density = 21.176099 Si / 1000 Ang^3
#
#
#
# Elastic Constant Matrix: (Units=GPa)
#
#
# Indices 1 2 3 4 5 6 
#
# 1 76.7442 25.8439 27.3070 2.4583 -14.8784 -0.1977
# 2 25.8439 137.3029 40.9590 -13.0628 -2.3911 6.8998
# 3 27.3070 40.9590 80.5881 -6.8329 -14.1129 -5.1924
# 4 2.4583 -13.0628 -6.8329 37.2668 -0.3665 -4.6242
# 5 -14.8784 -2.3911 -14.1129 -0.3665 33.2478 6.6653
# 6 -0.1977 6.8998 -5.1924 -4.6242 6.6653 30.9660
#
#
#
# Elastic Compliance Matrix: (Units=1/GPa)
#
#
# Indices 1 2 3 4 5 6 
#
# 1 0.016268 -0.001984 -0.003817 -0.002627 0.005838 -0.001743
# 2 -0.001984 0.009215 -0.004225 0.002311 -0.001574 -0.002090
# 3 -0.003817 -0.004225 0.017059 0.002332 0.004628 0.003130
# 4 -0.002627 0.002311 0.002332 0.028770 -0.000560 0.004276
# 5 0.005838 -0.001574 0.004628 -0.000560 0.035866 -0.006639
# 6 -0.001743 -0.002090 0.003130 0.004276 -0.006639 0.035341
#
#
# Mechanical properties :
#
#
# Convention : Reuss Voigt Hill
#
# Bulk Modulus (GPa) = 44.46513 53.65055 49.05784
# Shear Modulus (GPa) = 29.40021 33.66448 31.53234
#
# Velocity S-wave (km/s) = 3.73012 3.99148 3.86301
# Velocity P-wave (km/s) = 6.29247 6.82883 6.56613
#
# Compressibility (1/GPa) = 0.02248953
#
# Stress axis : x y z
#
# Youngs Moduli (GPa) = 61.47076 108.52277 58.61849
#
# Poissons Ratio (x) = 0.21533 0.22372
# Poissons Ratio (y) = 0.12197 0.24769
# Poissons Ratio (z) = 0.23461 0.45856
#
# Static dielectric constant tensor:
#      x y z
#    x 4.246500 0.158650 -0.220090 
#    y 0.158650 4.488650 0.105790 
#    z -0.220090 0.105790 3.992450 
# 
# 
# High freq. dielectric constant tensor:
#      x y z
#    x 1.820110 0.006090 -0.002660 
#    y 0.006090 1.839360 -0.005390 
#    z -0.002660 -0.005390 1.827980 
# 
# From -- ./inp_files/296697.got.cif
#   From: 2010.06.25/outbox.cif.g09.slc.cpg/sg2_149_cif.got.tgz:296697.got - 2010.06.27 13:26:56.
