data_PCOD8003886
_publ_section_title
;
Structure prediction by ZEFSAII (Michael W. Deem and Ramdas Pophale) SiO2 
 PCOD8003886
Probable space group: P -1
;
_chemical_formula_sum "Si O2"
_cell_formula_units_Z 12
_cell_length_a 11.554975
_cell_length_b 13.643043
_cell_length_c 8.128313
_cell_angle_alpha 115.680294
_cell_angle_beta 119.444159
_cell_angle_gamma 29.057542
_cell_volume 541.948049
_symmetry_space_group_name_H-M "P -1"
_symmetry_group_IT_number 2
_symmetry_cell_setting 'triclinic'
loop_
_space_group_symop_operation_xyz
x,y,z
-x,-y,-z
loop_
_atom_site_type_symbol
_atom_site_label
_atom_site_fract_x
_atom_site_fract_y
_atom_site_fract_z
Si Si1 0.728345 0.705785 0.387903
Si Si2 0.656826 0.522121 0.262661
Si Si3 0.411406 0.146846 0.259556
Si Si4 0.122634 0.814517 0.041592
Si Si5 0.934049 0.422111 0.691228
Si Si6 0.823119 0.879910 0.109503
O O1 0.631838 0.651621 0.232708
O O2 0.555988 0.874871 0.534581
O O3 0.000000 0.500000 0.500000
O O4 0.779742 0.752741 0.304580
O O5 0.383776 0.663006 0.195711
O O6 0.768104 0.468292 0.480977
O O7 0.839809 0.312244 0.148153
O O8 0.187667 0.378123 0.213343
O O9 0.652516 0.030149 0.254505
O O10 0.339844 0.074045 0.102967
O O11 0.935205 0.908757 0.123237
O O12 0.000000 0.000000 0.000000
O O13 0.953752 0.344823 0.820371
#
# Coordination Sequence:
#
# PCOD8003886 Si02
#       6
#     2   2   2   2   2   2
#     4   8  16  36  60  82 111 145 180 223 278 333
#     4   9  21  40  60  81 107 151 193 224 275 335
#     4   9  20  36  57  88 117 143 179 227 284 338
#     4  11  24  40  57  78 112 155 193 228 271 332
#     4  10  20  37  62  86 113 143 182 237 281 328
#     4  11  22  35  57  89 116 144 184 231 283 328
#
# _framework density 22.142344999999999
#
# number of rings (size 3 to 8) (size 9 to 14) (size 15 to 20)
#    0.000    2.667    0.000    3.500    0.000    9.333 
#    0.000    5.833    0.000    1.000    0.000    0.000 
#    0.000    0.000    0.000    0.000    0.000    0.000 
#
# Total GULP energy -148752.062109 kJ/mol
# GULP energy per Si atom -12396.005176 kJ/mol
# Density = 2.209195 g / cm^3
# Si number density = 22.142345 Si / 1000 Ang^3
#
#
#
# Elastic Constant Matrix: (Units=GPa)
#
#
# Indices 1 2 3 4 5 6 
#
# 1 179.5143 47.6694 40.4558 6.6020 -13.2942 -6.1804
# 2 47.6694 57.1490 24.4824 11.1730 -10.6194 -12.1176
# 3 40.4558 24.4824 66.9837 11.2643 14.1919 2.1283
# 4 6.6020 11.1730 11.2643 33.4889 -4.2379 -5.4584
# 5 -13.2942 -10.6194 14.1919 -4.2379 28.3433 -5.9203
# 6 -6.1804 -12.1176 2.1283 -5.4584 -5.9203 38.8027
#
#
#
# Elastic Compliance Matrix: (Units=1/GPa)
#
#
# Indices 1 2 3 4 5 6 
#
# 1 0.008102 -0.003489 -0.005316 0.002379 0.005870 0.001723
# 2 -0.003489 0.034111 -0.015331 -0.000477 0.021711 0.014183
# 3 -0.005316 -0.015331 0.031949 -0.010346 -0.028538 -0.013196
# 4 0.002379 -0.000477 -0.010346 0.035975 0.013139 0.007863
# 5 0.005870 0.021711 -0.028538 0.013139 0.066880 0.021333
# 6 0.001723 0.014183 -0.013196 0.007863 0.021333 0.035560
#
#
# Mechanical properties :
#
#
# Convention : Reuss Voigt Hill
#
# Bulk Modulus (GPa) = 38.62631 58.76246 48.69439
# Shear Modulus (GPa) = 18.55437 32.86294 25.70865
#
# Velocity S-wave (km/s) = 2.89789 3.85667 3.41113
# Velocity P-wave (km/s) = 5.35532 6.81381 6.12811
#
# Compressibility (1/GPa) = 0.02588909
#
# Stress axis : x y z
#
# Youngs Moduli (GPa) = 123.42849 29.31580 31.30024
#
# Poissons Ratio (x) = 0.10230 0.16640
# Poissons Ratio (y) = 0.43070 0.47985
# Poissons Ratio (z) = 0.65619 0.44943
#
# Static dielectric constant tensor:
#      x y z
#    x 4.470060 -0.065900 -0.144650 
#    y -0.065900 4.025520 0.193080 
#    z -0.144650 0.193080 3.916090 
# 
# 
# High freq. dielectric constant tensor:
#      x y z
#    x 1.868690 -0.001200 -0.003950 
#    y -0.001200 1.882040 0.005040 
#    z -0.003950 0.005040 1.857650 
# 
# From -- ./inp_files/161785.got.cif
#   From: 2010.06.25/outbox.cif.g09.slc.cpg/sg2_81_cif.got.tgz:161785.got - 2010.06.27 13:26:56.
