data_PCOD8003754
_publ_section_title
;
Structure prediction by ZEFSAII (Michael W. Deem and Ramdas Pophale) SiO2 
 PCOD8003754
Probable space group: P -1
;
_chemical_formula_sum "Si O2"
_cell_formula_units_Z 14
_cell_length_a 11.903353
_cell_length_b 9.081745
_cell_length_c 12.268263
_cell_angle_alpha 39.408815
_cell_angle_beta 65.104065
_cell_angle_gamma 84.825532
_cell_volume 697.192910
_symmetry_space_group_name_H-M "P -1"
_symmetry_group_IT_number 2
_symmetry_cell_setting 'triclinic'
loop_
_space_group_symop_operation_xyz
x,y,z
-x,-y,-z
loop_
_atom_site_type_symbol
_atom_site_label
_atom_site_fract_x
_atom_site_fract_y
_atom_site_fract_z
Si Si1 0.713362 0.234863 0.439663
Si Si2 0.876825 0.581596 0.000324
Si Si3 0.049610 0.480852 0.654239
Si Si4 0.435562 0.087272 0.578051
Si Si5 0.008448 0.132715 0.681049
Si Si6 0.721048 0.760208 0.607569
Si Si7 0.775282 0.386965 0.935997
O O1 0.562539 0.224639 0.531022
O O2 0.824587 0.415425 0.374246
O O3 0.706788 0.949479 0.597219
O O4 0.750109 0.355320 0.235572
O O5 0.838178 0.604722 0.877747
O O6 0.904528 0.841067 0.905284
O O7 0.000000 0.500000 0.000000
O O8 0.067570 0.713708 0.434419
O O9 0.902257 0.359680 0.840820
O O10 0.062752 0.256401 0.705923
O O11 0.374276 0.273142 0.440935
O O12 0.500000 0.000000 0.500000
O O13 0.319840 0.875372 0.818420
O O14 0.124541 0.121755 0.562324
O O15 0.689520 0.485044 0.832111
#
# Coordination Sequence:
#
# PCOD8003754 Si02
#       7
#     2   2   2   2   2   2   2
#     4  11  21  36  56  87 120 146 192 240 287 340
#     4  12  19  34  59  89 117 146 191 245 286 344
#     4  10  22  38  60  86 113 153 196 240 285 346
#     4  10  21  38  55  85 123 148 190 242 279 351
#     4  10  21  38  59  86 117 148 197 242 286 339
#     4  10  20  37  61  83 117 154 190 239 286 341
#     4  11  20  37  64  85 114 155 193 233 297 335
#
# _framework density 20.080525999999999
#
# number of rings (size 3 to 8) (size 9 to 14) (size 15 to 20)
#    0.000    1.429    5.714    0.857    0.000    5.143 
#    2.571    0.714    0.000    2.571    0.000    0.000 
#    0.000    0.000    0.000    0.000    0.000    0.000 
#
# Total GULP energy -173502.205817 kJ/mol
# GULP energy per Si atom -12393.014701 kJ/mol
# Density = 2.003482 g / cm^3
# Si number density = 20.080526 Si / 1000 Ang^3
#
#
#
# Elastic Constant Matrix: (Units=GPa)
#
#
# Indices 1 2 3 4 5 6 
#
# 1 132.8633 28.6596 51.7181 -4.0793 7.9553 13.8390
# 2 28.6596 74.1752 23.1030 -5.2101 2.8377 10.0472
# 3 51.7181 23.1030 92.0441 3.5430 4.9493 7.6995
# 4 -4.0793 -5.2101 3.5430 18.4629 2.6095 6.1962
# 5 7.9553 2.8377 4.9493 2.6095 29.3816 -0.4661
# 6 13.8390 10.0472 7.6995 6.1962 -0.4661 13.8081
#
#
#
# Elastic Compliance Matrix: (Units=1/GPa)
#
#
# Indices 1 2 3 4 5 6 
#
# 1 0.011368 -0.000472 -0.005437 0.007734 -0.002987 -0.011590
# 2 -0.000472 0.017625 -0.003155 0.011039 -0.002271 -0.015623
# 3 -0.005437 -0.003155 0.014768 -0.005572 -0.000184 0.002004
# 4 0.007734 0.011039 -0.005572 0.077484 -0.009861 -0.047779
# 5 -0.002987 -0.002271 -0.000184 -0.009861 0.036135 0.010394
# 6 -0.011590 -0.015623 0.002004 -0.047779 0.010394 0.116078
#
#
# Mechanical properties :
#
#
# Convention : Reuss Voigt Hill
#
# Bulk Modulus (GPa) = 39.00992 56.22712 47.61852
# Shear Modulus (GPa) = 16.65949 25.37064 21.01507
#
# Velocity S-wave (km/s) = 2.88346 3.55835 3.23854
# Velocity P-wave (km/s) = 5.52763 6.70404 6.14406
#
# Compressibility (1/GPa) = 0.02563450
#
# Stress axis : x y z
#
# Youngs Moduli (GPa) = 87.96558 56.73816 67.71497
#
# Poissons Ratio (x) = 0.02676 0.36815
# Poissons Ratio (y) = 0.04148 0.21363
# Poissons Ratio (z) = 0.47824 0.17900
#
# Static dielectric constant tensor:
#      x y z
#    x 4.080310 0.087500 0.047020 
#    y 0.087500 3.543070 0.143950 
#    z 0.047020 0.143950 3.792330 
# 
# 
# High freq. dielectric constant tensor:
#      x y z
#    x 1.791310 0.005250 0.007800 
#    y 0.005250 1.752090 0.008300 
#    z 0.007800 0.008300 1.781680 
# 
# From -- ./inp_files/154860.got.cif
#   From: 2010.06.25/outbox.cif.g09.slc.cpg/sg2_78_cif.got.tgz:154860.got - 2010.06.27 13:26:56.
