data_PCOD8003294
_publ_section_title
;
Structure prediction by ZEFSAII (Michael W. Deem and Ramdas Pophale) SiO2 
 PCOD8003294
Probable space group: P -1
;
_chemical_formula_sum "Si O2"
_cell_formula_units_Z 16
_cell_length_a 22.084768
_cell_length_b 11.643094
_cell_length_c 9.593576
_cell_angle_alpha 65.148580
_cell_angle_beta 145.131894
_cell_angle_gamma 140.695399
_cell_volume 719.561585
_symmetry_space_group_name_H-M "P -1"
_symmetry_group_IT_number 2
_symmetry_cell_setting 'triclinic'
loop_
_space_group_symop_operation_xyz
x,y,z
-x,-y,-z
loop_
_atom_site_type_symbol
_atom_site_label
_atom_site_fract_x
_atom_site_fract_y
_atom_site_fract_z
Si Si1 0.823994 0.321970 0.654585
Si Si2 0.274091 0.048325 0.433198
Si Si3 0.089043 0.590426 0.770736
Si Si4 0.110679 0.330787 0.000915
Si Si5 0.480449 0.081231 0.298891
Si Si6 0.646354 0.499517 0.386326
Si Si7 0.576988 0.479977 0.960461
Si Si8 0.715297 0.705772 0.841926
O O1 0.647103 0.229329 0.422187
O O2 0.919183 0.465748 0.617392
O O3 0.729649 0.090549 0.578404
O O4 0.000000 0.500000 0.000000
O O5 0.471165 0.269450 0.772347
O O6 0.206149 0.083218 0.170470
O O7 0.113915 0.893751 0.328275
O O8 0.000000 0.500000 0.500000
O O9 0.177913 0.542422 0.005886
O O10 0.265639 0.860112 0.953707
O O11 0.160428 0.331588 0.250811
O O12 0.196319 0.328649 0.045758
O O13 0.501478 0.249000 0.297738
O O14 0.500000 0.000000 0.500000
O O15 0.576910 0.570046 0.257823
O O16 0.675069 0.517446 0.263497
O O17 0.734854 0.703419 0.047024
O O18 0.500000 0.500000 0.500000
#
# Coordination Sequence:
#
# PCOD8003294 Si02
#       8
#     2   2   2   2   2   2   2   2
#     4  11  24  44  67 103 136 173 227 283 334 409
#     4  10  22  39  68  92 131 168 218 267 336 386
#     4  11  27  45  65 102 136 174 233 285 330 404
#     4  11  21  41  66  91 131 172 213 276 333 395
#     4  12  24  41  74  95 132 189 220 273 355 394
#     4  11  23  42  63  96 134 168 219 267 335 402
#     4  10  24  40  65  95 131 168 214 278 319 390
#     4  10  20  36  65  98 121 166 221 264 321 399
#
# _framework density 22.235764
#
# number of rings (size 3 to 8) (size 9 to 14) (size 15 to 20)
#    0.000    1.250    5.000    1.125    8.750    1.500 
#    0.000    0.625    0.000    0.000    0.000    0.000 
#    0.000    0.000    0.000    0.000    0.000    0.000 
#
# Total GULP energy -198242.948196 kJ/mol
# GULP energy per Si atom -12390.184262 kJ/mol
# Density = 2.218515 g / cm^3
# Si number density = 22.235764 Si / 1000 Ang^3
#
#
#
# Elastic Constant Matrix: (Units=GPa)
#
#
# Indices 1 2 3 4 5 6 
#
# 1 81.2641 19.1815 21.4175 0.7026 -8.3623 17.3088
# 2 19.1815 67.9907 11.2523 5.3648 -5.7538 5.7396
# 3 21.4175 11.2523 63.8725 -2.1216 -16.8721 14.4469
# 4 0.7026 5.3648 -2.1216 40.1322 9.6417 -5.6942
# 5 -8.3623 -5.7538 -16.8721 9.6417 43.3016 -4.6212
# 6 17.3088 5.7396 14.4469 -5.6942 -4.6212 43.5940
#
#
#
# Elastic Compliance Matrix: (Units=1/GPa)
#
#
# Indices 1 2 3 4 5 6 
#
# 1 0.014958 -0.003161 -0.003233 -0.000866 0.000925 -0.004466
# 2 -0.003161 0.016212 -0.001336 -0.002641 0.001545 -0.000618
# 3 -0.003233 -0.001336 0.019706 -0.000948 0.006608 -0.004494
# 4 -0.000866 -0.002641 -0.000948 0.027364 -0.006566 0.003884
# 5 0.000925 0.001545 0.006608 -0.006566 0.027439 -0.000710
# 6 -0.004466 -0.000618 -0.004494 0.003884 -0.000710 0.026715
#
#
# Mechanical properties :
#
#
# Convention : Reuss Voigt Hill
#
# Bulk Modulus (GPa) = 28.23551 35.20332 31.71941
# Shear Modulus (GPa) = 31.31658 36.15730 33.73694
#
# Velocity S-wave (km/s) = 3.75692 4.03685 3.89940
# Velocity P-wave (km/s) = 5.61650 6.13143 5.87961
#
# Compressibility (1/GPa) = 0.03541640
#
# Stress axis : x y z
#
# Youngs Moduli (GPa) = 66.85489 61.68204 50.74560
#
# Poissons Ratio (x) = 0.19499 0.16405
# Poissons Ratio (y) = 0.21134 0.06779
# Poissons Ratio (z) = 0.21613 0.08240
#
# Static dielectric constant tensor:
#      x y z
#    x 5.373070 2.385030 0.689120 
#    y 2.385030 8.133020 1.457990 
#    z 0.689120 1.457990 4.348080 
# 
# 
# High freq. dielectric constant tensor:
#      x y z
#    x 1.874200 0.000610 -0.005340 
#    y 0.000610 1.887940 0.002480 
#    z -0.005340 0.002480 1.855480 
# 
# From -- ./inp_files/346110.got.cif
#   From: 2010.06.25/outbox.cif.g09.slc.cpg/sg2_174_cif.got.tgz:346110.got - 2010.06.27 13:26:56.
