data_PCOD8003536
_publ_section_title
;
Structure prediction by ZEFSAII (Michael W. Deem and Ramdas Pophale) SiO2 
 PCOD8003536
Probable space group: P -1
;
_chemical_formula_sum "Si O2"
_cell_formula_units_Z 16
_cell_length_a 11.310987
_cell_length_b 8.869847
_cell_length_c 15.705302
_cell_angle_alpha 141.279676
_cell_angle_beta 65.215106
_cell_angle_gamma 130.957152
_cell_volume 730.012413
_symmetry_space_group_name_H-M "P -1"
_symmetry_group_IT_number 2
_symmetry_cell_setting 'triclinic'
loop_
_space_group_symop_operation_xyz
x,y,z
-x,-y,-z
loop_
_atom_site_type_symbol
_atom_site_label
_atom_site_fract_x
_atom_site_fract_y
_atom_site_fract_z
Si Si1 0.838577 0.710536 0.319487
Si Si2 0.691181 0.652666 0.829175
Si Si3 0.790923 0.537339 0.587702
Si Si4 0.079778 0.660529 0.956844
Si Si5 0.211294 0.150123 0.431321
Si Si6 0.593807 0.503802 0.053747
Si Si7 0.838380 0.050309 0.320435
Si Si8 0.239894 0.648579 0.175564
O O1 0.803474 0.425062 0.153005
O O2 0.742550 0.643662 0.407769
O O3 0.787855 0.876486 0.347952
O O4 0.023315 0.918175 0.378362
O O5 0.672653 0.457600 0.667421
O O6 0.525618 0.616646 0.882519
O O7 0.738209 0.533754 0.841014
O O8 0.822434 0.989621 0.910934
O O9 0.729909 0.649617 0.581829
O O10 0.775808 0.254832 0.430813
O O11 0.971667 0.771811 0.670264
O O12 0.945487 0.554751 0.880339
O O13 0.000000 0.500000 0.000000
O O14 0.291873 0.970621 0.333240
O O15 0.751388 0.831153 0.170389
O O16 0.500000 0.500000 0.000000
O O17 0.656392 0.305020 0.920402
#
# Coordination Sequence:
#
# PCOD8003536 Si02
#       8
#     2   2   2   2   2   2   2   2
#     4   9  18  33  56  85 116 149 185 241 299 346
#     4  11  22  37  58  85 115 158 202 240 298 356
#     4  10  21  36  63  92 115 150 199 252 300 348
#     4  11  21  36  60  88 119 150 197 254 296 346
#     4   9  18  34  56  87 119 145 188 248 301 344
#     4  10  23  39  58  84 121 162 201 244 290 355
#     4  10  20  38  61  86 117 153 198 244 296 353
#     4  10  20  37  59  82 117 157 198 246 292 350
#
# _framework density 21.917435999999999
#
# number of rings (size 3 to 8) (size 9 to 14) (size 15 to 20)
#    0.000    2.000    0.000    4.875    0.000    6.500 
#    0.000    5.625    0.000    4.500    0.000    0.000 
#    0.000    0.000    0.000    0.000    0.000    0.000 
#
# Total GULP energy -198305.853680 kJ/mol
# GULP energy per Si atom -12394.115855 kJ/mol
# Density = 2.186755 g / cm^3
# Si number density = 21.917436 Si / 1000 Ang^3
#
#
#
# Elastic Constant Matrix: (Units=GPa)
#
#
# Indices 1 2 3 4 5 6 
#
# 1 59.9573 39.5921 41.9045 3.7870 -20.2732 -10.5921
# 2 39.5921 87.0057 45.2459 -21.6348 -22.0245 -11.2811
# 3 41.9045 45.2459 138.6791 -25.9813 -26.9253 -4.2024
# 4 3.7870 -21.6348 -25.9813 30.8504 -2.2476 -9.7416
# 5 -20.2732 -22.0245 -26.9253 -2.2476 35.4222 -0.0568
# 6 -10.5921 -11.2811 -4.2024 -9.7416 -0.0568 25.6813
#
#
#
# Elastic Compliance Matrix: (Units=1/GPa)
#
#
# Indices 1 2 3 4 5 6 
#
# 1 0.038174 -0.020292 -0.010989 -0.030287 -0.001054 -0.006458
# 2 -0.020292 0.035434 0.006707 0.041975 0.018218 0.024256
# 3 -0.010989 0.006707 0.014859 0.022282 0.010604 0.009321
# 4 -0.030287 0.041975 0.022282 0.101946 0.032248 0.048335
# 5 -0.001054 0.018218 0.010604 0.032248 0.049097 0.021645
# 6 -0.006458 0.024256 0.009321 0.048335 0.021645 0.066838
#
#
# Mechanical properties :
#
#
# Convention : Reuss Voigt Hill
#
# Bulk Modulus (GPa) = 25.43294 59.90300 42.66797
# Shear Modulus (GPa) = 13.56479 28.98407 21.27443
#
# Velocity S-wave (km/s) = 2.49048 3.64046 3.11893
# Velocity P-wave (km/s) = 4.46084 6.71276 5.69913
#
# Compressibility (1/GPa) = 0.03931909
#
# Stress axis : x y z
#
# Youngs Moduli (GPa) = 26.19588 28.22184 67.29902
#
# Poissons Ratio (x) = 0.57267 0.73955
# Poissons Ratio (y) = 0.53156 -0.45137
# Poissons Ratio (z) = 0.28787 -0.18928
#
# Static dielectric constant tensor:
#      x y z
#    x 4.061660 0.060520 -0.330070 
#    y 0.060520 3.818760 -0.334680 
#    z -0.330070 -0.334680 4.290710 
# 
# 
# High freq. dielectric constant tensor:
#      x y z
#    x 1.858090 -0.010980 -0.018480 
#    y -0.010980 1.833210 -0.024010 
#    z -0.018480 -0.024010 1.873890 
# 
# From -- ./inp_files/200240.got.cif
#   From: 2010.06.25/outbox.cif.g09.slc.cpg/sg2_101_cif.got.tgz:200240.got - 2010.06.27 13:26:56.
