data_PCOD8003633
_publ_section_title
;
Structure prediction by ZEFSAII (Michael W. Deem and Ramdas Pophale) SiO2 
 PCOD8003633
Probable space group: P -1
;
_chemical_formula_sum "Si O2"
_cell_formula_units_Z 16
_cell_length_a 6.460590
_cell_length_b 19.658329
_cell_length_c 25.788190
_cell_angle_alpha 18.088775
_cell_angle_beta 52.234998
_cell_angle_gamma 45.650007
_cell_volume 706.905957
_symmetry_space_group_name_H-M "P -1"
_symmetry_group_IT_number 2
_symmetry_cell_setting 'triclinic'
loop_
_space_group_symop_operation_xyz
x,y,z
-x,-y,-z
loop_
_atom_site_type_symbol
_atom_site_label
_atom_site_fract_x
_atom_site_fract_y
_atom_site_fract_z
Si Si1 0.015834 0.501695 0.798817
Si Si2 0.459494 0.812639 0.603739
Si Si3 0.596685 0.037767 0.901717
Si Si4 0.182864 0.934027 0.454201
Si Si5 0.871299 0.919474 0.255021
Si Si6 0.788967 0.344226 0.035200
Si Si7 0.297549 0.934722 0.319444
Si Si8 0.752787 0.460729 0.450438
O O1 0.151423 0.685037 0.637725
O O2 0.756913 0.550148 0.759668
O O3 0.870644 0.537106 0.852793
O O4 0.289608 0.221985 0.957211
O O5 0.435631 0.891995 0.489136
O O6 0.500000 0.000000 0.500000
O O7 0.139728 0.827673 0.655316
O O8 0.297760 0.266919 0.756858
O O9 0.859831 0.117582 0.798499
O O10 0.500000 0.000000 0.000000
O O11 0.289000 0.978511 0.350589
O O12 0.610294 0.909975 0.268556
O O13 0.950878 0.702499 0.443589
O O14 0.746747 0.180764 0.115121
O O15 0.500000 0.500000 0.000000
O O16 0.044653 0.177754 0.156013
O O17 0.262327 0.693086 0.485993
O O18 0.500000 0.500000 0.500000
#
# Coordination Sequence:
#
# PCOD8003633 Si02
#       8
#     2   2   2   2   2   2   2   2
#     4  10  21  38  59  87 121 155 199 248 298 358
#     4   9  20  38  59  85 121 158 197 240 292 357
#     4  10  20  37  60  83 114 156 199 251 307 349
#     4  10  21  36  61  90 118 158 199 243 294 354
#     4   9  22  39  59  85 117 160 201 246 298 358
#     4  10  22  39  61  90 128 164 192 241 307 361
#     4  11  22  38  62  92 121 155 209 250 292 366
#     4   9  20  40  60  81 116 158 199 247 303 355
#
# _framework density 22.633845999999998
#
# number of rings (size 3 to 8) (size 9 to 14) (size 15 to 20)
#    0.000    2.250    0.000    2.250    0.000   12.500 
#    0.000    1.250    0.000   16.500    0.000    0.000 
#    0.000    0.000    0.000    0.000    0.000    0.000 
#
# Total GULP energy -198229.023712 kJ/mol
# GULP energy per Si atom -12389.313982 kJ/mol
# Density = 2.258233 g / cm^3
# Si number density = 22.633846 Si / 1000 Ang^3
#
#
#
# Elastic Constant Matrix: (Units=GPa)
#
#
# Indices 1 2 3 4 5 6 
#
# 1 103.4527 25.1748 42.4144 1.5490 25.6817 -1.1041
# 2 25.1748 88.5711 20.9979 12.9947 16.1929 5.5357
# 3 42.4144 20.9979 116.7408 1.1616 16.9245 -6.7042
# 4 1.5490 12.9947 1.1616 40.0228 0.7552 7.3446
# 5 25.6817 16.1929 16.9245 0.7552 23.5660 10.3351
# 6 -1.1041 5.5357 -6.7042 7.3446 10.3351 28.4047
#
#
#
# Elastic Compliance Matrix: (Units=1/GPa)
#
#
# Indices 1 2 3 4 5 6 
#
# 1 0.015240 -0.000859 -0.002505 -0.001143 -0.017117 0.006692
# 2 -0.000859 0.013852 -0.000843 -0.004518 -0.008399 0.001292
# 3 -0.002505 -0.000843 0.010939 -0.000800 -0.006870 0.005355
# 4 -0.001143 -0.004518 -0.000800 0.028131 0.008246 -0.009627
# 5 -0.017117 -0.008399 -0.006870 0.008246 0.086562 -0.034278
# 6 0.006692 0.001292 0.005355 -0.009627 -0.034278 0.051439
#
#
# Mechanical properties :
#
#
# Convention : Reuss Voigt Hill
#
# Bulk Modulus (GPa) = 31.62781 53.99320 42.81051
# Shear Modulus (GPa) = 22.21073 33.07720 27.64396
#
# Velocity S-wave (km/s) = 3.13598 3.82698 3.49858
# Velocity P-wave (km/s) = 5.20735 6.59049 5.93932
#
# Compressibility (1/GPa) = 0.03161774
#
# Stress axis : x y z
#
# Youngs Moduli (GPa) = 65.61554 72.19206 91.41377
#
# Poissons Ratio (x) = 0.06200 0.22902
# Poissons Ratio (y) = 0.05636 0.07703
# Poissons Ratio (z) = 0.16439 0.06083
#
# Static dielectric constant tensor:
#      x y z
#    x 4.151270 0.085490 0.380380 
#    y 0.085490 3.945140 0.625620 
#    z 0.380380 0.625620 3.035480 
# 
# 
# High freq. dielectric constant tensor:
#      x y z
#    x 1.866860 0.000250 0.019390 
#    y 0.000250 1.892350 -0.004000 
#    z 0.019390 -0.004000 1.901370 
# 
# From -- ./inp_files/615875.got.cif
#   From: 2010.06.25/outbox.cif.g09.slc.cpg/sg2_308_cif.got.tgz:615875.got - 2010.06.27 13:26:56.
