data_PCOD8003251
_publ_section_title
;
Structure prediction by ZEFSAII (Michael W. Deem and Ramdas Pophale) SiO2 
 PCOD8003251
Probable space group: P -1
;
_chemical_formula_sum "Si O2"
_cell_formula_units_Z 16
_cell_length_a 14.619778
_cell_length_b 12.363642
_cell_length_c 8.354067
_cell_angle_alpha 70.202366
_cell_angle_beta 32.915240
_cell_angle_gamma 72.231746
_cell_volume 771.406042
_symmetry_space_group_name_H-M "P -1"
_symmetry_group_IT_number 2
_symmetry_cell_setting 'triclinic'
loop_
_space_group_symop_operation_xyz
x,y,z
-x,-y,-z
loop_
_atom_site_type_symbol
_atom_site_label
_atom_site_fract_x
_atom_site_fract_y
_atom_site_fract_z
Si Si1 0.233606 0.293913 0.184215
Si Si2 0.224678 0.282982 0.563753
Si Si3 0.888975 0.279678 0.234172
Si Si4 0.406211 0.116582 0.620850
Si Si5 0.574113 0.285792 0.487978
Si Si6 0.695628 0.459375 0.626090
Si Si7 0.354022 0.519120 0.960182
Si Si8 0.926902 0.878273 0.711198
O O1 0.256312 0.245479 0.353774
O O2 0.084792 0.220967 0.360297
O O3 0.397232 0.289640 0.835332
O O4 0.201744 0.433236 0.183360
O O5 0.315897 0.178460 0.573677
O O6 0.300247 0.402664 0.446107
O O7 0.027055 0.300552 0.885530
O O8 0.720074 0.243087 0.414737
O O9 0.851064 0.394813 0.338996
O O10 0.951993 0.174156 0.304176
O O11 0.557676 0.191699 0.422247
O O12 0.500000 0.000000 0.500000
O O13 0.263988 0.092843 0.971759
O O14 0.618318 0.403548 0.274521
O O15 0.524103 0.438006 0.788339
O O16 0.690348 0.413249 0.841602
O O17 0.000000 0.000000 0.500000
#
# Coordination Sequence:
#
# PCOD8003251 Si02
#       8
#     2   2   2   2   2   2   2   2
#     4  10  22  40  65  88 122 168 207 252 304 371
#     4  10  22  41  60  94 131 161 204 258 310 368
#     4  11  24  38  63  93 126 166 203 256 315 367
#     4  10  23  42  65  88 119 166 213 257 306 367
#     4  11  22  38  64  95 124 163 210 252 308 371
#     4  10  20  37  62  94 131 164 201 248 314 368
#     4  10  20  36  64  95 127 162 206 255 300 369
#     4  10  25  46  62  86 126 164 209 262 312 360
#
# _framework density 20.741344999999999
#
# number of rings (size 3 to 8) (size 9 to 14) (size 15 to 20)
#    0.000    1.750    2.500    0.750    0.000    6.000 
#    0.000    7.500    0.000    0.000    0.000    0.000 
#    0.000    0.000    0.000    0.000    0.000    0.000 
#
# Total GULP energy -198246.832454 kJ/mol
# GULP energy per Si atom -12390.427028 kJ/mol
# Density = 2.069414 g / cm^3
# Si number density = 20.741345 Si / 1000 Ang^3
#
#
#
# Elastic Constant Matrix: (Units=GPa)
#
#
# Indices 1 2 3 4 5 6 
#
# 1 107.0716 46.7818 35.9770 -13.2395 0.0113 9.3481
# 2 46.7818 101.5254 42.4772 -8.5038 2.4804 3.2587
# 3 35.9770 42.4772 66.1675 -13.5148 11.9051 -3.4333
# 4 -13.2395 -8.5038 -13.5148 39.3201 1.4862 -6.3443
# 5 0.0113 2.4804 11.9051 1.4862 33.0884 -2.9713
# 6 9.3481 3.2587 -3.4333 -6.3443 -2.9713 24.9925
#
#
#
# Elastic Compliance Matrix: (Units=1/GPa)
#
#
# Indices 1 2 3 4 5 6 
#
# 1 0.013242 -0.003767 -0.005103 0.001070 0.001644 -0.004696
# 2 -0.003767 0.014920 -0.008176 -0.001201 0.001721 -0.001760
# 3 -0.005103 -0.008176 0.026527 0.007152 -0.008585 0.007414
# 4 0.001070 -0.001201 0.007152 0.029371 -0.003100 0.007826
# 5 0.001644 0.001721 -0.008585 -0.003100 0.033426 0.001168
# 6 -0.004696 -0.001760 0.007414 0.007826 0.001168 0.045142
#
#
# Mechanical properties :
#
#
# Convention : Reuss Voigt Hill
#
# Bulk Modulus (GPa) = 48.55002 58.35961 53.45481
# Shear Modulus (GPa) = 24.55983 29.44877 27.00430
#
# Velocity S-wave (km/s) = 3.44481 3.77212 3.61218
# Velocity P-wave (km/s) = 6.26741 6.86803 6.57458
#
# Compressibility (1/GPa) = 0.02059731
#
# Stress axis : x y z
#
# Youngs Moduli (GPa) = 75.51737 67.02347 37.69786
#
# Poissons Ratio (x) = 0.25245 0.19237
# Poissons Ratio (y) = 0.28444 0.30823
# Poissons Ratio (z) = 0.38535 0.54801
#
# Static dielectric constant tensor:
#      x y z
#    x 4.060570 0.325870 0.066460 
#    y 0.325870 3.621120 -0.102040 
#    z 0.066460 -0.102040 3.930780 
# 
# 
# High freq. dielectric constant tensor:
#      x y z
#    x 1.821720 0.012810 0.009190 
#    y 0.012810 1.792810 -0.005160 
#    z 0.009190 -0.005160 1.815150 
# 
# From -- ./inp_files/205854.got.cif
#   From: 2010.06.25/outbox.cif.g09.slc.cpg/sg2_103_cif.got.tgz:205854.got - 2010.06.27 13:26:56.
