data_PCOD8003037
_publ_section_title
;
Structure prediction by ZEFSAII (Michael W. Deem and Ramdas Pophale) SiO2 
 PCOD8003037
Probable space group: P -1
;
_chemical_formula_sum "Si O2"
_cell_formula_units_Z 16
_cell_length_a 9.332909
_cell_length_b 16.311819
_cell_length_c 9.057779
_cell_angle_alpha 89.297342
_cell_angle_beta 45.246745
_cell_angle_gamma 61.199059
_cell_volume 730.147640
_symmetry_space_group_name_H-M "P -1"
_symmetry_group_IT_number 2
_symmetry_cell_setting 'triclinic'
loop_
_space_group_symop_operation_xyz
x,y,z
-x,-y,-z
loop_
_atom_site_type_symbol
_atom_site_label
_atom_site_fract_x
_atom_site_fract_y
_atom_site_fract_z
Si Si1 0.107859 0.669532 0.051357
Si Si2 0.158629 0.775051 0.767920
Si Si3 0.957630 0.850781 0.359757
Si Si4 0.573617 0.003421 0.111635
Si Si5 0.076983 0.510923 0.209752
Si Si6 0.721312 0.487970 0.630029
Si Si7 0.786554 0.105944 0.055450
Si Si8 0.350427 0.680026 0.324421
O O1 0.926900 0.779723 0.277916
O O2 0.001305 0.604381 0.146650
O O3 0.114302 0.696959 0.875305
O O4 0.414389 0.593688 0.891495
O O5 0.320787 0.790076 0.766029
O O6 0.341590 0.724240 0.490713
O O7 0.859830 0.888877 0.949506
O O8 0.134869 0.783217 0.376000
O O9 0.082994 0.893081 0.185079
O O10 0.665167 0.965573 0.613163
O O11 0.563539 0.104329 0.151146
O O12 0.500000 0.000000 0.000000
O O13 0.107188 0.544403 0.346636
O O14 0.838099 0.508476 0.404455
O O15 0.349733 0.392239 0.959327
O O16 0.741593 0.387681 0.577332
O O17 0.000000 0.000000 0.000000
#
# Coordination Sequence:
#
# PCOD8003037 Si02
#       8
#     2   2   2   2   2   2   2   2
#     4  10  20  39  60  88 126 167 201 257 319 366
#     4  10  23  42  62  92 134 164 203 265 319 362
#     4  11  21  38  69  90 122 170 212 250 313 372
#     4  11  23  43  67  95 124 163 216 260 302 372
#     4  10  20  36  63  93 125 163 212 255 311 372
#     4  10  20  36  61  93 124 161 213 260 301 377
#     4   9  23  43  61  89 126 162 204 261 315 364
#     4  11  20  40  60  94 125 165 206 260 307 369
#
# _framework density 21.913378000000002
#
# number of rings (size 3 to 8) (size 9 to 14) (size 15 to 20)
#    0.000    1.750    3.750    0.750    0.000   10.000 
#    0.000    6.250    0.000    0.000    0.000    0.000 
#    0.000    0.000    0.000    0.000    0.000    0.000 
#
# Total GULP energy -198329.315199 kJ/mol
# GULP energy per Si atom -12395.582200 kJ/mol
# Density = 2.186350 g / cm^3
# Si number density = 21.913378 Si / 1000 Ang^3
#
#
#
# Elastic Constant Matrix: (Units=GPa)
#
#
# Indices 1 2 3 4 5 6 
#
# 1 72.9267 20.4384 21.9648 -7.5213 19.2425 10.3176
# 2 20.4384 101.4486 21.0062 -24.0327 3.7074 3.3923
# 3 21.9648 21.0062 105.8193 -12.2759 16.8402 12.5092
# 4 -7.5213 -24.0327 -12.2759 35.7091 -1.6023 -3.1779
# 5 19.2425 3.7074 16.8402 -1.6023 29.1657 -3.9858
# 6 10.3176 3.3923 12.5092 -3.1779 -3.9858 23.4155
#
#
#
# Elastic Compliance Matrix: (Units=1/GPa)
#
#
# Indices 1 2 3 4 5 6 
#
# 1 0.019845 -0.002994 0.000062 0.000600 -0.014174 -0.010675
# 2 -0.002994 0.012404 -0.001470 0.007442 0.001880 0.001638
# 3 0.000062 -0.001470 0.012067 0.002179 -0.007696 -0.007275
# 4 0.000600 0.007442 0.002179 0.034049 -0.000451 0.002038
# 5 -0.014174 0.001880 -0.007696 -0.000451 0.050360 0.018596
# 6 -0.010675 0.001638 -0.007275 0.002038 0.018596 0.054502
#
#
# Mechanical properties :
#
#
# Convention : Reuss Voigt Hill
#
# Bulk Modulus (GPa) = 28.15926 45.22370 36.69148
# Shear Modulus (GPa) = 24.52569 32.11041 28.31805
#
# Velocity S-wave (km/s) = 3.34909 3.83212 3.59872
# Velocity P-wave (km/s) = 5.27573 6.34527 5.83506
#
# Compressibility (1/GPa) = 0.03551230
#
# Stress axis : x y z
#
# Youngs Moduli (GPa) = 50.39071 80.61648 82.87388
#
# Poissons Ratio (x) = 0.24135 -0.00517
# Poissons Ratio (y) = 0.15086 0.12186
# Poissons Ratio (z) = -0.00315 0.11854
#
# Static dielectric constant tensor:
#      x y z
#    x 3.938600 0.081420 0.031350 
#    y 0.081420 4.216130 -0.127090 
#    z 0.031350 -0.127090 3.999860 
# 
# 
# High freq. dielectric constant tensor:
#      x y z
#    x 1.837600 -0.003260 0.008420 
#    y -0.003260 1.867150 -0.008060 
#    z 0.008420 -0.008060 1.868020 
# 
# From -- ./inp_files/207507.got.cif
#   From: 2010.06.25/outbox.cif.g09.slc.cpg/sg2_104_cif.got.tgz:207507.got - 2010.06.27 13:26:56.
