data_PCOD8003746
_publ_section_title
;
Structure prediction by ZEFSAII (Michael W. Deem and Ramdas Pophale) SiO2 
 PCOD8003746
Probable space group: P -1
;
_chemical_formula_sum "Si O2"
_cell_formula_units_Z 16
_cell_length_a 10.613373
_cell_length_b 19.828824
_cell_length_c 16.084972
_cell_angle_alpha 160.919626
_cell_angle_beta 139.170943
_cell_angle_gamma 42.548962
_cell_volume 719.772167
_symmetry_space_group_name_H-M "P -1"
_symmetry_group_IT_number 2
_symmetry_cell_setting 'triclinic'
loop_
_space_group_symop_operation_xyz
x,y,z
-x,-y,-z
loop_
_atom_site_type_symbol
_atom_site_label
_atom_site_fract_x
_atom_site_fract_y
_atom_site_fract_z
Si Si1 0.050032 0.348872 0.557344
Si Si2 0.784663 0.173429 0.658793
Si Si3 0.236303 0.165909 0.280993
Si Si4 0.683013 0.325457 0.950862
Si Si5 0.174611 0.250381 0.032446
Si Si6 0.041230 0.050664 0.880558
Si Si7 0.538561 0.486843 0.801361
Si Si8 0.417675 0.174287 0.914248
O O1 0.064792 0.230555 0.337391
O O2 0.250512 0.453054 0.789534
O O3 0.024454 0.180638 0.420429
O O4 0.867557 0.525297 0.681869
O O5 0.639478 0.207532 0.706519
O O6 0.724629 0.328963 0.733565
O O7 0.999639 0.206016 0.831783
O O8 0.760698 0.941500 0.346115
O O9 0.352496 0.362654 0.548799
O O10 0.381527 0.972995 0.162937
O O11 0.137113 0.100597 0.072543
O O12 0.855876 0.211825 0.959034
O O13 0.498885 0.358422 0.957727
O O14 0.193014 0.073303 0.907007
O O15 0.369977 0.235702 0.058348
O O16 0.573976 0.613220 0.883683
#
# Coordination Sequence:
#
# PCOD8003746 Si02
#       8
#     2   2   2   2   2   2   2   2
#     4   9  19  36  59  84 110 145 186 229 279 329
#     4   9  20  37  57  81 111 145 191 234 273 334
#     4  10  22  38  58  87 114 143 191 233 274 335
#     4   9  20  35  56  90 115 139 188 235 277 334
#     4  10  24  39  56  86 114 145 193 231 272 339
#     4  10  20  37  61  82 113 151 183 233 282 323
#     4  10  21  36  57  83 118 150 179 234 285 322
#     4  11  23  38  57  83 115 153 188 224 279 337
#
# _framework density 22.229255999999999
#
# number of rings (size 3 to 8) (size 9 to 14) (size 15 to 20)
#    0.000    2.500    0.000    1.875    0.000   15.000 
#    0.000    1.250    0.000    0.000    0.000    0.000 
#    0.000    0.000    0.000    0.000    0.000    0.000 
#
# Total GULP energy -198303.319099 kJ/mol
# GULP energy per Si atom -12393.957444 kJ/mol
# Density = 2.217866 g / cm^3
# Si number density = 22.229256 Si / 1000 Ang^3
#
#
#
# Elastic Constant Matrix: (Units=GPa)
#
#
# Indices 1 2 3 4 5 6 
#
# 1 112.5104 20.9452 43.9564 16.1712 -10.2521 35.4752
# 2 20.9452 93.5253 43.7808 8.3719 13.5310 21.0122
# 3 43.9564 43.7808 80.0730 18.1688 1.6717 16.0350
# 4 16.1712 8.3719 18.1688 28.6913 15.0127 7.3847
# 5 -10.2521 13.5310 1.6717 15.0127 27.2519 7.8329
# 6 35.4752 21.0122 16.0350 7.3847 7.8329 33.2052
#
#
#
# Elastic Compliance Matrix: (Units=1/GPa)
#
#
# Indices 1 2 3 4 5 6 
#
# 1 0.023409 0.000439 -0.004641 -0.017316 0.025670 -0.025250
# 2 0.000439 0.017582 -0.010344 0.008364 -0.010841 -0.005903
# 3 -0.004641 -0.010344 0.023603 -0.014674 0.009716 0.001077
# 4 -0.017316 0.008364 -0.014674 0.076992 -0.056954 0.016605
# 5 0.025670 -0.010841 0.009716 -0.056954 0.092397 -0.034386
# 6 -0.025250 -0.005903 0.001077 0.016605 -0.034386 0.064726
#
#
# Mechanical properties :
#
#
# Convention : Reuss Voigt Hill
#
# Bulk Modulus (GPa) = 28.16699 55.94151 42.05425
# Shear Modulus (GPa) = 14.72176 29.65809 22.18993
#
# Velocity S-wave (km/s) = 2.57625 3.65662 3.16291
# Velocity P-wave (km/s) = 4.64199 6.56111 5.68314
#
# Compressibility (1/GPa) = 0.03550255
#
# Stress axis : x y z
#
# Youngs Moduli (GPa) = 42.71879 56.87666 42.36801
#
# Poissons Ratio (x) = -0.02498 0.19663
# Poissons Ratio (y) = -0.01876 0.43824
# Poissons Ratio (z) = 0.19826 0.58831
#
# Static dielectric constant tensor:
#      x y z
#    x 4.130990 0.222820 -0.172520 
#    y 0.222820 3.787330 0.147030 
#    z -0.172520 0.147030 4.107840 
# 
# 
# High freq. dielectric constant tensor:
#      x y z
#    x 1.864950 0.016860 -0.008710 
#    y 0.016860 1.861150 0.008070 
#    z -0.008710 0.008070 1.873920 
# 
# From -- ./inp_files/523523.got.cif
#   From: 2010.06.25/outbox.cif.g09.slc.cpg/sg2_262_cif.got.tgz:523523.got - 2010.06.27 13:26:56.
