data_PCOD8003535
_publ_section_title
;
Structure prediction by ZEFSAII (Michael W. Deem and Ramdas Pophale) SiO2 
 PCOD8003535
Probable space group: P -1
;
_chemical_formula_sum "Si O2"
_cell_formula_units_Z 16
_cell_length_a 6.673396
_cell_length_b 17.417266
_cell_length_c 10.794917
_cell_angle_alpha 115.959084
_cell_angle_beta 86.972046
_cell_angle_gamma 128.022049
_cell_volume 846.051688
_symmetry_space_group_name_H-M "P -1"
_symmetry_group_IT_number 2
_symmetry_cell_setting 'triclinic'
loop_
_space_group_symop_operation_xyz
x,y,z
-x,-y,-z
loop_
_atom_site_type_symbol
_atom_site_label
_atom_site_fract_x
_atom_site_fract_y
_atom_site_fract_z
Si Si1 0.466563 0.724025 0.419155
Si Si2 0.239015 0.168011 0.022845
Si Si3 0.936285 0.090195 0.475739
Si Si4 0.755512 0.669543 0.693796
Si Si5 0.749334 0.180014 0.385775
Si Si6 0.241964 0.521251 0.438639
Si Si7 0.743479 0.851896 0.272210
Si Si8 0.630939 0.951310 0.911039
O O1 0.252078 0.726122 0.491674
O O2 0.347115 0.597435 0.364301
O O3 0.485669 0.748056 0.287899
O O4 0.766668 0.821796 0.535254
O O5 0.273626 0.271606 0.152157
O O6 0.424194 0.147774 0.069770
O O7 0.308092 0.198689 0.897824
O O8 0.941763 0.051194 0.959108
O O9 0.751785 0.116490 0.457367
O O10 0.985777 0.105703 0.635057
O O11 0.771128 0.961707 0.345595
O O12 0.475899 0.586955 0.576907
O O13 0.832633 0.595658 0.685096
O O14 0.991396 0.767448 0.666698
O O15 0.482819 0.095735 0.254807
O O16 0.000000 0.500000 0.500000
O O17 0.500000 0.000000 0.000000
#
# Coordination Sequence:
#
# PCOD8003535 Si02
#       8
#     2   2   2   2   2   2   2   2
#     4  10  20  37  59  82 116 156 196 252 291 339
#     4  11  23  40  55  88 132 157 198 243 296 369
#     4   9  20  37  58  87 120 158 199 240 290 353
#     4  11  23  36  61  90 116 154 194 261 306 343
#     4  12  20  35  61  92 117 153 200 245 303 353
#     4  11  22  40  63  88 114 150 211 259 300 347
#     4   9  20  40  57  83 124 166 191 238 294 362
#     4  11  23  35  60  89 126 165 193 238 304 363
#
# _framework density 18.911373999999999
#
# number of rings (size 3 to 8) (size 9 to 14) (size 15 to 20)
#    0.750    0.750    3.750    2.250    1.750    0.500 
#    2.250    0.625    0.000    0.750    0.000    0.000 
#    0.000    0.000    0.000    0.000    0.000    0.000 
#
# Total GULP energy -198257.799856 kJ/mol
# GULP energy per Si atom -12391.112491 kJ/mol
# Density = 1.886833 g / cm^3
# Si number density = 18.911374 Si / 1000 Ang^3
#
#
#
# Elastic Constant Matrix: (Units=GPa)
#
#
# Indices 1 2 3 4 5 6 
#
# 1 90.5884 27.0896 38.2711 1.1511 -6.5929 -25.3010
# 2 27.0896 98.4276 35.5534 4.1638 -12.4496 -22.5979
# 3 38.2711 35.5534 106.3534 -7.6749 -13.7993 -22.3382
# 4 1.1511 4.1638 -7.6749 25.4389 -0.8592 -2.0764
# 5 -6.5929 -12.4496 -13.7993 -0.8592 29.0205 2.9541
# 6 -25.3010 -22.5979 -22.3382 -2.0764 2.9541 35.9479
#
#
#
# Elastic Compliance Matrix: (Units=1/GPa)
#
#
# Indices 1 2 3 4 5 6 
#
# 1 0.014990 -0.001016 -0.003439 -0.000905 0.000526 0.007680
# 2 -0.001016 0.013196 -0.002585 -0.002321 0.003568 0.005547
# 3 -0.003439 -0.002585 0.013282 0.005066 0.004152 0.004160
# 4 -0.000905 -0.002321 0.005066 0.041598 0.002105 0.003282
# 5 0.000526 0.003568 0.004152 0.002105 0.037921 0.002198
# 6 0.007680 0.005547 0.004160 0.003282 0.002198 0.039304
#
#
# Mechanical properties :
#
#
# Convention : Reuss Voigt Hill
#
# Bulk Modulus (GPa) = 36.51100 55.24419 45.87760
# Shear Modulus (GPa) = 27.24790 31.04515 29.14652
#
# Velocity S-wave (km/s) = 3.79993 4.05608 3.93009
# Velocity P-wave (km/s) = 6.21296 7.15620 6.70120
#
# Compressibility (1/GPa) = 0.02738901
#
# Stress axis : x y z
#
# Youngs Moduli (GPa) = 66.71088 75.78007 75.28827
#
# Poissons Ratio (x) = 0.07696 0.25889
# Poissons Ratio (y) = 0.06775 0.19466
# Poissons Ratio (z) = 0.22940 0.19593
#
# Static dielectric constant tensor:
#      x y z
#    x 3.487980 -0.361950 0.110180 
#    y -0.361950 3.496960 0.068770 
#    z 0.110180 0.068770 3.247460 
# 
# 
# High freq. dielectric constant tensor:
#      x y z
#    x 1.741040 -0.014500 -0.004500 
#    y -0.014500 1.732850 0.000080 
#    z -0.004500 0.000080 1.705700 
# 
# From -- ./inp_files/369082.got.cif
#   From: 2010.06.25/outbox.cif.g09.slc.cpg/sg2_185_cif.got.tgz:369082.got - 2010.06.27 13:26:56.
