data_PCOD8003810
_publ_section_title
;
Structure prediction by ZEFSAII (Michael W. Deem and Ramdas Pophale) SiO2 
 PCOD8003810
Probable space group: P -1
;
_chemical_formula_sum "Si O2"
_cell_formula_units_Z 14
_cell_length_a 19.958677
_cell_length_b 14.331868
_cell_length_c 11.597414
_cell_angle_alpha 151.282440
_cell_angle_beta 28.747376
_cell_angle_gamma 148.791521
_cell_volume 711.051520
_symmetry_space_group_name_H-M "P -1"
_symmetry_group_IT_number 2
_symmetry_cell_setting 'triclinic'
loop_
_space_group_symop_operation_xyz
x,y,z
-x,-y,-z
loop_
_atom_site_type_symbol
_atom_site_label
_atom_site_fract_x
_atom_site_fract_y
_atom_site_fract_z
Si Si1 0.633725 0.088839 0.733352
Si Si2 0.366348 0.378744 0.155397
Si Si3 0.420691 0.296377 0.227620
Si Si4 0.361866 0.672480 0.662327
Si Si5 0.933363 0.902290 0.810937
Si Si6 0.950606 0.254904 0.321426
Si Si7 0.215262 0.924954 0.274430
O O1 0.777060 0.147326 0.499606
O O2 0.671148 0.037096 0.748786
O O3 0.502656 0.887007 0.660739
O O4 0.572007 0.278521 0.031552
O O5 0.420034 0.264118 0.053968
O O6 0.310946 0.552432 0.486774
O O7 0.234191 0.203571 0.097107
O O8 0.500000 0.500000 0.000000
O O9 0.414219 0.525017 0.510211
O O10 0.272280 0.124626 0.321409
O O11 0.221453 0.720712 0.977629
O O12 0.943538 0.778602 0.776288
O O13 0.047123 0.886720 0.524580
O O14 0.971451 0.145427 0.052135
O O15 0.000000 0.500000 0.500000
#
# Coordination Sequence:
#
# PCOD8003810 Si02
#       7
#     2   2   2   2   2   2   2
#     4  10  20  37  61  89 121 151 202 253 289 346
#     4  10  22  40  61  86 120 163 195 244 303 342
#     4   9  21  36  60  87 120 155 197 243 290 356
#     4   9  20  37  58  91 120 156 198 238 297 354
#     4  10  23  42  60  85 128 151 194 261 282 354
#     4  10  23  40  62  90 113 159 204 239 305 352
#     4  10  21  38  59  90 121 160 200 241 299 341
#
# _framework density 19.689152
#
# number of rings (size 3 to 8) (size 9 to 14) (size 15 to 20)
#    0.857    1.429    0.000    2.571    2.000    8.000 
#    5.143    3.571    0.000    0.000    0.000    0.000 
#    0.000    0.000    0.000    0.000    0.000    0.000 
#
# Total GULP energy -173515.036245 kJ/mol
# GULP energy per Si atom -12393.931160 kJ/mol
# Density = 1.964434 g / cm^3
# Si number density = 19.689152 Si / 1000 Ang^3
#
#
#
# Elastic Constant Matrix: (Units=GPa)
#
#
# Indices 1 2 3 4 5 6 
#
# 1 68.0364 50.6851 27.3466 -9.6409 5.3352 -4.4713
# 2 50.6851 90.5297 50.3058 5.5163 -2.2102 -11.5495
# 3 27.3466 50.3058 129.6187 10.0211 6.7898 -9.0206
# 4 -9.6409 5.5163 10.0211 37.1978 -1.0055 1.1646
# 5 5.3352 -2.2102 6.7898 -1.0055 30.8061 1.0657
# 6 -4.4713 -11.5495 -9.0206 1.1646 1.0657 29.4080
#
#
#
# Elastic Compliance Matrix: (Units=1/GPa)
#
#
# Indices 1 2 3 4 5 6 
#
# 1 0.029618 -0.017655 -0.000059 0.010232 -0.005958 -0.002638
# 2 -0.017655 0.025227 -0.005439 -0.006875 0.005647 0.005622
# 3 -0.000059 -0.005439 0.010224 -0.002074 -0.002742 0.001172
# 4 0.010232 -0.006875 -0.002074 0.031189 -0.000687 -0.002991
# 5 -0.005958 0.005647 -0.002742 -0.000687 0.034506 -0.000752
# 6 -0.002638 0.005622 0.001172 -0.002991 -0.000752 0.036317
#
#
# Mechanical properties :
#
#
# Convention : Reuss Voigt Hill
#
# Bulk Modulus (GPa) = 53.29764 60.54000 56.91882
# Shear Modulus (GPa) = 22.76450 30.13887 26.45169
#
# Velocity S-wave (km/s) = 3.40398 3.91671 3.66931
# Velocity P-wave (km/s) = 6.52516 7.16022 6.85005
#
# Compressibility (1/GPa) = 0.01876256
#
# Stress axis : x y z
#
# Youngs Moduli (GPa) = 33.76345 39.64015 97.80985
#
# Poissons Ratio (x) = 0.69984 0.00580
# Poissons Ratio (y) = 0.59608 0.53199
# Poissons Ratio (z) = 0.00200 0.21560
#
# Static dielectric constant tensor:
#      x y z
#    x 3.427970 -0.177610 0.059880 
#    y -0.177610 3.497590 -0.139670 
#    z 0.059880 -0.139670 4.010600 
# 
# 
# High freq. dielectric constant tensor:
#      x y z
#    x 1.751650 -0.009730 0.003450 
#    y -0.009730 1.760420 -0.000060 
#    z 0.003450 -0.000060 1.776040 
# 
# From -- ./inp_files/471610.got.cif
#   From: 2010.06.25/outbox.cif.g09.slc.cpg/sg2_236_cif.got.tgz:471610.got - 2010.06.27 13:26:56.
