data_PCOD8003837
_publ_section_title
;
Structure prediction by ZEFSAII (Michael W. Deem and Ramdas Pophale) SiO2 
 PCOD8003837
Probable space group: P -1
;
_chemical_formula_sum "Si O2"
_cell_formula_units_Z 16
_cell_length_a 5.172654
_cell_length_b 18.884357
_cell_length_c 9.077039
_cell_angle_alpha 101.864128
_cell_angle_beta 59.785481
_cell_angle_gamma 109.625424
_cell_volume 720.970637
_symmetry_space_group_name_H-M "P -1"
_symmetry_group_IT_number 2
_symmetry_cell_setting 'triclinic'
loop_
_space_group_symop_operation_xyz
x,y,z
-x,-y,-z
loop_
_atom_site_type_symbol
_atom_site_label
_atom_site_fract_x
_atom_site_fract_y
_atom_site_fract_z
Si Si1 0.070591 0.454421 0.600094
Si Si2 0.453230 0.882352 0.257161
Si Si3 0.993359 0.174162 0.376425
Si Si4 0.894588 0.153626 0.955491
Si Si5 0.459628 0.601491 0.700412
Si Si6 0.208161 0.959161 0.832747
Si Si7 0.710692 0.449970 0.971970
Si Si8 0.698142 0.253373 0.260534
O O1 0.294573 0.515269 0.668868
O O2 0.203766 0.387120 0.469674
O O3 0.000000 0.500000 0.500000
O O4 0.795669 0.414215 0.777843
O O5 0.275210 0.844627 0.434586
O O6 0.213107 0.858426 0.183946
O O7 0.752276 0.851332 0.132950
O O8 0.528002 0.973507 0.289507
O O9 0.985648 0.097748 0.258142
O O10 0.907453 0.237023 0.326225
O O11 0.335472 0.206472 0.359425
O O12 0.670310 0.091076 0.102611
O O13 0.853392 0.233386 0.056582
O O14 0.281655 0.658497 0.708450
O O15 0.478240 0.611044 0.878696
O O16 0.000000 0.000000 0.000000
O O17 0.500000 0.500000 0.000000
O O18 0.000000 0.500000 0.000000
#
# Coordination Sequence:
#
# PCOD8003837 Si02
#       8
#     2   2   2   2   2   2   2   2
#     4  10  20  39  67  94 123 152 207 262 303 355
#     4  11  21  39  62  91 121 155 209 266 306 345
#     4  11  24  40  61  90 127 158 206 259 301 367
#     4  10  21  39  61  87 123 161 205 251 304 377
#     4  10  23  40  64  90 125 166 201 252 312 370
#     4   9  19  37  63  89 116 163 207 252 309 359
#     4  10  20  37  61  92 121 151 196 249 301 358
#     4  11  24  43  61  84 125 172 200 238 314 377
#
# _framework density 22.192307
#
# number of rings (size 3 to 8) (size 9 to 14) (size 15 to 20)
#    0.000    1.750    1.250    3.750    1.750    3.000 
#    4.500    6.250    0.000    0.000    0.000    0.000 
#    0.000    0.000    0.000    0.000    0.000    0.000 
#
# Total GULP energy -198211.674478 kJ/mol
# GULP energy per Si atom -12388.229655 kJ/mol
# Density = 2.214180 g / cm^3
# Si number density = 22.192307 Si / 1000 Ang^3
#
#
#
# Elastic Constant Matrix: (Units=GPa)
#
#
# Indices 1 2 3 4 5 6 
#
# 1 73.0095 -4.0562 12.2636 5.5607 -0.4947 -17.7864
# 2 -4.0562 64.2303 23.3472 16.3770 -9.1155 -16.6499
# 3 12.2636 23.3472 128.8647 -2.4352 -12.9383 -6.2555
# 4 5.5607 16.3770 -2.4352 23.6365 -8.2099 -4.3148
# 5 -0.4947 -9.1155 -12.9383 -8.2099 31.6098 4.9102
# 6 -17.7864 -16.6499 -6.2555 -4.3148 4.9102 25.5196
#
#
#
# Elastic Compliance Matrix: (Units=1/GPa)
#
#
# Indices 1 2 3 4 5 6 
#
# 1 0.019743 0.008834 -0.003139 -0.009057 -0.003563 0.017909
# 2 0.008834 0.027914 -0.005492 -0.019039 -0.002145 0.020216
# 3 -0.003139 -0.005492 0.009464 0.006468 0.004419 -0.003208
# 4 -0.009057 -0.019039 0.006468 0.061591 0.014491 -0.009523
# 5 -0.003563 -0.002145 0.004419 0.014491 0.037716 -0.007606
# 6 0.017909 0.020216 -0.003208 -0.009523 -0.007606 0.063924
#
#
# Mechanical properties :
#
#
# Convention : Reuss Voigt Hill
#
# Bulk Modulus (GPa) = 17.38303 36.57932 26.98117
# Shear Modulus (GPa) = 20.90985 31.78984 26.34985
#
# Velocity S-wave (km/s) = 3.07288 3.78891 3.44952
# Velocity P-wave (km/s) = 4.52106 5.97158 5.29621
#
# Compressibility (1/GPa) = 0.05752737
#
# Stress axis : x y z
#
# Youngs Moduli (GPa) = 50.64962 35.82483 105.66369
#
# Poissons Ratio (x) = -0.31647 0.33167
# Poissons Ratio (y) = -0.44743 0.58028
# Poissons Ratio (z) = 0.15899 0.19674
#
# Static dielectric constant tensor:
#      x y z
#    x 3.955280 -0.126020 -0.128840 
#    y -0.126020 4.138410 0.003040 
#    z -0.128840 0.003040 4.818890 
# 
# 
# High freq. dielectric constant tensor:
#      x y z
#    x 1.868660 -0.018570 0.001980 
#    y -0.018570 1.850130 0.007810 
#    z 0.001980 0.007810 1.891160 
# 
# From -- ./inp_files/122411.got.cif
#   From: 2010.06.25/outbox.cif.g09.slc.cpg/sg2_62_cif.got.tgz:122411.got - 2010.06.27 13:26:56.
