data_PCOD8003286
_publ_section_title
;
Structure prediction by ZEFSAII (Michael W. Deem and Ramdas Pophale) SiO2 
 PCOD8003286
Probable space group: P -1
;
_chemical_formula_sum "Si O2"
_cell_formula_units_Z 14
_cell_length_a 9.506031
_cell_length_b 16.549926
_cell_length_c 15.599360
_cell_angle_alpha 34.780026
_cell_angle_beta 34.859076
_cell_angle_gamma 29.611138
_cell_volume 640.452833
_symmetry_space_group_name_H-M "P -1"
_symmetry_group_IT_number 2
_symmetry_cell_setting 'triclinic'
loop_
_space_group_symop_operation_xyz
x,y,z
-x,-y,-z
loop_
_atom_site_type_symbol
_atom_site_label
_atom_site_fract_x
_atom_site_fract_y
_atom_site_fract_z
Si Si1 0.448096 0.591217 0.539368
Si Si2 0.044924 0.111445 0.569117
Si Si3 0.351605 0.385889 0.905629
Si Si4 0.531016 0.827669 0.114131
Si Si5 0.963897 0.614557 0.229590
Si Si6 0.187775 0.826152 0.998423
Si Si7 0.465205 0.222480 0.303516
O O1 0.500000 0.500000 0.500000
O O2 0.431992 0.486578 0.714833
O O3 0.726501 0.601942 0.414772
O O4 0.122313 0.792730 0.521324
O O5 0.189979 0.204863 0.452968
O O6 0.774829 0.152868 0.729358
O O7 0.310246 0.897791 0.623676
O O8 0.428079 0.209790 0.974872
O O9 0.535232 0.337154 0.943953
O O10 0.000000 0.500000 0.000000
O O11 0.828717 0.664049 0.157578
O O12 0.500000 0.000000 0.000000
O O13 0.970900 0.770732 0.127297
O O14 0.308575 0.429176 0.217446
O O15 0.330760 0.852163 0.820297
O O16 0.000000 0.000000 0.000000
#
# Coordination Sequence:
#
# PCOD8003286 Si02
#       7
#     2   2   2   2   2   2   2
#     4  11  20  42  70  92 125 175 225 258 313 396
#     4  10  20  36  65  94 118 165 223 265 303 367
#     4  12  24  41  65  97 133 166 206 274 332 369
#     4  11  21  40  65  90 123 174 226 252 309 398
#     4  11  22  41  69  93 120 175 227 258 309 395
#     4  12  27  41  60  97 143 163 201 276 346 371
#     4  11  21  39  65  94 127 167 222 264 312 388
#
# _framework density 21.859532999999999
#
# number of rings (size 3 to 8) (size 9 to 14) (size 15 to 20)
#    0.000    0.857    4.286    4.714    0.000    1.714 
#    0.000    1.429    0.000    7.714    0.000    0.000 
#    0.000    0.000    0.000    0.000    0.000    0.000 
#
# Total GULP energy -173498.923215 kJ/mol
# GULP energy per Si atom -12392.780230 kJ/mol
# Density = 2.180978 g / cm^3
# Si number density = 21.859533 Si / 1000 Ang^3
#
#
#
# Elastic Constant Matrix: (Units=GPa)
#
#
# Indices 1 2 3 4 5 6 
#
# 1 87.6544 32.3921 39.3685 0.3295 -14.6584 -13.6745
# 2 32.3921 112.2471 33.5152 -13.5135 -11.2801 -15.7197
# 3 39.3685 33.5152 119.8145 -3.9401 -17.9957 5.0594
# 4 0.3295 -13.5135 -3.9401 25.1410 -10.8346 2.7303
# 5 -14.6584 -11.2801 -17.9957 -10.8346 38.7410 -12.0999
# 6 -13.6745 -15.7197 5.0594 2.7303 -12.0999 42.7355
#
#
#
# Elastic Compliance Matrix: (Units=1/GPa)
#
#
# Indices 1 2 3 4 5 6 
#
# 1 0.015902 -0.001929 -0.004143 -0.000234 0.005475 0.006434
# 2 -0.001929 0.012389 -0.001876 0.008407 0.006022 0.005330
# 3 -0.004143 -0.001876 0.010821 0.002192 0.002691 -0.002675
# 4 -0.000234 0.008407 0.002192 0.052561 0.019625 0.004957
# 5 0.005475 0.006022 0.002691 0.019625 0.040725 0.013926
# 6 0.006434 0.005330 -0.002675 0.004957 0.013926 0.031362
#
#
# Mechanical properties :
#
#
# Convention : Reuss Voigt Hill
#
# Bulk Modulus (GPa) = 43.06989 58.91863 50.99426
# Shear Modulus (GPa) = 26.68161 35.61953 31.15057
#
# Velocity S-wave (km/s) = 3.49749 4.04105 3.77906
# Velocity P-wave (km/s) = 6.00464 6.98465 6.51310
#
# Compressibility (1/GPa) = 0.02321807
#
# Stress axis : x y z
#
# Youngs Moduli (GPa) = 62.88468 80.71367 92.41047
#
# Poissons Ratio (x) = 0.15569 0.38282
# Poissons Ratio (y) = 0.12130 0.17336
# Poissons Ratio (z) = 0.26050 0.15142
#
# Static dielectric constant tensor:
#      x y z
#    x 2.296760 -0.880220 -0.946230 
#    y -0.880220 4.519380 -0.900640 
#    z -0.946230 -0.900640 3.825530 
# 
# 
# High freq. dielectric constant tensor:
#      x y z
#    x 1.844510 -0.037730 -0.013860 
#    y -0.037730 1.860890 -0.015700 
#    z -0.013860 -0.015700 1.870200 
# 
# From -- ./inp_files/505202.got.cif
#   From: 2010.06.25/outbox.cif.g09.slc.cpg/sg2_253_cif.got.tgz:505202.got - 2010.06.27 13:26:56.
