data_PCOD8003496
_publ_section_title
;
Structure prediction by ZEFSAII (Michael W. Deem and Ramdas Pophale) SiO2 
 PCOD8003496
Probable space group: P -1
;
_chemical_formula_sum "Si O2"
_cell_formula_units_Z 14
_cell_length_a 5.203429
_cell_length_b 25.667091
_cell_length_c 14.714624
_cell_angle_alpha 24.072960
_cell_angle_beta 95.201410
_cell_angle_gamma 107.779196
_cell_volume 667.817225
_symmetry_space_group_name_H-M "P -1"
_symmetry_group_IT_number 2
_symmetry_cell_setting 'triclinic'
loop_
_space_group_symop_operation_xyz
x,y,z
-x,-y,-z
loop_
_atom_site_type_symbol
_atom_site_label
_atom_site_fract_x
_atom_site_fract_y
_atom_site_fract_z
Si Si1 0.103576 0.897255 0.359471
Si Si2 0.509471 0.326820 0.010291
Si Si3 0.135061 0.896833 0.165211
Si Si4 0.119877 0.237773 0.974635
Si Si5 0.841733 0.532613 0.262825
Si Si6 0.308966 0.233039 0.795036
Si Si7 0.377063 0.109080 0.518934
O O1 0.047983 0.811977 0.396051
O O2 0.290729 0.849440 0.503686
O O3 0.784401 0.849683 0.473523
O O4 0.302769 0.079477 0.056610
O O5 0.420989 0.203817 0.280429
O O6 0.364398 0.237871 0.051662
O O7 0.370617 0.429161 0.865598
O O8 0.877265 0.440007 0.832811
O O9 0.961459 0.786184 0.250113
O O10 0.500000 0.000000 0.000000
O O11 0.000000 0.000000 0.000000
O O12 0.032540 0.354395 0.824949
O O13 0.269262 0.297560 0.785346
O O14 0.821119 0.068176 0.229988
O O15 0.641782 0.356458 0.567224
#
# Coordination Sequence:
#
# PCOD8003496 Si02
#       7
#     2   2   2   2   2   2   2
#     4  10  22  36  61  87 107 144 188 237 288 320
#     4  10  23  37  55  81 117 152 192 223 269 328
#     4  10  20  37  58  86 113 140 184 234 283 333
#     4   9  22  35  57  86 111 150 188 226 279 328
#     4  10  23  36  55  82 121 150 184 219 279 344
#     4  10  21  39  58  86 118 146 178 233 288 340
#     4  11  21  38  60  81 114 147 192 238 270 317
#
# _framework density 20.963819999999998
#
# number of rings (size 3 to 8) (size 9 to 14) (size 15 to 20)
#    0.857    1.143    0.000    4.286    4.000    5.714 
#    0.000    0.000    0.000    5.143    0.000    0.000 
#    0.000    0.000    0.000    0.000    0.000    0.000 
#
# Total GULP energy -173498.727129 kJ/mol
# GULP energy per Si atom -12392.766223 kJ/mol
# Density = 2.091611 g / cm^3
# Si number density = 20.963820 Si / 1000 Ang^3
#
#
#
# Elastic Constant Matrix: (Units=GPa)
#
#
# Indices 1 2 3 4 5 6 
#
# 1 105.9886 25.9854 7.9529 4.3109 -17.1619 14.9882
# 2 25.9854 99.1602 32.6402 30.3166 -2.4384 8.7966
# 3 7.9529 32.6402 70.9941 8.8782 -19.5735 5.1611
# 4 4.3109 30.3166 8.8782 10.5211 1.1730 2.7523
# 5 -17.1619 -2.4384 -19.5735 1.1730 31.8398 5.0644
# 6 14.9882 8.7966 5.1611 2.7523 5.0644 20.5642
#
#
#
# Elastic Compliance Matrix: (Units=1/GPa)
#
#
# Indices 1 2 3 4 5 6 
#
# 1 0.014627 -0.013364 0.004463 0.030924 0.010499 -0.012789
# 2 -0.013364 0.108168 -0.009529 -0.300004 0.005535 0.004651
# 3 0.004463 -0.009529 0.022361 0.007488 0.016723 -0.009909
# 4 0.030924 -0.300004 0.007488 0.948148 -0.034321 -0.014535
# 5 0.010499 0.005535 0.016723 -0.034321 0.052627 -0.022584
# 6 -0.012789 0.004651 -0.009909 -0.014535 -0.022584 0.065954
#
#
# Mechanical properties :
#
#
# Convention : Reuss Voigt Hill
#
# Bulk Modulus (GPa) = 9.23395 45.47778 27.35586
# Shear Modulus (GPa) = 3.89152 26.55598 15.22375
#
# Velocity S-wave (km/s) = 1.36394 3.56301 2.69772
# Velocity P-wave (km/s) = 2.62578 6.21830 4.77294
#
# Compressibility (1/GPa) = 0.10829604
#
# Stress axis : x y z
#
# Youngs Moduli (GPa) = 68.36450 9.24487 44.71985
#
# Poissons Ratio (x) = 0.12355 -0.19958
# Poissons Ratio (y) = 0.91363 0.42615
# Poissons Ratio (z) = -0.30511 0.08810
#
# Static dielectric constant tensor:
#      x y z
#    x 3.660480 0.110070 -0.109040 
#    y 0.110070 4.474030 0.215090 
#    z -0.109040 0.215090 3.540950 
# 
# 
# High freq. dielectric constant tensor:
#      x y z
#    x 1.821250 0.009130 -0.010740 
#    y 0.009130 1.815670 0.018900 
#    z -0.010740 0.018900 1.800230 
# 
# From -- ./inp_files/486259.got.cif
#   From: 2010.06.25/outbox.cif.g09.slc.cpg/sg2_244_cif.got.tgz:486259.got - 2010.06.27 13:26:56.
