data_PCOD8003745
_publ_section_title
;
Structure prediction by ZEFSAII (Michael W. Deem and Ramdas Pophale) SiO2 
 PCOD8003745
Probable space group: P -1
;
_chemical_formula_sum "Si O2"
_cell_formula_units_Z 16
_cell_length_a 8.957279
_cell_length_b 13.107000
_cell_length_c 18.621947
_cell_angle_alpha 152.553957
_cell_angle_beta 73.631376
_cell_angle_gamma 118.130697
_cell_volume 836.963271
_symmetry_space_group_name_H-M "P -1"
_symmetry_group_IT_number 2
_symmetry_cell_setting 'triclinic'
loop_
_space_group_symop_operation_xyz
x,y,z
-x,-y,-z
loop_
_atom_site_type_symbol
_atom_site_label
_atom_site_fract_x
_atom_site_fract_y
_atom_site_fract_z
Si Si1 0.865064 0.160833 0.679649
Si Si2 0.156320 0.000252 0.573805
Si Si3 0.011766 0.924522 0.871839
Si Si4 0.075044 0.614273 0.462730
Si Si5 0.737787 0.202149 0.309694
Si Si6 0.327926 0.403184 0.913075
Si Si7 0.010045 0.751998 0.045077
Si Si8 0.663011 0.093273 0.803841
O O1 0.701445 0.054973 0.692013
O O2 0.003978 0.076561 0.634834
O O3 0.780665 0.036873 0.536395
O O4 0.966736 0.468023 0.853485
O O5 0.322119 0.218293 0.733847
O O6 0.078875 0.732357 0.458758
O O7 0.214216 0.984324 0.860302
O O8 0.879943 0.616715 0.692780
O O9 0.950631 0.081269 0.927451
O O10 0.000000 0.000000 0.000000
O O11 0.218748 0.825793 0.630029
O O12 0.871566 0.496124 0.449406
O O13 0.532514 0.132239 0.285882
O O14 0.149493 0.250860 0.889845
O O15 0.500000 0.500000 0.000000
O O16 0.334121 0.642072 0.022490
O O17 0.188468 0.902671 0.162150
#
# Coordination Sequence:
#
# PCOD8003745 Si02
#       8
#     2   2   2   2   2   2   2   2
#     4  10  22  34  60  86 125 149 188 244 309 337
#     4  11  19  38  58  90 117 156 189 246 295 349
#     4  10  20  37  61  82 109 154 195 239 287 336
#     4   9  20  38  61  79 115 157 198 231 291 345
#     4   9  21  38  61  83 114 156 198 239 283 357
#     4  11  21  35  63  88 116 160 197 243 288 353
#     4  11  20  38  58  87 118 153 197 242 291 358
#     4  11  20  39  57  92 117 152 202 235 300 354
#
# _framework density 19.116728999999999
#
# number of rings (size 3 to 8) (size 9 to 14) (size 15 to 20)
#    0.750    1.000    2.500    3.750    0.000    0.000 
#    0.000   11.250    0.000    0.000    0.000    0.000 
#    0.000    0.000    0.000    0.000    0.000    0.000 
#
# Total GULP energy -198305.538922 kJ/mol
# GULP energy per Si atom -12394.096183 kJ/mol
# Density = 1.907322 g / cm^3
# Si number density = 19.116729 Si / 1000 Ang^3
#
#
#
# Elastic Constant Matrix: (Units=GPa)
#
#
# Indices 1 2 3 4 5 6 
#
# 1 120.0523 60.3441 42.6726 -7.5627 19.1684 1.0996
# 2 60.3441 111.1843 51.1662 -15.2970 7.1359 -15.0761
# 3 42.6726 51.1662 97.0087 -22.8120 7.2538 0.5366
# 4 -7.5627 -15.2970 -22.8120 35.8478 -7.5670 -4.5285
# 5 19.1684 7.1359 7.2538 -7.5670 31.1172 2.4496
# 6 1.0996 -15.0761 0.5366 -4.5285 2.4496 28.8754
#
#
#
# Elastic Compliance Matrix: (Units=1/GPa)
#
#
# Indices 1 2 3 4 5 6 
#
# 1 0.013566 -0.006697 -0.002775 -0.003690 -0.006759 -0.003967
# 2 -0.006697 0.016722 -0.005103 0.004045 0.001711 0.009570
# 3 -0.002775 -0.005103 0.015875 0.007346 0.001107 -0.001796
# 4 -0.003690 0.004045 0.007346 0.036072 0.007845 0.007108
# 5 -0.006759 0.001711 0.001107 0.007845 0.037623 -0.000831
# 6 -0.003967 0.009570 -0.001796 0.007108 -0.000831 0.040998
#
#
# Mechanical properties :
#
#
# Convention : Reuss Voigt Hill
#
# Bulk Modulus (GPa) = 58.78486 70.73457 64.75971
# Shear Modulus (GPa) = 25.55231 30.77226 28.16228
#
# Velocity S-wave (km/s) = 3.65998 4.01646 3.84236
# Velocity P-wave (km/s) = 6.97695 7.65448 7.32355
#
# Compressibility (1/GPa) = 0.01701118
#
# Stress axis : x y z
#
# Youngs Moduli (GPa) = 73.71634 59.80234 62.99017
#
# Poissons Ratio (x) = 0.40051 0.17481
# Poissons Ratio (y) = 0.49369 0.32146
# Poissons Ratio (z) = 0.20458 0.30519
#
# Static dielectric constant tensor:
#      x y z
#    x 3.484220 -0.098360 -0.085990 
#    y -0.098360 3.497200 -0.060150 
#    z -0.085990 -0.060150 3.583890 
# 
# 
# High freq. dielectric constant tensor:
#      x y z
#    x 1.720440 -0.015290 -0.007600 
#    y -0.015290 1.742060 -0.003080 
#    z -0.007600 -0.003080 1.746380 
# 
# From -- ./inp_files/560159.got.cif
#   From: 2010.06.25/outbox.cif.g09.slc.cpg/sg2_281_cif.got.tgz:560159.got - 2010.06.27 13:26:56.
