data_PCOD8003443
_publ_section_title
;
Structure prediction by ZEFSAII (Michael W. Deem and Ramdas Pophale) SiO2 
 PCOD8003443
Probable space group: P -1
;
_chemical_formula_sum "Si O2"
_cell_formula_units_Z 16
_cell_length_a 7.670907
_cell_length_b 22.452512
_cell_length_c 8.704147
_cell_angle_alpha 41.830402
_cell_angle_beta 114.009574
_cell_angle_gamma 125.582097
_cell_volume 812.142936
_symmetry_space_group_name_H-M "P -1"
_symmetry_group_IT_number 2
_symmetry_cell_setting 'triclinic'
loop_
_space_group_symop_operation_xyz
x,y,z
-x,-y,-z
loop_
_atom_site_type_symbol
_atom_site_label
_atom_site_fract_x
_atom_site_fract_y
_atom_site_fract_z
Si Si1 0.615679 0.154685 0.692923
Si Si2 0.189498 0.341421 0.932983
Si Si3 0.505157 0.967218 0.813727
Si Si4 0.003825 0.650293 0.457338
Si Si5 0.221000 0.150810 0.397998
Si Si6 0.386622 0.481967 0.224548
Si Si7 0.224608 0.022248 0.388817
Si Si8 0.764772 0.483999 0.200458
O O1 0.631694 0.073122 0.743609
O O2 0.422221 0.177391 0.529749
O O3 0.835863 0.257076 0.559175
O O4 0.587253 0.121004 0.925224
O O5 0.036541 0.306640 0.798062
O O6 0.439005 0.413806 0.835058
O O7 0.110615 0.403333 0.900808
O O8 0.168238 0.243698 0.201549
O O9 0.314231 0.964363 0.645341
O O10 0.667486 0.950607 0.791417
O O11 0.774013 0.592329 0.566661
O O12 0.105718 0.576586 0.594649
O O13 0.263698 0.126020 0.286104
O O14 0.025478 0.050903 0.588210
O O15 0.520365 0.430768 0.284934
O O16 0.247268 0.508719 0.001282
#
# Coordination Sequence:
#
# PCOD8003443 Si02
#       8
#     2   2   2   2   2   2   2   2
#     4  10  22  35  59  84 119 148 192 240 281 356
#     4  10  21  38  56  83 119 150 192 244 277 344
#     4   9  19  41  56  85 114 149 191 236 294 336
#     4  12  21  38  60  86 115 158 192 236 292 335
#     4  10  20  37  57  87 115 150 192 234 294 335
#     4   9  21  39  59  82 116 154 189 246 280 340
#     4   9  19  37  64  80 114 151 189 240 284 352
#     4   9  21  39  59  82 115 154 191 242 281 343
#
# _framework density 19.700966000000001
#
# number of rings (size 3 to 8) (size 9 to 14) (size 15 to 20)
#    0.750    1.500    0.000    2.625    0.000    2.500 
#    2.250    3.750    0.000    0.000    0.000    0.000 
#    0.000    0.000    0.000    0.000    0.000    0.000 
#
# Total GULP energy -198356.348609 kJ/mol
# GULP energy per Si atom -12397.271788 kJ/mol
# Density = 1.965613 g / cm^3
# Si number density = 19.700966 Si / 1000 Ang^3
#
#
#
# Elastic Constant Matrix: (Units=GPa)
#
#
# Indices 1 2 3 4 5 6 
#
# 1 62.0625 14.1633 10.3950 -0.4671 -5.1057 -12.2447
# 2 14.1633 91.3785 18.0556 0.3033 -0.8607 8.7158
# 3 10.3950 18.0556 66.5919 2.4291 8.2324 -9.0082
# 4 -0.4671 0.3033 2.4291 32.8331 -1.7160 3.5108
# 5 -5.1057 -0.8607 8.2324 -1.7160 22.5216 0.3519
# 6 -12.2447 8.7158 -9.0082 3.5108 0.3519 27.9412
#
#
#
# Elastic Compliance Matrix: (Units=1/GPa)
#
#
# Indices 1 2 3 4 5 6 
#
# 1 0.019326 -0.003549 -0.001376 -0.000326 0.004581 0.009116
# 2 -0.003549 0.012996 -0.004134 0.000965 0.001387 -0.007081
# 3 -0.001376 -0.004134 0.018311 -0.002474 -0.007461 0.006995
# 4 -0.000326 0.000965 -0.002474 0.031360 0.003338 -0.005224
# 5 0.004581 0.001387 -0.007461 0.003338 0.048504 -0.001861
# 6 0.009116 -0.007081 0.006995 -0.005224 -0.001861 0.044928
#
#
# Mechanical properties :
#
#
# Convention : Reuss Voigt Hill
#
# Bulk Modulus (GPa) = 30.75474 33.91786 32.33630
# Shear Modulus (GPa) = 24.46409 28.48712 26.47561
#
# Velocity S-wave (km/s) = 3.52770 3.80672 3.66986
# Velocity P-wave (km/s) = 5.67781 6.04775 5.86570
#
# Compressibility (1/GPa) = 0.03251531
#
# Stress axis : x y z
#
# Youngs Moduli (GPa) = 51.74347 76.94875 54.61071
#
# Poissons Ratio (x) = 0.27308 0.07514
# Poissons Ratio (y) = 0.18363 0.22577
# Poissons Ratio (z) = 0.07119 0.31812
#
# Static dielectric constant tensor:
#      x y z
#    x 3.458770 -0.030760 0.083980 
#    y -0.030760 3.598390 0.147600 
#    z 0.083980 0.147600 3.317020 
# 
# 
# High freq. dielectric constant tensor:
#      x y z
#    x 1.754320 0.004100 0.009480 
#    y 0.004100 1.773360 0.011250 
#    z 0.009480 0.011250 1.754110 
# 
# From -- ./inp_files/224818.got.cif
#   From: 2010.06.25/outbox.cif.g09.slc.cpg/sg2_113_cif.got.tgz:224818.got - 2010.06.27 13:26:56.
