data_PCOD8003093
_publ_section_title
;
Structure prediction by ZEFSAII (Michael W. Deem and Ramdas Pophale) SiO2 
 PCOD8003093
Probable space group: P -1
;
_chemical_formula_sum "Si O2"
_cell_formula_units_Z 16
_cell_length_a 12.390021
_cell_length_b 9.338939
_cell_length_c 13.241665
_cell_angle_alpha 99.494652
_cell_angle_beta 67.313300
_cell_angle_gamma 147.187565
_cell_volume 726.165200
_symmetry_space_group_name_H-M "P -1"
_symmetry_group_IT_number 2
_symmetry_cell_setting 'triclinic'
loop_
_space_group_symop_operation_xyz
x,y,z
-x,-y,-z
loop_
_atom_site_type_symbol
_atom_site_label
_atom_site_fract_x
_atom_site_fract_y
_atom_site_fract_z
Si Si1 0.782386 0.310701 0.724937
Si Si2 0.968828 0.037769 0.754920
Si Si3 0.122960 0.892052 0.398612
Si Si4 0.997545 0.152347 0.969004
Si Si5 0.245439 0.429188 0.346012
Si Si6 0.970945 0.387936 0.133922
Si Si7 0.320125 0.726571 0.891720
Si Si8 0.471571 0.483972 0.626857
O O1 0.878038 0.284016 0.616250
O O2 0.692701 0.346580 0.692169
O O3 0.974125 0.571875 0.762572
O O4 0.584885 0.030961 0.831238
O O5 0.808461 0.734689 0.746545
O O6 0.983679 0.172667 0.677041
O O7 0.869978 0.005192 0.889599
O O8 0.214764 0.239399 0.718737
O O9 0.976721 0.801022 0.531642
O O10 0.374692 0.220051 0.355463
O O11 0.252064 0.483367 0.893948
O O12 0.877656 0.138012 0.088440
O O13 0.000000 0.000000 0.000000
O O14 0.452156 0.585702 0.354767
O O15 0.784224 0.314624 0.178442
O O16 0.199388 0.678576 0.025145
O O17 0.500000 0.500000 0.500000
#
# Coordination Sequence:
#
# PCOD8003093 Si02
#       8
#     2   2   2   2   2   2   2   2
#     4  12  23  39  63  90 129 159 200 252 301 365
#     4  11  21  41  65  84 124 163 200 251 308 352
#     4  11  23  39  63  91 120 165 202 245 309 361
#     4  10  20  36  62  91 113 150 204 248 294 352
#     4  11  24  39  59  96 122 161 204 249 304 358
#     4   9  21  42  61  84 124 163 196 246 306 357
#     4   9  21  41  60  84 123 161 202 237 309 359
#     4  11  20  43  66  82 121 165 204 253 297 361
#
# _framework density 22.033553000000001
#
# number of rings (size 3 to 8) (size 9 to 14) (size 15 to 20)
#    0.750    0.750    2.500    3.750    0.000    2.000 
#    0.000    0.625    0.000    5.250    0.000    0.000 
#    0.000    0.000    0.000    0.000    0.000    0.000 
#
# Total GULP energy -198324.615385 kJ/mol
# GULP energy per Si atom -12395.288462 kJ/mol
# Density = 2.198340 g / cm^3
# Si number density = 22.033553 Si / 1000 Ang^3
#
#
#
# Elastic Constant Matrix: (Units=GPa)
#
#
# Indices 1 2 3 4 5 6 
#
# 1 128.5874 57.6569 19.3199 7.7065 22.8979 -16.4505
# 2 57.6569 88.1856 30.9232 18.7027 10.8106 -11.8007
# 3 19.3199 30.9232 46.8416 21.4170 13.9008 -5.1318
# 4 7.7065 18.7027 21.4170 38.8274 1.4893 1.6015
# 5 22.8979 10.8106 13.9008 1.4893 34.6494 -4.7077
# 6 -16.4505 -11.8007 -5.1318 1.6015 -4.7077 42.7910
#
#
#
# Elastic Compliance Matrix: (Units=1/GPa)
#
#
# Indices 1 2 3 4 5 6 
#
# 1 0.012331 -0.007780 0.001967 0.000366 -0.006237 0.002131
# 2 -0.007780 0.020298 -0.009372 -0.003257 0.002971 0.001932
# 3 0.001967 -0.009372 0.038324 -0.016608 -0.012767 0.001985
# 4 0.000366 -0.003257 -0.016608 0.036350 0.005397 -0.003516
# 5 -0.006237 0.002971 -0.012767 0.005397 0.037049 0.000764
# 6 0.002131 0.001932 0.001985 -0.003516 0.000764 0.025175
#
#
# Mechanical properties :
#
#
# Convention : Reuss Voigt Hill
#
# Bulk Modulus (GPa) = 24.64079 53.26827 38.95453
# Shear Modulus (GPa) = 23.42758 33.63454 28.53106
#
# Velocity S-wave (km/s) = 3.26432 3.91130 3.60236
# Velocity P-wave (km/s) = 5.04136 6.68028 5.91783
#
# Compressibility (1/GPa) = 0.04058311
#
# Stress axis : x y z
#
# Youngs Moduli (GPa) = 81.09689 49.26685 26.09339
#
# Poissons Ratio (x) = 0.38329 -0.05132
# Poissons Ratio (y) = 0.63092 0.24454
# Poissons Ratio (z) = -0.15950 0.46171
#
# Static dielectric constant tensor:
#      x y z
#    x 3.951950 -0.041810 0.020150 
#    y -0.041810 3.792840 0.245480 
#    z 0.020150 0.245480 3.839870 
# 
# 
# High freq. dielectric constant tensor:
#      x y z
#    x 1.865020 -0.008430 0.007600 
#    y -0.008430 1.854470 0.019750 
#    z 0.007600 0.019750 1.853390 
# 
# From -- ./inp_files/515657.got.cif
#   From: 2010.06.25/outbox.cif.g09.slc.cpg/sg2_258_cif.got.tgz:515657.got - 2010.06.27 13:26:56.
