data_PCOD8003337
_publ_section_title
;
Structure prediction by ZEFSAII (Michael W. Deem and Ramdas Pophale) SiO2 
 PCOD8003337
Probable space group: P -1
;
_chemical_formula_sum "Si O2"
_cell_formula_units_Z 16
_cell_length_a 9.494652
_cell_length_b 19.676828
_cell_length_c 9.686618
_cell_angle_alpha 144.566266
_cell_angle_beta 43.439500
_cell_angle_gamma 116.847553
_cell_volume 675.460525
_symmetry_space_group_name_H-M "P -1"
_symmetry_group_IT_number 2
_symmetry_cell_setting 'triclinic'
loop_
_space_group_symop_operation_xyz
x,y,z
-x,-y,-z
loop_
_atom_site_type_symbol
_atom_site_label
_atom_site_fract_x
_atom_site_fract_y
_atom_site_fract_z
Si Si1 0.070219 0.250253 0.432686
Si Si2 0.600778 0.242168 0.827698
Si Si3 0.284385 0.750299 0.942491
Si Si4 0.592868 0.495590 0.717886
Si Si5 0.755066 0.022881 0.174176
Si Si6 0.575894 0.114487 0.168888
Si Si7 0.141498 0.543160 0.273080
Si Si8 0.122366 0.303081 0.781416
O O1 0.840072 0.238818 0.613238
O O2 0.040962 0.329663 0.443648
O O3 0.138761 0.316120 0.624607
O O4 0.263231 0.115460 0.045878
O O5 0.581376 0.118215 0.561631
O O6 0.578104 0.234894 0.997078
O O7 0.419218 0.371225 0.117229
O O8 0.386217 0.607230 0.583589
O O9 0.288536 0.852901 0.997260
O O10 0.031452 0.776842 0.205838
O O11 0.806056 0.448173 0.588160
O O12 0.369122 0.510784 0.978647
O O13 0.726563 0.085062 0.146701
O O14 0.000000 0.000000 0.000000
O O15 0.363799 0.233550 0.552858
O O16 0.500000 0.000000 0.000000
O O17 0.036194 0.437185 0.140369
#
# Coordination Sequence:
#
# PCOD8003337 Si02
#       8
#     2   2   2   2   2   2   2   2
#     4   9  19  36  62  98 132 181 223 275 336 402
#     4   9  20  39  64  99 137 173 227 280 336 402
#     4  11  25  42  70 102 135 179 222 289 344 400
#     4  10  20  38  66  99 133 180 225 282 345 397
#     4  10  21  41  70  97 137 184 227 277 339 405
#     4  12  25  46  73  99 136 181 228 278 343 409
#     4  10  20  36  68  98 134 177 231 277 337 410
#     4  11  22  43  66 104 134 176 233 279 340 408
#
# _framework density 23.687543000000002
#
# number of rings (size 3 to 8) (size 9 to 14) (size 15 to 20)
#    0.000    1.750    2.500    1.500    5.250    1.000 
#    2.250    0.625    2.750    0.000    0.000    0.000 
#    0.000    0.000    0.000    0.000    0.000    0.000 
#
# Total GULP energy -198375.691278 kJ/mol
# GULP energy per Si atom -12398.480705 kJ/mol
# Density = 2.363363 g / cm^3
# Si number density = 23.687543 Si / 1000 Ang^3
#
#
#
# Elastic Constant Matrix: (Units=GPa)
#
#
# Indices 1 2 3 4 5 6 
#
# 1 111.5823 68.5055 36.9729 14.2046 13.7624 -47.1061
# 2 68.5055 126.4095 56.9603 16.4101 3.9547 -31.2549
# 3 36.9729 56.9603 106.4806 25.4968 29.3841 -34.5364
# 4 14.2046 16.4101 25.4968 35.4572 -5.2020 -3.8697
# 5 13.7624 3.9547 29.3841 -5.2020 43.5648 2.4540
# 6 -47.1061 -31.2549 -34.5364 -3.8697 2.4540 49.4774
#
#
#
# Elastic Compliance Matrix: (Units=1/GPa)
#
#
# Indices 1 2 3 4 5 6 
#
# 1 0.031817 -0.014165 0.020536 -0.021076 -0.027126 0.035376
# 2 -0.014165 0.017450 -0.014734 0.008944 0.014616 -0.012773
# 3 0.020536 -0.014734 0.041070 -0.032465 -0.038885 0.038301
# 4 -0.021076 0.008944 -0.032465 0.057460 0.036543 -0.034396
# 5 -0.027126 0.014616 -0.038885 0.036543 0.063267 -0.044015
# 6 0.035376 -0.012773 0.038301 -0.034396 -0.044015 0.072051
#
#
# Mechanical properties :
#
#
# Convention : Reuss Voigt Hill
#
# Bulk Modulus (GPa) = 13.58501 74.37219 43.97860
# Shear Modulus (GPa) = 15.41415 37.83544 26.62480
#
# Velocity S-wave (km/s) = 2.55370 4.00092 3.35625
# Velocity P-wave (km/s) = 3.80036 7.26695 5.79876
#
# Compressibility (1/GPa) = 0.07361055
#
# Stress axis : x y z
#
# Youngs Moduli (GPa) = 31.42990 57.30709 24.34877
#
# Poissons Ratio (x) = 0.81174 -0.50002
# Poissons Ratio (y) = 0.44519 0.35876
# Poissons Ratio (z) = -0.64544 0.84436
#
# Static dielectric constant tensor:
#      x y z
#    x 4.435090 -0.245830 0.183100 
#    y -0.245830 4.343360 0.369720 
#    z 0.183100 0.369720 4.787690 
# 
# 
# High freq. dielectric constant tensor:
#      x y z
#    x 1.943960 -0.008130 0.006790 
#    y -0.008130 1.927580 0.006920 
#    z 0.006790 0.006920 1.937430 
# 
# From -- ./inp_files/218801.got.cif
#   From: 2010.06.25/outbox.cif.g09.slc.cpg/sg2_110_cif.got.tgz:218801.got - 2010.06.27 13:26:56.
