data_PCOD8003442
_publ_section_title
;
Structure prediction by ZEFSAII (Michael W. Deem and Ramdas Pophale) SiO2 
 PCOD8003442
Probable space group: P -1
;
_chemical_formula_sum "Si O2"
_cell_formula_units_Z 14
_cell_length_a 11.331775
_cell_length_b 9.801778
_cell_length_c 10.036653
_cell_angle_alpha 81.929942
_cell_angle_beta 72.206383
_cell_angle_gamma 38.460844
_cell_volume 650.934375
_symmetry_space_group_name_H-M "P -1"
_symmetry_group_IT_number 2
_symmetry_cell_setting 'triclinic'
loop_
_space_group_symop_operation_xyz
x,y,z
-x,-y,-z
loop_
_atom_site_type_symbol
_atom_site_label
_atom_site_fract_x
_atom_site_fract_y
_atom_site_fract_z
Si Si1 0.538671 0.850437 0.660549
Si Si2 0.331714 0.598535 0.874833
Si Si3 0.945800 0.865935 0.807414
Si Si4 0.869180 0.391351 0.471350
Si Si5 0.726173 0.955356 0.502931
Si Si6 0.712321 0.240671 0.628453
Si Si7 0.569557 0.215186 0.037519
O O1 0.686433 0.649717 0.529859
O O2 0.598290 0.958202 0.635635
O O3 0.538279 0.783899 0.814794
O O4 0.324148 0.016750 0.640308
O O5 0.494754 0.479429 0.719355
O O6 0.325738 0.739830 0.946907
O O7 0.112795 0.769662 0.866380
O O8 0.395710 0.409653 0.966852
O O9 0.041297 0.668368 0.701305
O O10 0.854788 0.072964 0.725170
O O11 0.752797 0.971360 0.938051
O O12 0.814547 0.278181 0.513853
O O13 0.039117 0.281659 0.534778
O O14 0.677503 0.148995 0.548185
#
# Coordination Sequence:
#
# PCOD8003442 Si02
#       7
#     2   2   2   2   2   2   2
#     4  11  23  40  62  86 120 158 190 238 297 347
#     4  10  20  37  57  86 122 151 194 242 287 344
#     4  10  21  35  57  87 119 150 189 248 289 339
#     4  11  22  38  63  89 115 153 199 245 288 339
#     4  10  23  39  60  90 120 150 195 243 291 348
#     4  10  21  37  61  92 114 150 200 246 287 338
#     4  10  22  36  55  87 119 154 195 234 291 348
#
# _framework density 21.507546000000001
#
# number of rings (size 3 to 8) (size 9 to 14) (size 15 to 20)
#    0.000    1.714    1.429    3.429    4.000    2.286 
#    0.000    6.429    0.000    7.714    0.000    0.000 
#    0.000    0.000    0.000    0.000    0.000    0.000 
#
# Total GULP energy -173583.411884 kJ/mol
# GULP energy per Si atom -12398.815135 kJ/mol
# Density = 2.145859 g / cm^3
# Si number density = 21.507546 Si / 1000 Ang^3
#
#
#
# Elastic Constant Matrix: (Units=GPa)
#
#
# Indices 1 2 3 4 5 6 
#
# 1 96.7366 26.3781 19.1174 -12.4725 2.2222 -6.8276
# 2 26.3781 60.8428 20.1575 2.4652 -3.0454 -13.1795
# 3 19.1174 20.1575 84.2705 8.8737 -15.7361 4.9980
# 4 -12.4725 2.4652 8.8737 31.5912 -1.1150 -0.0512
# 5 2.2222 -3.0454 -15.7361 -1.1150 21.5101 -0.9218
# 6 -6.8276 -13.1795 4.9980 -0.0512 -0.9218 16.3741
#
#
#
# Elastic Compliance Matrix: (Units=1/GPa)
#
#
# Indices 1 2 3 4 5 6 
#
# 1 0.013409 -0.004465 -0.003616 0.006515 -0.004201 0.002885
# 2 -0.004465 0.024668 -0.005757 -0.002022 0.000485 0.019771
# 3 -0.003616 -0.005757 0.017445 -0.005488 0.011572 -0.010832
# 4 0.006515 -0.002022 -0.005488 0.035824 -0.003001 0.002707
# 5 -0.004201 0.000485 0.011572 -0.003001 0.055226 -0.001794
# 6 0.002885 0.019771 -0.010832 0.002707 -0.001794 0.081403
#
#
# Mechanical properties :
#
#
# Convention : Reuss Voigt Hill
#
# Bulk Modulus (GPa) = 35.91018 41.46176 38.68597
# Shear Modulus (GPa) = 18.87275 25.64154 22.25715
#
# Velocity S-wave (km/s) = 2.96547 3.45659 3.22040
# Velocity P-wave (km/s) = 5.33461 5.93720 5.64395
#
# Compressibility (1/GPa) = 0.02784726
#
# Stress axis : x y z
#
# Youngs Moduli (GPa) = 74.57407 40.53861 57.32308
#
# Poissons Ratio (x) = 0.18101 0.20726
# Poissons Ratio (y) = 0.33298 0.33000
# Poissons Ratio (z) = 0.26963 0.23338
#
# Static dielectric constant tensor:
#      x y z
#    x 3.680940 -0.185100 0.057330 
#    y -0.185100 3.934430 0.066130 
#    z 0.057330 0.066130 3.932220 
# 
# 
# High freq. dielectric constant tensor:
#      x y z
#    x 1.826700 -0.019090 0.007810 
#    y -0.019090 1.848780 0.003650 
#    z 0.007810 0.003650 1.839520 
# 
# From -- ./inp_files/253483.got.cif
#   From: 2010.06.25/outbox.cif.g09.slc.cpg/sg2_127_cif.got.tgz:253483.got - 2010.06.27 13:26:56.
