data_PCOD8003433
_publ_section_title
;
Structure prediction by ZEFSAII (Michael W. Deem and Ramdas Pophale) SiO2 
 PCOD8003433
Probable space group: P -1
;
_chemical_formula_sum "Si O2"
_cell_formula_units_Z 14
_cell_length_a 6.353292
_cell_length_b 32.325861
_cell_length_c 9.719557
_cell_angle_alpha 153.950294
_cell_angle_beta 133.198299
_cell_angle_gamma 46.924918
_cell_volume 624.473578
_symmetry_space_group_name_H-M "P -1"
_symmetry_group_IT_number 2
_symmetry_cell_setting 'triclinic'
loop_
_space_group_symop_operation_xyz
x,y,z
-x,-y,-z
loop_
_atom_site_type_symbol
_atom_site_label
_atom_site_fract_x
_atom_site_fract_y
_atom_site_fract_z
Si Si1 0.223828 0.563465 0.243922
Si Si2 0.102679 0.289958 0.269776
Si Si3 0.655931 0.385760 0.840162
Si Si4 0.713948 0.946183 0.598648
Si Si5 0.627858 0.859890 0.846770
Si Si6 0.901431 0.046934 0.742472
Si Si7 0.872359 0.238757 0.724424
O O1 0.151629 0.606463 0.186401
O O2 0.177694 0.652909 0.595965
O O3 0.550131 0.493120 0.180466
O O4 0.000000 0.500000 0.000000
O O5 0.367509 0.346528 0.548905
O O6 0.224102 0.185390 0.079807
O O7 0.975668 0.279082 0.030815
O O8 0.862703 0.317447 0.836392
O O9 0.448791 0.906872 0.286496
O O10 0.896909 0.858682 0.509433
O O11 0.940710 0.971492 0.660538
O O12 0.593700 0.038209 0.915662
O O13 0.451773 0.786231 0.477350
O O14 0.891186 0.875809 0.909046
O O15 0.000000 0.000000 0.500000
#
# Coordination Sequence:
#
# PCOD8003433 Si02
#       7
#     2   2   2   2   2   2   2
#     4   9  19  42  67  85 117 158 192 242 305 364
#     4  10  21  38  61  91 123 155 199 249 298 354
#     4   9  21  42  64  88 120 155 194 244 305 365
#     4  10  20  37  57  82 122 164 203 249 297 348
#     4  10  22  39  58  86 123 164 206 247 294 352
#     4   9  18  35  58  80 113 162 206 247 296 345
#     4  11  22  38  62  93 123 158 205 252 300 356
#
# _framework density 22.418882
#
# number of rings (size 3 to 8) (size 9 to 14) (size 15 to 20)
#    0.000    2.286    0.000    3.000    0.000    4.571 
#    0.000   26.429    0.000    0.000    0.000    0.000 
#    0.000    0.000    0.000    0.000    0.000    0.000 
#
# Total GULP energy -173507.845793 kJ/mol
# GULP energy per Si atom -12393.417557 kJ/mol
# Density = 2.236786 g / cm^3
# Si number density = 22.418882 Si / 1000 Ang^3
#
#
#
# Elastic Constant Matrix: (Units=GPa)
#
#
# Indices 1 2 3 4 5 6 
#
# 1 117.3214 53.9521 34.7973 5.9207 5.3775 22.2666
# 2 53.9521 182.8341 58.6325 13.5139 -4.8473 16.3428
# 3 34.7973 58.6325 82.6705 -0.4748 -12.3319 0.3044
# 4 5.9207 13.5139 -0.4748 35.3250 -0.4549 1.4720
# 5 5.3775 -4.8473 -12.3319 -0.4549 20.3444 -1.4703
# 6 22.2666 16.3428 0.3044 1.4720 -1.4703 20.1376
#
#
#
# Elastic Compliance Matrix: (Units=1/GPa)
#
#
# Indices 1 2 3 4 5 6 
#
# 1 0.014421 -0.000764 -0.006872 -0.001680 -0.009338 -0.015781
# 2 -0.000764 0.008216 -0.005772 -0.002880 -0.001812 -0.005657
# 3 -0.006872 -0.005772 0.021184 0.003297 0.014278 0.012764
# 4 -0.001680 -0.002880 0.003297 0.029679 0.002576 0.002164
# 5 -0.009338 -0.001812 0.014278 0.002576 0.061048 0.015849
# 6 -0.015781 -0.005657 0.012764 0.002164 0.015849 0.072505
#
#
# Mechanical properties :
#
#
# Convention : Reuss Voigt Hill
#
# Bulk Modulus (GPa) = 58.80647 75.28776 67.04711
# Shear Modulus (GPa) = 20.87341 30.85767 25.86554
#
# Velocity S-wave (km/s) = 3.05464 3.71403 3.40036
# Velocity P-wave (km/s) = 6.22325 7.21438 6.73706
#
# Compressibility (1/GPa) = 0.01700493
#
# Stress axis : x y z
#
# Youngs Moduli (GPa) = 69.34192 121.70720 47.20516
#
# Poissons Ratio (x) = 0.09304 0.32441
# Poissons Ratio (y) = 0.05301 0.27245
# Poissons Ratio (z) = 0.47655 0.70244
#
# Static dielectric constant tensor:
#      x y z
#    x 4.442580 -0.101800 0.184830 
#    y -0.101800 4.049410 0.282370 
#    z 0.184830 0.282370 4.202520 
# 
# 
# High freq. dielectric constant tensor:
#      x y z
#    x 1.883290 0.006070 0.003500 
#    y 0.006070 1.877420 0.016620 
#    z 0.003500 0.016620 1.871230 
# 
# From -- ./inp_files/143307.got.cif
#   From: 2010.06.25/outbox.cif.g09.slc.cpg/sg2_72_cif.got.tgz:143307.got - 2010.06.27 13:26:56.
