data_PCOD8003080
_publ_section_title
;
Structure prediction by ZEFSAII (Michael W. Deem and Ramdas Pophale) SiO2 
 PCOD8003080
Probable space group: P -1
;
_chemical_formula_sum "Si O2"
_cell_formula_units_Z 16
_cell_length_a 14.724003
_cell_length_b 15.961723
_cell_length_c 22.841652
_cell_angle_alpha 155.213206
_cell_angle_beta 155.008596
_cell_angle_gamma 40.566229
_cell_volume 888.217632
_symmetry_space_group_name_H-M "P -1"
_symmetry_group_IT_number 2
_symmetry_cell_setting 'triclinic'
loop_
_space_group_symop_operation_xyz
x,y,z
-x,-y,-z
loop_
_atom_site_type_symbol
_atom_site_label
_atom_site_fract_x
_atom_site_fract_y
_atom_site_fract_z
Si Si1 0.360525 0.908238 0.119134
Si Si2 0.119004 0.390714 0.360243
Si Si3 0.167847 0.676679 0.167814
Si Si4 0.662324 0.680051 0.438597
Si Si5 0.884287 0.170828 0.884257
Si Si6 0.683099 0.677690 0.683199
Si Si7 0.438580 0.127435 0.662273
Si Si8 0.261393 0.477136 0.738555
O O1 0.492661 0.922944 0.265819
O O2 0.432054 0.143499 0.282469
O O3 0.416118 0.729550 0.999047
O O4 0.083148 0.834076 0.917107
O O5 0.265708 0.376452 0.492487
O O6 0.282375 0.442219 0.431705
O O7 0.999027 0.563511 0.415942
O O8 0.389496 0.619146 0.244028
O O9 0.033049 0.683429 0.033052
O O10 0.244191 0.909996 0.389519
O O11 0.000000 0.500000 0.000000
O O12 0.728180 0.553448 0.344216
O O13 0.803159 0.925302 0.661552
O O14 0.661724 0.208605 0.803375
O O15 0.082614 0.225621 0.082460
O O16 0.500000 0.500000 0.500000
O O17 0.344041 0.321193 0.727947
#
# Coordination Sequence:
#
# PCOD8003080 Si02
#       8
#     2   2   2   2   2   2   2   2
#     4  10  22  36  61  86 111 147 199 237 284 337
#     4  10  22  36  61  86 111 147 199 237 284 337
#     4  11  24  35  57  89 119 153 189 235 297 334
#     4  11  19  39  62  84 116 150 196 244 275 339
#     4  11  19  37  62  82 111 156 201 230 279 340
#     4  12  24  39  58  87 122 148 188 244 293 341
#     4  11  19  39  62  84 116 150 196 244 275 339
#     4  10  20  36  62  90 110 148 202 236 284 332
#
# _framework density 18.013604000000001
#
# number of rings (size 3 to 8) (size 9 to 14) (size 15 to 20)
#    0.750    0.500    5.000    3.375    3.500    0.000 
#    0.000    1.250    0.000    4.500    0.000    0.000 
#    0.000    0.000    0.000    0.000    0.000    0.000 
#
# Total GULP energy -198279.699608 kJ/mol
# GULP energy per Si atom -12392.481225 kJ/mol
# Density = 1.797260 g / cm^3
# Si number density = 18.013604 Si / 1000 Ang^3
#
#
#
# Elastic Constant Matrix: (Units=GPa)
#
#
# Indices 1 2 3 4 5 6 
#
# 1 140.3750 79.5556 51.2614 12.3501 -4.9091 12.4147
# 2 79.5556 136.8865 42.0540 7.0091 -3.0145 11.2591
# 3 51.2614 42.0540 62.8311 7.3380 7.3528 5.8713
# 4 12.3501 7.0091 7.3380 23.7189 9.8076 -8.5433
# 5 -4.9091 -3.0145 7.3528 9.8076 27.7449 0.4935
# 6 12.4147 11.2591 5.8713 -8.5433 0.4935 42.8618
#
#
#
# Elastic Compliance Matrix: (Units=1/GPa)
#
#
# Indices 1 2 3 4 5 6 
#
# 1 0.013852 -0.004930 -0.007623 -0.007261 0.006559 -0.003196
# 2 -0.004930 0.011471 -0.003632 -0.000844 0.001658 -0.001275
# 3 -0.007623 -0.003632 0.025512 0.000744 -0.008766 -0.000084
# 4 -0.007261 -0.000844 0.000744 0.060887 -0.023357 0.014628
# 5 0.006559 0.001658 -0.008766 -0.023357 0.048076 -0.006343
# 6 -0.003196 -0.001275 -0.000084 0.014628 -0.006343 0.027592
#
#
# Mechanical properties :
#
#
# Convention : Reuss Voigt Hill
#
# Bulk Modulus (GPa) = 54.15197 76.20385 65.17791
# Shear Modulus (GPa) = 22.13238 30.01323 26.07281
#
# Velocity S-wave (km/s) = 3.50901 4.08627 3.80859
# Velocity P-wave (km/s) = 6.82235 8.04107 7.45665
#
# Compressibility (1/GPa) = 0.01846655
#
# Stress axis : x y z
#
# Youngs Moduli (GPa) = 72.19191 87.17876 39.19651
#
# Poissons Ratio (x) = 0.42975 0.29879
# Poissons Ratio (y) = 0.35587 0.14236
# Poissons Ratio (z) = 0.55030 0.31663
#
# Static dielectric constant tensor:
#      x y z
#    x 3.323910 0.151220 -0.246050 
#    y 0.151220 3.472030 -0.258790 
#    z -0.246050 -0.258790 3.338990 
# 
# 
# High freq. dielectric constant tensor:
#      x y z
#    x 1.702870 0.010300 -0.020370 
#    y 0.010300 1.711460 -0.009240 
#    z -0.020370 -0.009240 1.669140 
# 
# From -- ./inp_files/387997.got.cif
#   From: 2010.06.25/outbox.cif.g09.slc.cpg/sg2_194_cif.got.tgz:387997.got - 2010.06.27 13:26:56.
