data_PCOD8003268
_publ_section_title
;
Structure prediction by ZEFSAII (Michael W. Deem and Ramdas Pophale) SiO2 
 PCOD8003268
Probable space group: P -1
;
_chemical_formula_sum "Si O2"
_cell_formula_units_Z 16
_cell_length_a 9.337123
_cell_length_b 20.928976
_cell_length_c 9.825215
_cell_angle_alpha 129.527875
_cell_angle_beta 105.024128
_cell_angle_gamma 117.619844
_cell_volume 767.585557
_symmetry_space_group_name_H-M "P -1"
_symmetry_group_IT_number 2
_symmetry_cell_setting 'triclinic'
loop_
_space_group_symop_operation_xyz
x,y,z
-x,-y,-z
loop_
_atom_site_type_symbol
_atom_site_label
_atom_site_fract_x
_atom_site_fract_y
_atom_site_fract_z
Si Si1 0.972329 0.346156 0.249895
Si Si2 0.178432 0.891312 0.615453
Si Si3 0.955772 0.987048 0.312522
Si Si4 0.200138 0.864544 0.883474
Si Si5 0.387840 0.120383 0.397267
Si Si6 0.951490 0.304873 0.882867
Si Si7 0.749223 0.402235 0.707445
Si Si8 0.348921 0.667425 0.709476
O O1 0.015509 0.290002 0.288735
O O2 0.715090 0.284462 0.144053
O O3 0.240833 0.531406 0.566422
O O4 0.920546 0.278037 0.000019
O O5 0.097667 0.810674 0.629802
O O6 0.031975 0.774707 0.296853
O O7 0.062822 0.928416 0.629451
O O8 0.509584 0.045216 0.896749
O O9 0.674471 0.807684 0.960917
O O10 0.000000 0.000000 0.500000
O O11 0.212385 0.065475 0.408274
O O12 0.219897 0.970692 0.071711
O O13 0.679664 0.223836 0.656694
O O14 0.457975 0.232359 0.467836
O O15 0.230056 0.488476 0.163046
O O16 0.790488 0.381273 0.538965
O O17 0.000000 0.500000 0.000000
#
# Coordination Sequence:
#
# PCOD8003268 Si02
#       8
#     2   2   2   2   2   2   2   2
#     4  10  20  36  65  88 120 155 209 255 310 345
#     4  10  22  38  61  90 125 156 205 255 309 351
#     4  12  25  41  61  89 130 167 201 247 306 377
#     4  10  21  37  63  93 116 158 205 264 300 356
#     4  10  22  36  62  89 122 162 204 246 312 365
#     4   9  20  38  63  92 118 156 205 262 297 357
#     4   9  19  37  62  92 122 154 205 259 306 355
#     4  10  21  38  60  92 122 162 204 256 300 367
#
# _framework density 20.844581999999999
#
# number of rings (size 3 to 8) (size 9 to 14) (size 15 to 20)
#    0.000    2.000    1.250    1.500    7.000    4.000 
#    0.000    1.250    0.000    0.000    0.000    0.000 
#    0.000    0.000    0.000    0.000    0.000    0.000 
#
# Total GULP energy -198328.384512 kJ/mol
# GULP energy per Si atom -12395.524032 kJ/mol
# Density = 2.079714 g / cm^3
# Si number density = 20.844582 Si / 1000 Ang^3
#
#
#
# Elastic Constant Matrix: (Units=GPa)
#
#
# Indices 1 2 3 4 5 6 
#
# 1 55.3220 24.7701 25.7665 7.9545 -16.6354 8.4835
# 2 24.7701 159.5627 56.6231 6.3368 -19.8405 3.0994
# 3 25.7665 56.6231 84.8837 -1.6386 -25.0239 -0.2048
# 4 7.9545 6.3368 -1.6386 40.2407 3.7819 -3.3219
# 5 -16.6354 -19.8405 -25.0239 3.7819 25.4540 -3.3111
# 6 8.4835 3.0994 -0.2048 -3.3219 -3.3111 28.4205
#
#
#
# Elastic Compliance Matrix: (Units=1/GPa)
#
#
# Indices 1 2 3 4 5 6 
#
# 1 0.026138 -0.000678 -0.003828 -0.007013 0.012913 -0.007071
# 2 -0.000678 0.008403 -0.005059 -0.001579 0.001266 -0.000788
# 3 -0.003828 -0.005059 0.020462 0.001376 0.013939 0.003626
# 4 -0.007013 -0.001579 0.001376 0.027669 -0.007977 0.004580
# 5 0.012913 0.001266 0.013939 -0.007977 0.063942 0.002625
# 6 -0.007071 -0.000788 0.003626 0.004580 0.002625 0.038250
#
#
# Mechanical properties :
#
#
# Convention : Reuss Voigt Hill
#
# Bulk Modulus (GPa) = 27.87525 57.12088 42.49806
# Shear Modulus (GPa) = 23.15343 31.66362 27.40853
#
# Velocity S-wave (km/s) = 3.33643 3.90171 3.63009
# Velocity P-wave (km/s) = 5.31453 6.91089 6.16461
#
# Compressibility (1/GPa) = 0.03587412
#
# Stress axis : x y z
#
# Youngs Moduli (GPa) = 38.25844 119.00597 48.87172
#
# Poissons Ratio (x) = 0.08065 0.18707
# Poissons Ratio (y) = 0.02593 0.24724
# Poissons Ratio (z) = 0.14644 0.60203
#
# Static dielectric constant tensor:
#      x y z
#    x 3.444040 0.006190 -0.273820 
#    y 0.006190 4.138000 0.153180 
#    z -0.273820 0.153180 3.891660 
# 
# 
# High freq. dielectric constant tensor:
#      x y z
#    x 1.778490 -0.001210 -0.029020 
#    y -0.001210 1.839800 0.000780 
#    z -0.029020 0.000780 1.809670 
# 
# From -- ./inp_files/224094.got.cif
#   From: 2010.06.25/outbox.cif.g09.slc.cpg/sg2_113_cif.got.tgz:224094.got - 2010.06.27 13:26:56.
