data_PCOD8003194
_publ_section_title
;
Structure prediction by ZEFSAII (Michael W. Deem and Ramdas Pophale) SiO2 
 PCOD8003194
Probable space group: P -1
;
_chemical_formula_sum "Si O2"
_cell_formula_units_Z 14
_cell_length_a 9.883622
_cell_length_b 9.262151
_cell_length_c 15.309266
_cell_angle_alpha 113.433638
_cell_angle_beta 137.378045
_cell_angle_gamma 45.358102
_cell_volume 654.183872
_symmetry_space_group_name_H-M "P -1"
_symmetry_group_IT_number 2
_symmetry_cell_setting 'triclinic'
loop_
_space_group_symop_operation_xyz
x,y,z
-x,-y,-z
loop_
_atom_site_type_symbol
_atom_site_label
_atom_site_fract_x
_atom_site_fract_y
_atom_site_fract_z
Si Si1 0.867537 0.961928 0.000875
Si Si2 0.504735 0.354748 0.033369
Si Si3 0.610358 0.823772 0.285737
Si Si4 0.006140 0.449242 0.746929
Si Si5 0.574448 0.414016 0.785448
Si Si6 0.472278 0.897824 0.542623
Si Si7 0.326811 0.642039 0.371655
O O1 0.751243 0.116987 0.066316
O O2 0.624258 0.995850 0.847915
O O3 0.103959 0.730727 0.092830
O O4 0.000000 0.000000 0.000000
O O5 0.217713 0.422989 0.904224
O O6 0.500000 0.500000 0.000000
O O7 0.554282 0.389540 0.164087
O O8 0.875007 0.654299 0.316098
O O9 0.521985 0.709805 0.264671
O O10 0.674569 0.928515 0.409211
O O11 0.755002 0.691537 0.665206
O O12 0.938705 0.324256 0.738095
O O13 0.508092 0.480224 0.668506
O O14 0.281575 0.853560 0.410557
O O15 0.500000 0.000000 0.500000
O O16 0.500000 0.500000 0.500000
#
# Coordination Sequence:
#
# PCOD8003194 Si02
#       7
#     2   2   2   2   2   2   2
#     4   9  18  32  58  93 123 144 191 256 304 353
#     4  11  19  34  62  98 119 155 197 248 313 368
#     4  10  20  36  63  95 115 156 206 255 302 358
#     4  10  23  41  61  88 132 152 196 262 306 357
#     4  11  20  37  63  89 125 158 200 251 300 363
#     4  11  22  39  64  87 114 166 218 246 295 355
#     4  10  24  45  58  85 129 167 204 252 302 355
#
# _framework density 21.400711000000001
#
# number of rings (size 3 to 8) (size 9 to 14) (size 15 to 20)
#    0.000    1.714    5.714    0.857    2.000    1.714 
#    0.000    5.714    0.000    0.000    0.000    0.000 
#    0.000    0.000    0.000    0.000    0.000    0.000 
#
# Total GULP energy -173495.220271 kJ/mol
# GULP energy per Si atom -12392.515734 kJ/mol
# Density = 2.135200 g / cm^3
# Si number density = 21.400711 Si / 1000 Ang^3
#
#
#
# Elastic Constant Matrix: (Units=GPa)
#
#
# Indices 1 2 3 4 5 6 
#
# 1 127.8149 43.0417 50.8919 27.2335 -8.8402 1.6452
# 2 43.0417 76.0479 31.3519 28.8985 -9.4038 -10.2280
# 3 50.8919 31.3519 78.2619 39.7143 -13.9383 -1.9210
# 4 27.2335 28.8985 39.7143 43.9096 -6.8162 -2.6802
# 5 -8.8402 -9.4038 -13.9383 -6.8162 48.0187 13.3693
# 6 1.6452 -10.2280 -1.9210 -2.6802 13.3693 39.1356
#
#
#
# Elastic Compliance Matrix: (Units=1/GPa)
#
#
# Indices 1 2 3 4 5 6 
#
# 1 0.011753 -0.004857 -0.006649 0.001814 0.000096 -0.001998
# 2 -0.004857 0.020359 0.000533 -0.010512 0.000453 0.004676
# 3 -0.006649 0.000533 0.028505 -0.021389 0.004442 -0.001164
# 4 0.001814 -0.010512 -0.021389 0.047729 -0.001094 -0.000231
# 5 0.000096 0.000453 0.004442 -0.001094 0.024306 -0.008046
# 6 -0.001998 0.004676 -0.001164 -0.000231 -0.008046 0.029534
#
#
# Mechanical properties :
#
#
# Convention : Reuss Voigt Hill
#
# Bulk Modulus (GPa) = 25.86048 59.18841 42.52444
# Shear Modulus (GPa) = 25.37784 36.66874 31.02329
#
# Velocity S-wave (km/s) = 3.44734 4.14386 3.81154
# Velocity P-wave (km/s) = 5.28732 7.11426 6.26771
#
# Compressibility (1/GPa) = 0.03866904
#
# Stress axis : x y z
#
# Youngs Moduli (GPa) = 85.08632 49.11926 35.08163
#
# Poissons Ratio (x) = 0.23856 0.23327
# Poissons Ratio (y) = 0.41325 -0.01869
# Poissons Ratio (z) = 0.56578 -0.02616
#
# Static dielectric constant tensor:
#      x y z
#    x 4.186040 -0.397960 -0.199180 
#    y -0.397960 2.982030 -0.865720 
#    z -0.199180 -0.865720 3.226620 
# 
# 
# High freq. dielectric constant tensor:
#      x y z
#    x 1.837820 -0.013690 -0.004640 
#    y -0.013690 1.820040 0.018010 
#    z -0.004640 0.018010 1.842700 
# 
# From -- ./inp_files/188895.got.cif
#   From: 2010.06.25/outbox.cif.g09.slc.cpg/sg2_95_cif.got.tgz:188895.got - 2010.06.27 13:26:56.
