data_PCOD8003123
_publ_section_title
;
Structure prediction by ZEFSAII (Michael W. Deem and Ramdas Pophale) SiO2 
 PCOD8003123
Probable space group: P -1
;
_chemical_formula_sum "Si O2"
_cell_formula_units_Z 16
_cell_length_a 22.370831
_cell_length_b 18.194830
_cell_length_c 9.225547
_cell_angle_alpha 146.134057
_cell_angle_beta 35.153960
_cell_angle_gamma 161.089951
_cell_volume 667.372769
_symmetry_space_group_name_H-M "P -1"
_symmetry_group_IT_number 2
_symmetry_cell_setting 'triclinic'
loop_
_space_group_symop_operation_xyz
x,y,z
-x,-y,-z
loop_
_atom_site_type_symbol
_atom_site_label
_atom_site_fract_x
_atom_site_fract_y
_atom_site_fract_z
Si Si1 0.289648 0.907755 0.485161
Si Si2 0.106878 0.178919 0.949515
Si Si3 0.036886 0.217155 0.542324
Si Si4 0.023323 0.357188 0.519452
Si Si5 0.210188 0.943588 0.999856
Si Si6 0.458291 0.594557 0.312968
Si Si7 0.398920 0.917935 0.714617
Si Si8 0.512332 0.538398 0.706311
O O1 0.387251 0.142580 0.618947
O O2 0.446160 0.956100 0.262922
O O3 0.191148 0.829947 0.710176
O O4 0.129556 0.703656 0.348325
O O5 0.328174 0.418878 0.932429
O O6 0.045525 0.266760 0.202583
O O7 0.056416 0.029462 0.669606
O O8 0.000000 0.000000 0.000000
O O9 0.947830 0.211925 0.580432
O O10 0.253919 0.437465 0.431420
O O11 0.990232 0.234531 0.818998
O O12 0.214207 0.633558 0.629826
O O13 0.311652 0.185117 0.148077
O O14 0.334898 0.003018 0.976283
O O15 0.470657 0.582978 0.442714
O O16 0.500000 0.500000 0.000000
O O17 0.500000 0.000000 0.500000
O O18 0.500000 0.500000 0.500000
#
# Coordination Sequence:
#
# PCOD8003123 Si02
#       8
#     2   2   2   2   2   2   2   2
#     4  11  23  44  72  99 128 182 234 269 333 407
#     4  10  20  36  62  95 125 170 218 266 329 403
#     4  11  23  41  66 101 138 171 220 284 346 394
#     4  11  22  42  70  98 131 177 230 275 331 403
#     4  11  25  43  65  99 138 178 219 283 344 390
#     4  12  22  41  68  98 132 176 226 271 335 409
#     4  10  23  45  70  96 137 178 232 276 327 402
#     4  12  24  41  63  95 142 171 213 281 344 397
#
# _framework density 23.974608
#
# number of rings (size 3 to 8) (size 9 to 14) (size 15 to 20)
#    0.000    1.000    3.750    5.250    0.000    4.000 
#    0.000    1.875    0.000    0.000    0.000    0.000 
#    0.000    0.000    0.000    0.000    0.000    0.000 
#
# Total GULP energy -198275.546100 kJ/mol
# GULP energy per Si atom -12392.221631 kJ/mol
# Density = 2.392004 g / cm^3
# Si number density = 23.974608 Si / 1000 Ang^3
#
#
#
# Elastic Constant Matrix: (Units=GPa)
#
#
# Indices 1 2 3 4 5 6 
#
# 1 123.8465 18.7517 13.6456 -14.9973 -4.1412 10.7147
# 2 18.7517 93.8982 13.0335 -27.0649 1.5250 9.6365
# 3 13.6456 13.0335 42.4660 -25.0804 5.2832 -5.7009
# 4 -14.9973 -27.0649 -25.0804 31.5864 -0.9212 -3.6383
# 5 -4.1412 1.5250 5.2832 -0.9212 30.6492 -1.5605
# 6 10.7147 9.6365 -5.7009 -3.6383 -1.5605 41.7951
#
#
#
# Elastic Compliance Matrix: (Units=1/GPa)
#
#
# Indices 1 2 3 4 5 6 
#
# 1 0.008868 -0.000810 -0.002128 0.001621 0.001543 -0.002178
# 2 -0.000810 0.014988 0.005543 0.016694 -0.001364 -0.001090
# 3 -0.002128 0.005543 0.051960 0.045934 -0.007627 0.010069
# 4 0.001621 0.016694 0.045934 0.084095 -0.005538 0.009114
# 5 0.001543 -0.001364 -0.007627 -0.005538 0.034035 -0.000333
# 6 -0.002178 -0.001090 0.010069 0.009114 -0.000333 0.026890
#
#
# Mechanical properties :
#
#
# Convention : Reuss Voigt Hill
#
# Bulk Modulus (GPa) = 12.34164 39.00803 25.67484
# Shear Modulus (GPa) = 20.60717 35.12479 27.86598
#
# Velocity S-wave (km/s) = 2.93497 3.83179 3.41297
# Velocity P-wave (km/s) = 4.07976 5.99022 5.12480
#
# Compressibility (1/GPa) = 0.08102649
#
# Stress axis : x y z
#
# Youngs Moduli (GPa) = 112.76566 66.72016 19.24557
#
# Poissons Ratio (x) = 0.05403 0.04095
# Poissons Ratio (y) = 0.09132 -0.10668
# Poissons Ratio (z) = 0.23996 -0.36984
#
# Static dielectric constant tensor:
#      x y z
#    x 4.730520 0.173190 -0.336630 
#    y 0.173190 3.612650 -0.068820 
#    z -0.336630 -0.068820 4.466630 
# 
# 
# High freq. dielectric constant tensor:
#      x y z
#    x 1.955080 -0.008990 -0.009950 
#    y -0.008990 1.952980 -0.019550 
#    z -0.009950 -0.019550 1.921400 
# 
# From -- ./inp_files/226834.got.cif
#   From: 2010.06.25/outbox.cif.g09.slc.cpg/sg2_114_cif.got.tgz:226834.got - 2010.06.27 13:26:56.
