data_PCOD8003689
_publ_section_title
;
Structure prediction by ZEFSAII (Michael W. Deem and Ramdas Pophale) SiO2 
 PCOD8003689
Probable space group: P -1
;
_chemical_formula_sum "Si O2"
_cell_formula_units_Z 16
_cell_length_a 9.648234
_cell_length_b 18.104550
_cell_length_c 9.401044
_cell_angle_alpha 37.738589
_cell_angle_beta 93.726957
_cell_angle_gamma 116.474152
_cell_volume 765.829833
_symmetry_space_group_name_H-M "P -1"
_symmetry_group_IT_number 2
_symmetry_cell_setting 'triclinic'
loop_
_space_group_symop_operation_xyz
x,y,z
-x,-y,-z
loop_
_atom_site_type_symbol
_atom_site_label
_atom_site_fract_x
_atom_site_fract_y
_atom_site_fract_z
Si Si1 0.616995 0.175086 0.391647
Si Si2 0.495945 0.306717 0.353032
Si Si3 0.600779 0.824640 0.149524
Si Si4 0.747474 0.615803 0.739319
Si Si5 0.633915 0.183550 0.072311
Si Si6 0.688959 0.616109 0.417103
Si Si7 0.970494 0.345710 0.682204
Si Si8 0.143237 0.800259 0.408261
O O1 0.462810 0.176257 0.443510
O O2 0.690725 0.266766 0.105035
O O3 0.778121 0.255889 0.394320
O O4 0.536744 0.997851 0.636465
O O5 0.511248 0.268703 0.573059
O O6 0.327095 0.300853 0.329690
O O7 0.684454 0.474646 0.056808
O O8 0.730046 0.783638 0.178227
O O9 0.441235 0.751851 0.132115
O O10 0.720282 0.011601 0.898092
O O11 0.669396 0.549184 0.675970
O O12 0.963304 0.751316 0.544371
O O13 0.803975 0.206772 0.980796
O O14 0.500000 0.500000 0.500000
O O15 0.851157 0.638617 0.308594
O O16 0.904064 0.298173 0.588134
O O17 0.000000 0.500000 0.500000
#
# Coordination Sequence:
#
# PCOD8003689 Si02
#       8
#     2   2   2   2   2   2   2   2
#     4  10  22  38  64  85 123 162 197 255 306 358
#     4  10  20  37  60  89 114 162 197 251 305 357
#     4  10  21  40  68  89 119 163 209 252 301 365
#     4   9  22  39  58  90 121 151 206 254 303 365
#     4  10  22  41  57  92 123 156 206 248 305 362
#     4  10  22  39  62  92 122 164 200 254 310 360
#     4  11  23  38  62  91 125 157 201 253 298 369
#     4  10  22  42  63  91 120 160 208 254 304 365
#
# _framework density 20.892368999999999
#
# number of rings (size 3 to 8) (size 9 to 14) (size 15 to 20)
#    0.000    2.000    0.000    2.250    5.250    9.000 
#    9.000    0.000    0.000    4.500    0.000    0.000 
#    0.000    0.000    0.000    0.000    0.000    0.000 
#
# Total GULP energy -198299.299246 kJ/mol
# GULP energy per Si atom -12393.706203 kJ/mol
# Density = 2.084482 g / cm^3
# Si number density = 20.892369 Si / 1000 Ang^3
#
#
#
# Elastic Constant Matrix: (Units=GPa)
#
#
# Indices 1 2 3 4 5 6 
#
# 1 147.1396 66.5231 55.1080 20.8152 -10.0412 -11.7521
# 2 66.5231 110.8472 46.1312 16.8393 5.6358 -0.9153
# 3 55.1080 46.1312 113.6121 23.6387 1.4828 6.5488
# 4 20.8152 16.8393 23.6387 30.2334 -4.9594 -1.7129
# 5 -10.0412 5.6358 1.4828 -4.9594 31.8853 -3.4529
# 6 -11.7521 -0.9153 6.5488 -1.7129 -3.4529 37.0124
#
#
#
# Elastic Compliance Matrix: (Units=1/GPa)
#
#
# Indices 1 2 3 4 5 6 
#
# 1 0.011408 -0.005486 -0.003415 -0.001045 0.005047 0.004513
# 2 -0.005486 0.013929 -0.002187 -0.003141 -0.004750 -0.001599
# 3 -0.003415 -0.002187 0.013166 -0.007432 -0.002899 -0.004082
# 4 -0.001045 -0.003141 -0.007432 0.042809 0.007620 0.003597
# 5 0.005047 -0.004750 -0.002899 0.007620 0.035727 0.005684
# 6 0.004513 -0.001599 -0.004082 0.003597 0.005684 0.029830
#
#
# Mechanical properties :
#
#
# Convention : Reuss Voigt Hill
#
# Bulk Modulus (GPa) = 61.24577 78.56929 69.90753
# Shear Modulus (GPa) = 28.65525 33.41532 31.03529
#
# Velocity S-wave (km/s) = 3.70748 4.00359 3.85838
# Velocity P-wave (km/s) = 6.90694 7.68505 7.30636
#
# Compressibility (1/GPa) = 0.01632766
#
# Stress axis : x y z
#
# Youngs Moduli (GPa) = 87.65657 71.79053 75.95527
#
# Poissons Ratio (x) = 0.39384 0.25936
# Poissons Ratio (y) = 0.48088 0.16614
# Poissons Ratio (z) = 0.29931 0.15703
#
# Static dielectric constant tensor:
#      x y z
#    x 4.011300 -0.119030 0.060670 
#    y -0.119030 3.843260 0.228950 
#    z 0.060670 0.228950 3.891000 
# 
# 
# High freq. dielectric constant tensor:
#      x y z
#    x 1.825230 -0.014070 0.004280 
#    y -0.014070 1.813640 0.011090 
#    z 0.004280 0.011090 1.815170 
# 
# From -- ./inp_files/211701.got.cif
#   From: 2010.06.25/outbox.cif.g09.slc.cpg/sg2_106_cif.got.tgz:211701.got - 2010.06.27 13:26:56.
