data_PCOD8003469
_publ_section_title
;
Structure prediction by ZEFSAII (Michael W. Deem and Ramdas Pophale) SiO2 
 PCOD8003469
Probable space group: P -1
;
_chemical_formula_sum "Si O2"
_cell_formula_units_Z 16
_cell_length_a 27.860562
_cell_length_b 16.082452
_cell_length_c 17.222430
_cell_angle_alpha 156.397899
_cell_angle_beta 23.505960
_cell_angle_gamma 163.186769
_cell_volume 839.145219
_symmetry_space_group_name_H-M "P -1"
_symmetry_group_IT_number 2
_symmetry_cell_setting 'triclinic'
loop_
_space_group_symop_operation_xyz
x,y,z
-x,-y,-z
loop_
_atom_site_type_symbol
_atom_site_label
_atom_site_fract_x
_atom_site_fract_y
_atom_site_fract_z
Si Si1 0.865645 0.602685 0.992082
Si Si2 0.786561 0.721017 0.898265
Si Si3 0.885293 0.237765 0.736549
Si Si4 0.395295 0.452109 0.414141
Si Si5 0.741272 0.400640 0.542465
Si Si6 0.327832 0.548860 0.999998
Si Si7 0.502595 0.704294 0.306649
Si Si8 0.633703 0.242313 0.157752
O O1 0.830495 0.630803 0.980804
O O2 0.704626 0.470868 0.175540
O O3 0.879602 0.366913 0.775108
O O4 0.043667 0.923602 0.036214
O O5 0.753165 0.544638 0.874078
O O6 0.619321 0.652959 0.068083
O O7 0.815969 0.602797 0.682078
O O8 0.090288 0.451096 0.633844
O O9 0.779430 0.888548 0.589474
O O10 0.786068 0.259700 0.966953
O O11 0.572243 0.541781 0.240948
O O12 0.380847 0.500730 0.387490
O O13 0.410905 0.681085 0.635790
O O14 0.624438 0.413736 0.678273
O O15 0.626735 0.057460 0.443153
O O16 0.457971 0.906186 0.101660
#
# Coordination Sequence:
#
# PCOD8003469 Si02
#       8
#     2   2   2   2   2   2   2   2
#     4  10  20  38  55  79 119 144 181 225 265 322
#     4  11  21  38  59  81 112 144 183 226 275 324
#     4   9  21  36  55  79 115 144 179 229 264 321
#     4  10  20  37  58  82 112 145 181 226 273 320
#     4  11  21  39  61  80 108 148 179 228 283 322
#     4  10  21  36  55  84 114 144 182 228 264 319
#     4  10  22  38  59  85 108 137 188 231 272 329
#     4   9  19  36  56  78 114 145 183 219 267 322
#
# _framework density 19.067021
#
# number of rings (size 3 to 8) (size 9 to 14) (size 15 to 20)
#    0.750    1.250    1.250    2.625    0.000    1.000 
#    2.250    1.250    0.000    0.000    0.000    0.000 
#    0.000    0.000    0.000    0.000    0.000    0.000 
#
# Total GULP energy -198318.396788 kJ/mol
# GULP energy per Si atom -12394.899799 kJ/mol
# Density = 1.902362 g / cm^3
# Si number density = 19.067021 Si / 1000 Ang^3
#
#
#
# Elastic Constant Matrix: (Units=GPa)
#
#
# Indices 1 2 3 4 5 6 
#
# 1 72.7415 26.5240 19.5883 4.2392 4.3257 -1.8996
# 2 26.5240 82.8318 20.9482 3.8729 5.2199 -0.0046
# 3 19.5883 20.9482 80.4878 5.8383 11.7311 6.4110
# 4 4.2392 3.8729 5.8383 16.3110 -0.4313 0.7654
# 5 4.3257 5.2199 11.7311 -0.4313 21.5883 2.9958
# 6 -1.8996 -0.0046 6.4110 0.7654 2.9958 19.8118
#
#
#
# Elastic Compliance Matrix: (Units=1/GPa)
#
#
# Indices 1 2 3 4 5 6 
#
# 1 0.016350 -0.004363 -0.002715 -0.002400 -0.001170 0.002715
# 2 -0.004363 0.014228 -0.002383 -0.001457 -0.001387 0.000622
# 3 -0.002715 -0.002383 0.015311 -0.004197 -0.006724 -0.004037
# 4 -0.002400 -0.001457 -0.004197 0.064001 0.004677 -0.002052
# 5 -0.001170 -0.001387 -0.006724 0.004677 0.051457 -0.005899
# 6 0.002715 0.000622 -0.004037 -0.002052 -0.005899 0.053013
#
#
# Mechanical properties :
#
#
# Convention : Reuss Voigt Hill
#
# Bulk Modulus (GPa) = 37.08229 41.13135 39.10682
# Shear Modulus (GPa) = 20.63817 22.80892 21.72354
#
# Velocity S-wave (km/s) = 3.29356 3.46244 3.37905
# Velocity P-wave (km/s) = 5.82700 6.13216 5.98153
#
# Compressibility (1/GPa) = 0.02696705
#
# Stress axis : x y z
#
# Youngs Moduli (GPa) = 61.16368 70.28463 65.31163
#
# Poissons Ratio (x) = 0.30662 0.17733
# Poissons Ratio (y) = 0.26683 0.15564
# Poissons Ratio (z) = 0.16607 0.16749
#
# Static dielectric constant tensor:
#      x y z
#    x 3.302680 -0.184650 -0.124680 
#    y -0.184650 3.501520 -0.080650 
#    z -0.124680 -0.080650 3.363480 
# 
# 
# High freq. dielectric constant tensor:
#      x y z
#    x 1.723850 -0.014910 -0.008750 
#    y -0.014910 1.751970 -0.003430 
#    z -0.008750 -0.003430 1.731920 
# 
# From -- ./inp_files/543060.got.cif
#   From: 2010.06.25/outbox.cif.g09.slc.cpg/sg2_272_cif.got.tgz:543060.got - 2010.06.27 13:26:56.
