data_PCOD8003729
_publ_section_title
;
Structure prediction by ZEFSAII (Michael W. Deem and Ramdas Pophale) SiO2 
 PCOD8003729
Probable space group: P -1
;
_chemical_formula_sum "Si O2"
_cell_formula_units_Z 16
_cell_length_a 15.095781
_cell_length_b 7.940781
_cell_length_c 9.870765
_cell_angle_alpha 84.608412
_cell_angle_beta 62.456450
_cell_angle_gamma 51.550699
_cell_volume 789.056891
_symmetry_space_group_name_H-M "P -1"
_symmetry_group_IT_number 2
_symmetry_cell_setting 'triclinic'
loop_
_space_group_symop_operation_xyz
x,y,z
-x,-y,-z
loop_
_atom_site_type_symbol
_atom_site_label
_atom_site_fract_x
_atom_site_fract_y
_atom_site_fract_z
Si Si1 0.306744 0.035238 0.990952
Si Si2 0.039571 0.124018 0.740391
Si Si3 0.134451 0.505940 0.576966
Si Si4 0.211463 0.420585 0.232762
Si Si5 0.432962 0.434849 0.143761
Si Si6 0.873221 0.714201 0.146084
Si Si7 0.894179 0.982409 0.751581
Si Si8 0.226501 0.761118 0.446986
O O1 0.249188 0.158324 0.878827
O O2 0.461598 0.827333 0.873336
O O3 0.287010 0.197636 0.107561
O O4 0.241021 0.931350 0.092274
O O5 0.088958 0.134660 0.850902
O O6 0.932465 0.378292 0.742528
O O7 0.174878 0.967713 0.565317
O O8 0.974296 0.010222 0.800279
O O9 0.185368 0.377740 0.406118
O O10 0.169093 0.337207 0.684015
O O11 0.206820 0.603590 0.546729
O O12 0.977025 0.721283 0.674073
O O13 0.305609 0.483141 0.162946
O O14 0.379674 0.597607 0.302461
O O15 0.500000 0.500000 0.000000
O O16 0.000000 0.500000 0.000000
O O17 0.868267 0.126122 0.627542
#
# Coordination Sequence:
#
# PCOD8003729 Si02
#       8
#     2   2   2   2   2   2   2   2
#     4  12  25  40  58  93 132 161 198 242 312 369
#     4  11  20  37  63  92 118 155 206 251 312 344
#     4  10  20  37  60  92 120 155 200 253 307 350
#     4  11  21  38  66  92 119 157 208 255 302 347
#     4  11  22  40  64  91 123 157 206 257 294 353
#     4  12  25  39  56  92 134 160 190 248 315 375
#     4  11  18  36  63  90 123 147 202 263 297 344
#     4  10  20  38  62  94 115 153 208 258 297 344
#
# _framework density 20.277373000000001
#
# number of rings (size 3 to 8) (size 9 to 14) (size 15 to 20)
#    0.000    1.000    7.500    1.125    1.750    1.500 
#    0.000    3.125    0.000    0.000    0.000    0.000 
#    0.000    0.000    0.000    0.000    0.000    0.000 
#
# Total GULP energy -198276.627835 kJ/mol
# GULP energy per Si atom -12392.289240 kJ/mol
# Density = 2.023122 g / cm^3
# Si number density = 20.277373 Si / 1000 Ang^3
#
#
#
# Elastic Constant Matrix: (Units=GPa)
#
#
# Indices 1 2 3 4 5 6 
#
# 1 64.8843 25.9766 43.8216 6.3641 14.0213 6.6996
# 2 25.9766 89.7941 47.0658 28.1849 10.4590 -8.5676
# 3 43.8216 47.0658 109.9230 20.5624 2.6681 -5.8537
# 4 6.3641 28.1849 20.5624 50.4477 0.1590 -6.3792
# 5 14.0213 10.4590 2.6681 0.1590 32.2709 1.8080
# 6 6.6996 -8.5676 -5.8537 -6.3792 1.8080 27.6793
#
#
#
# Elastic Compliance Matrix: (Units=1/GPa)
#
#
# Indices 1 2 3 4 5 6 
#
# 1 0.025523 -0.002423 -0.009541 0.001025 -0.009066 -0.008117
# 2 -0.002423 0.017451 -0.004902 -0.006973 -0.004367 0.003629
# 3 -0.009541 -0.004902 0.015437 -0.001942 0.004281 0.003329
# 4 0.001025 -0.006973 -0.001942 0.024726 0.001698 0.002770
# 5 -0.009066 -0.004367 0.004281 0.001698 0.035991 -0.000212
# 6 -0.008117 0.003629 0.003329 0.002770 -0.000212 0.040572
#
#
# Mechanical properties :
#
#
# Convention : Reuss Voigt Hill
#
# Bulk Modulus (GPa) = 40.52321 55.36991 47.94656
# Shear Modulus (GPa) = 24.79441 31.92873 28.36157
#
# Velocity S-wave (km/s) = 3.50060 3.97243 3.74395
# Velocity P-wave (km/s) = 6.03048 6.95743 6.51047
#
# Compressibility (1/GPa) = 0.02467721
#
# Stress axis : x y z
#
# Youngs Moduli (GPa) = 39.18081 57.30423 64.78039
#
# Poissons Ratio (x) = 0.13882 0.61810
# Poissons Ratio (y) = 0.09492 0.31758
# Poissons Ratio (z) = 0.37384 0.28093
#
# Static dielectric constant tensor:
#      x y z
#    x 3.529370 0.002210 -0.037550 
#    y 0.002210 3.812770 0.343080 
#    z -0.037550 0.343080 3.874290 
# 
# 
# High freq. dielectric constant tensor:
#      x y z
#    x 1.766990 0.019450 -0.006310 
#    y 0.019450 1.789710 0.022180 
#    z -0.006310 0.022180 1.792710 
# 
# From -- ./inp_files/179070.got.cif
#   From: 2010.06.25/outbox.cif.g09.slc.cpg/sg2_90_cif.got.tgz:179070.got - 2010.06.27 13:26:56.
