data_PCOD8003979
_publ_section_title
;
Structure prediction by ZEFSAII (Michael W. Deem and Ramdas Pophale) SiO2 
 PCOD8003979
Probable space group: P -1
;
_chemical_formula_sum "Si O2"
_cell_formula_units_Z 16
_cell_length_a 32.223623
_cell_length_b 9.478951
_cell_length_c 16.019778
_cell_angle_alpha 134.644363
_cell_angle_beta 16.498559
_cell_angle_gamma 143.640259
_cell_volume 750.486880
_symmetry_space_group_name_H-M "P -1"
_symmetry_group_IT_number 2
_symmetry_cell_setting 'triclinic'
loop_
_space_group_symop_operation_xyz
x,y,z
-x,-y,-z
loop_
_atom_site_type_symbol
_atom_site_label
_atom_site_fract_x
_atom_site_fract_y
_atom_site_fract_z
Si Si1 0.282210 0.283486 0.515675
Si Si2 0.774144 0.143689 0.337995
Si Si3 0.970062 0.649078 0.429923
Si Si4 0.179637 0.390837 0.604565
Si Si5 0.282291 0.259914 0.815954
Si Si6 0.975525 0.950441 0.397722
Si Si7 0.913893 0.698034 0.946195
Si Si8 0.468133 0.783003 0.915414
O O1 0.329208 0.433062 0.399499
O O2 0.489790 0.373024 0.174398
O O3 0.222762 0.380785 0.744311
O O4 0.123713 0.972020 0.675117
O O5 0.729277 0.336183 0.500621
O O6 0.723262 0.983743 0.285054
O O7 0.641706 0.929826 0.574967
O O8 0.002664 0.298638 0.970157
O O9 0.088441 0.909564 0.368887
O O10 0.075327 0.530741 0.180566
O O11 0.972414 0.746671 0.373266
O O12 0.746248 0.418478 0.792534
O O13 0.134849 0.190302 0.535206
O O14 0.500000 0.500000 0.500000
O O15 0.171559 0.279195 0.963445
O O16 0.188702 0.209936 0.066218
O O17 0.500000 0.000000 0.000000
#
# Coordination Sequence:
#
# PCOD8003979 Si02
#       8
#     2   2   2   2   2   2   2   2
#     4  11  21  39  62  99 128 161 218 266 307 378
#     4  10  20  37  62  96 121 167 209 264 318 364
#     4  11  25  42  65  92 131 177 206 258 323 392
#     4  10  21  38  66  92 126 167 218 263 316 371
#     4  11  22  42  67  97 128 163 213 268 313 381
#     4  10  23  43  63  89 133 174 209 253 330 382
#     4  11  22  40  66  95 127 166 214 261 319 377
#     4  12  22  37  63  96 129 166 212 260 317 373
#
# _framework density 21.319493999999999
#
# number of rings (size 3 to 8) (size 9 to 14) (size 15 to 20)
#    0.000    1.250    5.000    2.250    5.250    0.500 
#    0.000    6.875    0.000    0.000    0.000    0.000 
#    0.000    0.000    0.000    0.000    0.000    0.000 
#
# Total GULP energy -198216.916726 kJ/mol
# GULP energy per Si atom -12388.557295 kJ/mol
# Density = 2.127097 g / cm^3
# Si number density = 21.319494 Si / 1000 Ang^3
#
#
#
# Elastic Constant Matrix: (Units=GPa)
#
#
# Indices 1 2 3 4 5 6 
#
# 1 90.4222 37.4874 31.0888 13.1498 11.1698 -6.6951
# 2 37.4874 124.4417 25.2319 25.9069 -7.2782 -3.1021
# 3 31.0888 25.2319 54.1081 9.0890 -5.0740 -2.5412
# 4 13.1498 25.9069 9.0890 34.8217 -0.9509 6.3424
# 5 11.1698 -7.2782 -5.0740 -0.9509 27.3426 0.5976
# 6 -6.6951 -3.1021 -2.5412 6.3424 0.5976 23.3273
#
#
#
# Elastic Compliance Matrix: (Units=1/GPa)
#
#
# Indices 1 2 3 4 5 6 
#
# 1 0.017399 -0.003330 -0.008648 -0.002952 -0.009804 0.004662
# 2 -0.003330 0.011064 -0.001653 -0.006823 0.003716 0.002095
# 3 -0.008648 -0.001653 0.025293 -0.001967 0.007710 0.000391
# 4 -0.002952 -0.006823 -0.001967 0.037665 0.000602 -0.012225
# 5 -0.009804 0.003716 0.007710 0.000602 0.043079 -0.002747
# 6 0.004662 0.002095 0.000391 -0.012225 -0.002747 0.047922
#
#
# Mechanical properties :
#
#
# Convention : Reuss Voigt Hill
#
# Bulk Modulus (GPa) = 37.74601 50.73201 44.23901
# Shear Modulus (GPa) = 22.88159 28.77592 25.82876
#
# Velocity S-wave (km/s) = 3.27964 3.67788 3.48445
# Velocity P-wave (km/s) = 5.66434 6.47174 6.08145
#
# Compressibility (1/GPa) = 0.02649287
#
# Stress axis : x y z
#
# Youngs Moduli (GPa) = 57.47467 90.38115 39.53639
#
# Poissons Ratio (x) = 0.30100 0.34192
# Poissons Ratio (y) = 0.19141 0.06536
# Poissons Ratio (z) = 0.49706 0.14941
#
# Static dielectric constant tensor:
#      x y z
#    x 4.089480 0.098070 0.120160 
#    y 0.098070 3.998930 0.074520 
#    z 0.120160 0.074520 3.847720 
# 
# 
# High freq. dielectric constant tensor:
#      x y z
#    x 1.834110 0.000050 0.019220 
#    y 0.000050 1.842660 0.008360 
#    z 0.019220 0.008360 1.817950 
# 
# From -- ./inp_files/544844.got.cif
#   From: 2010.06.25/outbox.cif.g09.slc.cpg/sg2_273_cif.got.tgz:544844.got - 2010.06.27 13:26:56.
