data_PCOD8003024
_publ_section_title
;
Structure prediction by ZEFSAII (Michael W. Deem and Ramdas Pophale) SiO2 
 PCOD8003024
Probable space group: P -1
;
_chemical_formula_sum "Si O2"
_cell_formula_units_Z 16
_cell_length_a 11.840976
_cell_length_b 9.006092
_cell_length_c 17.158485
_cell_angle_alpha 111.799157
_cell_angle_beta 38.081944
_cell_angle_gamma 84.023239
_cell_volume 756.237445
_symmetry_space_group_name_H-M "P -1"
_symmetry_group_IT_number 2
_symmetry_cell_setting 'triclinic'
loop_
_space_group_symop_operation_xyz
x,y,z
-x,-y,-z
loop_
_atom_site_type_symbol
_atom_site_label
_atom_site_fract_x
_atom_site_fract_y
_atom_site_fract_z
Si Si1 0.679777 0.608234 0.200907
Si Si2 0.948908 0.111310 0.967438
Si Si3 0.968278 0.225010 0.594724
Si Si4 0.434055 0.772584 0.206500
Si Si5 0.233525 0.003261 0.086895
Si Si6 0.309869 0.315873 0.110073
Si Si7 0.890625 0.006946 0.370639
Si Si8 0.233587 0.139054 0.712294
O O1 0.646629 0.663220 0.137051
O O2 0.854256 0.643467 0.154363
O O3 0.408944 0.785552 0.424182
O O4 0.784675 0.370977 0.116512
O O5 0.791049 0.080216 0.995870
O O6 0.214990 0.006057 0.761172
O O7 0.000000 0.000000 0.000000
O O8 0.719735 0.299016 0.702571
O O9 0.925476 0.433572 0.683521
O O10 0.989366 0.093831 0.631153
O O11 0.233660 0.044656 0.368415
O O12 0.562433 0.682300 0.034757
O O13 0.013790 0.090688 0.283963
O O14 0.201485 0.209225 0.124553
O O15 0.503224 0.806418 0.941788
O O16 0.954990 0.809787 0.243705
O O17 0.500000 0.000000 0.500000
#
# Coordination Sequence:
#
# PCOD8003024 Si02
#       8
#     2   2   2   2   2   2   2   2
#     4  10  21  38  62  88 115 155 197 255 300 350
#     4  11  24  40  61  87 123 158 198 252 307 361
#     4  10  20  36  61  92 113 154 201 246 298 348
#     4  10  21  35  63  93 118 145 210 249 290 363
#     4  10  23  41  54  86 124 159 195 237 307 362
#     4  11  22  38  62  86 124 163 195 244 300 363
#     4   9  19  39  59  84 119 151 195 249 298 357
#     4   9  20  39  62  85 114 154 203 249 295 357
#
# _framework density 21.157375999999999
#
# number of rings (size 3 to 8) (size 9 to 14) (size 15 to 20)
#    0.000    2.000    1.250    1.500    5.250    1.000 
#    2.250    6.875    0.000    0.000    0.000    0.000 
#    0.000    0.000    0.000    0.000    0.000    0.000 
#
# Total GULP energy -198265.832358 kJ/mol
# GULP energy per Si atom -12391.614522 kJ/mol
# Density = 2.110922 g / cm^3
# Si number density = 21.157376 Si / 1000 Ang^3
#
#
#
# Elastic Constant Matrix: (Units=GPa)
#
#
# Indices 1 2 3 4 5 6 
#
# 1 117.8905 45.5040 26.4085 7.0412 7.7408 13.5144
# 2 45.5040 94.9897 32.1467 10.8274 6.0418 13.6197
# 3 26.4085 32.1467 57.3747 11.8651 19.4515 7.1357
# 4 7.0412 10.8274 11.8651 32.6189 6.8794 8.0912
# 5 7.7408 6.0418 19.4515 6.8794 28.5534 2.8232
# 6 13.5144 13.6197 7.1357 8.0912 2.8232 38.1464
#
#
#
# Elastic Compliance Matrix: (Units=1/GPa)
#
#
# Indices 1 2 3 4 5 6 
#
# 1 0.010836 -0.004121 -0.002414 0.000472 -0.000338 -0.001991
# 2 -0.004121 0.015259 -0.007148 -0.001662 0.003410 -0.002551
# 3 -0.002414 -0.007148 0.029031 -0.004186 -0.016610 0.000094
# 4 0.000472 -0.001662 -0.004186 0.035101 -0.004800 -0.005881
# 5 -0.000338 0.003410 -0.016610 -0.004800 0.046908 -0.000444
# 6 -0.001991 -0.002551 0.000094 -0.005881 -0.000444 0.029094
#
#
# Mechanical properties :
#
#
# Convention : Reuss Voigt Hill
#
# Bulk Modulus (GPa) = 36.02335 53.15261 44.58798
# Shear Modulus (GPa) = 24.64911 30.94346 27.79629
#
# Velocity S-wave (km/s) = 3.41697 3.82846 3.62855
# Velocity P-wave (km/s) = 5.71235 6.68729 6.21895
#
# Compressibility (1/GPa) = 0.02775977
#
# Stress axis : x y z
#
# Youngs Moduli (GPa) = 92.28464 65.53626 34.44606
#
# Poissons Ratio (x) = 0.27005 0.08316
# Poissons Ratio (y) = 0.38028 0.24622
# Poissons Ratio (z) = 0.22280 0.46845
#
# Static dielectric constant tensor:
#      x y z
#    x 4.381310 0.249100 0.268940 
#    y 0.249100 3.647300 -0.072030 
#    z 0.268940 -0.072030 4.059280 
# 
# 
# High freq. dielectric constant tensor:
#      x y z
#    x 1.854150 0.013280 0.013960 
#    y 0.013280 1.799880 -0.008190 
#    z 0.013960 -0.008190 1.829630 
# 
# From -- ./inp_files/237584.got.cif
#   From: 2010.06.25/outbox.cif.g09.slc.cpg/sg2_119_cif.got.tgz:237584.got - 2010.06.27 13:26:56.
