data_PCOD8003847
_publ_section_title
;
Structure prediction by ZEFSAII (Michael W. Deem and Ramdas Pophale) SiO2 
 PCOD8003847
Probable space group: P -1
;
_chemical_formula_sum "Si O2"
_cell_formula_units_Z 16
_cell_length_a 12.856863
_cell_length_b 12.067440
_cell_length_c 8.507059
_cell_angle_alpha 87.064820
_cell_angle_beta 64.661607
_cell_angle_gamma 134.796871
_cell_volume 706.946290
_symmetry_space_group_name_H-M "P -1"
_symmetry_group_IT_number 2
_symmetry_cell_setting 'triclinic'
loop_
_space_group_symop_operation_xyz
x,y,z
-x,-y,-z
loop_
_atom_site_type_symbol
_atom_site_label
_atom_site_fract_x
_atom_site_fract_y
_atom_site_fract_z
Si Si1 0.776773 0.926032 0.435746
Si Si2 0.198631 0.304461 0.122072
Si Si3 0.597375 0.561810 0.700208
Si Si4 0.610643 0.998572 0.713233
Si Si5 0.069959 0.443060 0.160663
Si Si6 0.539185 0.304881 0.587097
Si Si7 0.275585 0.725880 0.737653
Si Si8 0.656137 0.262057 0.806559
O O1 0.665398 0.737163 0.600000
O O2 0.761261 0.021898 0.553674
O O3 0.676149 0.868519 0.336179
O O4 0.005564 0.077307 0.257767
O O5 0.270253 0.379582 0.247789
O O6 0.139240 0.374470 0.075283
O O7 0.370177 0.382830 0.906145
O O8 0.613403 0.489216 0.548996
O O9 0.475711 0.933645 0.658163
O O10 0.712607 0.185799 0.705516
O O11 0.480604 0.843550 0.944874
O O12 0.139184 0.525484 0.287214
O O13 0.834618 0.271044 0.306136
O O14 0.150184 0.599004 0.980855
O O15 0.690464 0.362501 0.370115
O O16 0.537510 0.243384 0.760621
#
# Coordination Sequence:
#
# PCOD8003847 Si02
#       8
#     2   2   2   2   2   2   2   2
#     4  11  25  42  68  97 126 171 219 263 321 381
#     4  11  24  41  71  94 122 178 216 265 316 385
#     4  11  24  46  65  92 134 166 218 273 315 368
#     4   9  21  39  61  90 132 166 205 267 317 382
#     4  10  20  40  60  94 128 168 215 255 323 385
#     4  11  23  39  66  94 127 172 209 268 323 382
#     4   9  21  37  63  91 131 168 204 265 324 380
#     4  10  20  37  61  92 129 173 205 256 329 373
#
# _framework density 22.632555
#
# number of rings (size 3 to 8) (size 9 to 14) (size 15 to 20)
#    0.000    1.750    1.250    3.000    5.250    3.000 
#    0.000    0.000    0.000    0.000    0.000    0.000 
#    0.000    0.000    0.000    0.000    0.000    0.000 
#
# Total GULP energy -198381.759129 kJ/mol
# GULP energy per Si atom -12398.859946 kJ/mol
# Density = 2.258104 g / cm^3
# Si number density = 22.632555 Si / 1000 Ang^3
#
#
#
# Elastic Constant Matrix: (Units=GPa)
#
#
# Indices 1 2 3 4 5 6 
#
# 1 118.9332 38.6397 37.3982 -1.0177 -13.3655 20.4275
# 2 38.6397 99.8865 39.7195 10.5837 -15.8167 7.6877
# 3 37.3982 39.7195 55.4037 0.9596 -6.6437 19.8896
# 4 -1.0177 10.5837 0.9596 35.4246 3.6247 -8.1654
# 5 -13.3655 -15.8167 -6.6437 3.6247 28.4984 -1.0527
# 6 20.4275 7.6877 19.8896 -8.1654 -1.0527 39.5440
#
#
#
# Elastic Compliance Matrix: (Units=1/GPa)
#
#
# Indices 1 2 3 4 5 6 
#
# 1 0.011401 -0.001669 -0.005067 -0.000035 0.003135 -0.002940
# 2 -0.001669 0.016131 -0.010343 -0.004758 0.006442 0.002117
# 3 -0.005067 -0.010343 0.033201 -0.000699 -0.000740 -0.012235
# 4 -0.000035 -0.004758 -0.000699 0.032133 -0.006621 0.007754
# 5 0.003135 0.006442 -0.000740 -0.006621 0.040702 -0.002783
# 6 -0.002940 0.002117 -0.012235 0.007754 -0.002783 0.034076
#
#
# Mechanical properties :
#
#
# Convention : Reuss Voigt Hill
#
# Bulk Modulus (GPa) = 37.63126 56.19313 46.91220
# Shear Modulus (GPa) = 23.73484 31.25779 27.49632
#
# Velocity S-wave (km/s) = 3.24188 3.72035 3.48932
# Velocity P-wave (km/s) = 5.53861 6.58308 6.08330
#
# Compressibility (1/GPa) = 0.02657365
#
# Stress axis : x y z
#
# Youngs Moduli (GPa) = 87.71472 61.99132 30.11996
#
# Poissons Ratio (x) = 0.10345 0.15262
# Poissons Ratio (y) = 0.14638 0.31154
# Poissons Ratio (z) = 0.44447 0.64120
#
# Static dielectric constant tensor:
#      x y z
#    x 4.262480 0.346380 0.020100 
#    y 0.346380 4.261810 0.028950 
#    z 0.020100 0.028950 3.873650 
# 
# 
# High freq. dielectric constant tensor:
#      x y z
#    x 1.902760 0.009660 0.006080 
#    y 0.009660 1.896220 0.002830 
#    z 0.006080 0.002830 1.879590 
# 
# From -- ./inp_files/262526.got.cif
#   From: 2010.06.25/outbox.cif.g09.slc.cpg/sg2_132_cif.got.tgz:262526.got - 2010.06.27 13:26:56.
