data_PCOD8003519
_publ_section_title
;
Structure prediction by ZEFSAII (Michael W. Deem and Ramdas Pophale) SiO2 
 PCOD8003519
Probable space group: P -1
;
_chemical_formula_sum "Si O2"
_cell_formula_units_Z 16
_cell_length_a 11.888045
_cell_length_b 15.732218
_cell_length_c 10.164223
_cell_angle_alpha 25.076514
_cell_angle_beta 66.064989
_cell_angle_gamma 68.235435
_cell_volume 736.372375
_symmetry_space_group_name_H-M "P -1"
_symmetry_group_IT_number 2
_symmetry_cell_setting 'triclinic'
loop_
_space_group_symop_operation_xyz
x,y,z
-x,-y,-z
loop_
_atom_site_type_symbol
_atom_site_label
_atom_site_fract_x
_atom_site_fract_y
_atom_site_fract_z
Si Si1 0.892256 0.164339 0.857638
Si Si2 0.976463 0.840144 0.944093
Si Si3 0.636458 0.244547 0.783991
Si Si4 0.187173 0.254334 0.494409
Si Si5 0.365456 0.294380 0.876215
Si Si6 0.712266 0.882105 0.104722
Si Si7 0.021570 0.479432 0.825942
Si Si8 0.836780 0.821652 0.672182
O O1 0.742742 0.170009 0.938832
O O2 0.913896 0.304708 0.523184
O O3 0.954948 0.259855 0.822910
O O4 0.917212 0.918622 0.173873
O O5 0.849795 0.943136 0.908664
O O6 0.935233 0.672151 0.096595
O O7 0.071277 0.992430 0.617184
O O8 0.504592 0.233614 0.935256
O O9 0.659683 0.472649 0.405884
O O10 0.639505 0.090807 0.873248
O O11 0.284311 0.252013 0.571665
O O12 0.234128 0.185063 0.424984
O O13 0.124130 0.473332 0.193759
O O14 0.354334 0.251199 0.785980
O O15 0.268118 0.163775 0.187487
O O16 0.071398 0.375312 0.082552
#
# Coordination Sequence:
#
# PCOD8003519 Si02
#       8
#     2   2   2   2   2   2   2   2
#     4  10  20  37  58  93 119 159 201 255 305 369
#     4  11  23  36  62  95 129 157 205 253 325 374
#     4  10  23  39  68  91 117 170 216 259 297 368
#     4  10  24  36  59  93 126 163 204 248 318 379
#     4  11  23  43  64  92 123 165 220 252 308 366
#     4  11  22  41  66  91 126 160 211 257 305 379
#     4  12  20  35  60  92 126 164 200 250 314 381
#     4  11  24  39  56  94 134 161 198 263 318 367
#
# _framework density 21.728138000000001
#
# number of rings (size 3 to 8) (size 9 to 14) (size 15 to 20)
#    0.000    1.250    3.750    1.875    7.000    1.000 
#    0.000    5.625    0.000    3.000    0.000    0.000 
#    0.000    0.000    0.000    0.000    0.000    0.000 
#
# Total GULP energy -198233.304537 kJ/mol
# GULP energy per Si atom -12389.581534 kJ/mol
# Density = 2.167868 g / cm^3
# Si number density = 21.728138 Si / 1000 Ang^3
#
#
#
# Elastic Constant Matrix: (Units=GPa)
#
#
# Indices 1 2 3 4 5 6 
#
# 1 71.7192 19.7671 24.4258 2.0039 6.5366 -2.0330
# 2 19.7671 77.0450 29.0788 -10.4615 8.1003 2.6969
# 3 24.4258 29.0788 95.2092 -0.3337 11.8237 -5.9685
# 4 2.0039 -10.4615 -0.3337 34.2720 -1.6435 6.0690
# 5 6.5366 8.1003 11.8237 -1.6435 21.6165 4.3084
# 6 -2.0330 2.6969 -5.9685 6.0690 4.3084 39.7787
#
#
#
# Elastic Compliance Matrix: (Units=1/GPa)
#
#
# Indices 1 2 3 4 5 6 
#
# 1 0.016094 -0.003165 -0.002771 -0.002279 -0.002588 0.001249
# 2 -0.003165 0.016376 -0.004074 0.005489 -0.002035 -0.002500
# 3 -0.002771 -0.004074 0.013346 -0.001758 -0.005671 0.003020
# 4 -0.002279 0.005489 -0.001758 0.032191 0.003240 -0.006015
# 5 -0.002588 -0.002035 -0.005671 0.003240 0.052556 -0.007032
# 6 0.001249 -0.002500 0.003020 -0.006015 -0.007032 0.027505
#
#
# Mechanical properties :
#
#
# Convention : Reuss Voigt Hill
#
# Bulk Modulus (GPa) = 38.76515 43.39075 41.07795
# Shear Modulus (GPa) = 26.78303 30.51353 28.64828
#
# Velocity S-wave (km/s) = 3.51471 3.75151 3.63504
# Velocity P-wave (km/s) = 5.86094 6.22722 6.04686
#
# Compressibility (1/GPa) = 0.02579636
#
# Stress axis : x y z
#
# Youngs Moduli (GPa) = 62.13469 61.06486 74.93006
#
# Poissons Ratio (x) = 0.19325 0.20761
# Poissons Ratio (y) = 0.19663 0.30530
# Poissons Ratio (z) = 0.17216 0.24881
#
# Static dielectric constant tensor:
#      x y z
#    x 4.017880 -0.004540 0.297270 
#    y -0.004540 3.894300 -0.094580 
#    z 0.297270 -0.094580 3.929460 
# 
# 
# High freq. dielectric constant tensor:
#      x y z
#    x 1.847150 0.003510 0.017040 
#    y 0.003510 1.851050 -0.014630 
#    z 0.017040 -0.014630 1.840930 
# 
# From -- ./inp_files/436286.got.cif
#   From: 2010.06.25/outbox.cif.g09.slc.cpg/sg2_219_cif.got.tgz:436286.got - 2010.06.27 13:26:56.
