data_PCOD8003815
_publ_section_title
;
Structure prediction by ZEFSAII (Michael W. Deem and Ramdas Pophale) SiO2 
 PCOD8003815
Probable space group: P -1
;
_chemical_formula_sum "Si O2"
_cell_formula_units_Z 14
_cell_length_a 12.580679
_cell_length_b 14.784294
_cell_length_c 12.580708
_cell_angle_alpha 160.892564
_cell_angle_beta 58.260668
_cell_angle_gamma 122.792800
_cell_volume 643.028605
_symmetry_space_group_name_H-M "P -1"
_symmetry_group_IT_number 2
_symmetry_cell_setting 'triclinic'
loop_
_space_group_symop_operation_xyz
x,y,z
-x,-y,-z
loop_
_atom_site_type_symbol
_atom_site_label
_atom_site_fract_x
_atom_site_fract_y
_atom_site_fract_z
Si Si1 0.560986 0.071775 0.933107
Si Si2 0.138668 0.428222 0.867236
Si Si3 0.441035 0.491239 0.314761
Si Si4 0.823522 0.991242 0.432277
Si Si5 0.907186 0.829790 0.607525
Si Si6 0.423279 0.250000 0.826721
Si Si7 0.222265 0.670210 0.763024
O O1 0.547341 0.769364 0.544456
O O2 0.500000 0.000000 0.000000
O O3 0.488364 0.287359 0.149142
O O4 0.703871 0.221224 0.045786
O O5 0.138216 0.212634 0.724269
O O6 0.175438 0.278775 0.574904
O O7 0.000000 0.500000 0.000000
O O8 0.224908 0.730632 0.183292
O O9 0.314304 0.591462 0.535732
O O10 0.407191 0.326579 0.042064
O O11 0.715485 0.826577 0.233769
O O12 0.944269 0.091463 0.405766
O O13 0.885725 0.589135 0.440045
O O14 0.850911 0.089135 0.974860
O O15 0.500000 0.000000 0.500000
O O16 0.500000 0.500000 0.000000
#
# Coordination Sequence:
#
# PCOD8003815 Si02
#       7
#     2   2   2   2   2   2   2
#     4  10  20  37  61  89 124 161 197 248 309 361
#     4  10  20  37  61  89 124 161 197 248 309 361
#     4  11  23  42  61  89 128 162 206 260 303 361
#     4  11  23  42  61  89 128 162 206 260 303 361
#     4  11  21  35  60  94 124 155 193 243 311 378
#     4  12  28  46  66  88 118 168 222 262 304 362
#     4  11  21  35  60  94 124 155 193 243 311 378
#
# _framework density 21.771972000000002
#
# number of rings (size 3 to 8) (size 9 to 14) (size 15 to 20)
#    0.000    1.143    0.000   10.286    0.000    6.857 
#    0.000    1.429    0.000    0.000    0.000    0.000 
#    0.000    0.000    0.000    0.000    0.000    0.000 
#
# Total GULP energy -173585.932856 kJ/mol
# GULP energy per Si atom -12398.995204 kJ/mol
# Density = 2.172242 g / cm^3
# Si number density = 21.771972 Si / 1000 Ang^3
#
#
#
# Elastic Constant Matrix: (Units=GPa)
#
#
# Indices 1 2 3 4 5 6 
#
# 1 83.2897 38.7421 46.3333 6.0056 9.7234 6.9205
# 2 38.7421 91.7546 55.8283 22.0022 1.2094 0.5819
# 3 46.3333 55.8283 154.6176 13.2334 -3.6009 -4.5862
# 4 6.0056 22.0022 13.2334 46.5946 -7.2370 1.1766
# 5 9.7234 1.2094 -3.6009 -7.2370 37.3356 10.0894
# 6 6.9205 0.5819 -4.5862 1.1766 10.0894 25.6405
#
#
#
# Elastic Compliance Matrix: (Units=1/GPa)
#
#
# Indices 1 2 3 4 5 6 
#
# 1 0.017015 -0.005188 -0.003487 0.000812 -0.003418 -0.003791
# 2 -0.005188 0.017124 -0.004071 -0.006462 -0.001125 0.001023
# 3 -0.003487 -0.004071 0.009082 -0.000055 0.001327 0.002138
# 4 0.000812 -0.006462 -0.000055 0.025428 0.005885 -0.003565
# 5 -0.003418 -0.001125 0.001327 0.005885 0.032151 -0.011736
# 6 -0.003791 0.001023 0.002138 -0.003565 -0.011736 0.045165
#
#
# Mechanical properties :
#
#
# Convention : Reuss Voigt Hill
#
# Bulk Modulus (GPa) = 56.40860 67.94105 62.17483
# Shear Modulus (GPa) = 28.19030 34.49802 31.34416
#
# Velocity S-wave (km/s) = 3.60223 3.98492 3.79840
# Velocity P-wave (km/s) = 6.57773 7.24198 6.91783
#
# Compressibility (1/GPa) = 0.01772779
#
# Stress axis : x y z
#
# Youngs Moduli (GPa) = 58.77265 58.39658 110.11368
#
# Poissons Ratio (x) = 0.30298 0.38395
# Poissons Ratio (y) = 0.30493 0.44830
# Poissons Ratio (z) = 0.20493 0.23774
#
# Static dielectric constant tensor:
#      x y z
#    x 3.794380 0.112980 0.190680 
#    y 0.112980 3.909650 0.322350 
#    z 0.190680 0.322350 4.688010 
# 
# 
# High freq. dielectric constant tensor:
#      x y z
#    x 1.832270 0.007290 -0.012330 
#    y 0.007290 1.858880 0.020280 
#    z -0.012330 0.020280 1.877120 
# 
# From -- ./inp_files/434387.got.cif
#   From: 2010.06.25/outbox.cif.g09.slc.cpg/sg2_218_cif.got.tgz:434387.got - 2010.06.27 13:26:56.
