data_PCOD8003199
_publ_section_title
;
Structure prediction by ZEFSAII (Michael W. Deem and Ramdas Pophale) SiO2 
 PCOD8003199
Probable space group: P -1
;
_chemical_formula_sum "Si O2"
_cell_formula_units_Z 16
_cell_length_a 9.087182
_cell_length_b 12.014804
_cell_length_c 9.267778
_cell_angle_alpha 90.960818
_cell_angle_beta 93.211473
_cell_angle_gamma 49.502687
_cell_volume 767.992429
_symmetry_space_group_name_H-M "P -1"
_symmetry_group_IT_number 2
_symmetry_cell_setting 'triclinic'
loop_
_space_group_symop_operation_xyz
x,y,z
-x,-y,-z
loop_
_atom_site_type_symbol
_atom_site_label
_atom_site_fract_x
_atom_site_fract_y
_atom_site_fract_z
Si Si1 0.082526 0.149811 0.750998
Si Si2 0.056049 0.520731 0.658130
Si Si3 0.935828 0.155922 0.017905
Si Si4 0.314322 0.283496 0.175866
Si Si5 0.705365 0.190715 0.253007
Si Si6 0.724502 0.943335 0.774226
Si Si7 0.039357 0.775048 0.571346
Si Si8 0.665764 0.762765 0.161507
O O1 0.232558 0.169128 0.810117
O O2 0.906529 0.226431 0.860583
O O3 0.983131 0.233272 0.599123
O O4 0.192766 0.978923 0.746600
O O5 0.094554 0.632963 0.649604
O O6 0.249641 0.369438 0.726464
O O7 0.000000 0.500000 0.500000
O O8 0.889456 0.576022 0.767782
O O9 0.749259 0.244478 0.113366
O O10 0.111977 0.138455 0.096417
O O11 0.000000 0.000000 0.000000
O O12 0.475287 0.288224 0.250132
O O13 0.367549 0.134624 0.234350
O O14 0.314846 0.288438 0.002595
O O15 0.790502 0.218179 0.393568
O O16 0.832070 0.919593 0.627960
O O17 0.560116 0.114392 0.804748
#
# Coordination Sequence:
#
# PCOD8003199 Si02
#       8
#     2   2   2   2   2   2   2   2
#     4  11  19  34  64  95 123 159 204 252 311 361
#     4  11  25  44  62  89 127 168 206 252 305 372
#     4   9  18  33  57  93 123 152 192 256 309 352
#     4  11  22  40  66  94 121 160 210 257 307 362
#     4  10  21  39  63  92 126 158 203 259 310 360
#     4  10  20  36  63  96 122 154 205 261 302 359
#     4  10  23  41  63  89 130 167 203 247 312 370
#     4  12  21  37  66  96 123 157 211 254 309 359
#
# _framework density 20.833538000000001
#
# number of rings (size 3 to 8) (size 9 to 14) (size 15 to 20)
#    0.000    1.500    3.750    2.625    0.000    1.500 
#    0.000    2.500    8.250    0.000    0.000    0.000 
#    0.000    0.000    0.000    0.000    0.000    0.000 
#
# Total GULP energy -198344.022150 kJ/mol
# GULP energy per Si atom -12396.501384 kJ/mol
# Density = 2.078612 g / cm^3
# Si number density = 20.833538 Si / 1000 Ang^3
#
#
#
# Elastic Constant Matrix: (Units=GPa)
#
#
# Indices 1 2 3 4 5 6 
#
# 1 123.5492 24.2328 36.1866 -3.1017 7.8025 2.2693
# 2 24.2328 77.1623 24.9381 -1.4499 -9.2440 -6.9235
# 3 36.1866 24.9381 111.2508 -4.3070 -3.4718 -11.3472
# 4 -3.1017 -1.4499 -4.3070 27.0402 7.3522 1.1789
# 5 7.8025 -9.2440 -3.4718 7.3522 27.2483 2.9593
# 6 2.2693 -6.9235 -11.3472 1.1789 2.9593 23.1338
#
#
#
# Elastic Compliance Matrix: (Units=1/GPa)
#
#
# Indices 1 2 3 4 5 6 
#
# 1 0.009892 -0.002905 -0.002918 0.001827 -0.004379 -0.002804
# 2 -0.002905 0.015512 -0.002079 -0.001579 0.005904 0.003233
# 3 -0.002918 -0.002079 0.010961 0.000880 0.000757 0.004899
# 4 0.001827 -0.001579 0.000880 0.040486 -0.011786 -0.000776
# 5 -0.004379 0.005904 0.000757 -0.011786 0.043493 -0.002395
# 6 -0.002804 0.003233 0.004899 -0.000776 -0.002395 0.047218
#
#
# Mechanical properties :
#
#
# Convention : Reuss Voigt Hill
#
# Bulk Modulus (GPa) = 48.63897 53.63082 51.13489
# Shear Modulus (GPa) = 26.28507 30.59144 28.43826
#
# Velocity S-wave (km/s) = 3.55585 3.83609 3.69863
# Velocity P-wave (km/s) = 6.34476 6.73938 6.54504
#
# Compressibility (1/GPa) = 0.02055965
#
# Stress axis : x y z
#
# Youngs Moduli (GPa) = 101.08708 64.46683 91.22883
#
# Poissons Ratio (x) = 0.18730 0.26624
# Poissons Ratio (y) = 0.29370 0.18969
# Poissons Ratio (z) = 0.29501 0.13404
#
# Static dielectric constant tensor:
#      x y z
#    x 3.934660 0.113550 -0.165500 
#    y 0.113550 3.483890 0.165060 
#    z -0.165500 0.165060 3.994510 
# 
# 
# High freq. dielectric constant tensor:
#      x y z
#    x 1.822740 0.015550 -0.001600 
#    y 0.015550 1.780520 0.011060 
#    z -0.001600 0.011060 1.824510 
# 
# From -- ./inp_files/184162.got.cif
#   From: 2010.06.25/outbox.cif.g09.slc.cpg/sg2_93_cif.got.tgz:184162.got - 2010.06.27 13:26:56.
