data_PCOD8003004
_publ_section_title
;
Structure prediction by ZEFSAII (Michael W. Deem and Ramdas Pophale) SiO2 
 PCOD8003004
Probable space group: P -1
;
_chemical_formula_sum "Si O2"
_cell_formula_units_Z 12
_cell_length_a 4.885684
_cell_length_b 10.330068
_cell_length_c 18.414996
_cell_angle_alpha 140.797806
_cell_angle_beta 88.344830
_cell_angle_gamma 89.387792
_cell_volume 586.382331
_symmetry_space_group_name_H-M "P -1"
_symmetry_group_IT_number 2
_symmetry_cell_setting 'triclinic'
loop_
_space_group_symop_operation_xyz
x,y,z
-x,-y,-z
loop_
_atom_site_type_symbol
_atom_site_label
_atom_site_fract_x
_atom_site_fract_y
_atom_site_fract_z
Si Si1 0.784551 0.124453 0.970092
Si Si2 0.877660 0.286351 0.886532
Si Si3 0.941707 0.678955 0.318770
Si Si4 0.386382 0.198759 0.756473
Si Si5 0.729856 0.734564 0.884776
Si Si6 0.305328 0.050329 0.456984
O O1 0.758369 0.166542 0.903312
O O2 0.730349 0.885853 0.880949
O O3 0.575592 0.270511 0.082897
O O4 0.088952 0.174639 0.013248
O O5 0.129548 0.153771 0.790217
O O6 0.378219 0.677255 0.150706
O O7 0.000000 0.500000 0.000000
O O8 0.159294 0.488528 0.238805
O O9 0.076640 0.884632 0.380383
O O10 0.708841 0.654096 0.247401
O O11 0.825691 0.722431 0.421418
O O12 0.517136 0.975971 0.630254
O O13 0.500000 0.000000 0.500000
#
# Coordination Sequence:
#
# PCOD8003004 Si02
#       6
#     2   2   2   2   2   2
#     4  10  23  40  55  87 114 158 198 227 286 338
#     4  12  24  35  57  84 122 159 193 230 287 355
#     4  10  20  36  61  89 112 150 194 241 300 328
#     4  11  22  37  55  86 122 151 182 244 289 345
#     4  10  22  39  62  79 118 151 195 247 272 343
#     4   9  20  35  57  90 115 144 191 244 296 340
#
# _framework density 20.464461
#
# number of rings (size 3 to 8) (size 9 to 14) (size 15 to 20)
#    0.000    1.667    1.667    2.500    7.000    0.000 
#    0.000    0.000    0.000    2.000    0.000    0.000 
#    0.000    0.000    0.000    0.000    0.000    0.000 
#
# Total GULP energy -148682.122075 kJ/mol
# GULP energy per Si atom -12390.176840 kJ/mol
# Density = 2.041788 g / cm^3
# Si number density = 20.464461 Si / 1000 Ang^3
#
#
#
# Elastic Constant Matrix: (Units=GPa)
#
#
# Indices 1 2 3 4 5 6 
#
# 1 100.0922 30.1824 25.5574 -4.2000 -0.4038 -6.7629
# 2 30.1824 86.5390 66.8235 -10.7209 -11.7506 -0.3776
# 3 25.5574 66.8235 129.4916 -5.7239 -31.1835 -5.7291
# 4 -4.2000 -10.7209 -5.7239 21.3397 -1.5471 -7.3080
# 5 -0.4038 -11.7506 -31.1835 -1.5471 43.8482 -7.2611
# 6 -6.7629 -0.3776 -5.7291 -7.3080 -7.2611 24.8588
#
#
#
# Elastic Compliance Matrix: (Units=1/GPa)
#
#
# Indices 1 2 3 4 5 6 
#
# 1 0.011442 -0.003644 -0.000286 0.001430 -0.000483 0.003271
# 2 -0.003644 0.021621 -0.010684 0.006540 -0.001898 -0.001757
# 3 -0.000286 -0.010684 0.016026 0.001932 0.009737 0.006865
# 4 0.001430 0.006540 0.001932 0.058662 0.008638 0.020702
# 5 -0.000483 -0.001898 0.009737 0.008638 0.031827 0.013920
# 6 0.003271 -0.001757 0.006865 0.020702 0.013920 0.052825
#
#
# Mechanical properties :
#
#
# Convention : Reuss Voigt Hill
#
# Bulk Modulus (GPa) = 50.34896 62.36104 56.35500
# Shear Modulus (GPa) = 21.90573 30.91330 26.40952
#
# Velocity S-wave (km/s) = 3.27529 3.89084 3.59626
# Velocity P-wave (km/s) = 6.24179 7.12207 6.69641
#
# Compressibility (1/GPa) = 0.01986138
#
# Stress axis : x y z
#
# Youngs Moduli (GPa) = 87.40011 46.25120 62.39757
#
# Poissons Ratio (x) = 0.16852 0.01786
# Poissons Ratio (y) = 0.31846 0.66665
# Poissons Ratio (z) = 0.02501 0.49414
#
# Static dielectric constant tensor:
#      x y z
#    x 2.087950 0.125480 -0.678410 
#    y 0.125480 3.410310 -0.348940 
#    z -0.678410 -0.348940 4.358860 
# 
# 
# High freq. dielectric constant tensor:
#      x y z
#    x 1.830770 0.003520 -0.014110 
#    y 0.003520 1.737450 -0.023190 
#    z -0.014110 -0.023190 1.806130 
# 
# From -- ./inp_files/61668.got.cif
#   From: 2010.06.25/outbox.cif.g09.slc.cpg/sg2_31_cif.got.tgz:61668.got - 2010.06.27 13:26:56.
