data_PCOD8003387
_publ_section_title
;
Structure prediction by ZEFSAII (Michael W. Deem and Ramdas Pophale) SiO2 
 PCOD8003387
Probable space group: P -1
;
_chemical_formula_sum "Si O2"
_cell_formula_units_Z 16
_cell_length_a 24.816579
_cell_length_b 8.362438
_cell_length_c 5.920657
_cell_angle_alpha 63.719970
_cell_angle_beta 128.757269
_cell_angle_gamma 129.901598
_cell_volume 733.293678
_symmetry_space_group_name_H-M "P -1"
_symmetry_group_IT_number 2
_symmetry_cell_setting 'triclinic'
loop_
_space_group_symop_operation_xyz
x,y,z
-x,-y,-z
loop_
_atom_site_type_symbol
_atom_site_label
_atom_site_fract_x
_atom_site_fract_y
_atom_site_fract_z
Si Si1 0.587439 0.250373 0.265994
Si Si2 0.588214 0.940111 0.134535
Si Si3 0.158141 0.044426 0.252844
Si Si4 0.289614 0.081076 0.266769
Si Si5 0.043738 0.570269 0.320917
Si Si6 0.694292 0.180234 0.879927
Si Si7 0.259097 0.349932 0.710294
Si Si8 0.830264 0.579171 0.208228
O O1 0.608618 0.146006 0.590136
O O2 0.661791 0.487078 0.321414
O O3 0.585028 0.139163 0.092983
O O4 0.500779 0.231184 0.086933
O O5 0.618451 0.838189 0.462120
O O6 0.663034 0.024562 0.105566
O O7 0.220614 0.993703 0.329750
O O8 0.196479 0.158812 0.515002
O O9 0.082100 0.819706 0.259388
O O10 0.134403 0.185602 0.947335
O O11 0.262400 0.891591 0.139024
O O12 0.294999 0.281336 0.048597
O O13 0.103190 0.481672 0.542752
O O14 0.000000 0.500000 0.500000
O O15 0.000000 0.500000 0.000000
O O16 0.760639 0.420035 0.954041
O O17 0.210609 0.447952 0.636246
#
# Coordination Sequence:
#
# PCOD8003387 Si02
#       8
#     2   2   2   2   2   2   2   2
#     4  10  21  34  61  93 133 177 235 288 350 405
#     4  10  20  37  55  93 136 181 229 296 348 405
#     4  11  26  47  74 102 142 181 241 283 350 432
#     4  10  23  38  65  95 132 184 233 290 344 417
#     4  12  32  52  78 115 150 185 230 289 370 445
#     4  11  20  40  66  94 129 185 237 283 347 414
#     4  11  22  42  67  99 130 181 240 287 341 419
#     4  11  25  44  78 101 139 187 231 291 350 430
#
# _framework density 21.819362000000002
#
# number of rings (size 3 to 8) (size 9 to 14) (size 15 to 20)
#    0.000    1.250    2.500    2.625    8.750    1.500 
#    0.000    2.500    0.000    0.000    0.000    0.000 
#    0.000    0.000    0.000    0.000    0.000    0.000 
#
# Total GULP energy -198219.829610 kJ/mol
# GULP energy per Si atom -12388.739351 kJ/mol
# Density = 2.176970 g / cm^3
# Si number density = 21.819362 Si / 1000 Ang^3
#
#
#
# Elastic Constant Matrix: (Units=GPa)
#
#
# Indices 1 2 3 4 5 6 
#
# 1 113.0548 45.8490 47.8059 4.1589 2.0674 -11.3727
# 2 45.8490 115.8494 46.7583 6.2663 9.2849 4.8578
# 3 47.8059 46.7583 105.8884 6.8289 8.6587 1.3947
# 4 4.1589 6.2663 6.8289 34.3616 -3.6101 -7.7810
# 5 2.0674 9.2849 8.6587 -3.6101 28.9098 2.1460
# 6 -11.3727 4.8578 1.3947 -7.7810 2.1460 29.8950
#
#
#
# Elastic Compliance Matrix: (Units=1/GPa)
#
#
# Indices 1 2 3 4 5 6 
#
# 1 0.012721 -0.003698 -0.004394 0.001493 0.001340 0.005938
# 2 -0.003698 0.011847 -0.003163 -0.002164 -0.002599 -0.003561
# 3 -0.004394 -0.003163 0.013227 -0.002303 -0.002758 -0.002176
# 4 0.001493 -0.002164 -0.002303 0.032323 0.004638 0.009107
# 5 0.001340 -0.002599 -0.002758 0.004638 0.036762 -0.000371
# 6 0.005938 -0.003561 -0.002176 0.009107 -0.000371 0.038786
#
#
# Mechanical properties :
#
#
# Convention : Reuss Voigt Hill
#
# Bulk Modulus (GPa) = 65.42552 68.40213 66.91382
# Shear Modulus (GPa) = 28.85650 31.59191 30.22421
#
# Velocity S-wave (km/s) = 3.64059 3.80924 3.72587
# Velocity P-wave (km/s) = 6.90811 7.12491 7.01735
#
# Compressibility (1/GPa) = 0.01528456
#
# Stress axis : x y z
#
# Youngs Moduli (GPa) = 78.60987 84.41235 75.60259
#
# Poissons Ratio (x) = 0.31216 0.33222
# Poissons Ratio (y) = 0.29071 0.23911
# Poissons Ratio (z) = 0.34544 0.26697
#
# Static dielectric constant tensor:
#      x y z
#    x 4.074730 -0.041800 -0.149330 
#    y -0.041800 3.778770 0.002190 
#    z -0.149330 0.002190 4.192420 
# 
# 
# High freq. dielectric constant tensor:
#      x y z
#    x 1.857890 -0.008970 -0.005720 
#    y -0.008970 1.842430 -0.004890 
#    z -0.005720 -0.004890 1.874300 
# 
# From -- ./inp_files/44868.got.cif
#   From: 2010.06.25/outbox.cif.g09.slc.cpg/sg2_23_cif.got.tgz:44868.got - 2010.06.27 13:26:56.
