data_PCOD8003664
_publ_section_title
;
Structure prediction by ZEFSAII (Michael W. Deem and Ramdas Pophale) SiO2 
 PCOD8003664
Probable space group: P -1
;
_chemical_formula_sum "Si O2"
_cell_formula_units_Z 16
_cell_length_a 9.385313
_cell_length_b 15.154836
_cell_length_c 19.032473
_cell_angle_alpha 163.301504
_cell_angle_beta 103.399768
_cell_angle_gamma 76.509374
_cell_volume 756.034136
_symmetry_space_group_name_H-M "P -1"
_symmetry_group_IT_number 2
_symmetry_cell_setting 'triclinic'
loop_
_space_group_symop_operation_xyz
x,y,z
-x,-y,-z
loop_
_atom_site_type_symbol
_atom_site_label
_atom_site_fract_x
_atom_site_fract_y
_atom_site_fract_z
Si Si1 0.581081 0.882688 0.849669
Si Si2 0.393641 0.142989 0.769215
Si Si3 0.356880 0.836863 0.675760
Si Si4 0.103723 0.118811 0.160168
Si Si5 0.392041 0.841216 0.312338
Si Si6 0.906309 0.119698 0.753749
Si Si7 0.105379 0.192091 0.707002
Si Si8 0.958874 0.171809 0.325438
O O1 0.473585 0.987719 0.854699
O O2 0.620077 0.525276 0.589094
O O3 0.735619 0.024209 0.952370
O O4 0.500000 0.000000 0.000000
O O5 0.548474 0.120733 0.730880
O O6 0.272956 0.059514 0.631734
O O7 0.391958 0.906758 0.652504
O O8 0.372502 0.486717 0.060520
O O9 0.196492 0.977898 0.788197
O O10 0.090278 0.484308 0.437198
O O11 0.047216 0.008226 0.145966
O O12 0.000000 0.000000 0.000000
O O13 0.225341 0.982415 0.391700
O O14 0.500000 0.000000 0.500000
O O15 0.051327 0.158967 0.755151
O O16 0.881763 0.451511 0.042700
O O17 0.935805 0.860587 0.619024
O O18 0.000000 0.000000 0.500000
#
# Coordination Sequence:
#
# PCOD8003664 Si02
#       8
#     2   2   2   2   2   2   2   2
#     4  10  22  40  62  88 117 155 199 242 294 357
#     4  10  21  39  59  84 120 155 197 244 294 350
#     4  10  21  40  62  85 120 156 194 248 297 348
#     4  10  22  40  61  88 122 154 193 245 297 356
#     4  10  22  39  57  84 122 157 196 244 294 349
#     4  10  21  37  59  88 116 155 195 243 296 350
#     4  10  20  37  60  86 118 151 195 245 292 350
#     4  10  21  40  61  87 122 154 192 247 299 351
#
# _framework density 21.163066000000001
#
# number of rings (size 3 to 8) (size 9 to 14) (size 15 to 20)
#    0.000    2.000    1.250    1.500    1.750    3.000 
#    4.500    0.000    0.000    0.000    0.000    0.000 
#    0.000    0.000    0.000    0.000    0.000    0.000 
#
# Total GULP energy -198238.791001 kJ/mol
# GULP energy per Si atom -12389.924438 kJ/mol
# Density = 2.111490 g / cm^3
# Si number density = 21.163066 Si / 1000 Ang^3
#
#
#
# Elastic Constant Matrix: (Units=GPa)
#
#
# Indices 1 2 3 4 5 6 
#
# 1 136.0047 36.2321 19.6080 -12.9182 1.1877 -2.7853
# 2 36.2321 105.2659 7.1867 -6.6483 5.7314 -4.5806
# 3 19.6080 7.1867 39.4806 -20.3564 12.6526 -10.7582
# 4 -12.9182 -6.6483 -20.3564 26.6916 -4.5674 5.8870
# 5 1.1877 5.7314 12.6526 -4.5674 36.4132 -13.0864
# 6 -2.7853 -4.5806 -10.7582 5.8870 -13.0864 40.6474
#
#
#
# Elastic Compliance Matrix: (Units=1/GPa)
#
#
# Indices 1 2 3 4 5 6 
#
# 1 0.008726 -0.002778 -0.003988 0.000836 0.001496 -0.000410
# 2 -0.002778 0.010600 0.000907 0.001615 -0.001501 0.000527
# 3 -0.003988 0.000907 0.048756 0.032582 -0.011294 0.004378
# 4 0.000836 0.001615 0.032582 0.062738 -0.004313 -0.001612
# 5 0.001496 -0.001501 -0.011294 -0.004313 0.034106 0.008549
# 6 -0.000410 0.000527 0.004378 -0.001612 0.008549 0.028778
#
#
# Mechanical properties :
#
#
# Convention : Reuss Voigt Hill
#
# Bulk Modulus (GPa) = 17.74129 45.20052 31.47091
# Shear Modulus (GPa) = 22.30064 35.26540 28.78302
#
# Velocity S-wave (km/s) = 3.24968 4.08654 3.69190
# Velocity P-wave (km/s) = 4.74151 6.60841 5.75121
#
# Compressibility (1/GPa) = 0.05636569
#
# Stress axis : x y z
#
# Youngs Moduli (GPa) = 114.60628 94.33532 20.51024
#
# Poissons Ratio (x) = 0.26202 0.08179
# Poissons Ratio (y) = 0.31832 -0.01861
# Poissons Ratio (z) = 0.45704 -0.08558
#
# Static dielectric constant tensor:
#      x y z
#    x 4.419760 0.067680 -0.035780 
#    y 0.067680 3.708980 -0.092490 
#    z -0.035780 -0.092490 3.407570 
# 
# 
# High freq. dielectric constant tensor:
#      x y z
#    x 1.856250 0.001960 0.003860 
#    y 0.001960 1.828940 -0.008340 
#    z 0.003860 -0.008340 1.794350 
# 
# From -- ./inp_files/227268.got.cif
#   From: 2010.06.25/outbox.cif.g09.slc.cpg/sg2_114_cif.got.tgz:227268.got - 2010.06.27 13:26:56.
