data_PCOD8003408
_publ_section_title
;
Structure prediction by ZEFSAII (Michael W. Deem and Ramdas Pophale) SiO2 
 PCOD8003408
Probable space group: P -1
;
_chemical_formula_sum "Si O2"
_cell_formula_units_Z 12
_cell_length_a 7.886580
_cell_length_b 5.217863
_cell_length_c 12.597326
_cell_angle_alpha 81.990809
_cell_angle_beta 116.723201
_cell_angle_gamma 114.369129
_cell_volume 421.090296
_symmetry_space_group_name_H-M "P -1"
_symmetry_group_IT_number 2
_symmetry_cell_setting 'triclinic'
loop_
_space_group_symop_operation_xyz
x,y,z
-x,-y,-z
loop_
_atom_site_type_symbol
_atom_site_label
_atom_site_fract_x
_atom_site_fract_y
_atom_site_fract_z
Si Si1 0.936697 0.426306 0.659366
Si Si2 0.672564 0.265958 0.082072
Si Si3 0.704024 0.745199 0.924885
Si Si4 0.011924 0.948139 0.830406
Si Si5 0.450655 0.560531 0.366365
Si Si6 0.310484 0.788492 0.603195
O O1 0.803740 0.545461 0.697170
O O2 0.764895 0.221505 0.540460
O O3 0.036977 0.235626 0.761482
O O4 0.108140 0.671313 0.626546
O O5 0.545198 0.340554 0.137034
O O6 0.873835 0.227585 0.194196
O O7 0.752348 0.488379 0.997598
O O8 0.500000 0.000000 0.000000
O O9 0.838835 0.002366 0.025927
O O10 0.778788 0.793528 0.819926
O O11 0.500000 0.500000 0.500000
O O12 0.545942 0.388082 0.328338
O O13 0.554736 0.888997 0.344532
#
# Coordination Sequence:
#
# PCOD8003408 Si02
#       6
#     2   2   2   2   2   2
#     4  10  22  39  61  92 121 162 209 256 308 370
#     4   9  18  36  59  78 116 153 192 239 305 351
#     4   9  19  37  59  79 116 156 188 246 297 355
#     4  10  20  37  56  88 112 150 202 240 296 355
#     4  10  21  42  67  89 126 169 207 254 316 368
#     4  10  23  43  65  89 131 168 204 257 313 367
#
# _framework density 28.497447000000001
#
# number of rings (size 3 to 8) (size 9 to 14) (size 15 to 20)
#    0.000    2.333    0.000    2.500    0.000    8.667 
#   21.000    0.000    0.000    0.000    0.000    0.000 
#    0.000    0.000    0.000    0.000    0.000    0.000 
#
# Total GULP energy -148728.175978 kJ/mol
# GULP energy per Si atom -12394.014665 kJ/mol
# Density = 2.843259 g / cm^3
# Si number density = 28.497447 Si / 1000 Ang^3
#
#
#
# Elastic Constant Matrix: (Units=GPa)
#
#
# Indices 1 2 3 4 5 6 
#
# 1 164.4608 58.0045 86.5049 -19.4903 24.0285 3.3277
# 2 58.0045 89.3377 30.7168 -41.3369 14.7564 -0.7031
# 3 86.5049 30.7168 89.8198 -1.0678 10.6625 -8.5475
# 4 -19.4903 -41.3369 -1.0678 55.7630 3.1922 7.7516
# 5 24.0285 14.7564 10.6625 3.1922 65.0698 0.2081
# 6 3.3277 -0.7031 -8.5475 7.7516 0.2081 58.7741
#
#
#
# Elastic Compliance Matrix: (Units=1/GPa)
#
#
# Indices 1 2 3 4 5 6 
#
# 1 0.015149 -0.003317 -0.013395 0.003192 -0.002793 -0.003257
# 2 -0.003317 0.023048 -0.004223 0.016400 -0.004107 -0.002299
# 3 -0.013395 -0.004223 0.025658 -0.008207 0.002085 0.005514
# 4 0.003192 0.016400 -0.008207 0.032091 -0.005110 -0.005392
# 5 -0.002793 -0.004107 0.002085 -0.005110 0.017237 0.001025
# 6 -0.003257 -0.002299 0.005514 -0.005392 0.001025 0.018681
#
#
# Mechanical properties :
#
#
# Convention : Reuss Voigt Hill
#
# Bulk Modulus (GPa) = 45.49038 77.11897 61.30467
# Shear Modulus (GPa) = 27.61476 47.14751 37.38113
#
# Velocity S-wave (km/s) = 3.11629 4.07190 3.62572
# Velocity P-wave (km/s) = 5.38015 7.01624 6.25195
#
# Compressibility (1/GPa) = 0.02198267
#
# Stress axis : x y z
#
# Youngs Moduli (GPa) = 66.01294 43.38790 38.97345
#
# Poissons Ratio (x) = 0.14393 0.52207
# Poissons Ratio (y) = 0.21899 0.16460
# Poissons Ratio (z) = 0.88427 0.18324
#
# Static dielectric constant tensor:
#      x y z
#    x 8.871320 -0.356120 0.904530 
#    y -0.356120 5.125820 0.224020 
#    z 0.904530 0.224020 5.344360 
# 
# 
# High freq. dielectric constant tensor:
#      x y z
#    x 2.199750 0.003180 0.012200 
#    y 0.003180 2.163930 0.036070 
#    z 0.012200 0.036070 2.169960 
# 
# From -- ./inp_files/99006.got.cif
#   From: 2010.06.25/outbox.cif.g09.slc.cpg/sg2_50_cif.got.tgz:99006.got - 2010.06.27 13:26:56.
