data_PCOD8003450
_publ_section_title
;
Structure prediction by ZEFSAII (Michael W. Deem and Ramdas Pophale) SiO2 
 PCOD8003450
Probable space group: P -1
;
_chemical_formula_sum "Si O2"
_cell_formula_units_Z 14
_cell_length_a 12.647181
_cell_length_b 9.152274
_cell_length_c 7.677114
_cell_angle_alpha 51.887734
_cell_angle_beta 115.153684
_cell_angle_gamma 103.623561
_cell_volume 632.425832
_symmetry_space_group_name_H-M "P -1"
_symmetry_group_IT_number 2
_symmetry_cell_setting 'triclinic'
loop_
_space_group_symop_operation_xyz
x,y,z
-x,-y,-z
loop_
_atom_site_type_symbol
_atom_site_label
_atom_site_fract_x
_atom_site_fract_y
_atom_site_fract_z
Si Si1 0.494230 0.773268 0.013124
Si Si2 0.750758 0.269262 0.229266
Si Si3 0.452946 0.165416 0.607526
Si Si4 0.632326 0.421783 0.365578
Si Si5 0.810459 0.854962 0.593586
Si Si6 0.094561 0.391360 0.865779
Si Si7 0.853305 0.591560 0.504828
O O1 0.558409 0.809467 0.212082
O O2 0.565612 0.602034 0.097716
O O3 0.356837 0.731615 0.982642
O O4 0.502413 0.954305 0.760910
O O5 0.688396 0.288180 0.358753
O O6 0.836218 0.436207 0.132007
O O7 0.825888 0.075559 0.420525
O O8 0.536387 0.315878 0.481947
O O9 0.322968 0.192212 0.420527
O O10 0.733221 0.484199 0.522474
O O11 0.856256 0.762746 0.513682
O O12 0.887244 0.782841 0.864541
O O13 0.138605 0.337074 0.742408
O O14 0.957803 0.444029 0.727747
#
# Coordination Sequence:
#
# PCOD8003450 Si02
#       7
#     2   2   2   2   2   2   2
#     4  10  20  37  57  88 124 155 195 250 294 365
#     4  10  24  38  60  95 118 157 216 237 308 366
#     4  10  22  36  60  91 122 155 206 239 307 364
#     4  11  21  38  60  88 123 161 198 249 299 365
#     4  11  22  43  62  92 123 159 204 255 300 365
#     4  10  23  45  64  87 125 160 200 266 296 354
#     4  10  23  42  65  91 120 162 210 242 313 363
#
# _framework density 22.136982
#
# number of rings (size 3 to 8) (size 9 to 14) (size 15 to 20)
#    0.000    1.714    1.429    2.143    2.000    6.286 
#    0.000    7.857    0.000    0.000    0.000    0.000 
#    0.000    0.000    0.000    0.000    0.000    0.000 
#
# Total GULP energy -173604.973752 kJ/mol
# GULP energy per Si atom -12400.355268 kJ/mol
# Density = 2.208660 g / cm^3
# Si number density = 22.136982 Si / 1000 Ang^3
#
#
#
# Elastic Constant Matrix: (Units=GPa)
#
#
# Indices 1 2 3 4 5 6 
#
# 1 54.3159 12.1985 24.1186 -15.7264 11.7356 -0.0753
# 2 12.1985 79.4443 41.4702 -11.7593 3.8085 -15.4785
# 3 24.1186 41.4702 117.3109 -6.7830 21.4072 -3.2819
# 4 -15.7264 -11.7593 -6.7830 30.1548 0.1010 5.0281
# 5 11.7356 3.8085 21.4072 0.1010 22.9496 3.5799
# 6 -0.0753 -15.4785 -3.2819 5.0281 3.5799 32.8527
#
#
#
# Elastic Compliance Matrix: (Units=1/GPa)
#
#
# Indices 1 2 3 4 5 6 
#
# 1 0.025621 -0.000480 -0.002455 0.012863 -0.010598 -0.001226
# 2 -0.000480 0.017692 -0.006066 0.004129 0.001874 0.006892
# 3 -0.002455 -0.006066 0.012894 -0.000643 -0.009697 -0.000420
# 4 0.012863 0.004129 -0.000643 0.041996 -0.006250 -0.003836
# 5 -0.010598 0.001874 -0.009697 -0.006250 0.058619 -0.005541
# 6 -0.001226 0.006892 -0.000420 -0.003836 -0.005541 0.034832
#
#
# Mechanical properties :
#
#
# Convention : Reuss Voigt Hill
#
# Bulk Modulus (GPa) = 26.17400 45.18285 35.67842
# Shear Modulus (GPa) = 22.48302 28.74369 25.61336
#
# Velocity S-wave (km/s) = 3.19036 3.60731 3.40522
# Velocity P-wave (km/s) = 5.04187 6.14858 5.62252
#
# Compressibility (1/GPa) = 0.03820586
#
# Stress axis : x y z
#
# Youngs Moduli (GPa) = 39.03095 56.52366 77.55518
#
# Poissons Ratio (x) = 0.02711 0.19037
# Poissons Ratio (y) = 0.01872 0.47045
# Poissons Ratio (z) = 0.09581 0.34287
#
# Static dielectric constant tensor:
#      x y z
#    x 3.722630 0.066670 0.352700 
#    y 0.066670 4.247960 -0.004030 
#    z 0.352700 -0.004030 4.038270 
# 
# 
# High freq. dielectric constant tensor:
#      x y z
#    x 1.852300 0.000800 0.024340 
#    y 0.000800 1.881670 0.001680 
#    z 0.024340 0.001680 1.870550 
# 
# From -- ./inp_files/179711.got.cif
#   From: 2010.06.25/outbox.cif.g09.slc.cpg/sg2_90_cif.got.tgz:179711.got - 2010.06.27 13:26:56.
