data_PCOD8003942
_publ_section_title
;
Structure prediction by ZEFSAII (Michael W. Deem and Ramdas Pophale) SiO2 
 PCOD8003942
Probable space group: P -1
;
_chemical_formula_sum "Si O2"
_cell_formula_units_Z 14
_cell_length_a 11.820895
_cell_length_b 12.875132
_cell_length_c 18.793558
_cell_angle_alpha 25.374461
_cell_angle_beta 32.675907
_cell_angle_gamma 40.230858
_cell_volume 661.702332
_symmetry_space_group_name_H-M "P -1"
_symmetry_group_IT_number 2
_symmetry_cell_setting 'triclinic'
loop_
_space_group_symop_operation_xyz
x,y,z
-x,-y,-z
loop_
_atom_site_type_symbol
_atom_site_label
_atom_site_fract_x
_atom_site_fract_y
_atom_site_fract_z
Si Si1 0.989404 0.159002 0.269100
Si Si2 0.072109 0.560968 0.086280
Si Si3 0.970883 0.610990 0.627513
Si Si4 0.453356 0.854811 0.542565
Si Si5 0.348930 0.619445 0.321698
Si Si6 0.243642 0.133561 0.015497
Si Si7 0.517590 0.652030 0.826202
O O1 0.787466 0.223409 0.287577
O O2 0.989703 0.330487 0.230776
O O3 0.184001 0.197683 0.089137
O O4 0.993670 0.890392 0.464626
O O5 0.034795 0.542336 0.202007
O O6 0.321044 0.585047 0.920972
O O7 0.939426 0.796510 0.986045
O O8 0.752130 0.585823 0.713631
O O9 0.165466 0.529765 0.526488
O O10 0.597891 0.616458 0.607505
O O11 0.500000 0.000000 0.500000
O O12 0.496784 0.055811 0.333069
O O13 0.276492 0.842584 0.171090
O O14 0.545680 0.714716 0.205582
O O15 0.500000 0.500000 0.000000
#
# Coordination Sequence:
#
# PCOD8003942 Si02
#       7
#     2   2   2   2   2   2   2
#     4  10  20  37  62  91 119 158 211 251 293 358
#     4  11  19  36  67  91 118 162 210 245 297 364
#     4   9  21  40  60  88 125 159 198 253 312 358
#     4  11  22  39  64  88 119 166 206 247 301 365
#     4  10  22  41  59  88 134 156 197 255 309 362
#     4  10  21  37  62  93 125 155 201 257 303 351
#     4   9  21  40  60  87 120 158 208 245 296 362
#
# _framework density 21.157550000000001
#
# number of rings (size 3 to 8) (size 9 to 14) (size 15 to 20)
#    0.000    2.000    1.429    1.714    2.000    0.571 
#    0.000   15.714    0.000    0.000    0.000    0.000 
#    0.000    0.000    0.000    0.000    0.000    0.000 
#
# Total GULP energy -173488.116058 kJ/mol
# GULP energy per Si atom -12392.008290 kJ/mol
# Density = 2.110939 g / cm^3
# Si number density = 21.157550 Si / 1000 Ang^3
#
#
#
# Elastic Constant Matrix: (Units=GPa)
#
#
# Indices 1 2 3 4 5 6 
#
# 1 118.9537 56.0679 42.0317 2.3591 -14.7637 -26.2994
# 2 56.0679 148.5971 52.6013 -8.2399 -1.1996 -12.9777
# 3 42.0317 52.6013 103.6189 10.6474 -10.2829 -13.9990
# 4 2.3591 -8.2399 10.6474 36.4199 -12.5246 -2.5387
# 5 -14.7637 -1.1996 -10.2829 -12.5246 35.4453 -4.5725
# 6 -26.2994 -12.9777 -13.9990 -2.5387 -4.5725 29.9265
#
#
#
# Elastic Compliance Matrix: (Units=1/GPa)
#
#
# Indices 1 2 3 4 5 6 
#
# 1 0.014101 -0.003471 -0.001918 0.002209 0.007440 0.011314
# 2 -0.003471 0.009543 -0.003974 0.003053 -0.001288 -0.000709
# 3 -0.001918 -0.003974 0.013419 -0.003820 0.001977 0.002846
# 4 0.002209 0.003053 -0.003820 0.033935 0.012719 0.006301
# 5 0.007440 -0.001288 0.001977 0.012719 0.038117 0.013807
# 6 0.011314 -0.000709 0.002846 0.006301 0.013807 0.047026
#
#
# Mechanical properties :
#
#
# Convention : Reuss Voigt Hill
#
# Bulk Modulus (GPa) = 54.53227 74.73017 64.63122
# Shear Modulus (GPa) = 27.62732 35.05625 31.34178
#
# Velocity S-wave (km/s) = 3.61749 4.07494 3.85301
# Velocity P-wave (km/s) = 6.57865 7.58536 7.09987
#
# Compressibility (1/GPa) = 0.01833777
#
# Stress axis : x y z
#
# Youngs Moduli (GPa) = 70.91495 104.78958 74.51942
#
# Poissons Ratio (x) = 0.36372 0.14294
# Poissons Ratio (y) = 0.24615 0.29612
# Poissons Ratio (z) = 0.13603 0.41641
#
# Static dielectric constant tensor:
#      x y z
#    x 3.845600 -0.562490 -0.141820 
#    y -0.562490 3.780050 -0.053240 
#    z -0.141820 -0.053240 4.312190 
# 
# 
# High freq. dielectric constant tensor:
#      x y z
#    x 1.816420 -0.037040 -0.007060 
#    y -0.037040 1.809040 -0.003940 
#    z -0.007060 -0.003940 1.850690 
# 
# From -- ./inp_files/153887.got.cif
#   From: 2010.06.25/outbox.cif.g09.slc.cpg/sg2_77_cif.got.tgz:153887.got - 2010.06.27 13:26:56.
