data_PCOD8003002
_publ_section_title
;
Structure prediction by ZEFSAII (Michael W. Deem and Ramdas Pophale) SiO2 
 PCOD8003002
Probable space group: P -1
;
_chemical_formula_sum "Si O2"
_cell_formula_units_Z 16
_cell_length_a 10.516225
_cell_length_b 16.397242
_cell_length_c 8.256232
_cell_angle_alpha 78.879864
_cell_angle_beta 66.148807
_cell_angle_gamma 132.283830
_cell_volume 699.905098
_symmetry_space_group_name_H-M "P -1"
_symmetry_group_IT_number 2
_symmetry_cell_setting 'triclinic'
loop_
_space_group_symop_operation_xyz
x,y,z
-x,-y,-z
loop_
_atom_site_type_symbol
_atom_site_label
_atom_site_fract_x
_atom_site_fract_y
_atom_site_fract_z
Si Si1 0.307128 0.247350 0.789470
Si Si2 0.460699 0.993844 0.836777
Si Si3 0.139622 0.498522 0.589033
Si Si4 0.179626 0.971996 0.417467
Si Si5 0.118397 0.311917 0.732324
Si Si6 0.878951 0.332224 0.460949
Si Si7 0.937575 0.958334 0.296262
Si Si8 0.775403 0.639352 0.727287
O O1 0.575215 0.356534 0.688803
O O2 0.299826 0.344376 0.734918
O O3 0.085270 0.103733 0.070592
O O4 0.269696 0.190543 0.651040
O O5 0.578914 0.968446 0.707801
O O6 0.608339 0.151137 0.643690
O O7 0.500000 0.000000 0.000000
O O8 0.165193 0.859967 0.008929
O O9 0.136361 0.417160 0.742296
O O10 0.104111 0.569045 0.673779
O O11 0.922721 0.375366 0.613009
O O12 0.218026 0.071219 0.473392
O O13 0.923757 0.792916 0.662949
O O14 0.133639 0.986823 0.254588
O O15 0.192962 0.344427 0.490834
O O16 0.097197 0.381388 0.263424
O O17 0.500000 0.500000 0.000000
#
# Coordination Sequence:
#
# PCOD8003002 Si02
#       8
#     2   2   2   2   2   2   2   2
#     4  11  23  39  64  89 132 166 204 257 317 381
#     4  11  18  37  67  88 126 155 214 265 303 364
#     4  10  21  36  59  89 124 155 206 257 297 370
#     4  10  21  40  62  95 123 159 211 266 305 360
#     4  11  22  40  60  98 121 168 206 252 320 376
#     4   9  21  36  60  97 113 161 215 255 305 357
#     4  10  23  38  60  96 121 163 215 252 317 362
#     4  10  20  36  61  88 128 159 202 260 312 361
#
# _framework density 22.860243000000001
#
# number of rings (size 3 to 8) (size 9 to 14) (size 15 to 20)
#    0.000    1.750    5.000    0.375    8.750    0.000 
#    2.250    0.625    0.000    1.500    0.000    0.000 
#    0.000    0.000    0.000    0.000    0.000    0.000 
#
# Total GULP energy -198235.165344 kJ/mol
# GULP energy per Si atom -12389.697834 kJ/mol
# Density = 2.280821 g / cm^3
# Si number density = 22.860243 Si / 1000 Ang^3
#
#
#
# Elastic Constant Matrix: (Units=GPa)
#
#
# Indices 1 2 3 4 5 6 
#
# 1 116.7991 36.3977 30.4315 -8.0401 1.4016 -36.9243
# 2 36.3977 67.6437 21.0930 -6.5527 5.4905 -27.0410
# 3 30.4315 21.0930 93.3233 -15.0099 -13.7037 -7.9489
# 4 -8.0401 -6.5527 -15.0099 21.6684 -2.6117 4.5875
# 5 1.4016 5.4905 -13.7037 -2.6117 26.9186 -9.6623
# 6 -36.9243 -27.0410 -7.9489 4.5875 -9.6623 46.5715
#
#
#
# Elastic Compliance Matrix: (Units=1/GPa)
#
#
# Indices 1 2 3 4 5 6 
#
# 1 0.012741 -0.002841 -0.002452 0.000613 0.001717 0.008329
# 2 -0.002841 0.021193 -0.003361 0.000836 -0.002627 0.008851
# 3 -0.002452 -0.003361 0.015203 0.009804 0.009390 -0.000318
# 4 0.000613 0.000836 0.009804 0.054758 0.009848 -0.000706
# 5 0.001717 -0.002627 0.009390 0.009848 0.046999 0.010219
# 6 0.008329 0.008851 -0.000318 -0.000706 0.010219 0.035351
#
#
# Mechanical properties :
#
#
# Convention : Reuss Voigt Hill
#
# Bulk Modulus (GPa) = 31.41886 50.40116 40.91001
# Shear Modulus (GPa) = 23.34661 31.68798 27.51729
#
# Velocity S-wave (km/s) = 3.19921 3.72716 3.47323
# Velocity P-wave (km/s) = 5.23644 6.37320 5.83258
#
# Compressibility (1/GPa) = 0.03182801
#
# Stress axis : x y z
#
# Youngs Moduli (GPa) = 78.48829 47.18564 65.77503
#
# Poissons Ratio (x) = 0.13407 0.16130
# Poissons Ratio (y) = 0.22300 0.22107
# Poissons Ratio (z) = 0.19247 0.15859
#
# Static dielectric constant tensor:
#      x y z
#    x 4.348520 -0.638900 0.212000 
#    y -0.638900 4.253980 -0.076910 
#    z 0.212000 -0.076910 3.339310 
# 
# 
# High freq. dielectric constant tensor:
#      x y z
#    x 1.911880 -0.031620 -0.011230 
#    y -0.031620 1.896940 -0.026770 
#    z -0.011230 -0.026770 1.865680 
# 
# From -- ./inp_files/277776.got.cif
#   From: 2010.06.25/outbox.cif.g09.slc.cpg/sg2_139_cif.got.tgz:277776.got - 2010.06.27 13:26:56.
