data_PCOD8003966
_publ_section_title
;
Structure prediction by ZEFSAII (Michael W. Deem and Ramdas Pophale) SiO2 
 PCOD8003966
Probable space group: P -1
;
_chemical_formula_sum "Si O2"
_cell_formula_units_Z 16
_cell_length_a 6.895579
_cell_length_b 14.078788
_cell_length_c 22.948118
_cell_angle_alpha 19.894139
_cell_angle_beta 100.842420
_cell_angle_gamma 102.671079
_cell_volume 738.525472
_symmetry_space_group_name_H-M "P -1"
_symmetry_group_IT_number 2
_symmetry_cell_setting 'triclinic'
loop_
_space_group_symop_operation_xyz
x,y,z
-x,-y,-z
loop_
_atom_site_type_symbol
_atom_site_label
_atom_site_fract_x
_atom_site_fract_y
_atom_site_fract_z
Si Si1 0.807327 0.240208 0.814751
Si Si2 0.572928 0.593101 0.669659
Si Si3 0.817545 0.074427 0.718715
Si Si4 0.894352 0.461866 0.078239
Si Si5 0.052647 0.286738 0.302524
Si Si6 0.187849 0.362111 0.843414
Si Si7 0.194945 0.434093 0.481427
Si Si8 0.432577 0.045827 0.648002
O O1 0.611093 0.333859 0.779971
O O2 0.899617 0.443702 0.651535
O O3 0.984084 0.262272 0.857049
O O4 0.731027 0.927683 0.966800
O O5 0.723790 0.604969 0.726290
O O6 0.349237 0.554836 0.702892
O O7 0.600722 0.867317 0.471322
O O8 0.730815 0.289982 0.634561
O O9 0.033624 0.215196 0.629953
O O10 0.665127 0.026409 0.683656
O O11 0.848753 0.767390 0.923529
O O12 0.689053 0.260083 0.173791
O O13 0.037249 0.301732 0.222537
O O14 0.000000 0.500000 0.000000
O O15 0.874550 0.469298 0.202210
O O16 0.000000 0.000000 0.500000
O O17 0.372355 0.267498 0.565108
#
# Coordination Sequence:
#
# PCOD8003966 Si02
#       8
#     2   2   2   2   2   2   2   2
#     4   9  19  36  60  91 132 158 204 262 315 373
#     4  10  21  39  67  94 122 167 212 256 320 383
#     4  11  23  40  65  93 127 171 218 260 322 379
#     4  12  25  46  66  93 134 172 215 268 326 377
#     4  11  24  44  62  90 129 165 213 265 312 374
#     4  10  20  37  62  93 125 164 208 257 316 376
#     4  10  21  40  62  92 129 169 211 265 317 380
#     4  11  22  42  66  96 129 169 216 265 318 388
#
# _framework density 21.664791999999998
#
# number of rings (size 3 to 8) (size 9 to 14) (size 15 to 20)
#    0.000    1.500    2.500    2.625    0.000    1.500 
#    6.750    2.500    0.000    0.000    0.000    0.000 
#    0.000    0.000    0.000    0.000    0.000    0.000 
#
# Total GULP energy -198244.497737 kJ/mol
# GULP energy per Si atom -12390.281109 kJ/mol
# Density = 2.161548 g / cm^3
# Si number density = 21.664792 Si / 1000 Ang^3
#
#
#
# Elastic Constant Matrix: (Units=GPa)
#
#
# Indices 1 2 3 4 5 6 
#
# 1 71.6471 15.5080 16.6964 4.4221 -10.2079 0.1033
# 2 15.5080 76.3480 34.4451 8.0643 1.9264 4.3945
# 3 16.6964 34.4451 123.8206 -0.3515 -5.5631 4.3786
# 4 4.4221 8.0643 -0.3515 39.2440 3.3191 1.3207
# 5 -10.2079 1.9264 -5.5631 3.3191 26.3995 5.8285
# 6 0.1033 4.3945 4.3786 1.3207 5.8285 23.3947
#
#
#
# Elastic Compliance Matrix: (Units=1/GPa)
#
#
# Indices 1 2 3 4 5 6 
#
# 1 0.015819 -0.002654 -0.001076 -0.001767 0.006502 -0.000890
# 2 -0.002654 0.015941 -0.004141 -0.002762 -0.002393 -0.001456
# 3 -0.001076 -0.004141 0.009527 0.000931 0.002126 -0.001583
# 4 -0.001767 -0.002762 0.000931 0.026567 -0.003569 -0.000258
# 5 0.006502 -0.002393 0.002126 -0.003569 0.043826 -0.010694
# 6 -0.000890 -0.001456 -0.001583 -0.000258 -0.010694 0.045997
#
#
# Mechanical properties :
#
#
# Convention : Reuss Voigt Hill
#
# Bulk Modulus (GPa) = 39.14490 45.01276 42.07883
# Shear Modulus (GPa) = 27.48234 31.48539 29.48387
#
# Velocity S-wave (km/s) = 3.56550 3.81635 3.69306
# Velocity P-wave (km/s) = 5.92098 6.34361 6.13594
#
# Compressibility (1/GPa) = 0.02554611
#
# Stress axis : x y z
#
# Youngs Moduli (GPa) = 63.21390 62.73132 104.96134
#
# Poissons Ratio (x) = 0.16648 0.11296
# Poissons Ratio (y) = 0.16776 0.43460
# Poissons Ratio (z) = 0.06803 0.25975
#
# Static dielectric constant tensor:
#      x y z
#    x 3.666870 -0.160620 0.286230 
#    y -0.160620 4.017060 -0.252090 
#    z 0.286230 -0.252090 4.387780 
# 
# 
# High freq. dielectric constant tensor:
#      x y z
#    x 1.836850 -0.005490 0.003140 
#    y -0.005490 1.845570 -0.005180 
#    z 0.003140 -0.005180 1.864610 
# 
# From -- ./inp_files/81226.got.cif
#   From: 2010.06.25/outbox.cif.g09.slc.cpg/sg2_41_cif.got.tgz:81226.got - 2010.06.27 13:26:56.
