data_PCOD8003878
_publ_section_title
;
Structure prediction by ZEFSAII (Michael W. Deem and Ramdas Pophale) SiO2 
 PCOD8003878
Probable space group: P -1
;
_chemical_formula_sum "Si O2"
_cell_formula_units_Z 16
_cell_length_a 11.039614
_cell_length_b 8.865068
_cell_length_c 19.977242
_cell_angle_alpha 53.743843
_cell_angle_beta 149.837618
_cell_angle_gamma 127.499391
_cell_volume 768.905284
_symmetry_space_group_name_H-M "P -1"
_symmetry_group_IT_number 2
_symmetry_cell_setting 'triclinic'
loop_
_space_group_symop_operation_xyz
x,y,z
-x,-y,-z
loop_
_atom_site_type_symbol
_atom_site_label
_atom_site_fract_x
_atom_site_fract_y
_atom_site_fract_z
Si Si1 0.143406 0.989252 0.245883
Si Si2 0.872285 0.685756 0.442547
Si Si3 0.566943 0.145364 0.313603
Si Si4 0.952249 0.801933 0.073502
Si Si5 0.963807 0.674011 0.341312
Si Si6 0.456835 0.494336 0.111043
Si Si7 0.848560 0.295116 0.007914
Si Si8 0.411816 0.828524 0.218445
O O1 0.962036 0.854320 0.141817
O O2 0.136309 0.871042 0.342693
O O3 0.423622 0.032194 0.338913
O O4 0.039896 0.178664 0.159640
O O5 0.824066 0.703485 0.335762
O O6 0.651536 0.742202 0.362675
O O7 0.139330 0.828445 0.546749
O O8 0.863197 0.470363 0.520355
O O9 0.480993 0.345923 0.221560
O O10 0.485766 0.042326 0.230380
O O11 0.179331 0.706863 0.183369
O O12 0.697838 0.638422 0.986017
O O13 0.000000 0.000000 0.000000
O O14 0.744453 0.590843 0.203910
O O15 0.327978 0.662732 0.028425
O O16 0.680069 0.168116 0.902880
O O17 0.000000 0.500000 0.000000
#
# Coordination Sequence:
#
# PCOD8003878 Si02
#       8
#     2   2   2   2   2   2   2   2
#     4  11  22  38  60  91 119 152 194 246 295 348
#     4  10  22  41  60  82 113 164 204 238 289 341
#     4  10  20  37  62  84 114 156 202 235 290 348
#     4  11  18  36  61  92 118 153 188 235 300 360
#     4  10  24  39  59  85 122 154 198 249 290 340
#     4  11  19  36  59  90 118 157 189 234 300 353
#     4  12  19  32  63  93 116 148 193 240 295 359
#     4  11  19  35  62  91 111 149 201 239 284 356
#
# _framework density 20.808806000000001
#
# number of rings (size 3 to 8) (size 9 to 14) (size 15 to 20)
#    0.000    1.250    7.500    0.375    0.000    1.500 
#    0.000    2.500    2.750    0.000    0.000    0.000 
#    0.000    0.000    0.000    0.000    0.000    0.000 
#
# Total GULP energy -198216.537003 kJ/mol
# GULP energy per Si atom -12388.533563 kJ/mol
# Density = 2.076144 g / cm^3
# Si number density = 20.808806 Si / 1000 Ang^3
#
#
#
# Elastic Constant Matrix: (Units=GPa)
#
#
# Indices 1 2 3 4 5 6 
#
# 1 62.7959 32.7420 30.2230 -27.0978 11.5622 -1.3526
# 2 32.7420 81.2216 33.2175 -5.5068 -1.2791 6.2532
# 3 30.2230 33.2175 81.4914 -3.4671 17.6717 6.3059
# 4 -27.0978 -5.5068 -3.4671 35.2314 -1.8949 -1.8537
# 5 11.5622 -1.2791 17.6717 -1.8949 33.0923 -2.9325
# 6 -1.3526 6.2532 6.3059 -1.8537 -2.9325 32.6732
#
#
#
# Elastic Compliance Matrix: (Units=1/GPa)
#
#
# Indices 1 2 3 4 5 6 
#
# 1 0.038652 -0.011347 -0.007293 0.027125 -0.007963 0.006003
# 2 -0.011347 0.018833 -0.004968 -0.006060 0.006746 -0.002854
# 3 -0.007293 -0.004968 0.018916 -0.005190 -0.008401 -0.004050
# 4 0.027125 -0.006060 -0.005190 0.047888 -0.003696 0.005669
# 5 -0.007963 0.006746 -0.008401 -0.003696 0.037819 0.003185
# 6 0.006003 -0.002854 -0.004050 0.005669 0.003185 0.032790
#
#
# Mechanical properties :
#
#
# Convention : Reuss Voigt Hill
#
# Bulk Modulus (GPa) = 34.26613 46.43044 40.34828
# Shear Modulus (GPa) = 19.85369 28.82113 24.33741
#
# Velocity S-wave (km/s) = 3.09220 3.72566 3.42361
# Velocity P-wave (km/s) = 5.40850 6.39286 5.92117
#
# Compressibility (1/GPa) = 0.02918334
#
# Stress axis : x y z
#
# Youngs Moduli (GPa) = 25.87212 53.09769 52.86609
#
# Poissons Ratio (x) = 0.60250 0.38556
# Poissons Ratio (y) = 0.29357 0.26266
# Poissons Ratio (z) = 0.18869 0.26381
#
# Static dielectric constant tensor:
#      x y z
#    x 3.617050 -0.177710 0.317980 
#    y -0.177710 3.869800 0.224150 
#    z 0.317980 0.224150 3.832920 
# 
# 
# High freq. dielectric constant tensor:
#      x y z
#    x 1.790290 -0.014740 0.025920 
#    y -0.014740 1.809150 0.021440 
#    z 0.025920 0.021440 1.809230 
# 
# From -- ./inp_files/329078.got.cif
#   From: 2010.06.25/outbox.cif.g09.slc.cpg/sg2_165_cif.got.tgz:329078.got - 2010.06.27 13:26:56.
