data_PCOD8003963
_publ_section_title
;
Structure prediction by ZEFSAII (Michael W. Deem and Ramdas Pophale) SiO2 
 PCOD8003963
Probable space group: P -1
;
_chemical_formula_sum "Si O2"
_cell_formula_units_Z 14
_cell_length_a 23.769969
_cell_length_b 5.096678
_cell_length_c 12.162831
_cell_angle_alpha 61.248883
_cell_angle_beta 155.425485
_cell_angle_gamma 118.178734
_cell_volume 534.796528
_symmetry_space_group_name_H-M "P -1"
_symmetry_group_IT_number 2
_symmetry_cell_setting 'triclinic'
loop_
_space_group_symop_operation_xyz
x,y,z
-x,-y,-z
loop_
_atom_site_type_symbol
_atom_site_label
_atom_site_fract_x
_atom_site_fract_y
_atom_site_fract_z
Si Si1 0.089828 0.836062 0.776689
Si Si2 0.113948 0.688441 0.462621
Si Si3 0.042441 0.846793 0.995276
Si Si4 0.393136 0.715321 0.850129
Si Si5 0.644133 0.151464 0.475395
Si Si6 0.502967 0.491963 0.710036
Si Si7 0.227868 0.443667 0.939262
O O1 0.206490 0.662148 0.958642
O O2 0.991555 0.584954 0.719201
O O3 0.164618 0.107407 0.926494
O O4 0.000000 0.000000 0.500000
O O5 0.236839 0.780382 0.579101
O O6 0.159911 0.592680 0.683908
O O7 0.036109 0.990610 0.274925
O O8 0.200306 0.901165 0.238459
O O9 0.000000 0.500000 0.000000
O O10 0.000000 0.000000 0.000000
O O11 0.394959 0.623512 0.741557
O O12 0.420154 0.475075 0.040487
O O13 0.500000 0.000000 0.000000
O O14 0.561334 0.833991 0.370489
O O15 0.611712 0.281944 0.512922
O O16 0.612009 0.587840 0.790021
#
# Coordination Sequence:
#
# PCOD8003963 Si02
#       7
#     2   2   2   2   2   2   2
#     4  10  20  37  62  93 123 152 197 258 313 362
#     4  10  21  39  60  91 122 162 200 248 307 358
#     4  12  26  41  59  85 126 173 206 243 286 364
#     4   9  19  35  59  86 120 153 198 247 300 360
#     4  11  21  39  57  83 123 161 203 240 293 363
#     4  10  21  37  61  87 117 158 195 254 309 350
#     4  10  21  39  64  95 120 150 200 261 316 357
#
# _framework density 26.178179
#
# number of rings (size 3 to 8) (size 9 to 14) (size 15 to 20)
#    0.000    1.714    1.429    3.857    2.000    3.429 
#    2.571    0.000    0.000    5.143    0.000    0.000 
#    0.000    0.000    0.000    0.000    0.000    0.000 
#
# Total GULP energy -173455.767881 kJ/mol
# GULP energy per Si atom -12389.697706 kJ/mol
# Density = 2.611860 g / cm^3
# Si number density = 26.178179 Si / 1000 Ang^3
#
#
#
# Elastic Constant Matrix: (Units=GPa)
#
#
# Indices 1 2 3 4 5 6 
#
# 1 101.6481 36.8150 28.2946 4.6276 40.4695 -10.5390
# 2 36.8150 154.7627 33.5952 7.4845 14.2422 -3.1713
# 3 28.2946 33.5952 50.6693 19.3072 35.2559 17.8441
# 4 4.6276 7.4845 19.3072 34.2915 8.8986 14.7335
# 5 40.4695 14.2422 35.2559 8.8986 46.4853 -0.9810
# 6 -10.5390 -3.1713 17.8441 14.7335 -0.9810 40.1062
#
#
#
# Elastic Compliance Matrix: (Units=1/GPa)
#
#
# Indices 1 2 3 4 5 6 
#
# 1 0.016648 -0.003036 0.002576 -0.000182 -0.015425 0.002678
# 2 -0.003036 0.009498 -0.014967 0.001129 0.011005 0.006466
# 3 0.002576 -0.014967 0.094645 -0.016563 -0.067074 -0.038172
# 4 -0.000182 0.001129 -0.016563 0.040206 0.004525 -0.007249
# 5 -0.015425 0.011005 -0.067074 0.004525 0.082144 0.027006
# 6 0.002678 0.006466 -0.038172 -0.007249 0.027006 0.046456
#
#
# Mechanical properties :
#
#
# Convention : Reuss Voigt Hill
#
# Bulk Modulus (GPa) = 11.11887 56.05443 33.58665
# Shear Modulus (GPa) = 14.26820 38.06827 26.16824
#
# Velocity S-wave (km/s) = 2.33715 3.81753 3.16511
# Velocity P-wave (km/s) = 3.39700 6.39457 5.12007
#
# Compressibility (1/GPa) = 0.08993720
#
# Stress axis : x y z
#
# Youngs Moduli (GPa) = 60.06805 105.28761 10.56578
#
# Poissons Ratio (x) = 0.31967 -0.02722
# Poissons Ratio (y) = 0.18237 0.15813
# Poissons Ratio (z) = -0.15473 1.57580
#
# Static dielectric constant tensor:
#      x y z
#    x 5.015820 -0.081460 0.029710 
#    y -0.081460 3.737250 -0.391710 
#    z 0.029710 -0.391710 4.914670 
# 
# 
# High freq. dielectric constant tensor:
#      x y z
#    x 2.058860 0.006060 0.022900 
#    y 0.006060 2.041860 -0.001360 
#    z 0.022900 -0.001360 2.057260 
# 
# From -- ./inp_files/524397.got.cif
#   From: 2010.06.25/outbox.cif.g09.slc.cpg/sg2_263_cif.got.tgz:524397.got - 2010.06.27 13:26:56.
