data_PCOD8003219
_publ_section_title
;
Structure prediction by ZEFSAII (Michael W. Deem and Ramdas Pophale) SiO2 
 PCOD8003219
Probable space group: P -1
;
_chemical_formula_sum "Si O2"
_cell_formula_units_Z 16
_cell_length_a 9.026370
_cell_length_b 11.478396
_cell_length_c 17.753124
_cell_angle_alpha 31.215096
_cell_angle_beta 111.201500
_cell_angle_gamma 117.648724
_cell_volume 841.916095
_symmetry_space_group_name_H-M "P -1"
_symmetry_group_IT_number 2
_symmetry_cell_setting 'triclinic'
loop_
_space_group_symop_operation_xyz
x,y,z
-x,-y,-z
loop_
_atom_site_type_symbol
_atom_site_label
_atom_site_fract_x
_atom_site_fract_y
_atom_site_fract_z
Si Si1 0.590533 0.816854 0.133530
Si Si2 0.516894 0.152930 0.172755
Si Si3 0.442124 0.642290 0.697351
Si Si4 0.014716 0.244120 0.635212
Si Si5 0.719065 0.569870 0.070180
Si Si6 0.322085 0.955034 0.395792
Si Si7 0.613989 0.731070 0.349957
Si Si8 0.972153 0.029220 0.067263
O O1 0.530565 0.604911 0.180144
O O2 0.544270 0.695257 0.272889
O O3 0.779450 0.986423 0.067775
O O4 0.500000 0.000000 0.000000
O O5 0.667659 0.397499 0.083647
O O6 0.434304 0.019903 0.306488
O O7 0.593029 0.975779 0.240846
O O8 0.380172 0.234557 0.055024
O O9 0.318903 0.595082 0.771990
O O10 0.350874 0.722547 0.566136
O O11 0.619545 0.835851 0.646305
O O12 0.189801 0.248919 0.626416
O O13 0.981623 0.149084 0.767449
O O14 0.000000 0.500000 0.500000
O O15 0.870843 0.090342 0.636650
O O16 0.917631 0.707310 0.031434
O O17 0.500000 0.500000 0.500000
O O18 0.000000 0.000000 0.000000
#
# Coordination Sequence:
#
# PCOD8003219 Si02
#       8
#     2   2   2   2   2   2   2   2
#     4  11  23  39  56  86 119 154 191 240 302 344
#     4  10  20  39  62  86 117 156 195 240 300 348
#     4  10  20  37  61  86 116 151 197 239 288 349
#     4  11  23  39  60  90 118 155 202 239 293 351
#     4  10  20  36  64  87 114 154 198 240 294 355
#     4  10  20  38  64  85 113 154 198 242 287 346
#     4  11  24  39  60  86 120 154 196 247 291 350
#     4  11  22  38  60  88 117 151 201 245 285 351
#
# _framework density 19.004268
#
# number of rings (size 3 to 8) (size 9 to 14) (size 15 to 20)
#    0.000    1.500    2.500    3.750    0.000    0.000 
#    2.250    1.250    0.000    3.000    0.000    0.000 
#    0.000    0.000    0.000    0.000    0.000    0.000 
#
# Total GULP energy -198294.843180 kJ/mol
# GULP energy per Si atom -12393.427699 kJ/mol
# Density = 1.896101 g / cm^3
# Si number density = 19.004268 Si / 1000 Ang^3
#
#
#
# Elastic Constant Matrix: (Units=GPa)
#
#
# Indices 1 2 3 4 5 6 
#
# 1 84.1878 52.2434 44.8112 -8.3845 4.2202 5.6215
# 2 52.2434 107.8740 39.2635 -8.9466 1.1856 16.7797
# 3 44.8112 39.2635 108.3680 3.7859 -6.4586 13.3609
# 4 -8.3845 -8.9466 3.7859 45.2778 -6.0613 2.4330
# 5 4.2202 1.1856 -6.4586 -6.0613 34.9233 -1.2295
# 6 5.6215 16.7797 13.3609 2.4330 -1.2295 27.7009
#
#
#
# Elastic Compliance Matrix: (Units=1/GPa)
#
#
# Indices 1 2 3 4 5 6 
#
# 1 0.020135 -0.007820 -0.006142 0.002143 -0.002815 0.003300
# 2 -0.007820 0.014771 -0.001321 0.001991 0.000303 -0.006885
# 3 -0.006142 -0.001321 0.012957 -0.001908 0.002714 -0.003915
# 4 0.002143 0.001991 -0.001908 0.023623 0.003327 -0.002648
# 5 -0.002815 0.000303 0.002714 0.003327 0.030048 0.000120
# 6 0.003300 -0.006885 -0.003915 -0.002648 0.000120 0.041727
#
#
# Mechanical properties :
#
#
# Convention : Reuss Voigt Hill
#
# Bulk Modulus (GPa) = 57.81432 63.67402 60.74417
# Shear Modulus (GPa) = 27.84080 32.52116 30.18098
#
# Velocity S-wave (km/s) = 3.83165 4.14122 3.98944
# Velocity P-wave (km/s) = 7.07554 7.51293 7.29751
#
# Compressibility (1/GPa) = 0.01729675
#
# Stress axis : x y z
#
# Youngs Moduli (GPa) = 49.66576 67.70048 77.17721
#
# Poissons Ratio (x) = 0.52945 0.47402
# Poissons Ratio (y) = 0.38841 0.10192
# Poissons Ratio (z) = 0.30504 0.08941
#
# Static dielectric constant tensor:
#      x y z
#    x 1.073020 4.844180 0.833060 
#    y 4.844180 -8.075110 -2.204260 
#    z 0.833060 -2.204260 3.316470 
# 
# 
# High freq. dielectric constant tensor:
#      x y z
#    x 1.706700 0.010280 -0.009410 
#    y 0.010280 1.753550 0.004010 
#    z -0.009410 0.004010 1.762350 
# 
# From -- ./inp_files/257447.got.cif
#   From: 2010.06.25/outbox.cif.g09.slc.cpg/sg2_129_cif.got.tgz:257447.got - 2010.06.27 13:26:56.
