data_PCOD8003052
_publ_section_title
;
Structure prediction by ZEFSAII (Michael W. Deem and Ramdas Pophale) SiO2 
 PCOD8003052
Probable space group: P -1
;
_chemical_formula_sum "Si O2"
_cell_formula_units_Z 14
_cell_length_a 17.291119
_cell_length_b 9.128806
_cell_length_c 10.065163
_cell_angle_alpha 28.967821
_cell_angle_beta 122.411377
_cell_angle_gamma 121.938249
_cell_volume 642.550462
_symmetry_space_group_name_H-M "P -1"
_symmetry_group_IT_number 2
_symmetry_cell_setting 'triclinic'
loop_
_space_group_symop_operation_xyz
x,y,z
-x,-y,-z
loop_
_atom_site_type_symbol
_atom_site_label
_atom_site_fract_x
_atom_site_fract_y
_atom_site_fract_z
Si Si1 0.667176 0.926156 0.538013
Si Si2 0.024231 0.716742 0.659901
Si Si3 0.144383 0.218265 0.258389
Si Si4 0.431935 0.212120 0.715782
Si Si5 0.709385 0.828117 0.144202
Si Si6 0.392988 0.445035 0.977992
Si Si7 0.176231 0.522468 0.313656
O O1 0.770823 0.839936 0.710394
O O2 0.629461 0.922043 0.357747
O O3 0.658149 0.259813 0.320506
O O4 0.609211 0.678423 0.776190
O O5 0.931425 0.473033 0.747419
O O6 0.071305 0.901641 0.428891
O O7 0.100073 0.522344 0.942751
O O8 0.000000 0.000000 0.500000
O O9 0.181845 0.271266 0.402034
O O10 0.500000 0.500000 0.500000
O O11 0.364985 0.257426 0.739451
O O12 0.500000 0.000000 0.000000
O O13 0.659753 0.801600 0.977010
O O14 0.778210 0.580608 0.427405
O O15 0.770755 0.159672 0.945359
O O16 0.500000 0.500000 0.000000
#
# Coordination Sequence:
#
# PCOD8003052 Si02
#       7
#     2   2   2   2   2   2   2
#     4  12  25  44  69  95 133 174 224 274 327 401
#     4  10  20  36  62 101 140 171 205 271 333 402
#     4  11  21  38  65 100 137 169 217 268 336 392
#     4  12  25  42  65  97 128 165 217 285 341 375
#     4  12  24  41  67  94 132 170 223 275 321 396
#     4  12  27  47  66  92 132 183 228 265 332 406
#     4  11  21  38  65  99 133 165 218 268 335 382
#
# _framework density 21.788170999999998
#
# number of rings (size 3 to 8) (size 9 to 14) (size 15 to 20)
#    0.000    0.571    1.429    9.857    2.000    0.000 
#    0.000    0.000    0.000   17.143    0.000    0.000 
#    0.000    0.000    0.000    0.000    0.000    0.000 
#
# Total GULP energy -173477.501006 kJ/mol
# GULP energy per Si atom -12391.250072 kJ/mol
# Density = 2.173858 g / cm^3
# Si number density = 21.788171 Si / 1000 Ang^3
#
#
#
# Elastic Constant Matrix: (Units=GPa)
#
#
# Indices 1 2 3 4 5 6 
#
# 1 155.0837 51.4411 64.6382 -7.9206 3.2714 16.0393
# 2 51.4411 64.9860 24.6150 -6.0601 8.0048 14.3508
# 3 64.6382 24.6150 151.3406 -9.6564 8.8577 11.2494
# 4 -7.9206 -6.0601 -9.6564 37.9263 12.2331 -7.2352
# 5 3.2714 8.0048 8.8577 12.2331 39.7439 -5.7989
# 6 16.0393 14.3508 11.2494 -7.2352 -5.7989 27.8004
#
#
#
# Elastic Compliance Matrix: (Units=1/GPa)
#
#
# Indices 1 2 3 4 5 6 
#
# 1 0.010081 -0.006750 -0.003240 -0.000361 0.001238 -0.000857
# 2 -0.006750 0.023689 0.000260 0.002796 -0.006456 -0.009058
# 3 -0.003240 0.000260 0.008344 0.001980 -0.002495 -0.001646
# 4 -0.000361 0.002796 0.001980 0.031233 -0.010004 0.004006
# 5 0.001238 -0.006456 -0.002495 -0.010004 0.031090 0.007509
# 6 -0.000857 -0.009058 -0.001646 0.004006 0.007509 0.044416
#
#
# Mechanical properties :
#
#
# Convention : Reuss Voigt Hill
#
# Bulk Modulus (GPa) = 44.14263 72.53320 58.33791
# Shear Modulus (GPa) = 28.43084 36.47519 32.45301
#
# Velocity S-wave (km/s) = 3.61622 4.09599 3.86356
# Velocity P-wave (km/s) = 6.14329 7.46539 6.83637
#
# Compressibility (1/GPa) = 0.02265384
#
# Stress axis : x y z
#
# Youngs Moduli (GPa) = 99.19161 42.21388 119.84907
#
# Poissons Ratio (x) = 0.28494 0.38828
# Poissons Ratio (y) = 0.66954 -0.03111
# Poissons Ratio (z) = 0.32136 -0.01096
#
# Static dielectric constant tensor:
#      x y z
#    x 4.178210 -0.014690 -0.600340 
#    y -0.014690 3.227200 -0.917210 
#    z -0.600340 -0.917210 2.701840 
# 
# 
# High freq. dielectric constant tensor:
#      x y z
#    x 1.872170 0.026900 -0.001010 
#    y 0.026900 1.824850 -0.005480 
#    z -0.001010 -0.005480 1.877470 
# 
# From -- ./inp_files/216890.got.cif
#   From: 2010.06.25/outbox.cif.g09.slc.cpg/sg2_109_cif.got.tgz:216890.got - 2010.06.27 13:26:56.
