data_PCOD8003274
_publ_section_title
;
Structure prediction by ZEFSAII (Michael W. Deem and Ramdas Pophale) SiO2 
 PCOD8003274
Probable space group: P -1
;
_chemical_formula_sum "Si O2"
_cell_formula_units_Z 16
_cell_length_a 17.044645
_cell_length_b 7.400348
_cell_length_c 9.432130
_cell_angle_alpha 70.391437
_cell_angle_beta 50.550385
_cell_angle_gamma 49.637666
_cell_volume 694.161819
_symmetry_space_group_name_H-M "P -1"
_symmetry_group_IT_number 2
_symmetry_cell_setting 'triclinic'
loop_
_space_group_symop_operation_xyz
x,y,z
-x,-y,-z
loop_
_atom_site_type_symbol
_atom_site_label
_atom_site_fract_x
_atom_site_fract_y
_atom_site_fract_z
Si Si1 0.677793 0.650174 0.901907
Si Si2 0.332402 0.128665 0.729996
Si Si3 0.484210 0.749637 0.435924
Si Si4 0.863330 0.901731 0.922798
Si Si5 0.396079 0.861642 0.201210
Si Si6 0.782256 0.242886 0.678703
Si Si7 0.143621 0.630249 0.709575
Si Si8 0.258872 0.674062 0.830779
O O1 0.758390 0.463094 0.734514
O O2 0.694188 0.859913 0.813927
O O3 0.535079 0.741734 0.013324
O O4 0.723180 0.530605 0.035462
O O5 0.436475 0.138614 0.688508
O O6 0.255731 0.345812 0.645278
O O7 0.397979 0.869994 0.645165
O O8 0.229438 0.177772 0.953455
O O9 0.394550 0.844566 0.377401
O O10 0.597147 0.451902 0.374764
O O11 0.865825 0.007202 0.742084
O O12 0.799743 0.090288 0.074832
O O13 0.006435 0.682912 0.855450
O O14 0.346399 0.721726 0.225834
O O15 0.856189 0.218714 0.459045
O O16 0.160080 0.734869 0.806020
#
# Coordination Sequence:
#
# PCOD8003274 Si02
#       8
#     2   2   2   2   2   2   2   2
#     4   9  20  39  59  93 130 161 206 262 310 380
#     4  10  22  40  66  92 126 162 207 259 322 368
#     4   9  20  40  60  97 126 157 195 270 314 376
#     4  11  24  41  65  89 123 171 214 252 309 373
#     4  10  20  36  65  90 131 166 204 251 324 383
#     4  11  24  39  62  94 126 166 212 256 320 365
#     4  11  23  43  62  89 128 165 212 263 302 369
#     4   9  21  40  62  89 123 160 204 263 309 364
#
# _framework density 23.049381
#
# number of rings (size 3 to 8) (size 9 to 14) (size 15 to 20)
#    0.000    2.000    0.000    2.250    8.750    0.500 
#   18.000    0.000    0.000    3.000    0.000    0.000 
#    0.000    0.000    0.000    0.000    0.000    0.000 
#
# Total GULP energy -198348.439903 kJ/mol
# GULP energy per Si atom -12396.777494 kJ/mol
# Density = 2.299692 g / cm^3
# Si number density = 23.049381 Si / 1000 Ang^3
#
#
#
# Elastic Constant Matrix: (Units=GPa)
#
#
# Indices 1 2 3 4 5 6 
#
# 1 71.1025 19.1324 39.6649 2.3128 8.8509 -17.9179
# 2 19.1324 69.1307 30.6678 -3.3927 3.5245 -2.9027
# 3 39.6649 30.6678 85.6553 -15.9198 2.3860 -11.4449
# 4 2.3128 -3.3927 -15.9198 28.3697 -1.1530 4.8182
# 5 8.8509 3.5245 2.3860 -1.1530 38.0215 1.9269
# 6 -17.9179 -2.9027 -11.4449 4.8182 1.9269 25.8379
#
#
#
# Elastic Compliance Matrix: (Units=1/GPa)
#
#
# Indices 1 2 3 4 5 6 
#
# 1 0.025829 -0.001762 -0.011240 -0.011484 -0.006270 0.015345
# 2 -0.001762 0.017446 -0.005766 -0.000763 -0.000786 -0.001615
# 3 -0.011240 -0.005766 0.020959 0.012359 0.002293 -0.001634
# 4 -0.011484 -0.000763 0.012359 0.045103 0.003908 -0.011278
# 5 -0.006270 -0.000786 0.002293 0.003908 0.028125 -0.006247
# 6 0.015345 -0.001615 -0.001634 -0.011278 -0.006247 0.051008
#
#
# Mechanical properties :
#
#
# Convention : Reuss Voigt Hill
#
# Bulk Modulus (GPa) = 37.45546 44.97988 41.21767
# Shear Modulus (GPa) = 21.28531 27.54071 24.41301
#
# Velocity S-wave (km/s) = 3.04215 3.46042 3.25801
# Velocity P-wave (km/s) = 5.35023 5.96011 5.66339
#
# Compressibility (1/GPa) = 0.02669838
#
# Stress axis : x y z
#
# Youngs Moduli (GPa) = 38.71569 57.32050 47.71291
#
# Poissons Ratio (x) = 0.10100 0.53628
# Poissons Ratio (y) = 0.06822 0.27512
# Poissons Ratio (z) = 0.43515 0.33052
#
# Static dielectric constant tensor:
#      x y z
#    x 4.084910 0.141490 -0.030090 
#    y 0.141490 4.172400 -0.036790 
#    z -0.030090 -0.036790 4.202450 
# 
# 
# High freq. dielectric constant tensor:
#      x y z
#    x 1.914060 0.011980 0.001760 
#    y 0.011980 1.906390 -0.009280 
#    z 0.001760 -0.009280 1.910610 
# 
# From -- ./inp_files/327403.got.cif
#   From: 2010.06.25/outbox.cif.g09.slc.cpg/sg2_164_cif.got.tgz:327403.got - 2010.06.27 13:26:56.
