data_PCOD8003665
_publ_section_title
;
Structure prediction by ZEFSAII (Michael W. Deem and Ramdas Pophale) SiO2 
 PCOD8003665
Probable space group: P -1
;
_chemical_formula_sum "Si O2"
_cell_formula_units_Z 16
_cell_length_a 5.879554
_cell_length_b 20.764850
_cell_length_c 8.746336
_cell_angle_alpha 64.143981
_cell_angle_beta 128.945401
_cell_angle_gamma 97.404836
_cell_volume 731.084226
_symmetry_space_group_name_H-M "P -1"
_symmetry_group_IT_number 2
_symmetry_cell_setting 'triclinic'
loop_
_space_group_symop_operation_xyz
x,y,z
-x,-y,-z
loop_
_atom_site_type_symbol
_atom_site_label
_atom_site_fract_x
_atom_site_fract_y
_atom_site_fract_z
Si Si1 0.616988 0.891985 0.757302
Si Si2 0.701894 0.592578 0.662541
Si Si3 0.036179 0.637149 0.279516
Si Si4 0.981401 0.166816 0.441319
Si Si5 0.796233 0.532052 0.091064
Si Si6 0.301692 0.028440 0.601490
Si Si7 0.771037 0.727102 0.368336
Si Si8 0.105947 0.772807 0.987845
O O1 0.344269 0.850765 0.668268
O O2 0.643337 0.934770 0.570557
O O3 0.919852 0.830862 0.971924
O O4 0.562446 0.954007 0.807268
O O5 0.358412 0.585707 0.504281
O O6 0.735254 0.673571 0.547657
O O7 0.913583 0.533257 0.706896
O O8 0.807340 0.579208 0.894836
O O9 0.809762 0.585717 0.184838
O O10 0.912867 0.681138 0.331617
O O11 0.066832 0.691818 0.097451
O O12 0.015388 0.208066 0.253561
O O13 0.248826 0.092729 0.640894
O O14 0.016467 0.219299 0.542667
O O15 0.500000 0.500000 0.000000
O O16 0.000000 0.000000 0.500000
O O17 0.452349 0.777431 0.138308
#
# Coordination Sequence:
#
# PCOD8003665 Si02
#       8
#     2   2   2   2   2   2   2   2
#     4   9  17  33  60  86 113 155 200 242 289 340
#     4  10  24  42  62  86 117 153 193 237 292 351
#     4  11  24  41  60  86 121 155 191 239 292 349
#     4  10  20  37  60  86 118 155 196 242 292 346
#     4  11  24  42  65  89 114 151 196 241 291 346
#     4   8  16  32  57  86 116 154 197 241 290 340
#     4  11  24  39  59  89 121 154 193 239 292 349
#     4  10  22  38  59  85 120 157 195 240 292 348
#
# _framework density 21.885304999999999
#
# number of rings (size 3 to 8) (size 9 to 14) (size 15 to 20)
#    0.000    2.000    0.000    2.625    0.000   14.000 
#    0.000    0.625    0.000   30.750    0.000    0.000 
#    0.000    0.000    0.000    0.000    0.000    0.000 
#
# Total GULP energy -198278.006268 kJ/mol
# GULP energy per Si atom -12392.375392 kJ/mol
# Density = 2.183549 g / cm^3
# Si number density = 21.885305 Si / 1000 Ang^3
#
#
#
# Elastic Constant Matrix: (Units=GPa)
#
#
# Indices 1 2 3 4 5 6 
#
# 1 111.7284 58.9842 34.3388 1.6463 27.1162 -13.3423
# 2 58.9842 152.3690 62.1977 7.3441 14.8819 -16.9987
# 3 34.3388 62.1977 71.1275 -4.5853 28.8713 -15.6587
# 4 1.6463 7.3441 -4.5853 19.9297 -9.5312 4.9299
# 5 27.1162 14.8819 28.8713 -9.5312 37.8503 -10.3660
# 6 -13.3423 -16.9987 -15.6587 4.9299 -10.3660 39.5924
#
#
#
# Elastic Compliance Matrix: (Units=1/GPa)
#
#
# Indices 1 2 3 4 5 6 
#
# 1 0.013424 -0.004476 0.001296 -0.004004 -0.009550 0.001113
# 2 -0.004476 0.012754 -0.011467 -0.004364 0.006284 0.001621
# 3 0.001296 -0.011467 0.032264 0.001304 -0.019908 0.002899
# 4 -0.004004 -0.004364 0.001304 0.062316 0.017683 -0.005837
# 5 -0.009550 0.006284 -0.019908 0.017683 0.051198 0.002809
# 6 0.001113 0.001621 0.002899 -0.005837 0.002809 0.028937
#
#
# Mechanical properties :
#
#
# Convention : Reuss Voigt Hill
#
# Bulk Modulus (GPa) = 34.30657 71.80737 53.05697
# Shear Modulus (GPa) = 20.84162 31.45474 26.14818
#
# Velocity S-wave (km/s) = 3.08930 3.79523 3.46031
# Velocity P-wave (km/s) = 5.33242 7.21713 6.34514
#
# Compressibility (1/GPa) = 0.02914894
#
# Stress axis : x y z
#
# Youngs Moduli (GPa) = 74.49068 78.40577 30.99419
#
# Poissons Ratio (x) = 0.35095 -0.04018
# Poissons Ratio (y) = 0.33343 0.35541
# Poissons Ratio (z) = -0.09657 0.89909
#
# Static dielectric constant tensor:
#      x y z
#    x 4.095950 -0.203290 0.180770 
#    y -0.203290 4.135990 -0.553760 
#    z 0.180770 -0.553760 3.943380 
# 
# 
# High freq. dielectric constant tensor:
#      x y z
#    x 1.875600 -0.001750 0.004250 
#    y -0.001750 1.861630 -0.033920 
#    z 0.004250 -0.033920 1.839330 
# 
# From -- ./inp_files/9922.got.cif
#   From: 2010.06.25/outbox.cif.g09.slc.cpg/sg2_5_cif.got.tgz:9922.got - 2010.06.27 13:26:56.
