data_PCOD8003694
_publ_section_title
;
Structure prediction by ZEFSAII (Michael W. Deem and Ramdas Pophale) SiO2 
 PCOD8003694
Probable space group: P -1
;
_chemical_formula_sum "Si O2"
_cell_formula_units_Z 12
_cell_length_a 20.487765
_cell_length_b 10.161373
_cell_length_c 7.262658
_cell_angle_alpha 110.599683
_cell_angle_beta 50.020681
_cell_angle_gamma 147.821906
_cell_volume 544.463758
_symmetry_space_group_name_H-M "P -1"
_symmetry_group_IT_number 2
_symmetry_cell_setting 'triclinic'
loop_
_space_group_symop_operation_xyz
x,y,z
-x,-y,-z
loop_
_atom_site_type_symbol
_atom_site_label
_atom_site_fract_x
_atom_site_fract_y
_atom_site_fract_z
Si Si1 0.695083 0.323605 0.805674
Si Si2 0.948772 0.561115 0.741324
Si Si3 0.711563 0.790555 0.570653
Si Si4 0.419470 0.562345 0.052147
Si Si5 0.432289 0.694912 0.470537
Si Si6 0.254737 0.712691 0.688360
O O1 0.790665 0.411570 0.857180
O O2 0.695910 0.496526 0.889121
O O3 0.794704 0.399958 0.485722
O O4 0.500000 0.000000 0.000000
O O5 0.000000 0.500000 0.500000
O O6 0.898732 0.445399 0.985244
O O7 0.101775 0.888813 0.647276
O O8 0.694040 0.723433 0.787644
O O9 0.669549 0.592077 0.424311
O O10 0.573891 0.714867 0.732255
O O11 0.500380 0.771796 0.174748
O O12 0.309094 0.652272 0.674919
O O13 0.593870 0.956078 0.435698
#
# Coordination Sequence:
#
# PCOD8003694 Si02
#       6
#     2   2   2   2   2   2
#     4  11  22  39  64  90 118 160 205 239 296 366
#     4  12  25  38  62  90 122 161 196 253 305 343
#     4   9  18  35  63  87 121 155 197 247 300 349
#     4   8  17  35  60  87 113 158 201 239 291 361
#     4   8  15  33  59  81 114 158 190 239 292 346
#     4  10  20  37  60  89 120 156 202 243 294 360
#
# _framework density 22.040035
#
# number of rings (size 3 to 8) (size 9 to 14) (size 15 to 20)
#    1.000    1.333    0.000    5.000    0.000    2.000 
#    0.000    0.000    0.000    5.000    0.000    0.000 
#    0.000    0.000    0.000    0.000    0.000    0.000 
#
# Total GULP energy -148666.787060 kJ/mol
# GULP energy per Si atom -12388.898922 kJ/mol
# Density = 2.198987 g / cm^3
# Si number density = 22.040035 Si / 1000 Ang^3
#
#
#
# Elastic Constant Matrix: (Units=GPa)
#
#
# Indices 1 2 3 4 5 6 
#
# 1 62.1127 17.9308 11.4186 4.3226 -3.1829 -5.2180
# 2 17.9308 117.5275 35.5620 -8.1432 -2.2888 -16.8031
# 3 11.4186 35.5620 93.5453 5.9714 10.9807 2.6720
# 4 4.3226 -8.1432 5.9714 35.4893 -2.6085 -2.2384
# 5 -3.1829 -2.2888 10.9807 -2.6085 22.4042 5.5879
# 6 -5.2180 -16.8031 2.6720 -2.2384 5.5879 25.5255
#
#
#
# Elastic Compliance Matrix: (Units=1/GPa)
#
#
# Indices 1 2 3 4 5 6 
#
# 1 0.017376 -0.002042 -0.001539 -0.002047 0.002358 0.001673
# 2 -0.002042 0.011784 -0.004960 0.004421 0.001907 0.007829
# 3 -0.001539 -0.004960 0.013964 -0.004064 -0.007083 -0.003847
# 4 -0.002047 0.004421 -0.004064 0.030753 0.004583 0.004611
# 5 0.002358 0.001907 -0.007083 0.004583 0.051249 -0.008339
# 6 0.001673 0.007829 -0.003847 0.004611 -0.008339 0.047305
#
#
# Mechanical properties :
#
#
# Convention : Reuss Voigt Hill
#
# Bulk Modulus (GPa) = 38.39913 44.77868 41.58891
# Shear Modulus (GPa) = 25.22788 30.56874 27.89831
#
# Velocity S-wave (km/s) = 3.38692 3.72824 3.56167
# Velocity P-wave (km/s) = 5.72322 6.23651 5.98537
#
# Compressibility (1/GPa) = 0.02604225
#
# Stress axis : x y z
#
# Youngs Moduli (GPa) = 57.55057 84.86163 71.61189
#
# Poissons Ratio (x) = 0.17330 0.11018
# Poissons Ratio (y) = 0.11753 0.35520
# Poissons Ratio (z) = 0.08855 0.42093
#
# Static dielectric constant tensor:
#      x y z
#    x 3.800300 -0.297370 -0.049120 
#    y -0.297370 3.831350 0.209010 
#    z -0.049120 0.209010 3.810230 
# 
# 
# High freq. dielectric constant tensor:
#      x y z
#    x 1.844540 -0.023740 -0.002510 
#    y -0.023740 1.848750 0.017240 
#    z -0.002510 0.017240 1.861380 
# 
# From -- ./inp_files/353118.got.cif
#   From: 2010.06.25/outbox.cif.g09.slc.cpg/sg2_177_cif.got.tgz:353118.got - 2010.06.27 13:26:56.
