data_PCOD8003176
_publ_section_title
;
Structure prediction by ZEFSAII (Michael W. Deem and Ramdas Pophale) SiO2 
 PCOD8003176
Probable space group: P -1
;
_chemical_formula_sum "Si O2"
_cell_formula_units_Z 16
_cell_length_a 15.797179
_cell_length_b 11.402627
_cell_length_c 9.565587
_cell_angle_alpha 117.101123
_cell_angle_beta 33.959821
_cell_angle_gamma 103.398580
_cell_volume 818.999395
_symmetry_space_group_name_H-M "P -1"
_symmetry_group_IT_number 2
_symmetry_cell_setting 'triclinic'
loop_
_space_group_symop_operation_xyz
x,y,z
-x,-y,-z
loop_
_atom_site_type_symbol
_atom_site_label
_atom_site_fract_x
_atom_site_fract_y
_atom_site_fract_z
Si Si1 0.584583 0.659061 0.068048
Si Si2 0.588142 0.671075 0.388605
Si Si3 0.313968 0.646008 0.942468
Si Si4 0.314133 0.631928 0.249787
Si Si5 0.009271 0.123440 0.462613
Si Si6 0.347388 0.103463 0.410957
Si Si7 0.340518 0.127418 0.116920
Si Si8 0.109213 0.924730 0.688425
O O1 0.561061 0.718112 0.289365
O O2 0.430968 0.614665 0.211802
O O3 0.729565 0.514277 0.780911
O O4 0.586594 0.769842 0.009400
O O5 0.421664 0.700697 0.716156
O O6 0.682721 0.509711 0.185027
O O7 0.692684 0.764067 0.359962
O O8 0.377873 0.655883 0.018774
O O9 0.131636 0.739071 0.232815
O O10 0.169503 0.763522 0.557728
O O11 0.179500 0.144123 0.262899
O O12 0.000432 0.066663 0.289884
O O13 0.000000 0.000000 0.500000
O O14 0.308455 0.167808 0.344707
O O15 0.248621 0.995727 0.514526
O O16 0.533966 0.024779 0.137906
O O17 0.000000 0.000000 0.000000
#
# Coordination Sequence:
#
# PCOD8003176 Si02
#       8
#     2   2   2   2   2   2   2   2
#     4  10  20  36  63  92 113 150 206 247 283 343
#     4  10  21  36  62  91 120 156 198 248 289 351
#     4   9  20  40  60  86 123 161 196 236 303 356
#     4   9  19  40  61  85 117 161 195 235 299 353
#     4  11  22  41  62  87 117 160 201 240 295 355
#     4  11  23  41  62  86 119 162 197 240 302 358
#     4  11  23  40  62  88 117 159 204 240 294 360
#     4  11  24  41  60  88 123 155 194 246 303 349
#
# _framework density 19.536034999999998
#
# number of rings (size 3 to 8) (size 9 to 14) (size 15 to 20)
#    0.000    1.750    2.500    1.500    5.250    3.500 
#    2.250    2.500    0.000    0.000    0.000    0.000 
#    0.000    0.000    0.000    0.000    0.000    0.000 
#
# Total GULP energy -198245.433286 kJ/mol
# GULP energy per Si atom -12390.339580 kJ/mol
# Density = 1.949157 g / cm^3
# Si number density = 19.536035 Si / 1000 Ang^3
#
#
#
# Elastic Constant Matrix: (Units=GPa)
#
#
# Indices 1 2 3 4 5 6 
#
# 1 136.2093 37.8527 56.4661 13.6969 10.4881 2.8572
# 2 37.8527 73.9505 27.9283 13.4244 13.0205 -11.0301
# 3 56.4661 27.9283 106.0989 13.9915 15.9830 -3.0704
# 4 13.6969 13.4244 13.9915 25.9084 4.2696 3.7352
# 5 10.4881 13.0205 15.9830 4.2696 31.7122 -0.7471
# 6 2.8572 -11.0301 -3.0704 3.7352 -0.7471 31.0535
#
#
#
# Elastic Compliance Matrix: (Units=1/GPa)
#
#
# Indices 1 2 3 4 5 6 
#
# 1 0.010430 -0.003991 -0.004569 -0.000669 0.000518 -0.002736
# 2 -0.003991 0.019400 -0.000990 -0.007747 -0.004916 0.007974
# 3 -0.004569 -0.000990 0.013309 -0.003812 -0.004236 0.001741
# 4 -0.000669 -0.007747 -0.003812 0.046463 -0.001137 -0.008683
# 5 0.000518 -0.004916 -0.004236 -0.001137 0.035640 -0.001218
# 6 -0.002736 0.007974 0.001741 -0.008683 -0.001218 0.036474
#
#
# Mechanical properties :
#
#
# Convention : Reuss Voigt Hill
#
# Bulk Modulus (GPa) = 41.59878 62.30587 51.95233
# Shear Modulus (GPa) = 26.47909 30.66892 28.57401
#
# Velocity S-wave (km/s) = 3.68557 3.96645 3.82858
# Velocity P-wave (km/s) = 6.28099 7.27592 6.79668
#
# Compressibility (1/GPa) = 0.02403916
#
# Stress axis : x y z
#
# Youngs Moduli (GPa) = 95.88059 51.54537 75.13961
#
# Poissons Ratio (x) = 0.20570 0.34332
# Poissons Ratio (y) = 0.38263 0.07438
# Poissons Ratio (z) = 0.43809 0.05103
#
# Static dielectric constant tensor:
#      x y z
#    x 3.494450 -0.133300 0.170810 
#    y -0.133300 3.649050 0.282530 
#    z 0.170810 0.282530 3.601180 
# 
# 
# High freq. dielectric constant tensor:
#      x y z
#    x 1.767260 -0.010260 0.017280 
#    y -0.010260 1.768880 0.019910 
#    z 0.017280 0.019910 1.744240 
# 
# From -- ./inp_files/207850.got.cif
#   From: 2010.06.25/outbox.cif.g09.slc.cpg/sg2_104_cif.got.tgz:207850.got - 2010.06.27 13:26:56.
