data_PCOD8003599
_publ_section_title
;
Structure prediction by ZEFSAII (Michael W. Deem and Ramdas Pophale) SiO2 
 PCOD8003599
Probable space group: P -1
;
_chemical_formula_sum "Si O2"
_cell_formula_units_Z 14
_cell_length_a 13.107791
_cell_length_b 16.115994
_cell_length_c 12.372081
_cell_angle_alpha 40.151743
_cell_angle_beta 47.895780
_cell_angle_gamma 25.052070
_cell_volume 711.294524
_symmetry_space_group_name_H-M "P -1"
_symmetry_group_IT_number 2
_symmetry_cell_setting 'triclinic'
loop_
_space_group_symop_operation_xyz
x,y,z
-x,-y,-z
loop_
_atom_site_type_symbol
_atom_site_label
_atom_site_fract_x
_atom_site_fract_y
_atom_site_fract_z
Si Si1 0.339461 0.486374 0.446947
Si Si2 0.575968 0.033610 0.748929
Si Si3 0.748044 0.408536 0.023430
Si Si4 0.778523 0.259017 0.925838
Si Si5 0.190537 0.743025 0.643733
Si Si6 0.159897 0.260145 0.945887
Si Si7 0.964386 0.360294 0.297379
O O1 0.475668 0.247403 0.570100
O O2 0.245736 0.610436 0.275741
O O3 0.538053 0.428763 0.415747
O O4 0.109425 0.649312 0.527593
O O5 0.350874 0.112899 0.856906
O O6 0.743882 0.854044 0.709537
O O7 0.743360 0.913306 0.858790
O O8 0.458314 0.650540 0.987523
O O9 0.814744 0.260402 0.219515
O O10 0.836601 0.280613 0.976334
O O11 0.896817 0.425802 0.921178
O O12 0.000000 0.000000 0.000000
O O13 0.134311 0.649970 0.720874
O O14 0.000000 0.000000 0.500000
O O15 0.150171 0.409529 0.857908
#
# Coordination Sequence:
#
# PCOD8003599 Si02
#       7
#     2   2   2   2   2   2   2
#     4  10  22  38  57  88 118 156 199 245 296 342
#     4  10  20  37  59  89 126 154 185 241 295 359
#     4  10  22  41  62  86 120 153 199 249 292 343
#     4  10  24  42  62  86 112 160 210 249 285 341
#     4  11  20  35  60  93 123 153 184 246 308 350
#     4  10  21  38  59  93 123 156 191 234 301 362
#     4  11  21  34  59  90 127 153 188 232 296 369
#
# _framework density 19.682423
#
# number of rings (size 3 to 8) (size 9 to 14) (size 15 to 20)
#    0.000    1.714    2.857    0.857    2.000    2.286 
#   12.857    2.857    0.000    5.143    0.000    0.000 
#    0.000    0.000    0.000    0.000    0.000    0.000 
#
# Total GULP energy -173523.535049 kJ/mol
# GULP energy per Si atom -12394.538218 kJ/mol
# Density = 1.963763 g / cm^3
# Si number density = 19.682423 Si / 1000 Ang^3
#
#
#
# Elastic Constant Matrix: (Units=GPa)
#
#
# Indices 1 2 3 4 5 6 
#
# 1 97.9795 46.8673 48.4647 -2.1045 1.7256 -4.0561
# 2 46.8673 158.8515 64.7162 14.3550 0.8231 5.0279
# 3 48.4647 64.7162 112.1352 0.4557 8.0213 5.9195
# 4 -2.1045 14.3550 0.4557 37.3864 0.6043 -2.1406
# 5 1.7256 0.8231 8.0213 0.6043 24.1174 8.1840
# 6 -4.0561 5.0279 5.9195 -2.1406 8.1840 25.3729
#
#
#
# Elastic Compliance Matrix: (Units=1/GPa)
#
#
# Indices 1 2 3 4 5 6 
#
# 1 0.014007 -0.002501 -0.004786 0.002067 -0.000834 0.004295
# 2 -0.002501 0.009152 -0.004220 -0.003765 0.002121 -0.002231
# 3 -0.004786 -0.004220 0.013766 0.001129 -0.003466 -0.001927
# 4 0.002067 -0.003765 0.001129 0.028566 -0.002475 0.004022
# 5 -0.000834 0.002121 -0.003466 -0.002475 0.047892 -0.015401
# 6 0.004295 -0.002231 -0.001927 0.004022 -0.015401 0.046297
#
#
# Mechanical properties :
#
#
# Convention : Reuss Voigt Hill
#
# Bulk Modulus (GPa) = 71.87781 76.56251 74.22016
# Shear Modulus (GPa) = 26.69067 31.30323 28.99695
#
# Velocity S-wave (km/s) = 3.68648 3.99233 3.84245
# Velocity P-wave (km/s) = 7.39718 7.76112 7.58133
#
# Compressibility (1/GPa) = 0.01391250
#
# Stress axis : x y z
#
# Youngs Moduli (GPa) = 71.39472 109.26460 72.64027
#
# Poissons Ratio (x) = 0.27329 0.34762
# Poissons Ratio (y) = 0.17857 0.30651
# Poissons Ratio (z) = 0.34166 0.46105
#
# Static dielectric constant tensor:
#      x y z
#    x 3.610900 -0.194850 -0.015410 
#    y -0.194850 3.958000 0.373560 
#    z -0.015410 0.373560 3.679140 
# 
# 
# High freq. dielectric constant tensor:
#      x y z
#    x 1.735540 -0.009820 -0.005820 
#    y -0.009820 1.785660 0.021530 
#    z -0.005820 0.021530 1.769170 
# 
# From -- ./inp_files/431804.got.cif
#   From: 2010.06.25/outbox.cif.g09.slc.cpg/sg2_216_cif.got.tgz:431804.got - 2010.06.27 13:26:56.
