data_PCOD8003104
_publ_section_title
;
Structure prediction by ZEFSAII (Michael W. Deem and Ramdas Pophale) SiO2 
 PCOD8003104
Probable space group: P -1
;
_chemical_formula_sum "Si O2"
_cell_formula_units_Z 16
_cell_length_a 9.566881
_cell_length_b 9.996327
_cell_length_c 15.363913
_cell_angle_alpha 133.611025
_cell_angle_beta 79.345365
_cell_angle_gamma 71.128911
_cell_volume 808.706362
_symmetry_space_group_name_H-M "P -1"
_symmetry_group_IT_number 2
_symmetry_cell_setting 'triclinic'
loop_
_space_group_symop_operation_xyz
x,y,z
-x,-y,-z
loop_
_atom_site_type_symbol
_atom_site_label
_atom_site_fract_x
_atom_site_fract_y
_atom_site_fract_z
Si Si1 0.652291 0.857458 0.989615
Si Si2 0.683429 0.716427 0.523558
Si Si3 0.274919 0.557928 0.101257
Si Si4 0.475222 0.686153 0.388130
Si Si5 0.935576 0.889925 0.395737
Si Si6 0.491388 0.736691 0.208822
Si Si7 0.581043 0.665196 0.689997
Si Si8 0.062874 0.473247 0.312220
O O1 0.645622 0.652417 0.932250
O O2 0.847403 0.738762 0.865591
O O3 0.500000 0.000000 0.000000
O O4 0.594962 0.052017 0.156143
O O5 0.607427 0.710925 0.437728
O O6 0.618809 0.627785 0.566030
O O7 0.907277 0.511845 0.408747
O O8 0.608960 0.984995 0.670624
O O9 0.358590 0.690971 0.164311
O O10 0.058535 0.759827 0.236445
O O11 0.317315 0.439958 0.947249
O O12 0.535751 0.657565 0.268264
O O13 0.492238 0.463888 0.319741
O O14 0.267009 0.918934 0.531635
O O15 0.937786 0.716519 0.381669
O O16 0.000000 0.000000 0.500000
O O17 0.769597 0.573332 0.674452
#
# Coordination Sequence:
#
# PCOD8003104 Si02
#       8
#     2   2   2   2   2   2   2   2
#     4   9  18  35  59  89 117 153 198 250 304 347
#     4  12  24  40  58  95 126 157 200 252 305 361
#     4  10  20  36  62  93 117 152 205 258 292 349
#     4  12  24  40  62  87 129 167 192 243 315 362
#     4  11  18  37  63  92 117 154 206 246 297 362
#     4  11  21  37  60  89 123 153 199 254 298 347
#     4  11  22  41  62  86 122 162 207 244 296 366
#     4  10  20  36  64  89 116 155 207 253 297 347
#
# _framework density 19.784685
#
# number of rings (size 3 to 8) (size 9 to 14) (size 15 to 20)
#    0.000    1.250    5.000    2.625    0.000    0.000 
#    0.000    2.500    0.000    0.000    0.000    0.000 
#    0.000    0.000    0.000    0.000    0.000    0.000 
#
# Total GULP energy -198253.851019 kJ/mol
# GULP energy per Si atom -12390.865689 kJ/mol
# Density = 1.973965 g / cm^3
# Si number density = 19.784685 Si / 1000 Ang^3
#
#
#
# Elastic Constant Matrix: (Units=GPa)
#
#
# Indices 1 2 3 4 5 6 
#
# 1 56.5516 17.1418 45.3115 1.5563 2.4399 -4.1638
# 2 17.1418 85.9676 40.0938 -10.2979 -2.8614 13.5078
# 3 45.3115 40.0938 136.1220 -17.0077 -18.1296 5.3042
# 4 1.5563 -10.2979 -17.0077 40.7908 5.6733 -1.3864
# 5 2.4399 -2.8614 -18.1296 5.6733 20.6475 -4.3935
# 6 -4.1638 13.5078 5.3042 -1.3864 -4.3935 23.9648
#
#
#
# Elastic Compliance Matrix: (Units=1/GPa)
#
#
# Indices 1 2 3 4 5 6 
#
# 1 0.028231 -0.002461 -0.010909 -0.004549 -0.010624 0.006496
# 2 -0.002461 0.015314 -0.003444 0.002673 -0.003203 -0.008730
# 3 -0.010909 -0.003444 0.014083 0.003725 0.012015 -0.000653
# 4 -0.004549 0.002673 0.003725 0.027372 -0.003818 -0.002238
# 5 -0.010624 -0.003203 0.012015 -0.003818 0.062666 0.008568
# 6 0.006496 -0.008730 -0.000653 -0.002238 0.008568 0.049363
#
#
# Mechanical properties :
#
#
# Convention : Reuss Voigt Hill
#
# Bulk Modulus (GPa) = 41.66412 53.74838 47.70625
# Shear Modulus (GPa) = 20.95046 28.82022 24.88534
#
# Velocity S-wave (km/s) = 3.25764 3.82081 3.55041
# Velocity P-wave (km/s) = 5.93752 6.83304 6.40096
#
# Compressibility (1/GPa) = 0.02400147
#
# Stress axis : x y z
#
# Youngs Moduli (GPa) = 35.42143 65.29760 71.00580
#
# Poissons Ratio (x) = 0.16067 0.77461
# Poissons Ratio (y) = 0.08716 0.24456
# Poissons Ratio (z) = 0.38642 0.22490
#
# Static dielectric constant tensor:
#      x y z
#    x 3.316660 0.252680 -0.196420 
#    y 0.252680 3.611110 -0.167530 
#    z -0.196420 -0.167530 6.198940 
# 
# 
# High freq. dielectric constant tensor:
#      x y z
#    x 1.735800 0.017760 -0.012360 
#    y 0.017760 1.773970 -0.005170 
#    z -0.012360 -0.005170 1.794330 
# 
# From -- ./inp_files/270491.got.cif
#   From: 2010.06.25/outbox.cif.g09.slc.cpg/sg2_136_cif.got.tgz:270491.got - 2010.06.27 13:26:56.
