data_PCOD8003771
_publ_section_title
;
Structure prediction by ZEFSAII (Michael W. Deem and Ramdas Pophale) SiO2 
 PCOD8003771
Probable space group: P -1
;
_chemical_formula_sum "Si O2"
_cell_formula_units_Z 14
_cell_length_a 11.176499
_cell_length_b 8.224264
_cell_length_c 10.952880
_cell_angle_alpha 43.420758
_cell_angle_beta 98.915211
_cell_angle_gamma 78.105824
_cell_volume 603.691245
_symmetry_space_group_name_H-M "P -1"
_symmetry_group_IT_number 2
_symmetry_cell_setting 'triclinic'
loop_
_space_group_symop_operation_xyz
x,y,z
-x,-y,-z
loop_
_atom_site_type_symbol
_atom_site_label
_atom_site_fract_x
_atom_site_fract_y
_atom_site_fract_z
Si Si1 0.906161 0.900306 0.472089
Si Si2 0.313768 0.063648 0.917148
Si Si3 0.864303 0.428340 0.793263
Si Si4 0.398152 0.810960 0.803544
Si Si5 0.566369 0.724659 0.524970
Si Si6 0.437047 0.392677 0.683928
Si Si7 0.037053 0.108898 0.787567
O O1 0.915159 0.651666 0.687376
O O2 0.969653 0.798750 0.402723
O O3 0.747796 0.130407 0.310467
O O4 0.000000 0.000000 0.500000
O O5 0.332120 0.333873 0.782003
O O6 0.156927 0.132799 0.870285
O O7 0.370495 0.937195 0.863264
O O8 0.407750 0.855186 0.147644
O O9 0.701463 0.564482 0.716006
O O10 0.897740 0.300545 0.731297
O O11 0.936076 0.199608 0.032308
O O12 0.469955 0.961072 0.655213
O O13 0.500000 0.500000 0.000000
O O14 0.443433 0.662594 0.586954
O O15 0.607053 0.582552 0.476584
#
# Coordination Sequence:
#
# PCOD8003771 Si02
#       7
#     2   2   2   2   2   2   2
#     4  10  22  40  58  82 118 155 192 242 283 343
#     4   9  17  32  54  77 111 141 174 229 285 336
#     4  10  20  37  61  86 114 150 191 235 291 343
#     4   9  19  37  54  73 107 155 190 225 284 338
#     4   9  17  32  54  78 115 137 178 237 281 334
#     4   9  16  29  51  81 105 136 173 224 288 322
#     4  10  20  37  62  85 114 150 191 233 293 342
#
# _framework density 23.190662
#
# number of rings (size 3 to 8) (size 9 to 14) (size 15 to 20)
#    0.000    2.571    1.429    1.286    0.000    0.571 
#   10.286    0.714    0.000    0.000    0.000    0.000 
#    0.000    0.000    0.000    0.000    0.000    0.000 
#
# Total GULP energy -173487.133818 kJ/mol
# GULP energy per Si atom -12391.938130 kJ/mol
# Density = 2.313788 g / cm^3
# Si number density = 23.190662 Si / 1000 Ang^3
#
#
#
# Elastic Constant Matrix: (Units=GPa)
#
#
# Indices 1 2 3 4 5 6 
#
# 1 105.4288 31.5717 43.5518 -16.7577 -18.4437 30.7978
# 2 31.5717 29.8954 10.0974 -18.2065 1.9759 22.2296
# 3 43.5518 10.0974 82.6722 -25.8912 -13.8862 19.7104
# 4 -16.7577 -18.2065 -25.8912 38.2101 9.1586 -5.1391
# 5 -18.4437 1.9759 -13.8862 9.1586 37.7851 -6.2402
# 6 30.7978 22.2296 19.7104 -5.1391 -6.2402 36.5640
#
#
#
# Elastic Compliance Matrix: (Units=1/GPa)
#
#
# Indices 1 2 3 4 5 6 
#
# 1 0.026878 -0.058401 -0.018362 -0.030422 0.020428 0.021975
# 2 -0.058401 0.286624 0.067316 0.155540 -0.081799 -0.153453
# 3 -0.018362 0.067316 0.034811 0.046364 -0.017653 -0.040721
# 4 -0.030422 0.155540 0.046364 0.118545 -0.048815 -0.085601
# 5 0.020428 -0.081799 -0.017653 -0.048815 0.053373 0.044288
# 6 0.021975 -0.153453 -0.040721 -0.085601 0.044288 0.119612
#
#
# Mechanical properties :
#
#
# Convention : Reuss Voigt Hill
#
# Bulk Modulus (GPa) = 3.03564 43.15980 23.09772
# Shear Modulus (GPa) = 6.50582 31.36354 18.93468
#
# Velocity S-wave (km/s) = 1.67674 3.68152 2.86051
# Velocity P-wave (km/s) = 2.24954 6.05992 4.57073
#
# Compressibility (1/GPa) = 0.32942022
#
# Stress axis : x y z
#
# Youngs Moduli (GPa) = 37.20567 3.48889 28.72654
#
# Poissons Ratio (x) = 0.20375 0.52747
# Poissons Ratio (y) = 2.17283 -1.93375
# Poissons Ratio (z) = 0.68316 -0.23486
#
# Static dielectric constant tensor:
#      x y z
#    x 4.511960 0.361560 -0.355810 
#    y 0.361560 3.622140 -0.117470 
#    z -0.355810 -0.117470 4.447360 
# 
# 
# High freq. dielectric constant tensor:
#      x y z
#    x 1.921220 0.023270 -0.021980 
#    y 0.023270 1.863130 -0.004890 
#    z -0.021980 -0.004890 1.928690 
# 
# From -- ./inp_files/279347.got.cif
#   From: 2010.06.25/outbox.cif.g09.slc.cpg/sg2_140_cif.got.tgz:279347.got - 2010.06.27 13:26:56.
