data_PCOD8003489
_publ_section_title
;
Structure prediction by ZEFSAII (Michael W. Deem and Ramdas Pophale) SiO2 
 PCOD8003489
Probable space group: P -1
;
_chemical_formula_sum "Si O2"
_cell_formula_units_Z 16
_cell_length_a 12.877976
_cell_length_b 12.936680
_cell_length_c 11.456988
_cell_angle_alpha 95.433539
_cell_angle_beta 118.345183
_cell_angle_gamma 137.610538
_cell_volume 748.318791
_symmetry_space_group_name_H-M "P -1"
_symmetry_group_IT_number 2
_symmetry_cell_setting 'triclinic'
loop_
_space_group_symop_operation_xyz
x,y,z
-x,-y,-z
loop_
_atom_site_type_symbol
_atom_site_label
_atom_site_fract_x
_atom_site_fract_y
_atom_site_fract_z
Si Si1 0.481260 0.903776 0.278311
Si Si2 0.733788 0.728176 0.575990
Si Si3 0.980998 0.866052 0.502067
Si Si4 0.915472 0.140728 0.104736
Si Si5 0.042009 0.319418 0.718497
Si Si6 0.249886 0.931353 0.235046
Si Si7 0.458895 0.147795 0.921768
Si Si8 0.417351 0.677043 0.392243
O O1 0.287886 0.841337 0.212343
O O2 0.453980 0.878833 0.119432
O O3 0.384011 0.715993 0.258990
O O4 0.779388 0.165108 0.506900
O O5 0.500000 0.500000 0.500000
O O6 0.675501 0.804237 0.529932
O O7 0.757338 0.681035 0.463362
O O8 0.997863 0.907018 0.810764
O O9 0.889559 0.728564 0.326510
O O10 0.266542 0.059959 0.724026
O O11 0.000000 0.000000 0.500000
O O12 0.157335 0.411775 0.261246
O O13 0.693021 0.010323 0.060134
O O14 0.811803 0.047821 0.908556
O O15 0.986531 0.245605 0.815763
O O16 0.288330 0.589749 0.871702
O O17 0.519113 0.189563 0.458976
#
# Coordination Sequence:
#
# PCOD8003489 Si02
#       8
#     2   2   2   2   2   2   2   2
#     4  10  22  40  62  85 113 151 201 248 286 335
#     4   9  19  37  60  83 115 154 186 230 288 343
#     4  10  20  37  58  85 117 151 195 242 285 337
#     4  10  23  38  57  88 121 152 190 237 293 353
#     4  10  21  38  60  84 114 152 196 241 288 342
#     4  11  23  38  61  88 112 153 200 241 290 344
#     4  10  22  38  56  85 120 153 189 237 294 348
#     4  10  20  40  63  83 114 154 197 241 284 340
#
# _framework density 21.381262
#
# number of rings (size 3 to 8) (size 9 to 14) (size 15 to 20)
#    0.000    2.000    0.000    4.500    0.000    9.500 
#    0.000    5.000    0.000    0.000    0.000    0.000 
#    0.000    0.000    0.000    0.000    0.000    0.000 
#
# Total GULP energy -198277.425693 kJ/mol
# GULP energy per Si atom -12392.339106 kJ/mol
# Density = 2.133260 g / cm^3
# Si number density = 21.381262 Si / 1000 Ang^3
#
#
#
# Elastic Constant Matrix: (Units=GPa)
#
#
# Indices 1 2 3 4 5 6 
#
# 1 146.3029 51.1027 35.1676 -9.8862 -16.9618 21.2067
# 2 51.1027 78.2554 43.0352 3.6655 -5.0091 29.7030
# 3 35.1676 43.0352 77.0907 6.5313 -17.2130 15.6494
# 4 -9.8862 3.6655 6.5313 43.0464 1.2753 -1.9905
# 5 -16.9618 -5.0091 -17.2130 1.2753 22.9079 -9.8642
# 6 21.2067 29.7030 15.6494 -1.9905 -9.8642 41.5656
#
#
#
# Elastic Compliance Matrix: (Units=1/GPa)
#
#
# Indices 1 2 3 4 5 6 
#
# 1 0.009894 -0.006838 0.000231 0.002693 0.006464 0.001414
# 2 -0.006838 0.030276 -0.013699 -0.002380 -0.015867 -0.016869
# 3 0.000231 -0.013699 0.023595 -0.002648 0.017083 0.004715
# 4 0.002693 -0.002380 -0.002648 0.024586 -0.000900 0.002287
# 5 0.006464 -0.015867 0.017083 -0.000900 0.065192 0.017037
# 6 0.001414 -0.016869 0.004715 0.002287 0.017037 0.037769
#
#
# Mechanical properties :
#
#
# Convention : Reuss Voigt Hill
#
# Bulk Modulus (GPa) = 43.18728 62.25112 52.71920
# Shear Modulus (GPa) = 20.86453 32.99353 26.92903
#
# Velocity S-wave (km/s) = 3.12722 3.93250 3.55275
# Velocity P-wave (km/s) = 5.76904 7.05673 6.44512
#
# Compressibility (1/GPa) = 0.02315497
#
# Stress axis : x y z
#
# Youngs Moduli (GPa) = 101.06888 33.02958 42.38180
#
# Poissons Ratio (x) = 0.22584 -0.00981
# Poissons Ratio (y) = 0.69106 0.58059
# Poissons Ratio (z) = -0.02339 0.45247
#
# Static dielectric constant tensor:
#      x y z
#    x 7.747390 1.924630 -2.802260 
#    y 1.924630 4.819210 -1.799610 
#    z -2.802260 -1.799610 6.702110 
# 
# 
# High freq. dielectric constant tensor:
#      x y z
#    x 1.848960 0.019700 -0.001260 
#    y 0.019700 1.834670 -0.011820 
#    z -0.001260 -0.011820 1.824810 
# 
# From -- ./inp_files/428436.got.cif
#   From: 2010.06.25/outbox.cif.g09.slc.cpg/sg2_215_cif.got.tgz:428436.got - 2010.06.27 13:26:56.
