data_PCOD8003773
_publ_section_title
;
Structure prediction by ZEFSAII (Michael W. Deem and Ramdas Pophale) SiO2 
 PCOD8003773
Probable space group: P -1
;
_chemical_formula_sum "Si O2"
_cell_formula_units_Z 16
_cell_length_a 9.591547
_cell_length_b 20.469181
_cell_length_c 8.905853
_cell_angle_alpha 55.517012
_cell_angle_beta 46.624225
_cell_angle_gamma 38.614984
_cell_volume 791.477641
_symmetry_space_group_name_H-M "P -1"
_symmetry_group_IT_number 2
_symmetry_cell_setting 'triclinic'
loop_
_space_group_symop_operation_xyz
x,y,z
-x,-y,-z
loop_
_atom_site_type_symbol
_atom_site_label
_atom_site_fract_x
_atom_site_fract_y
_atom_site_fract_z
Si Si1 0.135001 0.114123 0.056265
Si Si2 0.462564 0.638646 0.060885
Si Si3 0.322136 0.249308 0.196712
Si Si4 0.724737 0.687459 0.318380
Si Si5 0.640685 0.326121 0.237569
Si Si6 0.099851 0.243343 0.660110
Si Si7 0.108645 0.591744 0.904478
Si Si8 0.515326 0.115006 0.942313
O O1 0.840726 0.202811 0.203976
O O2 0.209475 0.001361 0.128952
O O3 0.299171 0.108638 0.075189
O O4 0.191292 0.142349 0.818898
O O5 0.510139 0.719215 0.932859
O O6 0.472616 0.608711 0.918118
O O7 0.190020 0.690612 0.265643
O O8 0.676140 0.531063 0.131412
O O9 0.281140 0.207860 0.429913
O O10 0.046671 0.350059 0.207997
O O11 0.478937 0.153431 0.089329
O O12 0.585885 0.646755 0.530999
O O13 0.511037 0.804582 0.257242
O O14 0.884465 0.684157 0.338169
O O15 0.917003 0.608845 0.148522
O O16 0.776644 0.357071 0.190356
#
# Coordination Sequence:
#
# PCOD8003773 Si02
#       8
#     2   2   2   2   2   2   2   2
#     4   9  18  39  63  86 113 155 190 238 284 346
#     4  11  23  38  61  83 121 156 191 242 291 338
#     4  11  22  39  58  88 120 153 186 242 295 342
#     4  10  20  37  61  86 116 154 196 239 281 343
#     4  11  20  37  63  87 113 154 197 238 284 340
#     4  10  21  38  59  84 122 153 190 237 292 342
#     4  11  23  40  58  88 117 151 203 240 280 342
#     4   9  19  38  62  85 120 148 191 239 288 340
#
# _framework density 20.215351999999999
#
# number of rings (size 3 to 8) (size 9 to 14) (size 15 to 20)
#    0.000    1.750    6.250    0.750    0.000    5.000 
#    0.000    2.500    0.000    0.000    0.000    0.000 
#    0.000    0.000    0.000    0.000    0.000    0.000 
#
# Total GULP energy -198410.215775 kJ/mol
# GULP energy per Si atom -12400.638486 kJ/mol
# Density = 2.016934 g / cm^3
# Si number density = 20.215352 Si / 1000 Ang^3
#
#
#
# Elastic Constant Matrix: (Units=GPa)
#
#
# Indices 1 2 3 4 5 6 
#
# 1 77.1195 7.8029 30.2338 3.1189 -1.8493 2.0433
# 2 7.8029 76.6751 3.1638 4.1867 -10.2769 3.4312
# 3 30.2338 3.1638 83.3717 2.5020 -14.6267 7.7065
# 4 3.1189 4.1867 2.5020 10.6820 -2.5539 1.0919
# 5 -1.8493 -10.2769 -14.6267 -2.5539 27.8830 1.1735
# 6 2.0433 3.4312 7.7065 1.0919 1.1735 22.0166
#
#
#
# Elastic Compliance Matrix: (Units=1/GPa)
#
#
# Indices 1 2 3 4 5 6 
#
# 1 0.015572 -0.001629 -0.006159 -0.003354 -0.003160 0.001299
# 2 -0.001629 0.014233 0.001400 -0.003811 0.005636 -0.002668
# 3 -0.006159 0.001400 0.016270 0.000162 0.008903 -0.005824
# 4 -0.003354 -0.003811 0.000162 0.098333 0.007652 -0.004436
# 5 -0.003160 0.005636 0.008903 0.007652 0.043372 -0.006392
# 6 0.001299 -0.002668 -0.005824 -0.004436 -0.006392 0.048315
#
#
# Mechanical properties :
#
#
# Convention : Reuss Voigt Hill
#
# Bulk Modulus (GPa) = 30.03060 35.50747 32.76903
# Shear Modulus (GPa) = 19.23302 25.18071 22.20686
#
# Velocity S-wave (km/s) = 3.08783 3.53317 3.31798
# Velocity P-wave (km/s) = 5.25362 5.85210 5.56092
#
# Compressibility (1/GPa) = 0.03329937
#
# Stress axis : x y z
#
# Youngs Moduli (GPa) = 64.21893 70.25976 61.46209
#
# Poissons Ratio (x) = 0.11446 0.37855
# Poissons Ratio (y) = 0.10462 -0.08607
# Poissons Ratio (z) = 0.39553 -0.09839
#
# Static dielectric constant tensor:
#      x y z
#    x 3.675400 -0.116110 0.030330 
#    y -0.116110 3.657190 -0.020070 
#    z 0.030330 -0.020070 3.533070 
# 
# 
# High freq. dielectric constant tensor:
#      x y z
#    x 1.792280 -0.006480 0.000540 
#    y -0.006480 1.776930 -0.002530 
#    z 0.000540 -0.002530 1.775710 
# 
# From -- ./inp_files/200611.got.cif
#   From: 2010.06.25/outbox.cif.g09.slc.cpg/sg2_101_cif.got.tgz:200611.got - 2010.06.27 13:26:56.
