data_PCOD8003716
_publ_section_title
;
Structure prediction by ZEFSAII (Michael W. Deem and Ramdas Pophale) SiO2 
 PCOD8003716
Probable space group: P -1
;
_chemical_formula_sum "Si O2"
_cell_formula_units_Z 16
_cell_length_a 22.708044
_cell_length_b 7.652310
_cell_length_c 7.061946
_cell_angle_alpha 85.871196
_cell_angle_beta 48.800511
_cell_angle_gamma 60.512125
_cell_volume 741.731012
_symmetry_space_group_name_H-M "P -1"
_symmetry_group_IT_number 2
_symmetry_cell_setting 'triclinic'
loop_
_space_group_symop_operation_xyz
x,y,z
-x,-y,-z
loop_
_atom_site_type_symbol
_atom_site_label
_atom_site_fract_x
_atom_site_fract_y
_atom_site_fract_z
Si Si1 0.494339 0.344702 0.261455
Si Si2 0.212266 0.046744 0.101862
Si Si3 0.946539 0.012493 0.420979
Si Si4 0.860757 0.769895 0.145781
Si Si5 0.698354 0.940947 0.731415
Si Si6 0.953154 0.295264 0.104246
Si Si7 0.587491 0.211264 0.463947
Si Si8 0.598500 0.847823 0.697088
O O1 0.540179 0.406646 0.704592
O O2 0.595351 0.178336 0.949655
O O3 0.509806 0.284710 0.455421
O O4 0.405298 0.336956 0.380419
O O5 0.242219 0.149035 0.191252
O O6 0.146518 0.982369 0.334978
O O7 0.152295 0.227884 0.052693
O O8 0.312623 0.833834 0.823144
O O9 0.027247 0.806362 0.138826
O O10 0.000000 0.000000 0.500000
O O11 0.904874 0.225558 0.361744
O O12 0.761765 0.967071 0.441732
O O13 0.944342 0.796010 0.009031
O O14 0.883938 0.552406 0.207819
O O15 0.681266 0.767800 0.690475
O O16 0.612374 0.987245 0.508378
O O17 0.500000 0.000000 0.000000
#
# Coordination Sequence:
#
# PCOD8003716 Si02
#       8
#     2   2   2   2   2   2   2   2
#     4   9  21  39  65  93 126 171 216 262 318 383
#     4  11  22  39  67  90 130 168 214 265 322 382
#     4  11  22  42  62  95 128 165 206 268 324 379
#     4  11  21  42  64  94 123 167 214 261 318 387
#     4  10  21  39  61  92 126 167 211 262 319 376
#     4  10  24  40  67  91 128 163 212 263 321 391
#     4  10  20  40  65  94 128 171 217 263 321 379
#     4  10  20  37  60  90 126 167 209 264 317 376
#
# _framework density 21.571164
#
# number of rings (size 3 to 8) (size 9 to 14) (size 15 to 20)
#    0.000    1.750    3.750    0.375    0.000    3.500 
#    2.250   10.000    0.000    0.000    0.000    0.000 
#    0.000    0.000    0.000    0.000    0.000    0.000 
#
# Total GULP energy -198243.432107 kJ/mol
# GULP energy per Si atom -12390.214507 kJ/mol
# Density = 2.152207 g / cm^3
# Si number density = 21.571164 Si / 1000 Ang^3
#
#
#
# Elastic Constant Matrix: (Units=GPa)
#
#
# Indices 1 2 3 4 5 6 
#
# 1 182.9853 39.3305 52.9551 -3.3088 18.2896 3.1090
# 2 39.3305 61.3183 33.7379 -7.2368 1.5161 15.5038
# 3 52.9551 33.7379 119.5917 -7.4065 -2.5354 -0.3203
# 4 -3.3088 -7.2368 -7.4065 25.4415 -1.0494 3.6299
# 5 18.2896 1.5161 -2.5354 -1.0494 41.0845 -0.4228
# 6 3.1090 15.5038 -0.3203 3.6299 -0.4228 23.0616
#
#
#
# Elastic Compliance Matrix: (Units=1/GPa)
#
#
# Indices 1 2 3 4 5 6 
#
# 1 0.007222 -0.003910 -0.002233 -0.001206 -0.003221 0.001755
# 2 -0.003910 0.027902 -0.005652 0.008603 0.000380 -0.019656
# 3 -0.002233 -0.005652 0.011047 0.000804 0.001948 0.004163
# 4 -0.001206 0.008603 0.000804 0.043660 0.001256 -0.012459
# 5 -0.003221 0.000380 0.001948 0.001256 0.025917 0.000484
# 6 0.001755 -0.019656 0.004163 -0.012459 0.000484 0.058368
#
#
# Mechanical properties :
#
#
# Convention : Reuss Voigt Hill
#
# Bulk Modulus (GPa) = 44.28460 68.43803 56.36132
# Shear Modulus (GPa) = 24.36258 33.77563 29.06910
#
# Velocity S-wave (km/s) = 3.36431 3.96128 3.67494
# Velocity P-wave (km/s) = 5.97206 7.26071 6.64768
#
# Compressibility (1/GPa) = 0.02258121
#
# Stress axis : x y z
#
# Youngs Moduli (GPa) = 138.46743 35.84000 90.51991
#
# Poissons Ratio (x) = 0.14013 0.20214
# Poissons Ratio (y) = 0.54140 0.51160
# Poissons Ratio (z) = 0.30922 0.20256
#
# Static dielectric constant tensor:
#      x y z
#    x 4.794780 0.210500 -0.000260 
#    y 0.210500 3.533440 0.062350 
#    z -0.000260 0.062350 4.033080 
# 
# 
# High freq. dielectric constant tensor:
#      x y z
#    x 1.870650 -0.002410 0.008860 
#    y -0.002410 1.802670 0.000630 
#    z 0.008860 0.000630 1.859860 
# 
# From -- ./inp_files/122866.got.cif
#   From: 2010.06.25/outbox.cif.g09.slc.cpg/sg2_62_cif.got.tgz:122866.got - 2010.06.27 13:26:56.
