data_PCOD8003608
_publ_section_title
;
Structure prediction by ZEFSAII (Michael W. Deem and Ramdas Pophale) SiO2 
 PCOD8003608
Probable space group: P -1
;
_chemical_formula_sum "Si O2"
_cell_formula_units_Z 16
_cell_length_a 16.854936
_cell_length_b 9.325337
_cell_length_c 16.293948
_cell_angle_alpha 146.207608
_cell_angle_beta 39.125311
_cell_angle_gamma 144.625531
_cell_volume 785.388087
_symmetry_space_group_name_H-M "P -1"
_symmetry_group_IT_number 2
_symmetry_cell_setting 'triclinic'
loop_
_space_group_symop_operation_xyz
x,y,z
-x,-y,-z
loop_
_atom_site_type_symbol
_atom_site_label
_atom_site_fract_x
_atom_site_fract_y
_atom_site_fract_z
Si Si1 0.575169 0.296217 0.215862
Si Si2 0.004302 0.577418 0.661028
Si Si3 0.739581 0.087621 0.722252
Si Si4 0.272511 0.010075 0.129068
Si Si5 0.020602 0.086898 0.307554
Si Si6 0.250500 0.407419 0.631319
Si Si7 0.512716 0.401393 0.701254
Si Si8 0.719018 0.212695 0.359965
O O1 0.612671 0.421493 0.337564
O O2 0.562119 0.546194 0.293195
O O3 0.425965 0.982466 0.182279
O O4 0.700421 0.240740 0.052375
O O5 0.848877 0.404403 0.747570
O O6 0.001967 0.826371 0.724257
O O7 0.034678 0.342095 0.478089
O O8 0.132746 0.743913 0.700884
O O9 0.790010 0.083010 0.772761
O O10 0.735319 0.820234 0.547688
O O11 0.163224 0.057809 0.182466
O O12 0.422928 0.314629 0.156709
O O13 0.890399 0.767478 0.283127
O O14 0.241919 0.651114 0.697366
O O15 0.645341 0.354166 0.543917
O O16 0.393885 0.133225 0.721721
#
# Coordination Sequence:
#
# PCOD8003608 Si02
#       8
#     2   2   2   2   2   2   2   2
#     4  11  23  39  59  88 125 157 191 239 297 355
#     4  10  20  37  59  91 118 149 198 254 293 333
#     4  10  20  37  63  86 117 155 202 240 287 349
#     4  11  21  41  61  85 123 159 195 232 298 363
#     4  10  21  36  60  88 121 154 194 247 298 340
#     4  11  21  37  61  90 119 150 202 246 288 341
#     4  10  21  36  59  88 118 154 191 238 296 344
#     4  11  20  35  61  89 118 145 197 249 289 339
#
# _framework density 20.372094000000001
#
# number of rings (size 3 to 8) (size 9 to 14) (size 15 to 20)
#    0.000    1.500    3.750    3.375    0.000    3.500 
#    0.000    3.750    0.000    5.250    0.000    0.000 
#    0.000    0.000    0.000    0.000    0.000    0.000 
#
# Total GULP energy -198402.638400 kJ/mol
# GULP energy per Si atom -12400.164900 kJ/mol
# Density = 2.032573 g / cm^3
# Si number density = 20.372094 Si / 1000 Ang^3
#
#
#
# Elastic Constant Matrix: (Units=GPa)
#
#
# Indices 1 2 3 4 5 6 
#
# 1 149.7362 59.6408 29.3170 -12.7956 -12.1704 -11.7702
# 2 59.6408 155.6137 16.6993 -16.9144 -0.6110 -24.2162
# 3 29.3170 16.6993 63.5481 -7.9958 -3.9891 -5.4472
# 4 -12.7956 -16.9144 -7.9958 13.4490 7.1763 1.3399
# 5 -12.1704 -0.6110 -3.9891 7.1763 18.2135 -1.2724
# 6 -11.7702 -24.2162 -5.4472 1.3399 -1.2724 28.0145
#
#
#
# Elastic Compliance Matrix: (Units=1/GPa)
#
#
# Indices 1 2 3 4 5 6 
#
# 1 0.008926 -0.002928 -0.002920 0.000209 0.005206 0.000878
# 2 -0.002928 0.009831 0.000513 0.012410 -0.005950 0.006504
# 3 -0.002920 0.000513 0.018214 0.009231 -0.001425 0.002252
# 4 0.000209 0.012410 0.009231 0.118512 -0.043772 0.004954
# 5 0.005206 -0.005950 -0.001425 -0.043772 0.075277 0.002280
# 6 0.000878 0.006504 0.002252 0.004954 0.002280 0.041991
#
#
# Mechanical properties :
#
#
# Convention : Reuss Voigt Hill
#
# Bulk Modulus (GPa) = 38.02270 64.46800 51.24535
# Shear Modulus (GPa) = 17.11220 29.48479 23.29850
#
# Velocity S-wave (km/s) = 2.90139 3.80848 3.38545
# Velocity P-wave (km/s) = 5.47071 7.14516 6.36326
#
# Compressibility (1/GPa) = 0.02630008
#
# Stress axis : x y z
#
# Youngs Moduli (GPa) = 112.02704 101.71935 54.90393
#
# Poissons Ratio (x) = 0.29783 0.16034
# Poissons Ratio (y) = 0.32802 -0.02816
# Poissons Ratio (z) = 0.32716 -0.05217
#
# Static dielectric constant tensor:
#      x y z
#    x 3.694600 -0.024470 -0.048610 
#    y -0.024470 3.889890 -0.107800 
#    z -0.048610 -0.107800 3.341880 
# 
# 
# High freq. dielectric constant tensor:
#      x y z
#    x 1.800880 0.003250 -0.005240 
#    y 0.003250 1.802690 -0.004430 
#    z -0.005240 -0.004430 1.765240 
# 
# From -- ./inp_files/320269.got.cif
#   From: 2010.06.25/outbox.cif.g09.slc.cpg/sg2_161_cif.got.tgz:320269.got - 2010.06.27 13:26:56.
