data_PCOD8003753
_publ_section_title
;
Structure prediction by ZEFSAII (Michael W. Deem and Ramdas Pophale) SiO2 
 PCOD8003753
Probable space group: P -1
;
_chemical_formula_sum "Si O2"
_cell_formula_units_Z 14
_cell_length_a 7.982331
_cell_length_b 13.036531
_cell_length_c 7.490114
_cell_angle_alpha 90.089231
_cell_angle_beta 90.778312
_cell_angle_gamma 55.038430
_cell_volume 638.698556
_symmetry_space_group_name_H-M "P -1"
_symmetry_group_IT_number 2
_symmetry_cell_setting 'triclinic'
loop_
_space_group_symop_operation_xyz
x,y,z
-x,-y,-z
loop_
_atom_site_type_symbol
_atom_site_label
_atom_site_fract_x
_atom_site_fract_y
_atom_site_fract_z
Si Si1 0.873755 0.821061 0.495114
Si Si2 0.920087 0.292861 0.851422
Si Si3 0.174509 0.775128 0.802759
Si Si4 0.233255 0.927803 0.561110
Si Si5 0.801272 0.631850 0.055852
Si Si6 0.635214 0.697989 0.435853
Si Si7 0.608833 0.578355 0.766357
O O1 0.759825 0.753597 0.502627
O O2 0.047734 0.763360 0.344605
O O3 0.981996 0.802911 0.685883
O O4 0.715179 0.968867 0.440746
O O5 0.732013 0.437750 0.838587
O O6 0.129044 0.274400 0.924180
O O7 0.874122 0.216885 0.987805
O O8 0.239230 0.869921 0.755341
O O9 0.369121 0.633961 0.760143
O O10 0.394010 0.811806 0.434783
O O11 0.000000 0.000000 0.500000
O O12 0.705912 0.631635 0.244894
O O13 0.634002 0.667467 0.901898
O O14 0.000000 0.500000 0.000000
O O15 0.684988 0.587622 0.572245
#
# Coordination Sequence:
#
# PCOD8003753 Si02
#       7
#     2   2   2   2   2   2   2
#     4  10  21  37  57  81 110 146 189 229 274 330
#     4  10  21  35  55  82 112 149 185 225 277 330
#     4  10  21  36  55  80 114 149 185 231 277 326
#     4   9  20  38  58  82 110 146 189 231 277 326
#     4   9  20  36  56  82 113 146 185 225 271 331
#     4  10  20  37  61  83 111 148 183 231 281 323
#     4  10  21  35  55  85 114 146 185 225 279 336
#
# _framework density 21.919573
#
# number of rings (size 3 to 8) (size 9 to 14) (size 15 to 20)
#    0.000    2.286    0.000    1.714    0.000   12.000 
#    0.000    4.286    0.000   15.429    0.000    0.000 
#    0.000    0.000    0.000    0.000    0.000    0.000 
#
# Total GULP energy -173478.689682 kJ/mol
# GULP energy per Si atom -12391.334977 kJ/mol
# Density = 2.186968 g / cm^3
# Si number density = 21.919573 Si / 1000 Ang^3
#
#
#
# Elastic Constant Matrix: (Units=GPa)
#
#
# Indices 1 2 3 4 5 6 
#
# 1 51.2905 15.5803 20.0487 -7.7121 -14.4067 -14.0757
# 2 15.5803 76.1131 30.8538 -14.0466 -2.6632 -6.6818
# 3 20.0487 30.8538 109.0782 -12.4779 -29.1106 -5.7055
# 4 -7.7121 -14.0466 -12.4779 26.6706 4.0864 -0.9959
# 5 -14.4067 -2.6632 -29.1106 4.0864 35.4712 -2.5914
# 6 -14.0757 -6.6818 -5.7055 -0.9959 -2.5914 23.0241
#
#
#
# Elastic Compliance Matrix: (Units=1/GPa)
#
#
# Indices 1 2 3 4 5 6 
#
# 1 0.030176 -0.003124 0.000572 0.006049 0.013214 0.019432
# 2 -0.003124 0.016807 -0.004499 0.006569 -0.004336 0.001649
# 3 0.000572 -0.004499 0.013841 0.002695 0.011224 0.003854
# 4 0.006049 0.006569 0.002695 0.044169 0.000677 0.008259
# 5 0.013214 -0.004336 0.011224 0.000677 0.043428 0.014519
# 6 0.019432 0.001649 0.003854 0.008259 0.014519 0.058737
#
#
# Mechanical properties :
#
#
# Convention : Reuss Voigt Hill
#
# Bulk Modulus (GPa) = 21.40360 41.04970 31.22665
# Shear Modulus (GPa) = 21.11182 28.36645 24.73913
#
# Velocity S-wave (km/s) = 3.10683 3.60128 3.36316
# Velocity P-wave (km/s) = 4.75980 6.00503 5.41831
#
# Compressibility (1/GPa) = 0.04672112
#
# Stress axis : x y z
#
# Youngs Moduli (GPa) = 33.13886 59.49866 72.25087
#
# Poissons Ratio (x) = 0.18590 -0.04135
# Poissons Ratio (y) = 0.10354 0.32507
# Poissons Ratio (z) = -0.01896 0.26770
#
# Static dielectric constant tensor:
#      x y z
#    x 4.245470 0.050930 -0.000480 
#    y 0.050930 4.131690 -0.129790 
#    z -0.000480 -0.129790 4.032980 
# 
# 
# High freq. dielectric constant tensor:
#      x y z
#    x 1.865450 -0.006680 -0.015910 
#    y -0.006680 1.847620 -0.009370 
#    z -0.015910 -0.009370 1.856480 
# 
# From -- ./inp_files/27866.got.cif
#   From: 2010.06.25/outbox.cif.g09.slc.cpg/sg2_14_cif.got.tgz:27866.got - 2010.06.27 13:26:56.
