data_PCOD8003848
_publ_section_title
;
Structure prediction by ZEFSAII (Michael W. Deem and Ramdas Pophale) SiO2 
 PCOD8003848
Probable space group: P -1
;
_chemical_formula_sum "Si O2"
_cell_formula_units_Z 16
_cell_length_a 8.406700
_cell_length_b 13.721759
_cell_length_c 18.747244
_cell_angle_alpha 158.402478
_cell_angle_beta 95.536703
_cell_angle_gamma 94.782901
_cell_volume 698.299003
_symmetry_space_group_name_H-M "P -1"
_symmetry_group_IT_number 2
_symmetry_cell_setting 'triclinic'
loop_
_space_group_symop_operation_xyz
x,y,z
-x,-y,-z
loop_
_atom_site_type_symbol
_atom_site_label
_atom_site_fract_x
_atom_site_fract_y
_atom_site_fract_z
Si Si1 0.330508 0.086849 0.890596
Si Si2 0.209158 0.871231 0.260609
Si Si3 0.771376 0.112419 0.458739
Si Si4 0.026617 0.174348 0.387296
Si Si5 0.995494 0.301694 0.723653
Si Si6 0.548571 0.432262 0.653879
Si Si7 0.635429 0.439219 0.035736
Si Si8 0.600859 0.272664 0.243640
O O1 0.404194 0.858691 0.766722
O O2 0.118212 0.915175 0.744015
O O3 0.440019 0.246743 0.932458
O O4 0.350246 0.311301 0.108562
O O5 0.066310 0.679833 0.185552
O O6 0.331730 0.715889 0.138007
O O7 0.104198 0.933389 0.232060
O O8 0.354473 0.197980 0.520871
O O9 0.856685 0.321612 0.675408
O O10 0.656868 0.255241 0.514773
O O11 0.937838 0.162100 0.451100
O O12 0.649379 0.758224 0.230020
O O13 0.185566 0.514392 0.616848
O O14 0.000000 0.000000 0.500000
O O15 0.207926 0.541994 0.890138
O O16 0.510556 0.543006 0.650366
O O17 0.500000 0.000000 0.000000
#
# Coordination Sequence:
#
# PCOD8003848 Si02
#       8
#     2   2   2   2   2   2   2   2
#     4  11  24  43  68  97 132 173 221 275 329 390
#     4  11  22  41  62  94 138 180 217 261 328 391
#     4  11  24  40  65 101 136 172 223 267 331 393
#     4  11  23  41  67  99 133 167 221 275 324 393
#     4  10  20  37  61  92 130 176 212 260 319 392
#     4  10  23  42  66  96 128 178 220 274 327 388
#     4  11  24  39  64  98 137 178 213 268 329 395
#     4   9  22  46  72  91 127 174 222 274 335 387
#
# _framework density 22.912821000000001
#
# number of rings (size 3 to 8) (size 9 to 14) (size 15 to 20)
#    0.000    1.500    2.500    3.000    5.250    4.000 
#    0.000    9.375    0.000    0.000    0.000    0.000 
#    0.000    0.000    0.000    0.000    0.000    0.000 
#
# Total GULP energy -198224.855615 kJ/mol
# GULP energy per Si atom -12389.053476 kJ/mol
# Density = 2.286067 g / cm^3
# Si number density = 22.912821 Si / 1000 Ang^3
#
#
#
# Elastic Constant Matrix: (Units=GPa)
#
#
# Indices 1 2 3 4 5 6 
#
# 1 107.0809 44.3686 53.2494 10.3528 -2.0007 -23.8383
# 2 44.3686 104.4465 39.8182 9.3453 -7.3902 -23.7964
# 3 53.2494 39.8182 100.2001 3.1967 19.1903 -14.3619
# 4 10.3528 9.3453 3.1967 37.5597 -2.4222 1.7070
# 5 -2.0007 -7.3902 19.1903 -2.4222 42.5316 0.0983
# 6 -23.8383 -23.7964 -14.3619 1.7070 0.0983 44.2527
#
#
#
# Elastic Compliance Matrix: (Units=1/GPa)
#
#
# Indices 1 2 3 4 5 6 
#
# 1 0.015172 -0.002141 -0.007061 -0.003053 0.003343 0.004841
# 2 -0.002141 0.013765 -0.004334 -0.002426 0.004097 0.004927
# 3 -0.007061 -0.004334 0.016994 0.001047 -0.008692 -0.000640
# 4 -0.003053 -0.002426 0.001047 0.028185 0.000576 -0.003698
# 5 0.003343 0.004097 -0.008692 0.000576 0.028333 0.001098
# 6 0.004841 0.004927 -0.000640 -0.003698 0.001098 0.027787
#
#
# Mechanical properties :
#
#
# Convention : Reuss Voigt Hill
#
# Bulk Modulus (GPa) = 53.02020 65.17775 59.09897
# Shear Modulus (GPa) = 30.56314 36.48824 33.52569
#
# Velocity S-wave (km/s) = 3.65621 3.99492 3.82931
# Velocity P-wave (km/s) = 6.40422 7.05598 6.73799
#
# Compressibility (1/GPa) = 0.01886074
#
# Stress axis : x y z
#
# Youngs Moduli (GPa) = 65.90877 72.64728 58.84308
#
# Poissons Ratio (x) = 0.15551 0.41552
# Poissons Ratio (y) = 0.14109 0.25500
# Poissons Ratio (z) = 0.46541 0.31482
#
# Static dielectric constant tensor:
#      x y z
#    x 4.271750 -0.737730 0.400830 
#    y -0.737730 4.740220 -0.354190 
#    z 0.400830 -0.354190 4.743030 
# 
# 
# High freq. dielectric constant tensor:
#      x y z
#    x 1.908170 -0.031560 0.016200 
#    y -0.031560 1.883690 -0.005900 
#    z 0.016200 -0.005900 1.919900 
# 
# From -- ./inp_files/590358.got.cif
#   From: 2010.06.25/outbox.cif.g09.slc.cpg/sg2_296_cif.got.tgz:590358.got - 2010.06.27 13:26:56.
