data_PCOD8003134
_publ_section_title
;
Structure prediction by ZEFSAII (Michael W. Deem and Ramdas Pophale) SiO2 
 PCOD8003134
Probable space group: P -1
;
_chemical_formula_sum "Si O2"
_cell_formula_units_Z 16
_cell_length_a 8.018185
_cell_length_b 8.247660
_cell_length_c 13.075849
_cell_angle_alpha 52.311158
_cell_angle_beta 90.286950
_cell_angle_gamma 77.546265
_cell_volume 657.628081
_symmetry_space_group_name_H-M "P -1"
_symmetry_group_IT_number 2
_symmetry_cell_setting 'triclinic'
loop_
_space_group_symop_operation_xyz
x,y,z
-x,-y,-z
loop_
_atom_site_type_symbol
_atom_site_label
_atom_site_fract_x
_atom_site_fract_y
_atom_site_fract_z
Si Si1 0.455796 0.624724 0.555106
Si Si2 0.660477 0.895730 0.644666
Si Si3 0.769504 0.593809 0.130214
Si Si4 0.955404 0.186693 0.009517
Si Si5 0.979477 0.127177 0.262417
Si Si6 0.155145 0.236157 0.514350
Si Si7 0.414674 0.517576 0.177512
Si Si8 0.822573 0.574255 0.357088
O O1 0.500000 0.500000 0.500000
O O2 0.575746 0.481043 0.699209
O O3 0.257999 0.627032 0.575198
O O4 0.468806 0.867067 0.456221
O O5 0.720112 0.816391 0.561234
O O6 0.557179 0.734187 0.753695
O O7 0.817885 0.891769 0.721979
O O8 0.868681 0.345319 0.227559
O O9 0.567643 0.610509 0.092481
O O10 0.775921 0.700624 0.200897
O O11 0.881327 0.710368 0.014959
O O12 0.775309 0.354120 0.911215
O O13 0.929121 0.099943 0.155009
O O14 0.000000 0.000000 0.000000
O O15 0.942395 0.942494 0.401600
O O16 0.254011 0.269180 0.607427
O O17 0.028203 0.472587 0.403634
#
# Coordination Sequence:
#
# PCOD8003134 Si02
#       8
#     2   2   2   2   2   2   2   2
#     4  11  24  39  65 104 145 181 226 291 357 419
#     4  12  23  43  71 105 144 183 232 291 358 426
#     4  11  24  47  71 103 138 180 243 296 341 420
#     4  12  28  49  72 100 140 191 243 292 350 415
#     4  12  24  42  72 102 136 189 241 287 351 421
#     4  11  20  37  69 101 139 180 229 287 350 418
#     4  11  26  46  73 103 143 186 235 289 354 422
#     4  10  20  36  63 102 137 176 223 286 355 410
#
# _framework density 24.32986
#
# number of rings (size 3 to 8) (size 9 to 14) (size 15 to 20)
#    0.000    0.750    3.750    4.125    1.750    4.000 
#    0.000    0.000    0.000    0.000    0.000    0.000 
#    0.000    0.000    0.000    0.000    0.000    0.000 
#
# Total GULP energy -198243.265988 kJ/mol
# GULP energy per Si atom -12390.204124 kJ/mol
# Density = 2.427448 g / cm^3
# Si number density = 24.329860 Si / 1000 Ang^3
#
#
#
# Elastic Constant Matrix: (Units=GPa)
#
#
# Indices 1 2 3 4 5 6 
#
# 1 141.1672 9.7948 30.8803 -5.5839 -1.2229 15.9169
# 2 9.7948 96.9363 9.2873 9.2285 3.2006 -10.2702
# 3 30.8803 9.2873 58.2014 6.6720 9.8917 -11.2322
# 4 -5.5839 9.2285 6.6720 35.5833 10.6965 0.6671
# 5 -1.2229 3.2006 9.8917 10.6965 28.9281 -3.5598
# 6 15.9169 -10.2702 -11.2322 0.6671 -3.5598 31.2875
#
#
#
# Elastic Compliance Matrix: (Units=1/GPa)
#
#
# Indices 1 2 3 4 5 6 
#
# 1 0.009727 -0.001478 -0.006947 0.003112 0.000827 -0.007900
# 2 -0.001478 0.011248 0.000198 -0.003411 0.000457 0.004640
# 3 -0.006947 0.000198 0.024581 -0.004264 -0.005684 0.011868
# 4 0.003112 -0.003411 -0.004264 0.033787 -0.011294 -0.006239
# 5 0.000827 0.000457 -0.005684 -0.011294 0.040991 0.002593
# 6 -0.007900 0.004640 0.011868 -0.006239 0.002593 0.042192
#
#
# Mechanical properties :
#
#
# Convention : Reuss Voigt Hill
#
# Bulk Modulus (GPa) = 34.36177 44.02553 39.19365
# Shear Modulus (GPa) = 26.49973 35.58261 31.04117
#
# Velocity S-wave (km/s) = 3.30386 3.82842 3.57577
# Velocity P-wave (km/s) = 5.35798 6.13816 5.76129
#
# Compressibility (1/GPa) = 0.02910211
#
# Stress axis : x y z
#
# Youngs Moduli (GPa) = 102.80749 88.90819 40.68142
#
# Poissons Ratio (x) = 0.13139 0.28261
# Poissons Ratio (y) = 0.15193 -0.00805
# Poissons Ratio (z) = 0.71420 -0.01759
#
# Static dielectric constant tensor:
#      x y z
#    x 5.273770 0.322930 -0.375490 
#    y 0.322930 4.488540 0.137460 
#    z -0.375490 0.137460 4.430610 
# 
# 
# High freq. dielectric constant tensor:
#      x y z
#    x 1.986750 0.019690 0.000020 
#    y 0.019690 1.967500 0.013420 
#    z 0.000020 0.013420 1.947170 
# 
# From -- ./inp_files/492074.got.cif
#   From: 2010.06.25/outbox.cif.g09.slc.cpg/sg2_247_cif.got.tgz:492074.got - 2010.06.27 13:26:56.
