data_PCOD8003785
_publ_section_title
;
Structure prediction by ZEFSAII (Michael W. Deem and Ramdas Pophale) SiO2 
 PCOD8003785
Probable space group: P -1
;
_chemical_formula_sum "Si O2"
_cell_formula_units_Z 16
_cell_length_a 22.209019
_cell_length_b 6.581996
_cell_length_c 8.940784
_cell_angle_alpha 129.101512
_cell_angle_beta 50.435810
_cell_angle_gamma 106.402636
_cell_volume 766.177163
_symmetry_space_group_name_H-M "P -1"
_symmetry_group_IT_number 2
_symmetry_cell_setting 'triclinic'
loop_
_space_group_symop_operation_xyz
x,y,z
-x,-y,-z
loop_
_atom_site_type_symbol
_atom_site_label
_atom_site_fract_x
_atom_site_fract_y
_atom_site_fract_z
Si Si1 0.384305 0.442855 0.077816
Si Si2 0.287903 0.725318 0.603725
Si Si3 0.883840 0.355756 0.608407
Si Si4 0.151394 0.028820 0.764624
Si Si5 0.588361 0.925983 0.388795
Si Si6 0.466262 0.903481 0.156697
Si Si7 0.167618 0.601411 0.966211
Si Si8 0.937621 0.891791 0.772639
O O1 0.313779 0.481642 0.330872
O O2 0.401753 0.728268 0.133398
O O3 0.359625 0.312129 0.902209
O O4 0.462375 0.263006 0.938926
O O5 0.226811 0.959789 0.725434
O O6 0.367613 0.823078 0.574416
O O7 0.249586 0.626076 0.766540
O O8 0.825519 0.379615 0.855872
O O9 0.894418 0.650514 0.675583
O O10 0.968874 0.181912 0.442728
O O11 0.845787 0.209402 0.468647
O O12 0.150371 0.310310 0.814007
O O13 0.073571 0.062715 0.009517
O O14 0.500000 0.000000 0.500000
O O15 0.579128 0.859316 0.550105
O O16 0.500000 0.000000 0.000000
O O17 0.096176 0.834451 0.132757
#
# Coordination Sequence:
#
# PCOD8003785 Si02
#       8
#     2   2   2   2   2   2   2   2
#     4   9  19  35  54  75 106 143 175 220 282 339
#     4  10  22  38  54  79 116 149 186 237 284 338
#     4  10  20  37  61  87 115 151 195 236 282 335
#     4  10  22  37  55  84 118 154 193 234 284 340
#     4   9  19  38  60  80 105 143 187 232 286 339
#     4   9  18  34  55  82 106 128 174 231 279 336
#     4  10  22  37  56  85 118 152 193 236 281 339
#     4   9  20  38  59  86 119 151 190 241 281 328
#
# _framework density 20.882898999999998
#
# number of rings (size 3 to 8) (size 9 to 14) (size 15 to 20)
#    0.000    2.500    0.000    1.500    0.000    9.000 
#    0.000    5.000    0.000    0.000    0.000    0.000 
#    0.000    0.000    0.000    0.000    0.000    0.000 
#
# Total GULP energy -198272.493515 kJ/mol
# GULP energy per Si atom -12392.030845 kJ/mol
# Density = 2.083537 g / cm^3
# Si number density = 20.882899 Si / 1000 Ang^3
#
#
#
# Elastic Constant Matrix: (Units=GPa)
#
#
# Indices 1 2 3 4 5 6 
#
# 1 60.3173 37.0021 30.8026 0.1229 17.3190 11.9848
# 2 37.0021 97.2953 45.2762 -12.3916 17.7552 3.0491
# 3 30.8026 45.2762 159.6500 -19.5701 35.5959 12.7018
# 4 0.1229 -12.3916 -19.5701 43.7175 -0.4454 -3.3818
# 5 17.3190 17.7552 35.5959 -0.4454 39.2523 1.1700
# 6 11.9848 3.0491 12.7018 -3.3818 1.1700 15.6762
#
#
#
# Elastic Compliance Matrix: (Units=1/GPa)
#
#
# Indices 1 2 3 4 5 6 
#
# 1 0.028663 -0.009377 -0.000048 -0.004419 -0.007803 -0.020422
# 2 -0.009377 0.015402 -0.002488 0.003817 -0.000740 0.007068
# 3 -0.000048 -0.002488 0.009417 0.002978 -0.007183 -0.005931
# 4 -0.004419 0.003817 0.002978 0.025738 -0.002363 0.005952
# 5 -0.007803 -0.000740 -0.007183 -0.002363 0.035479 0.008772
# 6 -0.020422 0.007068 -0.005931 0.005952 0.008772 0.083464
#
#
# Mechanical properties :
#
#
# Convention : Reuss Voigt Hill
#
# Bulk Modulus (GPa) = 33.72061 60.38048 47.05055
# Shear Modulus (GPa) = 21.56322 33.34130 27.45226
#
# Velocity S-wave (km/s) = 3.21686 4.00006 3.62965
# Velocity P-wave (km/s) = 5.47541 7.09300 6.33604
#
# Compressibility (1/GPa) = 0.02965545
#
# Stress axis : x y z
#
# Youngs Moduli (GPa) = 34.88761 64.92713 106.19126
#
# Poissons Ratio (x) = 0.60885 0.00510
# Poissons Ratio (y) = 0.32716 0.26420
# Poissons Ratio (z) = 0.00168 0.16154
#
# Static dielectric constant tensor:
#      x y z
#    x 3.524240 -0.014480 0.336000 
#    y -0.014480 3.782410 -0.331230 
#    z 0.336000 -0.331230 4.875330 
# 
# 
# High freq. dielectric constant tensor:
#      x y z
#    x 1.788270 0.007130 0.004900 
#    y 0.007130 1.798040 -0.010220 
#    z 0.004900 -0.010220 1.849880 
# 
# From -- ./inp_files/48468.got.cif
#   From: 2010.06.25/outbox.cif.g09.slc.cpg/sg2_25_cif.got.tgz:48468.got - 2010.06.27 13:26:56.
