data_PCOD8003497
_publ_section_title
;
Structure prediction by ZEFSAII (Michael W. Deem and Ramdas Pophale) SiO2 
 PCOD8003497
Probable space group: P -1
;
_chemical_formula_sum "Si O2"
_cell_formula_units_Z 16
_cell_length_a 13.207436
_cell_length_b 9.987479
_cell_length_c 9.398028
_cell_angle_alpha 98.146914
_cell_angle_beta 57.752021
_cell_angle_gamma 69.472219
_cell_volume 893.270607
_symmetry_space_group_name_H-M "P -1"
_symmetry_group_IT_number 2
_symmetry_cell_setting 'triclinic'
loop_
_space_group_symop_operation_xyz
x,y,z
-x,-y,-z
loop_
_atom_site_type_symbol
_atom_site_label
_atom_site_fract_x
_atom_site_fract_y
_atom_site_fract_z
Si Si1 0.947456 0.882498 0.482871
Si Si2 0.089358 0.099214 0.804953
Si Si3 0.469169 0.391210 0.105486
Si Si4 0.194652 0.653032 0.428098
Si Si5 0.595100 0.073815 0.459625
Si Si6 0.658037 0.146720 0.723276
Si Si7 0.421229 0.659493 0.668783
Si Si8 0.869989 0.227493 0.207056
O O1 0.968449 0.826900 0.294992
O O2 0.044080 0.723440 0.476079
O O3 0.781301 0.973215 0.655830
O O4 0.000000 0.000000 0.500000
O O5 0.245516 0.060386 0.709355
O O6 0.079863 0.941998 0.787916
O O7 0.993463 0.219770 0.017915
O O8 0.301629 0.474491 0.266559
O O9 0.539717 0.368745 0.200981
O O10 0.500000 0.500000 0.000000
O O11 0.541098 0.222676 0.946269
O O12 0.269369 0.753067 0.355914
O O13 0.170927 0.649095 0.614728
O O14 0.580319 0.138044 0.640346
O O15 0.543509 0.215936 0.407941
O O16 0.500000 0.000000 0.500000
O O17 0.500000 0.500000 0.500000
O O18 0.257747 0.724721 0.794996
#
# Coordination Sequence:
#
# PCOD8003497 Si02
#       8
#     2   2   2   2   2   2   2   2
#     4   9  15  25  43  65 103 133 164 205 271 311
#     4   9  18  29  46  77 102 135 174 220 269 316
#     4  10  20  29  47  77 114 137 173 215 273 330
#     4  10  16  29  44  77 110 135 162 217 276 319
#     4  10  20  38  57  76 107 145 183 225 264 321
#     4   9  17  32  46  75 103 135 182 217 261 321
#     4  11  19  33  53  82 109 144 174 221 278 315
#     4  10  17  27  47  75 111 125 172 225 267 313
#
# _framework density 17.911705000000001
#
# number of rings (size 3 to 8) (size 9 to 14) (size 15 to 20)
#    0.000    2.250    6.250    0.750    5.250    1.000 
#    0.000    0.625    0.000    0.750    0.000    4.375 
#    0.000    0.000    0.000    0.000    0.000    0.000 
#
# Total GULP energy -198275.855942 kJ/mol
# GULP energy per Si atom -12392.240996 kJ/mol
# Density = 1.787094 g / cm^3
# Si number density = 17.911705 Si / 1000 Ang^3
#
#
#
# Elastic Constant Matrix: (Units=GPa)
#
#
# Indices 1 2 3 4 5 6 
#
# 1 88.4939 46.7935 55.0065 -5.9940 5.4878 -20.8834
# 2 46.7935 58.4275 44.9125 0.6912 1.5758 -25.0519
# 3 55.0065 44.9125 171.8718 22.2859 7.6835 -17.8325
# 4 -5.9940 0.6912 22.2859 22.9918 -7.4250 -2.6248
# 5 5.4878 1.5758 7.6835 -7.4250 23.3786 -6.9596
# 6 -20.8834 -25.0519 -17.8325 -2.6248 -6.9596 31.5438
#
#
#
# Elastic Compliance Matrix: (Units=1/GPa)
#
#
# Indices 1 2 3 4 5 6 
#
# 1 0.023103 -0.013138 -0.005363 0.012740 0.002281 0.003393
# 2 -0.013138 0.042402 -0.005815 0.007665 0.012007 0.024977
# 3 -0.005363 -0.005815 0.010828 -0.014938 -0.008168 -0.005092
# 4 0.012740 0.007665 -0.014938 0.072953 0.030170 0.018804
# 5 0.002281 0.012007 -0.008168 0.030170 0.060319 0.022247
# 6 0.003393 0.024977 -0.005092 0.018804 0.022247 0.057379
#
#
# Mechanical properties :
#
#
# Convention : Reuss Voigt Hill
#
# Bulk Modulus (GPa) = 36.09874 68.02424 52.06149
# Shear Modulus (GPa) = 15.39184 27.05490 21.22337
#
# Velocity S-wave (km/s) = 2.93459 3.89068 3.44595
# Velocity P-wave (km/s) = 5.62849 7.63172 6.70534
#
# Compressibility (1/GPa) = 0.02770180
#
# Stress axis : x y z
#
# Youngs Moduli (GPa) = 43.28515 23.58394 92.35566
#
# Poissons Ratio (x) = 0.30984 0.49527
# Poissons Ratio (y) = 0.56867 0.53702
# Poissons Ratio (z) = 0.23212 0.13713
#
# Static dielectric constant tensor:
#      x y z
#    x 3.224930 -0.555910 0.123920 
#    y -0.555910 2.926070 -0.219800 
#    z 0.123920 -0.219800 2.931260 
# 
# 
# High freq. dielectric constant tensor:
#      x y z
#    x 1.668830 -0.052590 0.010500 
#    y -0.052590 1.650620 0.018080 
#    z 0.010500 0.018080 1.707360 
# 
# From -- ./inp_files/257621.got.cif
#   From: 2010.06.25/outbox.cif.g09.slc.cpg/sg2_129_cif.got.tgz:257621.got - 2010.06.27 13:26:56.
