data_PCOD8003805
_publ_section_title
;
Structure prediction by ZEFSAII (Michael W. Deem and Ramdas Pophale) SiO2 
 PCOD8003805
Probable space group: P -1
;
_chemical_formula_sum "Si O2"
_cell_formula_units_Z 16
_cell_length_a 23.760963
_cell_length_b 8.899330
_cell_length_c 18.994543
_cell_angle_alpha 145.055924
_cell_angle_beta 20.856284
_cell_angle_gamma 145.525032
_cell_volume 784.787588
_symmetry_space_group_name_H-M "P -1"
_symmetry_group_IT_number 2
_symmetry_cell_setting 'triclinic'
loop_
_space_group_symop_operation_xyz
x,y,z
-x,-y,-z
loop_
_atom_site_type_symbol
_atom_site_label
_atom_site_fract_x
_atom_site_fract_y
_atom_site_fract_z
Si Si1 0.696990 0.565618 0.161889
Si Si2 0.005431 0.890858 0.138602
Si Si3 0.057266 0.536539 0.063687
Si Si4 0.825025 0.533198 0.463856
Si Si5 0.680811 0.980969 0.763207
Si Si6 0.674477 0.132418 0.381682
Si Si7 0.318984 0.342676 0.500387
Si Si8 0.104443 0.504717 0.224324
O O1 0.501780 0.461870 0.362028
O O2 0.761956 0.890843 0.191798
O O3 0.769689 0.494418 0.122571
O O4 0.759556 0.419532 0.967653
O O5 0.807175 0.809893 0.350572
O O6 0.092475 0.779553 0.058895
O O7 0.036972 0.756187 0.976034
O O8 0.089977 0.212260 0.162787
O O9 0.959106 0.599383 0.269660
O O10 0.735634 0.770151 0.670393
O O11 0.683143 0.253651 0.498458
O O12 0.921856 0.504218 0.410869
O O13 0.681075 0.877902 0.644142
O O14 0.822343 0.270072 0.715037
O O15 0.500000 0.000000 0.000000
O O16 0.751201 0.409031 0.350738
O O17 0.500000 0.000000 0.500000
#
# Coordination Sequence:
#
# PCOD8003805 Si02
#       8
#     2   2   2   2   2   2   2   2
#     4  10  20  37  61  89 114 157 197 239 279 354
#     4  11  22  38  58  89 122 155 181 239 305 357
#     4  10  21  37  59  86 126 151 185 237 304 349
#     4  10  20  40  58  89 117 153 197 248 278 346
#     4  11  21  40  62  86 112 156 203 247 283 340
#     4   9  17  31  57  85 111 150 187 232 281 337
#     4  10  21  39  58  83 125 154 192 241 296 341
#     4  11  23  35  64  89 114 152 207 238 286 343
#
# _framework density 20.387684
#
# number of rings (size 3 to 8) (size 9 to 14) (size 15 to 20)
#    0.000    1.750    3.750    1.875    1.750    3.000 
#    0.000    1.250    0.000    1.500    0.000    0.000 
#    0.000    0.000    0.000    0.000    0.000    0.000 
#
# Total GULP energy -198214.733512 kJ/mol
# GULP energy per Si atom -12388.420845 kJ/mol
# Density = 2.034128 g / cm^3
# Si number density = 20.387684 Si / 1000 Ang^3
#
#
#
# Elastic Constant Matrix: (Units=GPa)
#
#
# Indices 1 2 3 4 5 6 
#
# 1 108.3661 53.5050 38.6890 8.8738 -27.8152 9.6946
# 2 53.5050 112.5313 36.7211 15.8301 -10.5837 22.8975
# 3 38.6890 36.7211 105.9530 11.9401 -17.3560 5.2847
# 4 8.8738 15.8301 11.9401 32.7018 0.3673 -0.2138
# 5 -27.8152 -10.5837 -17.3560 0.3673 37.1281 1.0810
# 6 9.6946 22.8975 5.2847 -0.2138 1.0810 31.0228
#
#
#
# Elastic Compliance Matrix: (Units=1/GPa)
#
#
# Indices 1 2 3 4 5 6 
#
# 1 0.014996 -0.005385 -0.002047 -0.000818 0.008770 -0.000674
# 2 -0.005385 0.014557 -0.002201 -0.004832 -0.000612 -0.008699
# 3 -0.002047 -0.002201 0.011803 -0.002726 0.003380 0.000117
# 4 -0.000818 -0.004832 -0.002726 0.034208 -0.003738 0.004652
# 5 0.008770 -0.000612 0.003380 -0.003738 0.035067 -0.004112
# 6 -0.000674 -0.008699 0.000117 0.004652 -0.004112 0.039021
#
#
# Mechanical properties :
#
#
# Convention : Reuss Voigt Hill
#
# Bulk Modulus (GPa) = 45.26743 64.96450 55.11596
# Shear Modulus (GPa) = 28.36372 33.36621 30.86497
#
# Velocity S-wave (km/s) = 3.73395 4.04986 3.89511
# Velocity P-wave (km/s) = 6.39073 7.33500 6.87909
#
# Compressibility (1/GPa) = 0.02209094
#
# Stress axis : x y z
#
# Youngs Moduli (GPa) = 66.68397 68.69513 84.72083
#
# Poissons Ratio (x) = 0.36993 0.17343
# Poissons Ratio (y) = 0.35910 0.18645
# Poissons Ratio (z) = 0.13651 0.15118
#
# Static dielectric constant tensor:
#      x y z
#    x 3.851210 0.215060 -0.313240 
#    y 0.215060 3.707940 0.231340 
#    z -0.313240 0.231340 3.745730 
# 
# 
# High freq. dielectric constant tensor:
#      x y z
#    x 1.792370 0.017360 -0.023950 
#    y 0.017360 1.783580 0.015250 
#    z -0.023950 0.015250 1.799620 
# 
# From -- ./inp_files/296191.got.cif
#   From: 2010.06.25/outbox.cif.g09.slc.cpg/sg2_149_cif.got.tgz:296191.got - 2010.06.27 13:26:56.
