data_PCOD8003429
_publ_section_title
;
Structure prediction by ZEFSAII (Michael W. Deem and Ramdas Pophale) SiO2 
 PCOD8003429
Probable space group: P -1
;
_chemical_formula_sum "Si O2"
_cell_formula_units_Z 16
_cell_length_a 10.122934
_cell_length_b 22.291951
_cell_length_c 18.717900
_cell_angle_alpha 162.406951
_cell_angle_beta 121.138593
_cell_angle_gamma 48.414744
_cell_volume 820.696379
_symmetry_space_group_name_H-M "P -1"
_symmetry_group_IT_number 2
_symmetry_cell_setting 'triclinic'
loop_
_space_group_symop_operation_xyz
x,y,z
-x,-y,-z
loop_
_atom_site_type_symbol
_atom_site_label
_atom_site_fract_x
_atom_site_fract_y
_atom_site_fract_z
Si Si1 0.478035 0.714458 0.193306
Si Si2 0.633269 0.566490 0.912640
Si Si3 0.941591 0.858332 0.511861
Si Si4 0.178899 0.379417 0.557758
Si Si5 0.886976 0.977873 0.150458
Si Si6 0.099149 0.979473 0.077894
Si Si7 0.540815 0.594597 0.422261
Si Si8 0.662786 0.842144 0.504870
O O1 0.612794 0.579569 0.006838
O O2 0.563308 0.820332 0.384549
O O3 0.239707 0.952224 0.379950
O O4 0.500000 0.500000 0.000000
O O5 0.499384 0.857004 0.171092
O O6 0.550956 0.431023 0.703132
O O7 0.870126 0.401236 0.771973
O O8 0.871242 0.771170 0.456290
O O9 0.005898 0.011637 0.739293
O O10 0.134581 0.184927 0.318775
O O11 0.335173 0.316258 0.467627
O O12 0.279360 0.344675 0.623960
O O13 0.968915 0.682727 0.834220
O O14 0.640720 0.183638 0.323602
O O15 0.943049 0.054473 0.182574
O O16 0.314451 0.682590 0.810228
O O17 0.000000 0.000000 0.000000
#
# Coordination Sequence:
#
# PCOD8003429 Si02
#       8
#     2   2   2   2   2   2   2   2
#     4  11  22  34  51  80 117 154 198 246 293 336
#     4  10  20  37  57  81 116 154 196 245 289 343
#     4  10  20  37  57  81 116 154 196 245 289 343
#     4  11  21  40  64  88 118 160 203 236 301 359
#     4  10  22  40  62  91 124 156 198 246 293 354
#     4  11  23  42  66  89 121 157 193 244 302 360
#     4  10  22  40  62  91 124 156 198 246 293 354
#     4  11  20  35  59  82 112 157 200 242 292 347
#
# _framework density 19.495638
#
# number of rings (size 3 to 8) (size 9 to 14) (size 15 to 20)
#    0.000    1.500    2.500    5.250    0.000    7.000 
#    0.000    1.250    0.000    0.000    0.000    0.000 
#    0.000    0.000    0.000    0.000    0.000    0.000 
#
# Total GULP energy -198415.039092 kJ/mol
# GULP energy per Si atom -12400.939943 kJ/mol
# Density = 1.945126 g / cm^3
# Si number density = 19.495638 Si / 1000 Ang^3
#
#
#
# Elastic Constant Matrix: (Units=GPa)
#
#
# Indices 1 2 3 4 5 6 
#
# 1 135.0690 49.5224 102.4340 24.0507 -15.1262 -3.5180
# 2 49.5224 102.3436 47.5862 -3.9629 -6.5316 1.3106
# 3 102.4340 47.5862 121.8983 17.2632 -13.9376 -1.3589
# 4 24.0507 -3.9629 17.2632 23.8441 -4.5891 -0.6026
# 5 -15.1262 -6.5316 -13.9376 -4.5891 44.7720 7.9827
# 6 -3.5180 1.3106 -1.3589 -0.6026 7.9827 18.5985
#
#
#
# Elastic Compliance Matrix: (Units=1/GPa)
#
#
# Indices 1 2 3 4 5 6 
#
# 1 0.023938 -0.004417 -0.016497 -0.012771 0.000460 0.003023
# 2 -0.004417 0.013630 -0.002783 0.008858 0.000913 -0.002104
# 3 -0.016497 -0.002783 0.023383 -0.000495 0.001590 -0.001914
# 4 -0.012771 0.008858 -0.000495 0.057191 0.003144 -0.002573
# 5 0.000460 0.000913 0.001590 0.003144 0.025337 -0.010634
# 6 0.003023 -0.002104 -0.001914 -0.002573 -0.010634 0.058829
#
#
# Mechanical properties :
#
#
# Convention : Reuss Voigt Hill
#
# Bulk Modulus (GPa) = 73.75311 84.26622 79.00967
# Shear Modulus (GPa) = 19.66794 28.09414 23.88104
#
# Velocity S-wave (km/s) = 3.17967 3.80023 3.50372
# Velocity P-wave (km/s) = 7.16890 7.91029 7.54870
#
# Compressibility (1/GPa) = 0.01355875
#
# Stress axis : x y z
#
# Youngs Moduli (GPa) = 41.77475 73.36552 42.76622
#
# Poissons Ratio (x) = 0.32404 0.70549
# Poissons Ratio (y) = 0.18451 0.11902
# Poissons Ratio (z) = 0.68914 0.20418
#
# Static dielectric constant tensor:
#      x y z
#    x 3.798300 -0.254140 0.204220 
#    y -0.254140 3.945060 -0.345790 
#    z 0.204220 -0.345790 4.006370 
# 
# 
# High freq. dielectric constant tensor:
#      x y z
#    x 1.762180 0.001340 0.000310 
#    y 0.001340 1.756540 0.003190 
#    z 0.000310 0.003190 1.760880 
# 
# From -- ./inp_files/562797.got.cif
#   From: 2010.06.25/outbox.cif.g09.slc.cpg/sg2_282_cif.got.tgz:562797.got - 2010.06.27 13:26:56.
