data_PCOD8003659
_publ_section_title
;
Structure prediction by ZEFSAII (Michael W. Deem and Ramdas Pophale) SiO2 
 PCOD8003659
Probable space group: P -1
;
_chemical_formula_sum "Si O2"
_cell_formula_units_Z 16
_cell_length_a 9.264828
_cell_length_b 15.191990
_cell_length_c 9.823929
_cell_angle_alpha 39.980621
_cell_angle_beta 73.569764
_cell_angle_gamma 91.157089
_cell_volume 786.673355
_symmetry_space_group_name_H-M "P -1"
_symmetry_group_IT_number 2
_symmetry_cell_setting 'triclinic'
loop_
_space_group_symop_operation_xyz
x,y,z
-x,-y,-z
loop_
_atom_site_type_symbol
_atom_site_label
_atom_site_fract_x
_atom_site_fract_y
_atom_site_fract_z
Si Si1 0.349432 0.480689 0.468950
Si Si2 0.511910 0.852183 0.611622
Si Si3 0.165027 0.655648 0.921394
Si Si4 0.882761 0.650340 0.828080
Si Si5 0.152011 0.107903 0.645502
Si Si6 0.535150 0.575852 0.048175
Si Si7 0.937697 0.810115 0.143349
Si Si8 0.149105 0.648914 0.255317
O O1 0.500000 0.500000 0.500000
O O2 0.401602 0.468043 0.313916
O O3 0.197067 0.331713 0.727353
O O4 0.302478 0.626975 0.313593
O O5 0.341970 0.758371 0.689163
O O6 0.669709 0.896376 0.420347
O O7 0.500000 0.000000 0.500000
O O8 0.527453 0.739063 0.856575
O O9 0.031637 0.707552 0.826258
O O10 0.113489 0.481669 0.112429
O O11 0.175875 0.682010 0.048352
O O12 0.888942 0.784416 0.572303
O O13 0.715336 0.593168 0.027084
O O14 0.148760 0.152940 0.748894
O O15 0.006165 0.946282 0.857327
O O16 0.500000 0.500000 0.000000
O O17 0.098226 0.776476 0.184313
O O18 0.000000 0.500000 0.500000
#
# Coordination Sequence:
#
# PCOD8003659 Si02
#       8
#     2   2   2   2   2   2   2   2
#     4  11  23  38  63  96 123 160 210 268 314 375
#     4  11  22  39  64  93 122 163 208 260 318 379
#     4  11  21  39  62  95 123 160 211 262 316 369
#     4  10  22  36  63  95 122 159 209 265 309 372
#     4  10  22  42  62  89 121 168 211 252 314 384
#     4  11  20  40  65  92 127 167 211 257 316 386
#     4  10  22  41  64  84 125 168 206 251 317 386
#     4  10  20  37  60  85 123 163 201 249 313 380
#
# _framework density 20.338809999999999
#
# number of rings (size 3 to 8) (size 9 to 14) (size 15 to 20)
#    0.000    1.500    2.500    3.750    3.500    0.000 
#    2.250    1.875    0.000    3.000    0.000    0.000 
#    0.000    0.000    0.000    0.000    0.000    0.000 
#
# Total GULP energy -198257.554440 kJ/mol
# GULP energy per Si atom -12391.097153 kJ/mol
# Density = 2.029252 g / cm^3
# Si number density = 20.338810 Si / 1000 Ang^3
#
#
#
# Elastic Constant Matrix: (Units=GPa)
#
#
# Indices 1 2 3 4 5 6 
#
# 1 178.3979 43.2686 52.1601 -3.1807 2.0188 -7.7164
# 2 43.2686 74.1996 32.8465 -10.1886 3.2174 -16.9512
# 3 52.1601 32.8465 104.4532 -12.8698 -14.9167 -5.7086
# 4 -3.1807 -10.1886 -12.8698 28.1249 -5.7010 -1.4573
# 5 2.0188 3.2174 -14.9167 -5.7010 33.2334 -1.1601
# 6 -7.7164 -16.9512 -5.7086 -1.4573 -1.1601 32.4346
#
#
#
# Elastic Compliance Matrix: (Units=1/GPa)
#
#
# Indices 1 2 3 4 5 6 
#
# 1 0.007277 -0.003191 -0.003229 -0.002249 -0.001992 -0.000677
# 2 -0.003191 0.019937 -0.003875 0.005099 -0.002282 0.009126
# 3 -0.003229 -0.003875 0.014385 0.006482 0.008151 0.000321
# 4 -0.002249 0.005099 0.006482 0.042434 0.010025 0.005536
# 5 -0.001992 -0.002282 0.008151 0.010025 0.035863 0.001501
# 6 -0.000677 0.009126 0.000321 0.005536 0.001501 0.035799
#
#
# Mechanical properties :
#
#
# Convention : Reuss Voigt Hill
#
# Bulk Modulus (GPa) = 47.59863 68.17789 57.88826
# Shear Modulus (GPa) = 27.27966 34.01028 30.64497
#
# Velocity S-wave (km/s) = 3.66630 4.09367 3.88587
# Velocity P-wave (km/s) = 6.43242 7.47918 6.97546
#
# Compressibility (1/GPa) = 0.02100901
#
# Stress axis : x y z
#
# Youngs Moduli (GPa) = 137.42671 50.15707 69.51776
#
# Poissons Ratio (x) = 0.16006 0.22446
# Poissons Ratio (y) = 0.43855 0.26938
# Poissons Ratio (z) = 0.44372 0.19436
#
# Static dielectric constant tensor:
#      x y z
#    x 1.626780 0.851210 0.288190 
#    y 0.851210 2.916980 -0.458100 
#    z 0.288190 -0.458100 3.951380 
# 
# 
# High freq. dielectric constant tensor:
#      x y z
#    x 1.806590 -0.035420 -0.015260 
#    y -0.035420 1.768690 -0.012040 
#    z -0.015260 -0.012040 1.798170 
# 
# From -- ./inp_files/205184.got.cif
#   From: 2010.06.25/outbox.cif.g09.slc.cpg/sg2_103_cif.got.tgz:205184.got - 2010.06.27 13:26:56.
