data_PCOD8003180
_publ_section_title
;
Structure prediction by ZEFSAII (Michael W. Deem and Ramdas Pophale) SiO2 
 PCOD8003180
Probable space group: P -1
;
_chemical_formula_sum "Si O2"
_cell_formula_units_Z 14
_cell_length_a 8.724579
_cell_length_b 9.846439
_cell_length_c 12.138371
_cell_angle_alpha 104.101096
_cell_angle_beta 143.629039
_cell_angle_gamma 90.628430
_cell_volume 559.487811
_symmetry_space_group_name_H-M "P -1"
_symmetry_group_IT_number 2
_symmetry_cell_setting 'triclinic'
loop_
_space_group_symop_operation_xyz
x,y,z
-x,-y,-z
loop_
_atom_site_type_symbol
_atom_site_label
_atom_site_fract_x
_atom_site_fract_y
_atom_site_fract_z
Si Si1 0.573722 0.154219 0.257180
Si Si2 0.374107 0.438103 0.656778
Si Si3 0.876332 0.708179 0.970527
Si Si4 0.752768 0.859979 0.582134
Si Si5 0.236484 0.818671 0.996041
Si Si6 0.208211 0.616665 0.760653
Si Si7 0.790730 0.171398 0.610904
O O1 0.283341 0.176725 0.112007
O O2 0.721949 0.236045 0.249203
O O3 0.792742 0.225748 0.497221
O O4 0.497890 0.974191 0.176582
O O5 0.666162 0.539560 0.789708
O O6 0.351431 0.265942 0.600598
O O7 0.359485 0.503485 0.784717
O O8 0.125543 0.467027 0.451473
O O9 0.140277 0.764061 0.053501
O O10 0.984823 0.707937 0.158490
O O11 0.515215 0.858798 0.527963
O O12 0.984074 0.830466 0.782165
O O13 0.866299 0.021150 0.622304
O O14 0.316478 0.685360 0.957708
#
# Coordination Sequence:
#
# PCOD8003180 Si02
#       7
#     2   2   2   2   2   2   2
#     4  11  21  40  65  96 124 166 204 263 306 374
#     4   9  21  42  62  90 127 168 208 253 308 373
#     4  11  22  39  69  94 124 161 210 263 309 366
#     4  10  20  36  63  92 127 160 205 262 307 367
#     4  11  19  37  66  99 121 161 211 256 315 363
#     4   9  21  39  65  90 126 171 208 246 314 379
#     4  11  22  38  64  97 125 158 210 262 311 359
#
# _framework density 25.022887000000001
#
# number of rings (size 3 to 8) (size 9 to 14) (size 15 to 20)
#    0.000    1.714    2.857    2.571    0.000    2.857 
#    2.571    3.571   12.571    0.000    0.000    0.000 
#    0.000    0.000    0.000    0.000    0.000    0.000 
#
# Total GULP energy -173538.339130 kJ/mol
# GULP energy per Si atom -12395.595652 kJ/mol
# Density = 2.496593 g / cm^3
# Si number density = 25.022887 Si / 1000 Ang^3
#
#
#
# Elastic Constant Matrix: (Units=GPa)
#
#
# Indices 1 2 3 4 5 6 
#
# 1 63.9841 26.8430 34.9336 16.3194 -17.9837 -1.0503
# 2 26.8430 55.4967 21.7466 22.3494 -4.3438 -11.3577
# 3 34.9336 21.7466 111.5347 16.4560 -19.6164 9.2268
# 4 16.3194 22.3494 16.4560 36.9694 -2.3664 1.4849
# 5 -17.9837 -4.3438 -19.6164 -2.3664 36.8004 14.9695
# 6 -1.0503 -11.3577 9.2268 1.4849 14.9695 32.4249
#
#
#
# Elastic Compliance Matrix: (Units=1/GPa)
#
#
# Indices 1 2 3 4 5 6 
#
# 1 0.025937 -0.011303 -0.002556 -0.002293 0.013249 -0.008403
# 2 -0.011303 0.034682 -0.004910 -0.015435 -0.013160 0.019962
# 3 -0.002556 -0.004910 0.013266 -0.000829 0.009164 -0.009770
# 4 -0.002293 -0.015435 -0.000829 0.038238 0.002364 -0.008088
# 5 0.013249 -0.013160 0.009164 0.002364 0.049171 -0.029597
# 6 -0.008403 0.019962 -0.009770 -0.008088 -0.029597 0.054375
#
#
# Mechanical properties :
#
#
# Convention : Reuss Voigt Hill
#
# Bulk Modulus (GPa) = 27.51376 44.22908 35.87142
# Shear Modulus (GPa) = 18.84487 31.07176 24.95832
#
# Velocity S-wave (km/s) = 2.74725 3.52765 3.16162
# Velocity P-wave (km/s) = 4.59157 5.85715 5.26254
#
# Compressibility (1/GPa) = 0.03634545
#
# Stress axis : x y z
#
# Youngs Moduli (GPa) = 38.55462 28.83356 75.37971
#
# Poissons Ratio (x) = 0.32591 0.19269
# Poissons Ratio (y) = 0.43579 0.37014
# Poissons Ratio (z) = 0.09855 0.14158
#
# Static dielectric constant tensor:
#      x y z
#    x 4.430650 -0.327400 -0.149520 
#    y -0.327400 4.365110 0.255010 
#    z -0.149520 0.255010 4.544990 
# 
# 
# High freq. dielectric constant tensor:
#      x y z
#    x 1.981990 -0.016670 -0.002340 
#    y -0.016670 1.979090 0.017260 
#    z -0.002340 0.017260 2.002930 
# 
# From -- ./inp_files/390852.got.cif
#   From: 2010.06.25/outbox.cif.g09.slc.cpg/sg2_196_cif.got.tgz:390852.got - 2010.06.27 13:26:56.
