data_PCOD8003915
_publ_section_title
;
Structure prediction by ZEFSAII (Michael W. Deem and Ramdas Pophale) SiO2 
 PCOD8003915
Probable space group: P -1
;
_chemical_formula_sum "Si O2"
_cell_formula_units_Z 12
_cell_length_a 9.970768
_cell_length_b 14.270299
_cell_length_c 14.679749
_cell_angle_alpha 31.040887
_cell_angle_beta 132.036695
_cell_angle_gamma 108.918327
_cell_volume 606.898909
_symmetry_space_group_name_H-M "P -1"
_symmetry_group_IT_number 2
_symmetry_cell_setting 'triclinic'
loop_
_space_group_symop_operation_xyz
x,y,z
-x,-y,-z
loop_
_atom_site_type_symbol
_atom_site_label
_atom_site_fract_x
_atom_site_fract_y
_atom_site_fract_z
Si Si1 0.380415 0.131372 0.608758
Si Si2 0.148190 0.241613 0.591259
Si Si3 0.949696 0.881295 0.651527
Si Si4 0.703309 0.298641 0.327127
Si Si5 0.527485 0.580884 0.688485
Si Si6 0.423474 0.259662 0.842968
O O1 0.194121 0.304718 0.460728
O O2 0.238729 0.140633 0.451689
O O3 0.521250 0.217010 0.568317
O O4 0.570349 0.858375 0.960719
O O5 0.878654 0.351323 0.384342
O O6 0.334549 0.949396 0.929360
O O7 0.194243 0.354682 0.599480
O O8 0.847356 0.039565 0.563789
O O9 0.000000 0.000000 0.500000
O O10 0.190974 0.622663 0.002046
O O11 0.591277 0.299905 0.368130
O O12 0.500000 0.500000 0.000000
O O13 0.410814 0.480895 0.672764
#
# Coordination Sequence:
#
# PCOD8003915 Si02
#       6
#     2   2   2   2   2   2
#     4  10  20  37  62  89 115 159 202 235 297 353
#     4   9  19  40  64  82 119 164 190 241 299 345
#     4  12  19  40  60  82 126 157 189 249 288 346
#     4  12  22  36  65  91 116 158 200 237 302 353
#     4  12  23  36  63  91 117 156 201 244 294 348
#     4   9  19  41  63  81 123 157 196 243 290 350
#
# _framework density 19.772652000000001
#
# number of rings (size 3 to 8) (size 9 to 14) (size 15 to 20)
#    1.000    0.333    6.667    0.500    0.000    2.000 
#    0.000    2.500    0.000    0.000    0.000    0.000 
#    0.000    0.000    0.000    0.000    0.000    0.000 
#
# Total GULP energy -148782.385854 kJ/mol
# GULP energy per Si atom -12398.532154 kJ/mol
# Density = 1.972765 g / cm^3
# Si number density = 19.772652 Si / 1000 Ang^3
#
#
#
# Elastic Constant Matrix: (Units=GPa)
#
#
# Indices 1 2 3 4 5 6 
#
# 1 127.6589 62.8378 41.6796 -5.6089 -6.6628 7.0639
# 2 62.8378 164.7735 44.9061 15.3090 -3.2973 9.2131
# 3 41.6796 44.9061 42.9639 11.6199 7.1041 14.3278
# 4 -5.6089 15.3090 11.6199 35.3315 5.1136 3.9554
# 5 -6.6628 -3.2973 7.1041 5.1136 28.1013 -11.7207
# 6 7.0639 9.2131 14.3278 3.9554 -11.7207 32.1159
#
#
#
# Elastic Compliance Matrix: (Units=1/GPa)
#
#
# Indices 1 2 3 4 5 6 
#
# 1 0.015677 -0.001234 -0.020975 0.007171 0.011576 0.009605
# 2 -0.001234 0.009517 -0.010723 -0.002181 0.005914 0.004752
# 3 -0.020975 -0.010723 0.078892 -0.014232 -0.040490 -0.040530
# 4 0.007171 -0.002181 -0.014232 0.035146 -0.001071 0.000678
# 5 0.011576 0.005914 -0.040490 -0.001071 0.065199 0.037748
# 6 0.009605 0.004752 -0.040530 0.000678 0.037748 0.059436
#
#
# Mechanical properties :
#
#
# Convention : Reuss Voigt Hill
#
# Bulk Modulus (GPa) = 26.16330 70.47148 48.31739
# Shear Modulus (GPa) = 14.59977 31.50792 23.05384
#
# Velocity S-wave (km/s) = 2.72027 3.99621 3.41830
# Velocity P-wave (km/s) = 4.80908 7.55058 6.33003
#
# Compressibility (1/GPa) = 0.03822147
#
# Stress axis : x y z
#
# Youngs Moduli (GPa) = 63.78957 105.07390 12.67557
#
# Poissons Ratio (x) = 0.12962 0.26587
# Poissons Ratio (y) = 0.07869 0.13592
# Poissons Ratio (z) = 1.33799 1.12674
#
# Static dielectric constant tensor:
#      x y z
#    x 3.463660 -0.097160 0.036370 
#    y -0.097160 3.794570 0.100090 
#    z 0.036370 0.100090 3.351370 
# 
# 
# High freq. dielectric constant tensor:
#      x y z
#    x 1.754620 -0.003470 0.005400 
#    y -0.003470 1.784450 0.012880 
#    z 0.005400 0.012880 1.742100 
# 
# From -- ./inp_files/501799.got.cif
#   From: 2010.06.25/outbox.cif.g09.slc.cpg/sg2_251_cif.got.tgz:501799.got - 2010.06.27 13:26:56.
