data_PCOD8003056
_publ_section_title
;
Structure prediction by ZEFSAII (Michael W. Deem and Ramdas Pophale) SiO2 
 PCOD8003056
Probable space group: P -1
;
_chemical_formula_sum "Si O2"
_cell_formula_units_Z 16
_cell_length_a 14.943089
_cell_length_b 15.313590
_cell_length_c 16.309021
_cell_angle_alpha 152.799702
_cell_angle_beta 37.718772
_cell_angle_gamma 151.086978
_cell_volume 823.466908
_symmetry_space_group_name_H-M "P -1"
_symmetry_group_IT_number 2
_symmetry_cell_setting 'triclinic'
loop_
_space_group_symop_operation_xyz
x,y,z
-x,-y,-z
loop_
_atom_site_type_symbol
_atom_site_label
_atom_site_fract_x
_atom_site_fract_y
_atom_site_fract_z
Si Si1 0.870353 0.396325 0.715920
Si Si2 0.649071 0.179838 0.854356
Si Si3 0.791319 0.898539 0.572452
Si Si4 0.220919 0.130673 0.256434
Si Si5 0.157558 0.036663 0.676095
Si Si6 0.230078 0.838443 0.880689
Si Si7 0.401048 0.459937 0.733582
Si Si8 0.025329 0.130556 0.007044
O O1 0.078669 0.548970 0.733413
O O2 0.861718 0.580024 0.818845
O O3 0.719511 0.302613 0.817598
O O4 0.821341 0.174772 0.511587
O O5 0.774581 0.107024 0.733939
O O6 0.437439 0.934302 0.792233
O O7 0.663192 0.372220 0.065426
O O8 0.717862 0.817338 0.650155
O O9 0.675292 0.669225 0.405948
O O10 0.000000 0.000000 0.500000
O O11 0.375538 0.368253 0.289649
O O12 0.019745 0.061638 0.333934
O O13 0.213405 0.904288 0.040971
O O14 0.334891 0.271674 0.698779
O O15 0.140924 0.094898 0.829495
O O16 0.174472 0.975440 0.976433
O O17 0.000000 0.000000 0.000000
#
# Coordination Sequence:
#
# PCOD8003056 Si02
#       8
#     2   2   2   2   2   2   2   2
#     4  10  20  36  62  84 114 155 186 238 292 348
#     4  11  21  40  60  82 116 159 198 238 287 349
#     4  12  24  38  55  88 119 154 205 246 285 330
#     4  10  21  40  55  83 118 154 200 245 283 334
#     4  11  20  39  61  85 120 156 190 233 298 351
#     4   8  21  38  60  84 114 154 195 230 303 338
#     4  11  22  37  58  81 112 161 196 238 292 337
#     4   9  20  40  64  90 119 146 190 242 290 354
#
# _framework density 19.430046000000001
#
# number of rings (size 3 to 8) (size 9 to 14) (size 15 to 20)
#    0.750    1.000    3.750    0.375    1.750    3.000 
#    4.500    0.625    0.000    0.750    0.000    0.000 
#    0.000    0.000    0.000    0.000    0.000    0.000 
#
# Total GULP energy -198300.288875 kJ/mol
# GULP energy per Si atom -12393.768055 kJ/mol
# Density = 1.938582 g / cm^3
# Si number density = 19.430046 Si / 1000 Ang^3
#
#
#
# Elastic Constant Matrix: (Units=GPa)
#
#
# Indices 1 2 3 4 5 6 
#
# 1 44.1488 18.5868 26.2494 -14.2779 -2.4808 -17.0416
# 2 18.5868 103.9483 37.9404 -7.0970 -4.7077 -11.7068
# 3 26.2494 37.9404 108.4758 13.4272 -10.7434 -16.9676
# 4 -14.2779 -7.0970 13.4272 26.2453 -2.7873 6.1155
# 5 -2.4808 -4.7077 -10.7434 -2.7873 24.8032 -0.2476
# 6 -17.0416 -11.7068 -16.9676 6.1155 -0.2476 27.5981
#
#
#
# Elastic Compliance Matrix: (Units=1/GPa)
#
#
# Indices 1 2 3 4 5 6 
#
# 1 0.043551 -0.000159 -0.011307 0.026432 0.002538 0.014038
# 2 -0.000159 0.011802 -0.004502 0.005273 0.000876 0.000979
# 3 -0.011307 -0.004502 0.016753 -0.016776 0.003437 0.005156
# 4 0.026432 0.005273 -0.016776 0.064255 0.003539 -0.005962
# 5 0.002538 0.000876 0.003437 0.003539 0.042661 0.003651
# 6 0.014038 0.000979 0.005156 -0.005962 0.003651 0.049843
#
#
# Mechanical properties :
#
#
# Convention : Reuss Voigt Hill
#
# Bulk Modulus (GPa) = 24.89549 46.90289 35.89919
# Shear Modulus (GPa) = 18.23550 27.31574 22.77562
#
# Velocity S-wave (km/s) = 3.06685 3.75354 3.42743
# Velocity P-wave (km/s) = 5.03800 6.55569 5.84631
#
# Compressibility (1/GPa) = 0.04016792
#
# Stress axis : x y z
#
# Youngs Moduli (GPa) = 22.96184 84.73284 59.69106
#
# Poissons Ratio (x) = 0.01351 0.67495
# Poissons Ratio (y) = 0.00366 0.26872
# Poissons Ratio (z) = 0.25964 0.38145
#
# Static dielectric constant tensor:
#      x y z
#    x 3.134510 0.089240 0.054410 
#    y 0.089240 3.639330 0.018790 
#    z 0.054410 0.018790 3.714180 
# 
# 
# High freq. dielectric constant tensor:
#      x y z
#    x 1.706210 0.000700 0.000430 
#    y 0.000700 1.765220 -0.004190 
#    z 0.000430 -0.004190 1.772400 
# 
# From -- ./inp_files/533913.got.cif
#   From: 2010.06.25/outbox.cif.g09.slc.cpg/sg2_267_cif.got.tgz:533913.got - 2010.06.27 13:26:56.
