data_PCOD8003512
_publ_section_title
;
Structure prediction by ZEFSAII (Michael W. Deem and Ramdas Pophale) SiO2 
 PCOD8003512
Probable space group: P -1
;
_chemical_formula_sum "Si O2"
_cell_formula_units_Z 16
_cell_length_a 11.594273
_cell_length_b 8.940868
_cell_length_c 19.552535
_cell_angle_alpha 49.448313
_cell_angle_beta 147.851049
_cell_angle_gamma 127.104014
_cell_volume 812.476231
_symmetry_space_group_name_H-M "P -1"
_symmetry_group_IT_number 2
_symmetry_cell_setting 'triclinic'
loop_
_space_group_symop_operation_xyz
x,y,z
-x,-y,-z
loop_
_atom_site_type_symbol
_atom_site_label
_atom_site_fract_x
_atom_site_fract_y
_atom_site_fract_z
Si Si1 0.121323 0.322093 0.797087
Si Si2 0.418718 0.297797 0.718846
Si Si3 0.343110 0.870557 0.362426
Si Si4 0.991422 0.715046 0.404525
Si Si5 0.306071 0.114654 0.581866
Si Si6 0.845287 0.218486 0.289256
Si Si7 0.512399 0.947364 0.941682
Si Si8 0.460370 0.745436 0.600384
O O1 0.098269 0.297679 0.712451
O O2 0.172192 0.550618 0.775649
O O3 0.900223 0.222967 0.753050
O O4 0.317648 0.200228 0.951262
O O5 0.181550 0.194952 0.660730
O O6 0.392122 0.287090 0.627647
O O7 0.489707 0.526351 0.707764
O O8 0.585512 0.157716 0.876112
O O9 0.493158 0.884464 0.367926
O O10 0.436827 0.739432 0.508149
O O11 0.338004 0.095688 0.321812
O O12 0.000000 0.500000 0.500000
O O13 0.240837 0.824657 0.499035
O O14 0.095315 0.176329 0.418747
O O15 0.258684 0.903877 0.660344
O O16 0.719507 0.156231 0.173954
O O17 0.500000 0.000000 0.000000
#
# Coordination Sequence:
#
# PCOD8003512 Si02
#       8
#     2   2   2   2   2   2   2   2
#     4  11  22  40  57  87 124 161 199 239 299 358
#     4  10  20  37  58  90 120 151 202 250 296 346
#     4  10  22  36  59  89 126 154 194 247 308 367
#     4   9  17  30  60  86 114 144 192 245 298 341
#     4  10  22  37  62  96 118 149 197 258 308 346
#     4  10  23  38  62  91 119 154 204 249 304 350
#     4  11  23  39  60  87 121 162 205 248 284 356
#     4   9  20  34  57  87 119 157 191 244 310 354
#
# _framework density 19.692882999999998
#
# number of rings (size 3 to 8) (size 9 to 14) (size 15 to 20)
#    0.000    2.000    1.250    2.625    8.750    3.000 
#    0.000    3.125    0.000    1.500    0.000    0.000 
#    0.000    0.000    0.000    0.000    0.000    0.000 
#
# Total GULP energy -198271.427431 kJ/mol
# GULP energy per Si atom -12391.964214 kJ/mol
# Density = 1.964806 g / cm^3
# Si number density = 19.692883 Si / 1000 Ang^3
#
#
#
# Elastic Constant Matrix: (Units=GPa)
#
#
# Indices 1 2 3 4 5 6 
#
# 1 98.9642 25.8253 37.5473 4.8914 5.9026 4.6089
# 2 25.8253 123.3776 53.3490 -20.5681 9.7522 -0.8246
# 3 37.5473 53.3490 113.1510 -10.9995 0.3306 -4.5088
# 4 4.8914 -20.5681 -10.9995 27.4583 -5.9857 -2.6965
# 5 5.9026 9.7522 0.3306 -5.9857 19.6951 -0.5758
# 6 4.6089 -0.8246 -4.5088 -2.6965 -0.5758 23.3450
#
#
#
# Elastic Compliance Matrix: (Units=1/GPa)
#
#
# Indices 1 2 3 4 5 6 
#
# 1 0.013049 -0.001580 -0.004412 -0.006856 -0.005267 -0.004406
# 2 -0.001580 0.011657 -0.004292 0.006657 -0.003187 0.000585
# 3 -0.004412 -0.004292 0.012861 0.004095 0.004587 0.003790
# 4 -0.006856 0.006657 0.004095 0.048027 0.013528 0.008261
# 5 -0.005267 -0.003187 0.004587 0.013528 0.058105 0.004809
# 6 -0.004406 0.000585 0.003790 0.008261 0.004809 0.045531
#
#
# Mechanical properties :
#
#
# Convention : Reuss Voigt Hill
#
# Bulk Modulus (GPa) = 58.82493 63.21511 61.02002
# Shear Modulus (GPa) = 23.20558 28.68444 25.94501
#
# Velocity S-wave (km/s) = 3.43647 3.82067 3.63365
# Velocity P-wave (km/s) = 6.75883 7.18565 6.97550
#
# Compressibility (1/GPa) = 0.01699960
#
# Stress axis : x y z
#
# Youngs Moduli (GPa) = 76.63420 85.78193 77.75321
#
# Poissons Ratio (x) = 0.13552 0.34304
# Poissons Ratio (y) = 0.12107 0.33374
# Poissons Ratio (z) = 0.33810 0.36821
#
# Static dielectric constant tensor:
#      x y z
#    x 7.093990 -0.446100 2.895360 
#    y -0.446100 3.761100 -0.464720 
#    z 2.895360 -0.464720 5.929700 
# 
# 
# High freq. dielectric constant tensor:
#      x y z
#    x 1.760210 -0.005580 -0.005030 
#    y -0.005580 1.778240 -0.009060 
#    z -0.005030 -0.009060 1.747990 
# 
# From -- ./inp_files/298391.got.cif
#   From: 2010.06.25/outbox.cif.g09.slc.cpg/sg2_150_cif.got.tgz:298391.got - 2010.06.27 13:26:56.
