data_PCOD8003351
_publ_section_title
;
Structure prediction by ZEFSAII (Michael W. Deem and Ramdas Pophale) SiO2 
 PCOD8003351
Probable space group: P -1
;
_chemical_formula_sum "Si O2"
_cell_formula_units_Z 16
_cell_length_a 16.649070
_cell_length_b 23.554220
_cell_length_c 26.562974
_cell_angle_alpha 164.391042
_cell_angle_beta 161.606148
_cell_angle_gamma 26.122339
_cell_volume 868.471081
_symmetry_space_group_name_H-M "P -1"
_symmetry_group_IT_number 2
_symmetry_cell_setting 'triclinic'
loop_
_space_group_symop_operation_xyz
x,y,z
-x,-y,-z
loop_
_atom_site_type_symbol
_atom_site_label
_atom_site_fract_x
_atom_site_fract_y
_atom_site_fract_z
Si Si1 0.792478 0.665329 0.375080
Si Si2 0.029873 0.293299 0.725382
Si Si3 0.699388 0.827603 0.123395
Si Si4 0.966999 0.928662 0.181107
Si Si5 0.822591 0.024990 0.074805
Si Si6 0.114479 0.414287 0.296655
Si Si7 0.689918 0.633134 0.845037
Si Si8 0.211239 0.569884 0.979162
O O1 0.487166 0.597116 0.139603
O O2 0.919092 0.457057 0.261367
O O3 0.870474 0.826173 0.510304
O O4 0.916474 0.790370 0.606326
O O5 0.237919 0.303358 0.902423
O O6 0.817716 0.434175 0.734409
O O7 0.181342 0.375862 0.835204
O O8 0.893701 0.052279 0.426973
O O9 0.407856 0.865201 0.987873
O O10 0.735791 0.682763 0.973345
O O11 0.183509 0.784632 0.176036
O O12 0.762238 0.916744 0.002169
O O13 0.808428 0.849476 0.069370
O O14 0.867164 0.837293 0.902809
O O15 0.386694 0.572664 0.601855
O O16 0.012108 0.474651 0.233349
#
# Coordination Sequence:
#
# PCOD8003351 Si02
#       8
#     2   2   2   2   2   2   2   2
#     4  10  20  37  52  84 112 148 173 218 276 320
#     4  10  24  37  57  82 108 146 180 227 266 319
#     4  11  21  39  57  79 112 143 182 224 273 318
#     4   8  20  32  56  83 108 144 169 222 276 319
#     4   9  20  34  55  79 111 144 179 219 270 320
#     4  11  21  32  59  83 110 142 174 231 269 325
#     4  11  20  36  58  86 110 135 182 224 279 322
#     4  10  21  37  55  81 116 141 183 217 269 325
#
# _framework density 18.423179999999999
#
# number of rings (size 3 to 8) (size 9 to 14) (size 15 to 20)
#    0.750    1.250    2.500    1.125    3.500    2.500 
#    0.000    0.625    0.000    0.750    0.000    0.000 
#    0.000    0.000    0.000    0.000    0.000    0.000 
#
# Total GULP energy -198320.299087 kJ/mol
# GULP energy per Si atom -12395.018693 kJ/mol
# Density = 1.838125 g / cm^3
# Si number density = 18.423180 Si / 1000 Ang^3
#
#
#
# Elastic Constant Matrix: (Units=GPa)
#
#
# Indices 1 2 3 4 5 6 
#
# 1 61.6989 26.4178 35.8542 -9.2496 -7.8058 -5.8760
# 2 26.4178 66.1697 20.7742 -18.5803 5.6769 2.1847
# 3 35.8542 20.7742 64.1446 -11.1645 -5.3064 6.6428
# 4 -9.2496 -18.5803 -11.1645 28.8777 -6.3076 -6.9515
# 5 -7.8058 5.6769 -5.3064 -6.3076 21.3239 0.5050
# 6 -5.8760 2.1847 6.6428 -6.9515 0.5050 28.7231
#
#
#
# Elastic Compliance Matrix: (Units=1/GPa)
#
#
# Indices 1 2 3 4 5 6 
#
# 1 0.030987 -0.007993 -0.014217 0.004350 0.010957 0.011095
# 2 -0.007993 0.021995 -0.001466 0.009511 -0.006319 -0.000556
# 3 -0.014217 -0.001466 0.025591 0.003042 0.002644 -0.008026
# 4 0.004350 0.009511 0.003042 0.049060 0.014067 0.011089
# 5 0.010957 -0.006319 0.002644 0.014067 0.057301 0.004508
# 6 0.011095 -0.000556 -0.008026 0.011089 0.004508 0.041588
#
#
# Mechanical properties :
#
#
# Convention : Reuss Voigt Hill
#
# Bulk Modulus (GPa) = 32.02924 39.78952 35.90938
# Shear Modulus (GPa) = 17.58832 23.04942 20.31887
#
# Velocity S-wave (km/s) = 3.09315 3.54094 3.32459
# Velocity P-wave (km/s) = 5.49361 6.19371 5.85414
#
# Compressibility (1/GPa) = 0.03122147
#
# Stress axis : x y z
#
# Youngs Moduli (GPa) = 32.27177 45.46496 39.07668
#
# Poissons Ratio (x) = 0.36338 0.55556
# Poissons Ratio (y) = 0.25793 0.05728
# Poissons Ratio (z) = 0.45882 0.06664
#
# Static dielectric constant tensor:
#      x y z
#    x 3.215710 -0.092340 -0.197540 
#    y -0.092340 3.462700 0.048220 
#    z -0.197540 0.048220 3.263450 
# 
# 
# High freq. dielectric constant tensor:
#      x y z
#    x 1.690390 -0.019730 -0.018080 
#    y -0.019730 1.717160 -0.000550 
#    z -0.018080 -0.000550 1.708830 
# 
# From -- ./inp_files/612282.got.cif
#   From: 2010.06.25/outbox.cif.g09.slc.cpg/sg2_307_cif.got.tgz:612282.got - 2010.06.27 13:26:56.
