data_PCOD8003997
_publ_section_title
;
Structure prediction by ZEFSAII (Michael W. Deem and Ramdas Pophale) SiO2 
 PCOD8003997
Probable space group: P -1
;
_chemical_formula_sum "Si O2"
_cell_formula_units_Z 16
_cell_length_a 15.083783
_cell_length_b 12.234845
_cell_length_c 9.051795
_cell_angle_alpha 91.212379
_cell_angle_beta 100.797561
_cell_angle_gamma 28.725007
_cell_volume 751.516781
_symmetry_space_group_name_H-M "P -1"
_symmetry_group_IT_number 2
_symmetry_cell_setting 'triclinic'
loop_
_space_group_symop_operation_xyz
x,y,z
-x,-y,-z
loop_
_atom_site_type_symbol
_atom_site_label
_atom_site_fract_x
_atom_site_fract_y
_atom_site_fract_z
Si Si1 0.380190 0.385285 0.964232
Si Si2 0.222729 0.031660 0.395020
Si Si3 0.830771 0.167988 0.135945
Si Si4 0.453188 0.928033 0.252619
Si Si5 0.281434 0.259074 0.991323
Si Si6 0.750057 0.212051 0.792838
Si Si7 0.881559 0.553670 0.349684
Si Si8 0.606955 0.263893 0.281661
O O1 0.230221 0.639382 0.869736
O O2 0.508244 0.208409 0.859228
O O3 0.255733 0.418442 0.998667
O O4 0.525479 0.273942 0.129774
O O5 0.000320 0.313134 0.356051
O O6 0.366875 0.971460 0.377456
O O7 0.225623 0.929787 0.279131
O O8 0.296958 0.917493 0.574376
O O9 0.770432 0.169762 0.264565
O O10 0.728247 0.220283 0.963703
O O11 0.065664 0.907833 0.187861
O O12 0.661012 0.765250 0.347661
O O13 0.274826 0.200447 0.142816
O O14 0.137288 0.370042 0.818045
O O15 0.500000 0.000000 0.000000
O O16 0.559274 0.482785 0.684159
O O17 0.000000 0.500000 0.500000
#
# Coordination Sequence:
#
# PCOD8003997 Si02
#       8
#     2   2   2   2   2   2   2   2
#     4   9  17  37  63  85 115 160 207 240 303 360
#     4  12  25  37  62  90 125 162 200 250 311 356
#     4  10  20  37  63  85 121 158 202 255 294 355
#     4  10  22  41  65  86 123 164 204 249 301 364
#     4   8  18  37  65  84 114 161 200 246 298 359
#     4  10  21  39  58  90 120 155 211 247 293 371
#     4  10  23  41  61  91 123 154 206 257 306 360
#     4  11  23  35  59  91 123 163 197 247 305 360
#
# _framework density 21.290275000000001
#
# number of rings (size 3 to 8) (size 9 to 14) (size 15 to 20)
#    0.000    2.250    0.000    4.875    5.250    2.500 
#    0.000    0.000    0.000    0.000    0.000    0.000 
#    0.000    0.000    0.000    0.000    0.000    0.000 
#
# Total GULP energy -198305.527479 kJ/mol
# GULP energy per Si atom -12394.095467 kJ/mol
# Density = 2.124182 g / cm^3
# Si number density = 21.290275 Si / 1000 Ang^3
#
#
#
# Elastic Constant Matrix: (Units=GPa)
#
#
# Indices 1 2 3 4 5 6 
#
# 1 95.3230 23.2280 70.3566 -0.0879 -10.5754 2.7540
# 2 23.2280 66.7440 46.4801 -10.3412 -9.1260 2.8778
# 3 70.3566 46.4801 121.1182 -20.7209 -11.8313 2.6872
# 4 -0.0879 -10.3412 -20.7209 29.1190 8.2698 7.1748
# 5 -10.5754 -9.1260 -11.8313 8.2698 44.3393 5.8061
# 6 2.7540 2.8778 2.6872 7.1748 5.8061 26.2139
#
#
#
# Elastic Compliance Matrix: (Units=1/GPa)
#
#
# Indices 1 2 3 4 5 6 
#
# 1 0.021054 0.001351 -0.014323 -0.010932 0.003339 0.001361
# 2 0.001351 0.020953 -0.008273 0.001480 0.002485 -0.002550
# 3 -0.014323 -0.008273 0.022077 0.013951 -0.001390 -0.003361
# 4 -0.010932 0.001480 0.013951 0.049637 -0.006180 -0.012661
# 5 0.003339 0.002485 -0.001390 -0.006180 0.025216 -0.004375
# 6 0.001361 -0.002550 -0.003361 -0.012661 -0.004375 0.043063
#
#
# Mechanical properties :
#
#
# Convention : Reuss Voigt Hill
#
# Bulk Modulus (GPa) = 46.30899 62.59051 54.44975
# Shear Modulus (GPa) = 21.58077 29.47581 25.52829
#
# Velocity S-wave (km/s) = 3.18723 3.72489 3.46650
# Velocity P-wave (km/s) = 5.94500 6.92547 6.45388
#
# Compressibility (1/GPa) = 0.02159408
#
# Stress axis : x y z
#
# Youngs Moduli (GPa) = 47.49698 47.72624 45.29600
#
# Poissons Ratio (x) = -0.06449 0.64877
# Poissons Ratio (y) = -0.06419 0.37474
# Poissons Ratio (z) = 0.68030 0.39485
#
# Static dielectric constant tensor:
#      x y z
#    x 4.123690 0.269110 -0.325120 
#    y 0.269110 4.006550 -0.280300 
#    z -0.325120 -0.280300 4.038820 
# 
# 
# High freq. dielectric constant tensor:
#      x y z
#    x 1.826070 0.006600 0.002650 
#    y 0.006600 1.836520 -0.009560 
#    z 0.002650 -0.009560 1.830860 
# 
# From -- ./inp_files/307576.got.cif
#   From: 2010.06.25/outbox.cif.g09.slc.cpg/sg2_154_cif.got.tgz:307576.got - 2010.06.27 13:26:56.
