data_PCOD8003931
_publ_section_title
;
Structure prediction by ZEFSAII (Michael W. Deem and Ramdas Pophale) SiO2 
 PCOD8003931
Probable space group: P -1
;
_chemical_formula_sum "Si O2"
_cell_formula_units_Z 16
_cell_length_a 6.502104
_cell_length_b 15.853142
_cell_length_c 9.844466
_cell_angle_alpha 105.259175
_cell_angle_beta 117.907865
_cell_angle_gamma 102.416754
_cell_volume 794.141352
_symmetry_space_group_name_H-M "P -1"
_symmetry_group_IT_number 2
_symmetry_cell_setting 'triclinic'
loop_
_space_group_symop_operation_xyz
x,y,z
-x,-y,-z
loop_
_atom_site_type_symbol
_atom_site_label
_atom_site_fract_x
_atom_site_fract_y
_atom_site_fract_z
Si Si1 0.046564 0.237487 0.257265
Si Si2 0.552646 0.662826 0.379096
Si Si3 0.065418 0.142785 0.480307
Si Si4 0.091557 0.187596 0.945429
Si Si5 0.792691 0.033731 0.595251
Si Si6 0.536570 0.524198 0.865470
Si Si7 0.898332 0.344640 0.905512
Si Si8 0.636349 0.313559 0.090957
O O1 0.330955 0.311765 0.421570
O O2 0.935034 0.154910 0.303019
O O3 0.868025 0.295928 0.222890
O O4 0.071159 0.190546 0.103242
O O5 0.707342 0.755367 0.371299
O O6 0.598181 0.570491 0.304702
O O7 0.253042 0.643436 0.270097
O O8 0.874432 0.112796 0.534503
O O9 0.165663 0.060460 0.462302
O O10 0.936336 0.080663 0.799190
O O11 0.957985 0.251977 0.865471
O O12 0.379245 0.220040 0.995272
O O13 0.500000 0.000000 0.500000
O O14 0.409614 0.598112 0.817572
O O15 0.500000 0.500000 0.000000
O O16 0.838491 0.566258 0.947702
O O17 0.701747 0.335696 0.962477
#
# Coordination Sequence:
#
# PCOD8003931 Si02
#       8
#     2   2   2   2   2   2   2   2
#     4   9  23  42  60  90 130 168 193 255 317 360
#     4  10  20  41  60  88 128 157 207 258 304 356
#     4   9  23  41  59  94 124 155 203 255 310 356
#     4  10  22  40  65  90 123 165 207 246 308 376
#     4  11  22  40  67  96 118 157 208 257 304 369
#     4  11  22  35  63  98 117 165 220 250 300 363
#     4  10  20  37  62  90 123 160 206 263 299 350
#     4  10  21  41  59  90 127 164 207 247 312 361
#
# _framework density 20.147545999999998
#
# number of rings (size 3 to 8) (size 9 to 14) (size 15 to 20)
#    0.750    1.250    1.250    1.875    1.750    5.000 
#    2.250    6.875    0.000    0.000    0.000    0.000 
#    0.000    0.000    0.000    0.000    0.000    0.000 
#
# Total GULP energy -198278.153585 kJ/mol
# GULP energy per Si atom -12392.384599 kJ/mol
# Density = 2.010169 g / cm^3
# Si number density = 20.147546 Si / 1000 Ang^3
#
#
#
# Elastic Constant Matrix: (Units=GPa)
#
#
# Indices 1 2 3 4 5 6 
#
# 1 104.1639 36.1286 61.1119 -0.4836 6.7902 5.3607
# 2 36.1286 81.0556 40.7539 8.1479 7.2936 7.0597
# 3 61.1119 40.7539 120.5228 2.3518 6.0710 11.4543
# 4 -0.4836 8.1479 2.3518 41.4800 -2.4038 2.8446
# 5 6.7902 7.2936 6.0710 -2.4038 26.0346 -7.3699
# 6 5.3607 7.0597 11.4543 2.8446 -7.3699 17.8744
#
#
#
# Elastic Compliance Matrix: (Units=1/GPa)
#
#
# Indices 1 2 3 4 5 6 
#
# 1 0.014464 -0.003363 -0.006184 0.001091 -0.001208 0.000282
# 2 -0.003363 0.016577 -0.003126 -0.003049 -0.004735 -0.005002
# 3 -0.006184 -0.003126 0.013215 0.000092 -0.002390 -0.006379
# 4 0.001091 -0.003049 0.000092 0.024997 0.002221 -0.002244
# 5 -0.001208 -0.004735 -0.002390 0.002221 0.047301 0.022913
# 6 0.000282 -0.005002 -0.006379 -0.002244 0.022913 0.071729
#
#
# Mechanical properties :
#
#
# Convention : Reuss Voigt Hill
#
# Bulk Modulus (GPa) = 52.88774 64.63677 58.76226
# Shear Modulus (GPa) = 22.73416 28.26099 25.49757
#
# Velocity S-wave (km/s) = 3.36279 3.74933 3.56131
# Velocity P-wave (km/s) = 6.43312 7.13405 6.79263
#
# Compressibility (1/GPa) = 0.01890797
#
# Stress axis : x y z
#
# Youngs Moduli (GPa) = 69.13586 60.32623 75.67186
#
# Poissons Ratio (x) = 0.20289 0.46797
# Poissons Ratio (y) = 0.23252 0.23658
# Poissons Ratio (z) = 0.42755 0.18861
#
# Static dielectric constant tensor:
#      x y z
#    x 3.616530 0.027780 0.018760 
#    y 0.027780 3.784400 0.096800 
#    z 0.018760 0.096800 3.588900 
# 
# 
# High freq. dielectric constant tensor:
#      x y z
#    x 1.784260 -0.008250 0.004400 
#    y -0.008250 1.785230 0.005220 
#    z 0.004400 0.005220 1.778020 
# 
# From -- ./inp_files/369018.got.cif
#   From: 2010.06.25/outbox.cif.g09.slc.cpg/sg2_185_cif.got.tgz:369018.got - 2010.06.27 13:26:56.
