data_PCOD8003041
_publ_section_title
;
Structure prediction by ZEFSAII (Michael W. Deem and Ramdas Pophale) SiO2 
 PCOD8003041
Probable space group: P -1
;
_chemical_formula_sum "Si O2"
_cell_formula_units_Z 16
_cell_length_a 30.252117
_cell_length_b 9.766089
_cell_length_c 9.545092
_cell_angle_alpha 112.032914
_cell_angle_beta 38.495050
_cell_angle_gamma 142.056533
_cell_volume 835.993222
_symmetry_space_group_name_H-M "P -1"
_symmetry_group_IT_number 2
_symmetry_cell_setting 'triclinic'
loop_
_space_group_symop_operation_xyz
x,y,z
-x,-y,-z
loop_
_atom_site_type_symbol
_atom_site_label
_atom_site_fract_x
_atom_site_fract_y
_atom_site_fract_z
Si Si1 0.675087 0.703976 0.243206
Si Si2 0.329826 0.340950 0.442983
Si Si3 0.637798 0.161703 0.681787
Si Si4 0.140951 0.197649 0.658092
Si Si5 0.182690 0.728757 0.217904
Si Si6 0.638816 0.935516 0.833726
Si Si7 0.398444 0.106238 0.584644
Si Si8 0.899767 0.101352 0.601148
O O1 0.718057 0.738912 0.307478
O O2 0.550547 0.376944 0.377517
O O3 0.625273 0.784694 0.399625
O O4 0.801420 0.902265 0.901696
O O5 0.222104 0.244002 0.585976
O O6 0.328657 0.175245 0.321708
O O7 0.483124 0.681128 0.177275
O O8 0.769585 0.501790 0.491065
O O9 0.666492 0.078555 0.682363
O O10 0.616006 0.059432 0.542369
O O11 0.500000 0.000000 0.000000
O O12 0.110531 0.054707 0.536720
O O13 0.000000 0.000000 0.000000
O O14 0.138160 0.820448 0.362673
O O15 0.053646 0.389361 0.390714
O O16 0.255650 0.819545 0.216831
O O17 0.286213 0.882800 0.895343
#
# Coordination Sequence:
#
# PCOD8003041 Si02
#       8
#     2   2   2   2   2   2   2   2
#     4  10  20  36  65  95 122 157 219 269 306 364
#     4  11  22  41  67 100 126 164 221 267 313 369
#     4  12  24  41  62  97 133 169 209 259 327 389
#     4  12  26  45  64  92 138 175 203 255 336 395
#     4  10  20  40  66  94 123 159 221 266 306 372
#     4  11  22  40  69  99 126 161 225 270 305 370
#     4  10  20  36  61  95 127 163 205 263 321 367
#     4  10  22  40  63  93 128 170 204 259 325 376
#
# _framework density 19.138912000000001
#
# number of rings (size 3 to 8) (size 9 to 14) (size 15 to 20)
#    0.000    1.250    5.000    1.500    0.000    1.000 
#    0.000    8.750    0.000    0.000    0.000    0.000 
#    0.000    0.000    0.000    0.000    0.000    0.000 
#
# Total GULP energy -198475.717882 kJ/mol
# GULP energy per Si atom -12404.732368 kJ/mol
# Density = 1.909535 g / cm^3
# Si number density = 19.138912 Si / 1000 Ang^3
#
#
#
# Elastic Constant Matrix: (Units=GPa)
#
#
# Indices 1 2 3 4 5 6 
#
# 1 84.3066 19.8262 26.0178 -8.9950 -4.4646 19.2703
# 2 19.8262 128.4292 55.4753 -10.1937 1.2789 25.5957
# 3 26.0178 55.4753 120.9305 -6.2261 -17.1374 9.1763
# 4 -8.9950 -10.1937 -6.2261 50.3639 -5.9679 -0.7577
# 5 -4.4646 1.2789 -17.1374 -5.9679 32.1622 -0.0345
# 6 19.2703 25.5957 9.1763 -0.7577 -0.0345 30.9470
#
#
#
# Elastic Compliance Matrix: (Units=1/GPa)
#
#
# Indices 1 2 3 4 5 6 
#
# 1 0.014879 0.000834 -0.002608 0.002497 0.001096 -0.009119
# 2 0.000834 0.011811 -0.005278 0.001411 -0.002914 -0.008692
# 3 -0.002608 -0.005278 0.012009 0.000744 0.006387 0.002454
# 4 0.002497 0.001411 0.000744 0.021190 0.004616 -0.002418
# 5 0.001096 -0.002914 0.006387 0.004616 0.035621 -0.000014
# 6 -0.009119 -0.008692 0.002454 -0.002418 -0.000014 0.044394
#
#
# Mechanical properties :
#
#
# Convention : Reuss Voigt Hill
#
# Bulk Modulus (GPa) = 40.65928 59.58943 50.12435
# Shear Modulus (GPa) = 30.82523 38.18439 34.50481
#
# Velocity S-wave (km/s) = 4.01759 4.47152 4.25062
# Velocity P-wave (km/s) = 6.54307 7.60672 7.09485
#
# Compressibility (1/GPa) = 0.02459463
#
# Stress axis : x y z
#
# Youngs Moduli (GPa) = 67.20898 84.66825 83.27107
#
# Poissons Ratio (x) = -0.07064 0.21718
# Poissons Ratio (y) = -0.05607 0.43953
# Poissons Ratio (z) = 0.17528 0.44691
#
# Static dielectric constant tensor:
#      x y z
#    x 3.437790 0.064600 0.056850 
#    y 0.064600 3.546430 -0.077860 
#    z 0.056850 -0.077860 3.572840 
# 
# 
# High freq. dielectric constant tensor:
#      x y z
#    x 1.740180 0.011930 0.008080 
#    y 0.011930 1.752930 -0.003480 
#    z 0.008080 -0.003480 1.751390 
# 
# From -- ./inp_files/186977.got.cif
#   From: 2010.06.25/outbox.cif.g09.slc.cpg/sg2_94_cif.got.tgz:186977.got - 2010.06.27 13:26:56.
