data_PCOD8003300
_publ_section_title
;
Structure prediction by ZEFSAII (Michael W. Deem and Ramdas Pophale) SiO2 
 PCOD8003300
Probable space group: P -1
;
_chemical_formula_sum "Si O2"
_cell_formula_units_Z 16
_cell_length_a 17.251847
_cell_length_b 8.948509
_cell_length_c 9.024567
_cell_angle_alpha 48.520382
_cell_angle_beta 54.009113
_cell_angle_gamma 84.142770
_cell_volume 743.733131
_symmetry_space_group_name_H-M "P -1"
_symmetry_group_IT_number 2
_symmetry_cell_setting 'triclinic'
loop_
_space_group_symop_operation_xyz
x,y,z
-x,-y,-z
loop_
_atom_site_type_symbol
_atom_site_label
_atom_site_fract_x
_atom_site_fract_y
_atom_site_fract_z
Si Si1 0.339763 0.917894 0.706299
Si Si2 0.888112 0.651830 0.418976
Si Si3 0.336162 0.473001 0.676711
Si Si4 0.872519 0.080134 0.084688
Si Si5 0.277893 0.722441 0.346466
Si Si6 0.434094 0.150943 0.724578
Si Si7 0.263734 0.994068 0.452980
Si Si8 0.255427 0.421272 0.106275
O O1 0.353065 0.982614 0.472819
O O2 0.436241 0.102469 0.577720
O O3 0.226363 0.909312 0.898771
O O4 0.337180 0.678048 0.892798
O O5 0.816557 0.408543 0.581720
O O6 0.855695 0.652582 0.628069
O O7 0.014320 0.712271 0.232862
O O8 0.872165 0.840748 0.218962
O O9 0.303064 0.535714 0.517175
O O10 0.355572 0.259303 0.773603
O O11 0.444324 0.689799 0.468606
O O12 0.241665 0.414095 0.946729
O O13 0.852409 0.104970 0.266554
O O14 0.241023 0.843849 0.432007
O O15 0.385701 0.912030 0.021547
O O16 0.308702 0.259609 0.190868
#
# Coordination Sequence:
#
# PCOD8003300 Si02
#       8
#     2   2   2   2   2   2   2   2
#     4  10  20  40  61  84 116 156 192 236 292 341
#     4  10  20  36  66  86 117 154 195 235 290 347
#     4  11  24  40  60  85 123 150 194 244 293 341
#     4   8  19  39  60  89 117 152 192 238 288 346
#     4  12  21  40  61  86 120 157 191 240 293 340
#     4  11  24  40  60  90 113 155 198 241 288 350
#     4   9  21  38  59  84 123 151 190 242 287 335
#     4  11  20  39  59  86 116 158 189 245 283 343
#
# _framework density 21.513093999999999
#
# number of rings (size 3 to 8) (size 9 to 14) (size 15 to 20)
#    0.750    1.000    3.750    1.125    0.000    1.500 
#    0.000    0.625    0.000    3.750    0.000    0.000 
#    0.000    0.000    0.000    0.000    0.000    0.000 
#
# Total GULP energy -198244.328912 kJ/mol
# GULP energy per Si atom -12390.270557 kJ/mol
# Density = 2.146413 g / cm^3
# Si number density = 21.513094 Si / 1000 Ang^3
#
#
#
# Elastic Constant Matrix: (Units=GPa)
#
#
# Indices 1 2 3 4 5 6 
#
# 1 22.5486 1.9406 18.7746 -4.3960 11.4627 3.9655
# 2 1.9406 81.8082 27.8792 10.5846 0.9063 10.8999
# 3 18.7746 27.8792 97.4805 2.3239 16.6225 5.5436
# 4 -4.3960 10.5846 2.3239 29.9802 -1.2091 3.2993
# 5 11.4627 0.9063 16.6225 -1.2091 23.1874 -3.5555
# 6 3.9655 10.8999 5.5436 3.2993 -3.5555 24.2191
#
#
#
# Elastic Compliance Matrix: (Units=1/GPa)
#
#
# Indices 1 2 3 4 5 6 
#
# 1 0.072682 0.002394 -0.008513 0.011079 -0.031986 -0.017235
# 2 0.002394 0.014898 -0.004368 -0.003951 0.000314 -0.005513
# 3 -0.008513 -0.004368 0.014224 -0.000979 -0.005967 -0.000639
# 4 0.011079 -0.003951 -0.000979 0.036898 -0.003517 -0.005355
# 5 -0.031986 0.000314 -0.005967 -0.003517 0.065561 0.016566
# 6 -0.017235 -0.005513 -0.000639 -0.005355 0.016566 0.049900
#
#
# Mechanical properties :
#
#
# Convention : Reuss Voigt Hill
#
# Bulk Modulus (GPa) = 12.37144 33.22512 22.79828
# Shear Modulus (GPa) = 16.55191 25.69354 21.12273
#
# Velocity S-wave (km/s) = 2.77679 3.45964 3.13685
# Velocity P-wave (km/s) = 4.00549 5.60683 4.87239
#
# Compressibility (1/GPa) = 0.08083136
#
# Stress axis : x y z
#
# Youngs Moduli (GPa) = 13.75856 67.12534 70.30194
#
# Poissons Ratio (x) = -0.16071 0.59847
# Poissons Ratio (y) = -0.03294 0.30705
# Poissons Ratio (z) = 0.11712 0.29318
#
# Static dielectric constant tensor:
#      x y z
#    x 3.509600 -0.158780 0.269680 
#    y -0.158780 4.024290 0.064110 
#    z 0.269680 0.064110 3.953610 
# 
# 
# High freq. dielectric constant tensor:
#      x y z
#    x 1.804290 -0.014320 0.023620 
#    y -0.014320 1.858980 0.000830 
#    z 0.023620 0.000830 1.846100 
# 
# From -- ./inp_files/328384.got.cif
#   From: 2010.06.25/outbox.cif.g09.slc.cpg/sg2_165_cif.got.tgz:328384.got - 2010.06.27 13:26:56.
