data_PCOD8003445
_publ_section_title
;
Structure prediction by ZEFSAII (Michael W. Deem and Ramdas Pophale) SiO2 
 PCOD8003445
Probable space group: P -1
;
_chemical_formula_sum "Si O2"
_cell_formula_units_Z 16
_cell_length_a 25.373727
_cell_length_b 15.847277
_cell_length_c 19.076264
_cell_angle_alpha 159.790084
_cell_angle_beta 161.584393
_cell_angle_gamma 26.516330
_cell_volume 836.435454
_symmetry_space_group_name_H-M "P -1"
_symmetry_group_IT_number 2
_symmetry_cell_setting 'triclinic'
loop_
_space_group_symop_operation_xyz
x,y,z
-x,-y,-z
loop_
_atom_site_type_symbol
_atom_site_label
_atom_site_fract_x
_atom_site_fract_y
_atom_site_fract_z
Si Si1 0.556087 0.248824 0.840390
Si Si2 0.043513 0.772878 0.830609
Si Si3 0.548011 0.344888 0.238086
Si Si4 0.177532 0.071447 0.751641
Si Si5 0.063383 0.738965 0.673219
Si Si6 0.657422 0.469255 0.624776
Si Si7 0.786721 0.928497 0.366345
Si Si8 0.571897 0.251846 0.701970
O O1 0.509291 0.278329 0.722969
O O2 0.456663 0.026621 0.575872
O O3 0.500000 0.500000 0.000000
O O4 0.750778 0.181513 0.046279
O O5 0.001738 0.843706 0.752578
O O6 0.932042 0.554974 0.546420
O O7 0.235763 0.685867 0.013991
O O8 0.000000 0.000000 0.000000
O O9 0.597705 0.475028 0.473916
O O10 0.536335 0.555827 0.330175
O O11 0.686913 0.146560 0.232570
O O12 0.375557 0.212497 0.926649
O O13 0.171215 0.129246 0.706217
O O14 0.221224 0.311533 0.037313
O O15 0.000000 0.000000 0.500000
O O16 0.944848 0.840879 0.542491
O O17 0.500000 0.500000 0.500000
O O18 0.756653 0.214610 0.566581
#
# Coordination Sequence:
#
# PCOD8003445 Si02
#       8
#     2   2   2   2   2   2   2   2
#     4  10  22  41  58  85 125 159 191 247 304 358
#     4  10  20  37  57  87 117 153 198 246 289 352
#     4  11  22  40  65  92 122 160 208 253 298 366
#     4  11  25  42  62  93 127 156 202 258 303 362
#     4  10  22  36  59  87 118 152 200 245 294 350
#     4  11  21  40  65  88 121 166 200 244 313 363
#     4  11  22  40  64  91 126 159 205 257 298 360
#     4  10  22  38  61  86 120 157 199 244 299 354
#
# _framework density 19.128793000000002
#
# number of rings (size 3 to 8) (size 9 to 14) (size 15 to 20)
#    0.000    1.500    3.750    1.500    0.000    8.000 
#    0.000    0.000    0.000    0.000    0.000    0.000 
#    0.000    0.000    0.000    0.000    0.000    0.000 
#
# Total GULP energy -198458.017830 kJ/mol
# GULP energy per Si atom -12403.626114 kJ/mol
# Density = 1.908526 g / cm^3
# Si number density = 19.128793 Si / 1000 Ang^3
#
#
#
# Elastic Constant Matrix: (Units=GPa)
#
#
# Indices 1 2 3 4 5 6 
#
# 1 76.1367 60.3597 44.1090 8.9379 -8.5051 6.7613
# 2 60.3597 110.7121 43.1929 0.8578 -15.9397 22.9448
# 3 44.1090 43.1929 133.1883 12.0572 -7.0772 3.3762
# 4 8.9379 0.8578 12.0572 32.9143 -6.8304 -8.6686
# 5 -8.5051 -15.9397 -7.0772 -6.8304 39.0922 1.8765
# 6 6.7613 22.9448 3.3762 -8.6686 1.8765 29.7535
#
#
#
# Elastic Compliance Matrix: (Units=1/GPa)
#
#
# Indices 1 2 3 4 5 6 
#
# 1 0.026490 -0.013868 -0.004037 -0.004670 -0.001624 0.003875
# 2 -0.013868 0.020667 -0.001636 0.001796 0.006025 -0.012457
# 3 -0.004037 -0.001636 0.009560 -0.002296 -0.000237 0.000440
# 4 -0.004670 0.001796 -0.002296 0.036185 0.005136 0.010155
# 5 -0.001624 0.006025 -0.000237 0.005136 0.028758 -0.004568
# 6 0.003875 -0.012457 0.000440 0.010155 -0.004568 0.045532
#
#
# Mechanical properties :
#
#
# Convention : Reuss Voigt Hill
#
# Bulk Modulus (GPa) = 56.70848 68.37334 62.54091
# Shear Modulus (GPa) = 23.56806 31.84370 27.70588
#
# Velocity S-wave (km/s) = 3.51390 4.08450 3.80990
# Velocity P-wave (km/s) = 6.79509 7.62007 7.21937
#
# Compressibility (1/GPa) = 0.01763405
#
# Stress axis : x y z
#
# Youngs Moduli (GPa) = 37.75005 48.38720 104.60278
#
# Poissons Ratio (x) = 0.67102 0.42232
# Poissons Ratio (y) = 0.52351 0.17115
# Poissons Ratio (z) = 0.15241 0.07917
#
# Static dielectric constant tensor:
#      x y z
#    x 3.519300 -0.074390 -0.046560 
#    y -0.074390 3.406040 0.151980 
#    z -0.046560 0.151980 3.773800 
# 
# 
# High freq. dielectric constant tensor:
#      x y z
#    x 1.744080 0.000860 -0.004110 
#    y 0.000860 1.740930 0.001640 
#    z -0.004110 0.001640 1.763210 
# 
# From -- ./inp_files/46350.got.cif
#   From: 2010.06.25/outbox.cif.g09.slc.cpg/sg2_24_cif.got.tgz:46350.got - 2010.06.27 13:26:56.
