data_PCOD8003827
_publ_section_title
;
Structure prediction by ZEFSAII (Michael W. Deem and Ramdas Pophale) SiO2 
 PCOD8003827
Probable space group: P -1
;
_chemical_formula_sum "Si O2"
_cell_formula_units_Z 16
_cell_length_a 14.877018
_cell_length_b 6.277712
_cell_length_c 9.096828
_cell_angle_alpha 88.517218
_cell_angle_beta 100.153908
_cell_angle_gamma 113.989387
_cell_volume 763.050837
_symmetry_space_group_name_H-M "P -1"
_symmetry_group_IT_number 2
_symmetry_cell_setting 'triclinic'
loop_
_space_group_symop_operation_xyz
x,y,z
-x,-y,-z
loop_
_atom_site_type_symbol
_atom_site_label
_atom_site_fract_x
_atom_site_fract_y
_atom_site_fract_z
Si Si1 0.684080 0.459723 0.858028
Si Si2 0.070889 0.756626 0.466621
Si Si3 0.804402 0.875301 0.082869
Si Si4 0.808853 0.478319 0.625052
Si Si5 0.668497 0.121962 0.117128
Si Si6 0.293118 0.470686 0.684768
Si Si7 0.475584 0.380054 0.837813
Si Si8 0.007255 0.928773 0.717450
O O1 0.735040 0.377173 0.743260
O O2 0.579122 0.463531 0.773832
O O3 0.762086 0.716166 0.929403
O O4 0.646712 0.273738 0.982358
O O5 0.171151 0.738190 0.433722
O O6 0.000000 0.500000 0.500000
O O7 0.083080 0.921333 0.608760
O O8 0.024423 0.856454 0.321682
O O9 0.781355 0.714452 0.222428
O O10 0.757415 0.063085 0.080346
O O11 0.925756 0.014872 0.114624
O O12 0.754739 0.581905 0.490432
O O13 0.911207 0.685076 0.706717
O O14 0.699611 0.274913 0.271404
O O15 0.571828 0.895055 0.137638
O O16 0.400980 0.457428 0.720560
O O17 0.500000 0.500000 0.000000
#
# Coordination Sequence:
#
# PCOD8003827 Si02
#       8
#     2   2   2   2   2   2   2   2
#     4  11  24  38  58  90 127 153 194 249 302 350
#     4   9  18  35  58  82 113 158 200 238 287 345
#     4  10  20  37  61  91 110 160 211 240 282 349
#     4  11  24  39  55  92 129 156 191 246 303 351
#     4  10  20  38  66  85 114 154 203 248 288 352
#     4  10  21  36  62  89 116 151 204 244 287 357
#     4  11  20  41  66  90 110 154 205 243 292 357
#     4  10  20  37  63  82 120 163 203 243 284 344
#
# _framework density 20.968457999999998
#
# number of rings (size 3 to 8) (size 9 to 14) (size 15 to 20)
#    0.000    1.750    3.750    3.375    0.000    6.000 
#    0.000    1.875    0.000    0.000    0.000    0.000 
#    0.000    0.000    0.000    0.000    0.000    0.000 
#
# Total GULP energy -198317.459627 kJ/mol
# GULP energy per Si atom -12394.841227 kJ/mol
# Density = 2.092073 g / cm^3
# Si number density = 20.968458 Si / 1000 Ang^3
#
#
#
# Elastic Constant Matrix: (Units=GPa)
#
#
# Indices 1 2 3 4 5 6 
#
# 1 143.4693 25.5385 46.8802 11.0921 0.6627 -11.6173
# 2 25.5385 79.1089 11.2406 12.0606 4.6192 -15.0980
# 3 46.8802 11.2406 50.9636 8.9244 2.7991 4.9349
# 4 11.0921 12.0606 8.9244 16.5765 2.9170 3.3175
# 5 0.6627 4.6192 2.7991 2.9170 37.4153 3.5698
# 6 -11.6173 -15.0980 4.9349 3.3175 3.5698 25.9770
#
#
#
# Elastic Compliance Matrix: (Units=1/GPa)
#
#
# Indices 1 2 3 4 5 6 
#
# 1 0.011270 -0.000298 -0.010456 -0.003174 0.000177 0.007234
# 2 -0.000298 0.017665 -0.002355 -0.013530 -0.002147 0.012604
# 3 -0.010456 -0.002355 0.031952 -0.006172 -0.000357 -0.011277
# 4 -0.003174 -0.013530 -0.006172 0.079618 -0.002305 -0.017962
# 5 0.000177 -0.002147 -0.000357 -0.002305 0.027635 -0.004604
# 6 0.007234 0.012604 -0.011277 -0.017962 -0.004604 0.054125
#
#
# Mechanical properties :
#
#
# Convention : Reuss Voigt Hill
#
# Bulk Modulus (GPa) = 28.84435 48.98450 38.91443
# Shear Modulus (GPa) = 19.22784 28.65258 23.94021
#
# Velocity S-wave (km/s) = 3.03147 3.70058 3.38261
# Velocity P-wave (km/s) = 5.10284 6.45529 5.81850
#
# Compressibility (1/GPa) = 0.03466884
#
# Stress axis : x y z
#
# Youngs Moduli (GPa) = 88.73029 56.60793 31.29723
#
# Poissons Ratio (x) = 0.01689 0.32723
# Poissons Ratio (y) = 0.02648 0.07371
# Poissons Ratio (z) = 0.92773 0.13331
#
# Static dielectric constant tensor:
#      x y z
#    x 4.202290 -0.240100 0.160470 
#    y -0.240100 4.052200 0.320970 
#    z 0.160470 0.320970 3.562920 
# 
# 
# High freq. dielectric constant tensor:
#      x y z
#    x 1.827020 -0.012130 0.018210 
#    y -0.012130 1.821110 0.016190 
#    z 0.018210 0.016190 1.790310 
# 
# From -- ./inp_files/94054.got.cif
#   From: 2010.06.25/outbox.cif.g09.slc.cpg/sg2_48_cif.got.tgz:94054.got - 2010.06.27 13:26:56.
