data_PCOD8003338
_publ_section_title
;
Structure prediction by ZEFSAII (Michael W. Deem and Ramdas Pophale) SiO2 
 PCOD8003338
Probable space group: P -1
;
_chemical_formula_sum "Si O2"
_cell_formula_units_Z 16
_cell_length_a 8.701537
_cell_length_b 10.876824
_cell_length_c 10.073993
_cell_angle_alpha 79.648622
_cell_angle_beta 125.960459
_cell_angle_gamma 95.754691
_cell_volume 759.169824
_symmetry_space_group_name_H-M "P -1"
_symmetry_group_IT_number 2
_symmetry_cell_setting 'triclinic'
loop_
_space_group_symop_operation_xyz
x,y,z
-x,-y,-z
loop_
_atom_site_type_symbol
_atom_site_label
_atom_site_fract_x
_atom_site_fract_y
_atom_site_fract_z
Si Si1 0.799509 0.833490 0.138600
Si Si2 0.180131 0.735633 0.253062
Si Si3 0.786577 0.954233 0.386560
Si Si4 0.202880 0.463922 0.268570
Si Si5 0.457219 0.148020 0.229194
Si Si6 0.169674 0.640417 0.992906
Si Si7 0.504380 0.647258 0.979758
Si Si8 0.401034 0.221555 0.475501
O O1 0.753748 0.919608 0.223716
O O2 0.701849 0.696728 0.133866
O O3 0.025095 0.812613 0.242959
O O4 0.705830 0.899246 0.947328
O O5 0.188725 0.588205 0.329941
O O6 0.122370 0.740629 0.066275
O O7 0.382415 0.801031 0.364296
O O8 0.747035 0.835442 0.483942
O O9 0.640536 0.060527 0.336483
O O10 0.000000 0.000000 0.500000
O O11 0.236676 0.509405 0.123602
O O12 0.367326 0.371308 0.420999
O O13 0.008886 0.384356 0.187709
O O14 0.370295 0.155164 0.330833
O O15 0.523598 0.287798 0.191245
O O16 0.335663 0.696846 0.977977
O O17 0.500000 0.500000 0.000000
#
# Coordination Sequence:
#
# PCOD8003338 Si02
#       8
#     2   2   2   2   2   2   2   2
#     4  10  23  44  67  94 131 167 225 266 317 382
#     4  10  20  38  62  96 134 164 208 267 326 400
#     4  12  27  48  64  92 132 174 225 277 318 378
#     4   9  20  35  63  99 132 171 211 259 324 407
#     4  10  25  43  67  94 128 171 226 262 319 387
#     4   9  18  35  63  89 135 165 216 249 319 385
#     4  10  20  36  69 100 129 161 212 273 324 377
#     4  12  23  41  67  92 132 175 210 265 344 377
#
# _framework density 21.075652999999999
#
# number of rings (size 3 to 8) (size 9 to 14) (size 15 to 20)
#    1.500    0.250    0.000    4.875    1.750    0.000 
#    2.250    1.875    0.000    0.000    0.000    0.000 
#    0.000    0.000    0.000    0.000    0.000    0.000 
#
# Total GULP energy -198283.107549 kJ/mol
# GULP energy per Si atom -12392.694222 kJ/mol
# Density = 2.102768 g / cm^3
# Si number density = 21.075653 Si / 1000 Ang^3
#
#
#
# Elastic Constant Matrix: (Units=GPa)
#
#
# Indices 1 2 3 4 5 6 
#
# 1 102.5910 6.1448 27.4491 4.7894 2.7920 4.0924
# 2 6.1448 45.4796 16.6191 1.9893 -1.4526 -4.8633
# 3 27.4491 16.6191 76.9602 7.8865 2.0421 6.4521
# 4 4.7894 1.9893 7.8865 31.5037 -5.4967 7.9232
# 5 2.7920 -1.4526 2.0421 -5.4967 37.8243 7.5491
# 6 4.0924 -4.8633 6.4521 7.9232 7.5491 36.0323
#
#
#
# Elastic Compliance Matrix: (Units=1/GPa)
#
#
# Indices 1 2 3 4 5 6 
#
# 1 0.010812 -0.000122 -0.003712 -0.000752 -0.000656 -0.000277
# 2 -0.000122 0.024570 -0.005519 -0.001273 0.000154 0.004566
# 3 -0.003712 -0.005519 0.016001 -0.002589 -0.000684 -0.002476
# 4 -0.000752 -0.001273 -0.002589 0.036126 0.007208 -0.009077
# 5 -0.000656 0.000154 -0.000684 0.007208 0.029065 -0.007456
# 6 -0.000277 0.004566 -0.002476 -0.009077 -0.007456 0.032402
#
#
# Mechanical properties :
#
#
# Convention : Reuss Voigt Hill
#
# Bulk Modulus (GPa) = 30.60302 36.16187 33.38244
# Shear Modulus (GPa) = 27.99978 32.72656 30.36317
#
# Velocity S-wave (km/s) = 3.64886 3.94485 3.79974
# Velocity P-wave (km/s) = 5.68369 6.15991 5.92659
#
# Compressibility (1/GPa) = 0.03267652
#
# Stress axis : x y z
#
# Youngs Moduli (GPa) = 92.48979 40.70036 62.49784
#
# Poissons Ratio (x) = 0.00497 0.23201
# Poissons Ratio (y) = 0.01128 0.34490
# Poissons Ratio (z) = 0.34335 0.22461
#
# Static dielectric constant tensor:
#      x y z
#    x 3.772090 0.051230 -0.033810 
#    y 0.051230 3.528490 0.020750 
#    z -0.033810 0.020750 3.632630 
# 
# 
# High freq. dielectric constant tensor:
#      x y z
#    x 1.825520 -0.001840 0.006560 
#    y -0.001840 1.810740 0.006310 
#    z 0.006560 0.006310 1.812690 
# 
# From -- ./inp_files/387440.got.cif
#   From: 2010.06.25/outbox.cif.g09.slc.cpg/sg2_194_cif.got.tgz:387440.got - 2010.06.27 13:26:56.
