data_PCOD8003105
_publ_section_title
;
Structure prediction by ZEFSAII (Michael W. Deem and Ramdas Pophale) SiO2 
 PCOD8003105
Probable space group: P -1
;
_chemical_formula_sum "Si O2"
_cell_formula_units_Z 14
_cell_length_a 19.392978
_cell_length_b 19.490378
_cell_length_c 8.757215
_cell_angle_alpha 31.253416
_cell_angle_beta 30.098755
_cell_angle_gamma 22.424860
_cell_volume 606.348115
_symmetry_space_group_name_H-M "P -1"
_symmetry_group_IT_number 2
_symmetry_cell_setting 'triclinic'
loop_
_space_group_symop_operation_xyz
x,y,z
-x,-y,-z
loop_
_atom_site_type_symbol
_atom_site_label
_atom_site_fract_x
_atom_site_fract_y
_atom_site_fract_z
Si Si1 0.525071 0.709681 0.872898
Si Si2 0.441106 0.198064 0.047944
Si Si3 0.058574 0.649092 0.221404
Si Si4 0.398155 0.983806 0.357019
Si Si5 0.162280 0.071344 0.379975
Si Si6 0.088050 0.966199 0.229706
Si Si7 0.957561 0.437398 0.915137
O O1 0.706350 0.483955 0.967537
O O2 0.536540 0.777883 0.558379
O O3 0.540369 0.806421 0.796495
O O4 0.318186 0.775430 0.156665
O O5 0.645050 0.089049 0.784055
O O6 0.348548 0.117372 0.336965
O O7 0.276758 0.415205 0.892483
O O8 0.984269 0.665816 0.162443
O O9 0.021271 0.547527 0.593647
O O10 0.945061 0.859020 0.091977
O O11 0.213666 0.037969 0.525915
O O12 0.500000 0.000000 0.000000
O O13 0.007061 0.063564 0.657609
O O14 0.073486 0.276424 0.125956
O O15 0.000000 0.000000 0.500000
#
# Coordination Sequence:
#
# PCOD8003105 Si02
#       7
#     2   2   2   2   2   2   2
#     4  11  22  39  64  90 122 165 208 251 304 365
#     4  10  20  37  64  90 119 160 207 253 308 353
#     4  10  21  36  61  95 121 154 211 261 299 359
#     4  10  22  39  62  91 127 163 199 257 315 360
#     4  11  23  41  60  92 133 159 203 255 304 368
#     4  12  23  40  63  92 126 167 205 249 306 367
#     4  10  20  36  62  93 121 158 207 258 307 357
#
# _framework density 23.089044999999999
#
# number of rings (size 3 to 8) (size 9 to 14) (size 15 to 20)
#    0.000    1.429    2.857    3.000    0.000    5.143 
#    0.000    3.571    0.000    0.000    0.000    0.000 
#    0.000    0.000    0.000    0.000    0.000    0.000 
#
# Total GULP energy -173533.528548 kJ/mol
# GULP energy per Si atom -12395.252039 kJ/mol
# Density = 2.303649 g / cm^3
# Si number density = 23.089045 Si / 1000 Ang^3
#
#
#
# Elastic Constant Matrix: (Units=GPa)
#
#
# Indices 1 2 3 4 5 6 
#
# 1 138.5083 13.6174 22.2946 -4.0748 -14.3155 -23.8160
# 2 13.6174 102.0459 13.9497 2.2844 -8.0578 -24.2369
# 3 22.2946 13.9497 67.1117 -3.9202 -11.1778 -1.5863
# 4 -4.0748 2.2844 -3.9202 30.7908 -5.5996 -9.0561
# 5 -14.3155 -8.0578 -11.1778 -5.5996 43.4847 -1.7380
# 6 -23.8160 -24.2369 -1.5863 -9.0561 -1.7380 23.8698
#
#
#
# Elastic Compliance Matrix: (Units=1/GPa)
#
#
# Indices 1 2 3 4 5 6 
#
# 1 0.010970 0.003168 -0.002664 0.006776 0.005063 0.016924
# 2 0.003168 0.014880 -0.002518 0.005947 0.004746 0.020705
# 3 -0.002664 -0.002518 0.016832 0.001568 0.003054 -0.003278
# 4 0.006776 0.005947 0.001568 0.043994 0.010615 0.030368
# 5 0.005063 0.004746 0.003054 0.010615 0.028341 0.016164
# 6 0.016924 0.020705 -0.003278 0.030368 0.016164 0.092283
#
#
# Mechanical properties :
#
#
# Convention : Reuss Voigt Hill
#
# Bulk Modulus (GPa) = 25.87051 45.26547 35.56799
# Shear Modulus (GPa) = 22.30031 36.81601 29.55816
#
# Velocity S-wave (km/s) = 3.11117 3.99748 3.58184
# Velocity P-wave (km/s) = 4.91272 6.39951 5.70476
#
# Compressibility (1/GPa) = 0.03865405
#
# Stress axis : x y z
#
# Youngs Moduli (GPa) = 91.16038 67.20360 59.41221
#
# Poissons Ratio (x) = -0.21290 0.15825
# Poissons Ratio (y) = -0.28879 0.14960
# Poissons Ratio (z) = 0.24282 0.16922
#
# Static dielectric constant tensor:
#      x y z
#    x 4.590060 -0.233990 -0.126900 
#    y -0.233990 4.284320 0.008180 
#    z -0.126900 0.008180 3.872590 
# 
# 
# High freq. dielectric constant tensor:
#      x y z
#    x 1.914000 -0.022560 -0.001640 
#    y -0.022560 1.917380 0.006800 
#    z -0.001640 0.006800 1.886960 
# 
# From -- ./inp_files/349651.got.cif
#   From: 2010.06.25/outbox.cif.g09.slc.cpg/sg2_175_cif.got.tgz:349651.got - 2010.06.27 13:26:56.
