data_PCOD8003471
_publ_section_title
;
Structure prediction by ZEFSAII (Michael W. Deem and Ramdas Pophale) SiO2 
 PCOD8003471
Probable space group: P -1
;
_chemical_formula_sum "Si O2"
_cell_formula_units_Z 16
_cell_length_a 8.574444
_cell_length_b 13.767104
_cell_length_c 7.109388
_cell_angle_alpha 104.758109
_cell_angle_beta 85.676944
_cell_angle_gamma 96.075541
_cell_volume 805.961355
_symmetry_space_group_name_H-M "P -1"
_symmetry_group_IT_number 2
_symmetry_cell_setting 'triclinic'
loop_
_space_group_symop_operation_xyz
x,y,z
-x,-y,-z
loop_
_atom_site_type_symbol
_atom_site_label
_atom_site_fract_x
_atom_site_fract_y
_atom_site_fract_z
Si Si1 0.402028 0.777490 0.590223
Si Si2 0.325106 0.452291 0.021277
Si Si3 0.669435 0.713385 0.758689
Si Si4 0.820960 0.407543 0.600772
Si Si5 0.823615 0.575109 0.386667
Si Si6 0.370449 0.076531 0.548467
Si Si7 0.801160 0.042017 0.199526
Si Si8 0.844998 0.923184 0.779490
O O1 0.489356 0.734119 0.741107
O O2 0.288360 0.695466 0.453597
O O3 0.538075 0.813719 0.442235
O O4 0.309555 0.868265 0.720868
O O5 0.325284 0.345708 0.075104
O O6 0.229807 0.526959 0.188637
O O7 0.500000 0.500000 0.000000
O O8 0.240373 0.434977 0.822355
O O9 0.722792 0.648904 0.546883
O O10 0.781859 0.815750 0.819779
O O11 0.810911 0.465608 0.432344
O O12 0.996205 0.378881 0.609893
O O13 0.245441 0.049536 0.383789
O O14 0.500000 0.000000 0.500000
O O15 0.273451 0.061150 0.743247
O O16 0.971531 0.078575 0.286004
O O17 0.817271 0.014813 0.967255
#
# Coordination Sequence:
#
# PCOD8003471 Si02
#       8
#     2   2   2   2   2   2   2   2
#     4  10  20  37  58  82 113 149 185 231 281 329
#     4  11  22  37  59  86 114 148 187 228 278 335
#     4  10  22  37  57  83 113 147 187 231 279 331
#     4  10  21  38  59  83 114 149 187 229 278 330
#     4  10  21  39  59  82 115 149 185 232 277 329
#     4   9  20  36  56  81 111 144 183 230 278 328
#     4  10  21  38  59  82 112 147 188 232 280 332
#     4  10  21  38  59  83 111 149 188 231 280 331
#
# _framework density 19.852067999999999
#
# number of rings (size 3 to 8) (size 9 to 14) (size 15 to 20)
#    0.000    2.000    0.000    3.000    0.000    9.500 
#    0.000   11.250    0.000    0.000    0.000    0.000 
#    0.000    0.000    0.000    0.000    0.000    0.000 
#
# Total GULP energy -198390.524013 kJ/mol
# GULP energy per Si atom -12399.407751 kJ/mol
# Density = 1.980688 g / cm^3
# Si number density = 19.852068 Si / 1000 Ang^3
#
#
#
# Elastic Constant Matrix: (Units=GPa)
#
#
# Indices 1 2 3 4 5 6 
#
# 1 144.6148 53.9186 53.7942 -8.4988 10.9566 3.9079
# 2 53.9186 88.0029 42.1382 -0.3345 10.9917 1.8635
# 3 53.7942 42.1382 100.9095 -14.6398 12.6134 -6.0413
# 4 -8.4988 -0.3345 -14.6398 25.6829 0.5895 4.4852
# 5 10.9566 10.9917 12.6134 0.5895 29.2396 0.5692
# 6 3.9079 1.8635 -6.0413 4.4852 0.5692 35.5219
#
#
#
# Elastic Compliance Matrix: (Units=1/GPa)
#
#
# Indices 1 2 3 4 5 6 
#
# 1 0.009963 -0.004435 -0.003225 0.001699 -0.000678 -0.001615
# 2 -0.004435 0.016743 -0.004931 -0.003883 -0.002413 -0.000700
# 3 -0.003225 -0.004931 0.015358 0.007296 -0.003756 0.002364
# 4 0.001699 -0.003883 0.007296 0.044430 -0.003136 -0.004302
# 5 -0.000678 -0.002413 -0.003756 -0.003136 0.037057 -0.000635
# 6 -0.001615 -0.000700 0.002364 -0.004302 -0.000635 0.029322
#
#
# Mechanical properties :
#
#
# Convention : Reuss Voigt Hill
#
# Bulk Modulus (GPa) = 59.23347 70.35882 64.79614
# Shear Modulus (GPa) = 27.22111 30.33395 28.77753
#
# Velocity S-wave (km/s) = 3.70699 3.91320 3.81149
# Velocity P-wave (km/s) = 6.94439 7.47904 7.21667
#
# Compressibility (1/GPa) = 0.01688235
#
# Stress axis : x y z
#
# Youngs Moduli (GPa) = 100.37400 59.72670 65.11389
#
# Poissons Ratio (x) = 0.26487 0.20998
# Poissons Ratio (y) = 0.44512 0.32108
# Poissons Ratio (z) = 0.32369 0.29452
#
# Static dielectric constant tensor:
#      x y z
#    x 3.705020 0.406910 -0.363170 
#    y 0.406910 3.405630 0.255910 
#    z -0.363170 0.255910 2.942600 
# 
# 
# High freq. dielectric constant tensor:
#      x y z
#    x 1.795850 0.002980 0.001930 
#    y 0.002980 1.777230 -0.005590 
#    z 0.001930 -0.005590 1.764890 
# 
# From -- ./inp_files/39895.got.cif
#   From: 2010.06.25/outbox.cif.g09.slc.cpg/sg2_20_cif.got.tgz:39895.got - 2010.06.27 13:26:56.
