data_PCOD8003852
_publ_section_title
;
Structure prediction by ZEFSAII (Michael W. Deem and Ramdas Pophale) SiO2 
 PCOD8003852
Probable space group: P -1
;
_chemical_formula_sum "Si O2"
_cell_formula_units_Z 16
_cell_length_a 7.892537
_cell_length_b 8.530501
_cell_length_c 10.741424
_cell_angle_alpha 84.517943
_cell_angle_beta 115.516439
_cell_angle_gamma 91.665399
_cell_volume 649.608250
_symmetry_space_group_name_H-M "P -1"
_symmetry_group_IT_number 2
_symmetry_cell_setting 'triclinic'
loop_
_space_group_symop_operation_xyz
x,y,z
-x,-y,-z
loop_
_atom_site_type_symbol
_atom_site_label
_atom_site_fract_x
_atom_site_fract_y
_atom_site_fract_z
Si Si1 0.357877 0.865761 0.213637
Si Si2 0.037331 0.682237 0.241442
Si Si3 0.175375 0.649094 0.547261
Si Si4 0.619708 0.633102 0.461649
Si Si5 0.484286 0.207147 0.241695
Si Si6 0.067666 0.325977 0.290174
Si Si7 0.715579 0.243575 0.062283
Si Si8 0.801854 0.568930 0.981365
O O1 0.156221 0.816172 0.202619
O O2 0.508832 0.739505 0.321922
O O3 0.409233 0.036768 0.266617
O O4 0.348906 0.869547 0.060665
O O5 0.044884 0.719502 0.388741
O O6 0.118171 0.505382 0.253656
O O7 0.835231 0.680897 0.106701
O O8 0.213650 0.462006 0.552063
O O9 0.377446 0.737572 0.607871
O O10 0.084934 0.670339 0.648963
O O11 0.500000 0.500000 0.500000
O O12 0.731828 0.744296 0.590703
O O13 0.592041 0.200615 0.145024
O O14 0.304104 0.327826 0.166646
O O15 0.946073 0.228712 0.157388
O O16 0.672199 0.424392 0.993401
O O17 0.000000 0.500000 0.000000
#
# Coordination Sequence:
#
# PCOD8003852 Si02
#       8
#     2   2   2   2   2   2   2   2
#     4  12  23  40  62  94 135 166 208 260 321 373
#     4  10  20  37  61  93 120 159 209 260 316 361
#     4  10  21  40  64  89 124 163 220 261 306 374
#     4  11  20  38  66  94 122 165 213 259 310 371
#     4  11  26  41  62  95 131 169 207 261 321 375
#     4   9  20  38  64  96 119 160 221 267 299 366
#     4  10  22  43  65  91 125 170 214 258 307 383
#     4  11  22  42  70  92 120 161 220 266 309 375
#
# _framework density 24.630227000000001
#
# number of rings (size 3 to 8) (size 9 to 14) (size 15 to 20)
#    0.000    1.500    3.750    3.000    0.000    4.000 
#    0.000    3.750    0.000    0.000    0.000    0.000 
#    0.000    0.000    0.000    0.000    0.000    0.000 
#
# Total GULP energy -198213.259583 kJ/mol
# GULP energy per Si atom -12388.328724 kJ/mol
# Density = 2.457417 g / cm^3
# Si number density = 24.630227 Si / 1000 Ang^3
#
#
#
# Elastic Constant Matrix: (Units=GPa)
#
#
# Indices 1 2 3 4 5 6 
#
# 1 34.7441 13.4616 1.8362 -7.1818 12.6470 11.6761
# 2 13.4616 92.9228 28.4082 11.9023 5.6268 23.0457
# 3 1.8362 28.4082 148.7845 25.9328 18.6524 -1.0569
# 4 -7.1818 11.9023 25.9328 30.8601 13.7650 2.2870
# 5 12.6470 5.6268 18.6524 13.7650 36.8799 3.0365
# 6 11.6761 23.0457 -1.0569 2.2870 3.0365 23.2991
#
#
#
# Elastic Compliance Matrix: (Units=1/GPa)
#
#
# Indices 1 2 3 4 5 6 
#
# 1 0.052891 -0.003589 -0.001873 0.028232 -0.025327 -0.022511
# 2 -0.003589 0.016053 -0.002614 -0.005217 0.003212 -0.014104
# 3 -0.001873 -0.002614 0.008552 -0.006389 -0.001287 0.004707
# 4 0.028232 -0.005217 -0.006389 0.059160 -0.026781 -0.011595
# 5 -0.025327 0.003212 -0.001287 -0.026781 0.045449 0.006162
# 6 -0.022511 -0.014104 0.004707 -0.011595 0.006162 0.068701
#
#
# Mechanical properties :
#
#
# Convention : Reuss Voigt Hill
#
# Bulk Modulus (GPa) = 16.30191 40.42927 28.36559
# Shear Modulus (GPa) = 17.39693 33.72419 25.56056
#
# Velocity S-wave (km/s) = 2.66056 3.70431 3.22494
# Velocity P-wave (km/s) = 4.00888 5.89458 5.04069
#
# Compressibility (1/GPa) = 0.06134251
#
# Stress axis : x y z
#
# Youngs Moduli (GPa) = 18.90664 62.29520 116.93543
#
# Poissons Ratio (x) = 0.22360 0.21903
# Poissons Ratio (y) = 0.06786 0.30570
# Poissons Ratio (z) = 0.03541 0.16286
#
# Static dielectric constant tensor:
#      x y z
#    x 4.516750 0.236860 0.228970 
#    y 0.236860 3.878240 0.393240 
#    z 0.228970 0.393240 5.593750 
# 
# 
# High freq. dielectric constant tensor:
#      x y z
#    x 1.974450 0.038210 -0.002520 
#    y 0.038210 1.929760 0.023970 
#    z -0.002520 0.023970 2.018560 
# 
# From -- ./inp_files/378886.got.cif
#   From: 2010.06.25/outbox.cif.g09.slc.cpg/sg2_190_cif.got.tgz:378886.got - 2010.06.27 13:26:56.
