data_PCOD8003130
_publ_section_title
;
Structure prediction by ZEFSAII (Michael W. Deem and Ramdas Pophale) SiO2 
 PCOD8003130
Probable space group: P -1
;
_chemical_formula_sum "Si O2"
_cell_formula_units_Z 16
_cell_length_a 17.580219
_cell_length_b 9.612604
_cell_length_c 18.502055
_cell_angle_alpha 27.594323
_cell_angle_beta 30.279941
_cell_angle_gamma 41.369224
_cell_volume 728.792248
_symmetry_space_group_name_H-M "P -1"
_symmetry_group_IT_number 2
_symmetry_cell_setting 'triclinic'
loop_
_space_group_symop_operation_xyz
x,y,z
-x,-y,-z
loop_
_atom_site_type_symbol
_atom_site_label
_atom_site_fract_x
_atom_site_fract_y
_atom_site_fract_z
Si Si1 0.171185 0.200530 0.852092
Si Si2 0.895828 0.094349 0.806276
Si Si3 0.889159 0.863635 0.764466
Si Si4 0.230307 0.307010 0.405558
Si Si5 0.764750 0.129323 0.528853
Si Si6 0.632326 0.809362 0.508439
Si Si7 0.364891 0.843746 0.229559
Si Si8 0.160748 0.781136 0.932663
O O1 0.265073 0.523240 0.626517
O O2 0.236360 0.929848 0.875609
O O3 0.019369 0.252738 0.908182
O O4 0.152327 0.101361 0.995093
O O5 0.776731 0.353486 0.775274
O O6 0.066847 0.231450 0.610790
O O7 0.890080 0.861362 0.851713
O O8 0.060512 0.905426 0.575328
O O9 0.795011 0.139288 0.688561
O O10 0.792823 0.562686 0.954153
O O11 0.361767 0.278890 0.370863
O O12 0.275108 0.084836 0.407424
O O13 0.654617 0.022890 0.734877
O O14 0.614304 0.507116 0.615631
O O15 0.500000 0.000000 0.500000
O O16 0.785586 0.010255 0.274467
O O17 0.500000 0.000000 0.000000
#
# Coordination Sequence:
#
# PCOD8003130 Si02
#       8
#     2   2   2   2   2   2   2   2
#     4  10  20  36  62  98 132 159 206 271 325 374
#     4  10  20  37  64  99 136 163 204 278 330 378
#     4  10  22  38  67 100 130 169 212 270 329 382
#     4  10  22  39  64  99 130 168 213 264 330 382
#     4  10  23  40  67 100 130 164 217 277 326 379
#     4  12  24  44  65  89 130 177 217 258 318 397
#     4  12  25  46  63  91 132 175 221 266 325 393
#     4  10  21  36  61  96 127 167 211 259 319 383
#
# _framework density 21.954131
#
# number of rings (size 3 to 8) (size 9 to 14) (size 15 to 20)
#    0.000    1.500    3.750    1.125    3.500    1.500 
#    0.000    2.500    0.000    0.000    0.000    0.000 
#    0.000    0.000    0.000    0.000    0.000    0.000 
#
# Total GULP energy -198302.131142 kJ/mol
# GULP energy per Si atom -12393.883196 kJ/mol
# Density = 2.190416 g / cm^3
# Si number density = 21.954131 Si / 1000 Ang^3
#
#
#
# Elastic Constant Matrix: (Units=GPa)
#
#
# Indices 1 2 3 4 5 6 
#
# 1 98.3276 53.2282 13.1201 13.4275 19.4755 1.4076
# 2 53.2282 122.9923 41.3000 -10.6350 6.0634 13.5319
# 3 13.1201 41.3000 83.1044 7.5054 18.4508 7.1687
# 4 13.4275 -10.6350 7.5054 25.5023 9.5060 8.8270
# 5 19.4755 6.0634 18.4508 9.5060 30.7314 -1.7452
# 6 1.4076 13.5319 7.1687 8.8270 -1.7452 35.4991
#
#
#
# Elastic Compliance Matrix: (Units=1/GPa)
#
#
# Indices 1 2 3 4 5 6 
#
# 1 0.019726 -0.012140 0.005638 -0.016295 -0.008089 0.006361
# 2 -0.012140 0.019006 -0.009085 0.019217 0.002911 -0.009564
# 3 0.005638 -0.009085 0.018608 -0.008864 -0.010143 0.001187
# 4 -0.016295 0.019217 -0.008864 0.070578 -0.011281 -0.022993
# 5 -0.008089 0.002911 -0.010143 -0.011281 0.047033 0.006377
# 6 0.006361 -0.009564 0.001187 -0.022993 0.006377 0.037354
#
#
# Mechanical properties :
#
#
# Convention : Reuss Voigt Hill
#
# Bulk Modulus (GPa) = 38.21979 57.74676 47.98328
# Shear Modulus (GPa) = 19.82531 31.46496 25.64513
#
# Velocity S-wave (km/s) = 3.00831 3.78989 3.42149
# Velocity P-wave (km/s) = 5.43261 6.74622 6.12474
#
# Compressibility (1/GPa) = 0.02616445
#
# Stress axis : x y z
#
# Youngs Moduli (GPa) = 50.69439 52.61533 53.73968
#
# Poissons Ratio (x) = 0.63876 -0.30298
# Poissons Ratio (y) = 0.61544 0.48825
# Poissons Ratio (z) = -0.28581 0.47803
#
# Static dielectric constant tensor:
#      x y z
#    x 3.692920 0.260460 0.202280 
#    y 0.260460 4.562350 0.246330 
#    z 0.202280 0.246330 4.659290 
# 
# 
# High freq. dielectric constant tensor:
#      x y z
#    x 1.848080 0.014690 0.017370 
#    y 0.014690 1.873070 -0.017280 
#    z 0.017370 -0.017280 1.844700 
# 
# From -- ./inp_files/308218.got.cif
#   From: 2010.06.25/outbox.cif.g09.slc.cpg/sg2_155_cif.got.tgz:308218.got - 2010.06.27 13:26:56.
