data_PCOD8003653
_publ_section_title
;
Structure prediction by ZEFSAII (Michael W. Deem and Ramdas Pophale) SiO2 
 PCOD8003653
Probable space group: P -1
;
_chemical_formula_sum "Si O2"
_cell_formula_units_Z 16
_cell_length_a 14.225630
_cell_length_b 14.512201
_cell_length_c 22.264886
_cell_angle_alpha 159.796700
_cell_angle_beta 28.970809
_cell_angle_gamma 147.913719
_cell_volume 759.384212
_symmetry_space_group_name_H-M "P -1"
_symmetry_group_IT_number 2
_symmetry_cell_setting 'triclinic'
loop_
_space_group_symop_operation_xyz
x,y,z
-x,-y,-z
loop_
_atom_site_type_symbol
_atom_site_label
_atom_site_fract_x
_atom_site_fract_y
_atom_site_fract_z
Si Si1 0.273661 0.934288 0.353174
Si Si2 0.332742 0.943667 0.141320
Si Si3 0.372269 0.316267 0.245039
Si Si4 0.353684 0.920979 0.589200
Si Si5 0.014702 0.672783 0.233633
Si Si6 0.068364 0.949087 0.104527
Si Si7 0.572470 0.350936 0.811690
Si Si8 0.383000 0.107686 0.940326
O O1 0.158680 0.713870 0.236277
O O2 0.257711 0.806068 0.351249
O O3 0.508509 0.995577 0.241994
O O4 0.186029 0.212106 0.569462
O O5 0.114487 0.835069 0.219864
O O6 0.479484 0.964973 0.127770
O O7 0.329578 0.233468 0.287991
O O8 0.406336 0.736508 0.925823
O O9 0.365554 0.627116 0.428306
O O10 0.219589 0.121922 0.170330
O O11 0.500000 0.000000 0.500000
O O12 0.403558 0.133210 0.744614
O O13 0.130161 0.927959 0.700832
O O14 0.968837 0.365117 0.050711
O O15 0.161329 0.968467 0.996233
O O16 0.500000 0.500000 0.000000
O O17 0.639618 0.574534 0.859632
#
# Coordination Sequence:
#
# PCOD8003653 Si02
#       8
#     2   2   2   2   2   2   2   2
#     4   9  20  38  60  86 113 155 205 241 293 361
#     4   9  19  38  57  81 120 154 192 245 297 346
#     4  10  22  37  58  87 117 154 198 242 293 359
#     4  12  24  40  63  88 121 160 200 246 297 356
#     4  10  20  37  60  85 118 156 194 246 300 350
#     4  11  22  37  58  85 119 156 197 246 303 350
#     4  10  21  41  64  86 118 159 201 245 298 357
#     4   9  19  38  59  82 119 154 191 251 299 343
#
# _framework density 21.069704000000002
#
# number of rings (size 3 to 8) (size 9 to 14) (size 15 to 20)
#    0.000    2.000    0.000    4.875    0.000    6.000 
#    0.000   11.875    0.000    0.000    0.000    0.000 
#    0.000    0.000    0.000    0.000    0.000    0.000 
#
# Total GULP energy -198225.602445 kJ/mol
# GULP energy per Si atom -12389.100153 kJ/mol
# Density = 2.102175 g / cm^3
# Si number density = 21.069704 Si / 1000 Ang^3
#
#
#
# Elastic Constant Matrix: (Units=GPa)
#
#
# Indices 1 2 3 4 5 6 
#
# 1 83.9127 35.9154 27.3689 9.2630 -11.8624 -17.4363
# 2 35.9154 128.0701 55.7930 -4.7180 -14.9074 -21.2280
# 3 27.3689 55.7930 100.4600 7.6532 -15.7520 -12.8792
# 4 9.2630 -4.7180 7.6532 43.3566 1.3996 -8.8666
# 5 -11.8624 -14.9074 -15.7520 1.3996 34.7175 9.0716
# 6 -17.4363 -21.2280 -12.8792 -8.8666 9.0716 27.4626
#
#
#
# Elastic Compliance Matrix: (Units=1/GPa)
#
#
# Indices 1 2 3 4 5 6 
#
# 1 0.015183 -0.002496 -0.001547 -0.002159 0.002034 0.005616
# 2 -0.002496 0.012171 -0.005561 0.004186 -0.000038 0.006579
# 3 -0.001547 -0.005561 0.014192 -0.003090 0.003884 -0.000905
# 4 -0.002159 0.004186 -0.003090 0.026795 -0.004150 0.010437
# 5 0.002034 -0.000038 0.003884 -0.004150 0.033881 -0.009448
# 6 0.005616 0.006579 -0.000905 0.010437 -0.009448 0.051131
#
#
# Mechanical properties :
#
#
# Convention : Reuss Voigt Hill
#
# Bulk Modulus (GPa) = 44.76445 61.17750 52.97098
# Shear Modulus (GPa) = 27.77675 33.99836 30.88756
#
# Velocity S-wave (km/s) = 3.63482 4.02134 3.83295
# Velocity P-wave (km/s) = 6.23762 7.11761 6.69209
#
# Compressibility (1/GPa) = 0.02233915
#
# Stress axis : x y z
#
# Youngs Moduli (GPa) = 65.86424 82.16187 70.46038
#
# Poissons Ratio (x) = 0.20507 0.10899
# Poissons Ratio (y) = 0.16439 0.39182
# Poissons Ratio (z) = 0.10188 0.45689
#
# Static dielectric constant tensor:
#      x y z
#    x 4.096530 -0.426670 -0.292840 
#    y -0.426670 4.304050 -0.172070 
#    z -0.292840 -0.172070 3.922490 
# 
# 
# High freq. dielectric constant tensor:
#      x y z
#    x 1.819910 -0.020330 -0.019180 
#    y -0.020330 1.820220 -0.003580 
#    z -0.019180 -0.003580 1.825770 
# 
# From -- ./inp_files/612147.got.cif
#   From: 2010.06.25/outbox.cif.g09.slc.cpg/sg2_307_cif.got.tgz:612147.got - 2010.06.27 13:26:56.
