data_PCOD8003243
_publ_section_title
;
Structure prediction by ZEFSAII (Michael W. Deem and Ramdas Pophale) SiO2 
 PCOD8003243
Probable space group: P -1
;
_chemical_formula_sum "Si O2"
_cell_formula_units_Z 16
_cell_length_a 12.823008
_cell_length_b 15.624518
_cell_length_c 16.084444
_cell_angle_alpha 27.599679
_cell_angle_beta 38.767655
_cell_angle_gamma 57.958692
_cell_volume 778.874440
_symmetry_space_group_name_H-M "P -1"
_symmetry_group_IT_number 2
_symmetry_cell_setting 'triclinic'
loop_
_space_group_symop_operation_xyz
x,y,z
-x,-y,-z
loop_
_atom_site_type_symbol
_atom_site_label
_atom_site_fract_x
_atom_site_fract_y
_atom_site_fract_z
Si Si1 0.755389 0.565614 0.343037
Si Si2 0.876574 0.236150 0.510394
Si Si3 0.830565 0.682210 0.601968
Si Si4 0.072190 0.981246 0.883534
Si Si5 0.471220 0.819238 0.571637
Si Si6 0.870261 0.576773 0.969832
Si Si7 0.485385 0.234094 0.223266
Si Si8 0.682778 0.735372 0.078124
O O1 0.774991 0.375913 0.451504
O O2 0.752544 0.716630 0.142364
O O3 0.553803 0.451112 0.622438
O O4 0.940867 0.731809 0.143793
O O5 0.006666 0.314883 0.445034
O O6 0.007950 0.280224 0.308933
O O7 0.712761 0.973357 0.843213
O O8 0.710445 0.759453 0.664716
O O9 0.937791 0.844386 0.318413
O O10 0.666012 0.432512 0.885870
O O11 0.294003 0.045918 0.703586
O O12 0.000000 0.000000 0.000000
O O13 0.420705 0.724150 0.778156
O O14 0.409112 0.992744 0.444858
O O15 0.346734 0.628995 0.746147
O O16 0.819916 0.714543 0.943539
O O17 0.000000 0.500000 0.000000
#
# Coordination Sequence:
#
# PCOD8003243 Si02
#       8
#     2   2   2   2   2   2   2   2
#     4  11  24  45  71  93 135 180 226 268 333 400
#     4  12  23  43  70  98 131 177 228 270 328 398
#     4  10  20  36  64  93 126 164 217 258 329 389
#     4  11  23  42  67  94 130 176 215 274 332 388
#     4  10  21  37  64  90 131 165 213 262 335 381
#     4  12  25  41  66 103 138 171 222 278 334 384
#     4   9  19  36  61  93 123 165 208 266 319 395
#     4  11  25  45  66  96 136 182 221 277 326 393
#
# _framework density 20.542463999999999
#
# number of rings (size 3 to 8) (size 9 to 14) (size 15 to 20)
#    0.000    1.250    3.750    2.250    5.250    0.000 
#    0.000    2.500    0.000    0.000    0.000    0.000 
#    0.000    0.000    0.000    0.000    0.000    0.000 
#
# Total GULP energy -198399.455426 kJ/mol
# GULP energy per Si atom -12399.965964 kJ/mol
# Density = 2.049571 g / cm^3
# Si number density = 20.542464 Si / 1000 Ang^3
#
#
#
# Elastic Constant Matrix: (Units=GPa)
#
#
# Indices 1 2 3 4 5 6 
#
# 1 66.2486 11.8438 38.6782 0.6117 -6.6553 -1.7336
# 2 11.8438 83.1761 46.7201 -1.6015 5.5937 2.4393
# 3 38.6782 46.7201 126.2146 -0.6457 0.4841 7.2427
# 4 0.6117 -1.6015 -0.6457 37.8319 -0.8867 3.7470
# 5 -6.6553 5.5937 0.4841 -0.8867 33.8044 -1.7035
# 6 -1.7336 2.4393 7.2427 3.7470 -1.7035 30.0464
#
#
#
# Elastic Compliance Matrix: (Units=1/GPa)
#
#
# Indices 1 2 3 4 5 6 
#
# 1 0.019108 0.000394 -0.006183 -0.000589 0.003914 0.002856
# 2 0.000394 0.015399 -0.005808 0.000493 -0.002376 -0.000024
# 3 -0.006183 -0.005808 0.012137 0.000334 -0.000567 -0.002885
# 4 -0.000589 0.000493 0.000334 0.026821 0.000326 -0.003481
# 5 0.003914 -0.002376 -0.000567 0.000326 0.030876 0.002265
# 6 0.002856 -0.000024 -0.002885 -0.003481 0.002265 0.034706
#
#
# Mechanical properties :
#
#
# Convention : Reuss Voigt Hill
#
# Bulk Modulus (GPa) = 42.64509 52.23594 47.44052
# Shear Modulus (GPa) = 29.40171 32.22968 30.81570
#
# Velocity S-wave (km/s) = 3.78731 3.96527 3.87731
# Velocity P-wave (km/s) = 6.31898 6.81527 6.57181
#
# Compressibility (1/GPa) = 0.02344936
#
# Stress axis : x y z
#
# Youngs Moduli (GPa) = 52.33525 64.94016 82.39179
#
# Poissons Ratio (x) = -0.02559 0.50945
# Poissons Ratio (y) = -0.02062 0.47852
# Poissons Ratio (z) = 0.32360 0.37716
#
# Static dielectric constant tensor:
#      x y z
#    x 3.683010 -0.176210 0.137970 
#    y -0.176210 3.524760 -0.164880 
#    z 0.137970 -0.164880 3.833350 
# 
# 
# High freq. dielectric constant tensor:
#      x y z
#    x 1.795820 -0.014710 0.000410 
#    y -0.014710 1.789810 -0.006790 
#    z 0.000410 -0.006790 1.821270 
# 
# From -- ./inp_files/315980.got.cif
#   From: 2010.06.25/outbox.cif.g09.slc.cpg/sg2_158_cif.got.tgz:315980.got - 2010.06.27 13:26:56.
