data_PCOD8003410
_publ_section_title
;
Structure prediction by ZEFSAII (Michael W. Deem and Ramdas Pophale) SiO2 
 PCOD8003410
Probable space group: P -1
;
_chemical_formula_sum "Si O2"
_cell_formula_units_Z 16
_cell_length_a 15.828228
_cell_length_b 9.181595
_cell_length_c 22.761344
_cell_angle_alpha 134.276600
_cell_angle_beta 161.669915
_cell_angle_gamma 45.441368
_cell_volume 733.606749
_symmetry_space_group_name_H-M "P -1"
_symmetry_group_IT_number 2
_symmetry_cell_setting 'triclinic'
loop_
_space_group_symop_operation_xyz
x,y,z
-x,-y,-z
loop_
_atom_site_type_symbol
_atom_site_label
_atom_site_fract_x
_atom_site_fract_y
_atom_site_fract_z
Si Si1 0.235861 0.796047 0.164545
Si Si2 0.928938 0.506760 0.695122
Si Si3 0.912836 0.858841 0.220190
Si Si4 0.387879 0.121073 0.209543
Si Si5 0.637841 0.275346 0.206152
Si Si6 0.385863 0.680651 0.102031
Si Si7 0.376245 0.586141 0.638730
Si Si8 0.502361 0.811512 0.567580
O O1 0.217211 0.736628 0.067006
O O2 0.379517 0.603539 0.243156
O O3 0.400137 0.983473 0.334105
O O4 0.933689 0.863328 0.008365
O O5 0.861948 0.491466 0.577772
O O6 0.658418 0.610970 0.580996
O O7 0.029069 0.277373 0.721199
O O8 0.171085 0.637984 0.898835
O O9 0.178547 0.829904 0.345564
O O10 0.848610 0.097581 0.264232
O O11 0.659214 0.791130 0.999453
O O12 0.513338 0.233357 0.271882
O O13 0.452601 0.219578 0.341732
O O14 0.520442 0.876315 0.226344
O O15 0.616523 0.479688 0.208825
O O16 0.750245 0.323667 0.357747
#
# Coordination Sequence:
#
# PCOD8003410 Si02
#       8
#     2   2   2   2   2   2   2   2
#     4  10  20  37  56  88 125 154 189 242 297 349
#     4  11  20  36  61  93 120 147 195 244 298 345
#     4  10  21  39  67  83 113 159 208 237 280 354
#     4  11  19  37  59  91 120 160 190 236 300 352
#     4   9  22  43  60  84 116 160 201 243 284 342
#     4   9  18  38  64  78 117 162 198 230 287 358
#     4  11  24  35  58  92 123 153 190 245 303 335
#     4  11  20  36  63  93 113 155 202 237 290 357
#
# _framework density 21.810048999999999
#
# number of rings (size 3 to 8) (size 9 to 14) (size 15 to 20)
#    0.000    1.750    3.750    1.500    0.000    2.000 
#    2.250    5.625    0.000    2.250    0.000    0.000 
#    0.000    0.000    0.000    0.000    0.000    0.000 
#
# Total GULP energy -198441.209978 kJ/mol
# GULP energy per Si atom -12402.575624 kJ/mol
# Density = 2.176041 g / cm^3
# Si number density = 21.810049 Si / 1000 Ang^3
#
#
#
# Elastic Constant Matrix: (Units=GPa)
#
#
# Indices 1 2 3 4 5 6 
#
# 1 47.2636 29.7577 29.5593 -2.7005 -21.3595 6.7960
# 2 29.7577 145.4271 17.1244 -0.8227 -12.7880 4.4165
# 3 29.5593 17.1244 80.7058 5.8082 -24.5104 1.8629
# 4 -2.7005 -0.8227 5.8082 22.9338 -3.2160 4.7199
# 5 -21.3595 -12.7880 -24.5104 -3.2160 34.2502 3.1642
# 6 6.7960 4.4165 1.8629 4.7199 3.1642 32.5972
#
#
#
# Elastic Compliance Matrix: (Units=1/GPa)
#
#
# Indices 1 2 3 4 5 6 
#
# 1 0.040857 -0.005241 -0.008511 0.011767 0.019546 -0.010923
# 2 -0.005241 0.007900 0.000205 -0.000436 -0.000222 0.000095
# 3 -0.008511 0.000205 0.017943 -0.004689 0.007103 0.000711
# 4 0.011767 -0.000436 -0.004689 0.049586 0.009420 -0.010220
# 5 0.019546 -0.000222 0.007103 0.009420 0.048242 -0.010498
# 6 -0.010923 0.000095 0.000711 -0.010220 -0.010498 0.035400
#
#
# Mechanical properties :
#
#
# Convention : Reuss Voigt Hill
#
# Bulk Modulus (GPa) = 25.24860 47.36438 36.30649
# Shear Modulus (GPa) = 20.81413 31.08657 25.95035
#
# Velocity S-wave (km/s) = 3.09259 3.77945 3.45314
# Velocity P-wave (km/s) = 4.93496 6.38824 5.70804
#
# Compressibility (1/GPa) = 0.03960616
#
# Stress axis : x y z
#
# Youngs Moduli (GPa) = 24.47574 126.58730 55.73321
#
# Poissons Ratio (x) = 0.66345 0.47433
# Poissons Ratio (y) = 0.12828 -0.01144
# Poissons Ratio (z) = 0.20830 -0.02598
#
# Static dielectric constant tensor:
#      x y z
#    x 3.409890 0.031700 -0.135630 
#    y 0.031700 4.233410 0.013280 
#    z -0.135630 0.013280 4.015700 
# 
# 
# High freq. dielectric constant tensor:
#      x y z
#    x 1.808160 0.002550 -0.008960 
#    y 0.002550 1.879650 0.006130 
#    z -0.008960 0.006130 1.859030 
# 
# From -- ./inp_files/187400.got.cif
#   From: 2010.06.25/outbox.cif.g09.slc.cpg/sg2_94_cif.got.tgz:187400.got - 2010.06.27 13:26:56.
