data_PCOD8003420
_publ_section_title
;
Structure prediction by ZEFSAII (Michael W. Deem and Ramdas Pophale) SiO2 
 PCOD8003420
Probable space group: P -1
;
_chemical_formula_sum "Si O2"
_cell_formula_units_Z 10
_cell_length_a 9.240339
_cell_length_b 12.349079
_cell_length_c 14.904247
_cell_angle_alpha 149.965007
_cell_angle_beta 141.488562
_cell_angle_gamma 57.836614
_cell_volume 469.126342
_symmetry_space_group_name_H-M "P -1"
_symmetry_group_IT_number 2
_symmetry_cell_setting 'triclinic'
loop_
_space_group_symop_operation_xyz
x,y,z
-x,-y,-z
loop_
_atom_site_type_symbol
_atom_site_label
_atom_site_fract_x
_atom_site_fract_y
_atom_site_fract_z
Si Si1 0.351956 0.791326 0.983465
Si Si2 0.228258 0.292678 0.972055
Si Si3 0.132271 0.493353 0.340668
Si Si4 0.236924 0.745922 0.391863
Si Si5 0.293231 0.136751 0.074570
O O1 0.109312 0.571633 0.756722
O O2 0.548117 0.689357 0.974057
O O3 0.496518 0.012299 0.282748
O O4 0.245293 0.880424 0.909931
O O5 0.952900 0.185817 0.709770
O O6 0.317516 0.564882 0.247484
O O7 0.183329 0.102680 0.895295
O O8 0.087175 0.616598 0.318014
O O9 0.151107 0.248593 0.149631
O O10 0.396679 0.681673 0.653220
#
# Coordination Sequence:
#
# PCOD8003420 Si02
#       5
#     2   2   2   2   2
#     4  11  20  35  60  81 103 144 183 216 264 319
#     4  10  20  37  57  79 110 142 177 221 267 314
#     4   9  19  36  57  79 108 143 178 218 267 316
#     4   9  21  40  54  76 114 143 172 222 269 314
#     4   9  19  36  54  79 112 140 173 223 269 312
#
# _framework density 21.316219
#
# number of rings (size 3 to 8) (size 9 to 14) (size 15 to 20)
#    0.000    2.400    0.000    3.000    0.000    1.600 
#    0.000   19.000    0.000    0.000    0.000    0.000 
#    0.000    0.000    0.000    0.000    0.000    0.000 
#
# Total GULP energy -124033.495916 kJ/mol
# GULP energy per Si atom -12403.349592 kJ/mol
# Density = 2.126770 g / cm^3
# Si number density = 21.316219 Si / 1000 Ang^3
#
#
#
# Elastic Constant Matrix: (Units=GPa)
#
#
# Indices 1 2 3 4 5 6 
#
# 1 77.7298 26.7800 32.1838 -2.0379 11.9906 3.1057
# 2 26.7800 121.6333 38.0959 -28.0133 -4.0419 16.3266
# 3 32.1838 38.0959 45.3164 -6.1118 10.1960 15.6298
# 4 -2.0379 -28.0133 -6.1118 23.3663 4.1353 -3.0607
# 5 11.9906 -4.0419 10.1960 4.1353 25.0128 0.9483
# 6 3.1057 16.3266 15.6298 -3.0607 0.9483 21.9120
#
#
#
# Elastic Compliance Matrix: (Units=1/GPa)
#
#
# Indices 1 2 3 4 5 6 
#
# 1 0.019943 -0.001279 -0.015823 -0.002134 -0.003315 0.009259
# 2 -0.001279 0.015718 -0.010800 0.014726 0.005196 -0.001994
# 3 -0.015823 -0.010800 0.055789 -0.000750 -0.015680 -0.028930
# 4 -0.002134 0.014726 -0.000750 0.061014 -0.006328 -0.001339
# 5 -0.003315 0.005196 -0.015680 -0.006328 0.049667 0.004749
# 6 0.009259 -0.001994 -0.028930 -0.001339 0.004749 0.066054
#
#
# Mechanical properties :
#
#
# Convention : Reuss Voigt Hill
#
# Bulk Modulus (GPa) = 28.05484 48.75542 38.40513
# Shear Modulus (GPa) = 14.88669 23.89954 19.39312
#
# Velocity S-wave (km/s) = 2.64554 3.35205 3.01953
# Velocity P-wave (km/s) = 4.74570 6.15660 5.49661
#
# Compressibility (1/GPa) = 0.03564447
#
# Stress axis : x y z
#
# Youngs Moduli (GPa) = 50.14306 63.62310 17.92469
#
# Poissons Ratio (x) = 0.08139 0.28363
# Poissons Ratio (y) = 0.06415 0.19359
# Poissons Ratio (z) = 0.79343 0.68712
#
# Static dielectric constant tensor:
#      x y z
#    x 3.730900 0.038590 -0.239170 
#    y 0.038590 4.087730 -0.170890 
#    z -0.239170 -0.170890 3.537750 
# 
# 
# High freq. dielectric constant tensor:
#      x y z
#    x 1.834530 -0.002800 -0.017500 
#    y -0.002800 1.846270 -0.008850 
#    z -0.017500 -0.008850 1.808710 
# 
# From -- ./inp_files/15535.got.cif
#   From: 2010.06.25/outbox.cif.g09.slc.cpg/sg2_8_cif.got.tgz:15535.got - 2010.06.27 13:26:56.
