data_PCOD8003751
_publ_section_title
;
Structure prediction by ZEFSAII (Michael W. Deem and Ramdas Pophale) SiO2 
 PCOD8003751
Probable space group: P -1
;
_chemical_formula_sum "Si O2"
_cell_formula_units_Z 16
_cell_length_a 11.169707
_cell_length_b 8.696609
_cell_length_c 19.982207
_cell_angle_alpha 59.441751
_cell_angle_beta 30.905008
_cell_angle_gamma 70.276279
_cell_volume 836.818002
_symmetry_space_group_name_H-M "P -1"
_symmetry_group_IT_number 2
_symmetry_cell_setting 'triclinic'
loop_
_space_group_symop_operation_xyz
x,y,z
-x,-y,-z
loop_
_atom_site_type_symbol
_atom_site_label
_atom_site_fract_x
_atom_site_fract_y
_atom_site_fract_z
Si Si1 0.923179 0.394223 0.128325
Si Si2 0.618138 0.026243 0.175043
Si Si3 0.664795 0.692406 0.398440
Si Si4 0.766694 0.841418 0.919870
Si Si5 0.398560 0.966810 0.156153
Si Si6 0.494447 0.946677 0.628729
Si Si7 0.094228 0.155738 0.629694
Si Si8 0.888699 0.728231 0.146307
O O1 0.737322 0.205651 0.245783
O O2 0.807969 0.518825 0.206345
O O3 0.160702 0.350952 0.059263
O O4 0.000000 0.500000 0.000000
O O5 0.478871 0.045476 0.305643
O O6 0.429376 0.020394 0.206975
O O7 0.717111 0.841462 0.167701
O O8 0.837529 0.199381 0.022423
O O9 0.500000 0.500000 0.500000
O O10 0.780750 0.673373 0.420531
O O11 0.868988 0.743450 0.232417
O O12 0.517784 0.853312 0.438035
O O13 0.609564 0.851257 0.925348
O O14 0.620243 0.883548 0.045333
O O15 0.015746 0.992343 0.758078
O O16 0.146146 0.816737 0.299274
O O17 0.729349 0.893982 0.498935
#
# Coordination Sequence:
#
# PCOD8003751 Si02
#       8
#     2   2   2   2   2   2   2   2
#     4  12  21  37  61  92 121 149 194 251 295 347
#     4  10  20  38  57  88 116 158 196 243 296 340
#     4  11  22  35  59  88 118 150 196 250 298 344
#     4   9  20  35  62  87 110 159 198 233 293 350
#     4   9  19  37  62  82 116 162 199 234 290 361
#     4  11  22  36  58  88 119 153 196 245 297 346
#     4  10  20  37  61  82 118 156 189 241 293 354
#     4  10  22  34  61  86 120 148 198 252 291 345
#
# _framework density 19.120047
#
# number of rings (size 3 to 8) (size 9 to 14) (size 15 to 20)
#    0.750    1.000    2.500    2.625    3.500    0.500 
#    0.000    0.625    2.750   10.500    0.000    0.000 
#    0.000    0.000    0.000    0.000    0.000    0.000 
#
# Total GULP energy -198294.008014 kJ/mol
# GULP energy per Si atom -12393.375501 kJ/mol
# Density = 1.907653 g / cm^3
# Si number density = 19.120047 Si / 1000 Ang^3
#
#
#
# Elastic Constant Matrix: (Units=GPa)
#
#
# Indices 1 2 3 4 5 6 
#
# 1 134.1459 45.3888 34.1940 6.7627 2.8042 17.1666
# 2 45.3888 98.4320 32.2540 -0.8319 -0.9199 6.8594
# 3 34.1940 32.2540 93.6604 14.3550 -2.2763 4.4612
# 4 6.7627 -0.8319 14.3550 29.9565 6.5363 2.0446
# 5 2.8042 -0.9199 -2.2763 6.5363 16.3091 2.4246
# 6 17.1666 6.8594 4.4612 2.0446 2.4246 26.8504
#
#
#
# Elastic Compliance Matrix: (Units=1/GPa)
#
#
# Indices 1 2 3 4 5 6 
#
# 1 0.009871 -0.003552 -0.002059 -0.000754 -0.001155 -0.004899
# 2 -0.003552 0.013058 -0.003636 0.003011 -0.000268 -0.000666
# 3 -0.002059 -0.003636 0.013940 -0.007424 0.005064 0.000037
# 4 -0.000754 0.003011 -0.007424 0.040958 -0.017058 -0.000632
# 5 -0.001155 -0.000268 0.005064 -0.017058 0.069791 -0.005038
# 6 -0.004899 -0.000666 0.000037 -0.000632 -0.005038 0.041043
#
#
# Mechanical properties :
#
#
# Convention : Reuss Voigt Hill
#
# Bulk Modulus (GPa) = 54.42852 61.10130 57.76491
# Shear Modulus (GPa) = 23.44325 28.91663 26.17994
#
# Velocity S-wave (km/s) = 3.50538 3.89314 3.70434
# Velocity P-wave (km/s) = 6.70165 7.22736 6.96947
#
# Compressibility (1/GPa) = 0.01837272
#
# Stress axis : x y z
#
# Youngs Moduli (GPa) = 101.31091 76.58004 71.73587
#
# Poissons Ratio (x) = 0.27205 0.14773
# Poissons Ratio (y) = 0.35990 0.26085
# Poissons Ratio (z) = 0.20864 0.27846
#
# Static dielectric constant tensor:
#      x y z
#    x 3.460490 0.111200 0.120880 
#    y 0.111200 3.425490 0.027990 
#    z 0.120880 0.027990 3.502400 
# 
# 
# High freq. dielectric constant tensor:
#      x y z
#    x 1.740370 0.009880 0.012390 
#    y 0.009880 1.723190 0.012470 
#    z 0.012390 0.012470 1.741120 
# 
# From -- ./inp_files/593144.got.cif
#   From: 2010.06.25/outbox.cif.g09.slc.cpg/sg2_297_cif.got.tgz:593144.got - 2010.06.27 13:26:56.
