data_PCOD8003643
_publ_section_title
;
Structure prediction by ZEFSAII (Michael W. Deem and Ramdas Pophale) SiO2 
 PCOD8003643
Probable space group: P -1
;
_chemical_formula_sum "Si O2"
_cell_formula_units_Z 16
_cell_length_a 12.092717
_cell_length_b 17.292475
_cell_length_c 10.444322
_cell_angle_alpha 76.346032
_cell_angle_beta 102.114822
_cell_angle_gamma 158.918339
_cell_volume 763.057702
_symmetry_space_group_name_H-M "P -1"
_symmetry_group_IT_number 2
_symmetry_cell_setting 'triclinic'
loop_
_space_group_symop_operation_xyz
x,y,z
-x,-y,-z
loop_
_atom_site_type_symbol
_atom_site_label
_atom_site_fract_x
_atom_site_fract_y
_atom_site_fract_z
Si Si1 0.156794 0.482256 0.701989
Si Si2 0.783856 0.321204 0.869837
Si Si3 0.366914 0.320023 0.152563
Si Si4 0.675504 0.888317 0.490984
Si Si5 0.430251 0.536129 0.135373
Si Si6 0.163661 0.124156 0.680552
Si Si7 0.474770 0.046967 0.681812
Si Si8 0.044504 0.650053 0.854204
O O1 0.313938 0.503893 0.779689
O O2 0.371261 0.668506 0.582288
O O3 0.100868 0.499716 0.808142
O O4 0.821125 0.246575 0.645827
O O5 0.792748 0.423243 0.826540
O O6 0.490464 0.097354 0.807820
O O7 0.751487 0.266079 0.027119
O O8 0.315057 0.370596 0.188493
O O9 0.363250 0.323781 0.996449
O O10 0.085734 0.079510 0.209948
O O11 0.661036 0.826974 0.381258
O O12 0.668870 0.979420 0.433814
O O13 0.992366 0.076166 0.567318
O O14 0.601802 0.674695 0.251917
O O15 0.130476 0.393858 0.098928
O O16 0.258424 0.827353 0.724532
#
# Coordination Sequence:
#
# PCOD8003643 Si02
#       8
#     2   2   2   2   2   2   2   2
#     4   9  20  40  60  83 126 158 190 247 302 343
#     4   9  21  36  58  88 123 151 189 248 299 354
#     4  10  21  40  59  91 120 150 195 254 301 357
#     4  10  20  40  62  85 122 164 205 241 285 356
#     4  11  21  37  63  90 120 151 199 249 300 353
#     4  10  22  39  61  84 119 164 199 243 297 346
#     4  10  20  37  60  84 116 159 195 240 295 348
#     4  11  20  37  60  93 117 151 197 245 301 360
#
# _framework density 20.96827
#
# number of rings (size 3 to 8) (size 9 to 14) (size 15 to 20)
#    0.750    1.250    1.250    2.625    0.000    0.000 
#    4.500   15.625    0.000    0.000    0.000    0.000 
#    0.000    0.000    0.000    0.000    0.000    0.000 
#
# Total GULP energy -198317.751805 kJ/mol
# GULP energy per Si atom -12394.859488 kJ/mol
# Density = 2.092054 g / cm^3
# Si number density = 20.968270 Si / 1000 Ang^3
#
#
#
# Elastic Constant Matrix: (Units=GPa)
#
#
# Indices 1 2 3 4 5 6 
#
# 1 94.0633 14.2910 20.3564 -5.4715 18.5069 -3.9164
# 2 14.2910 54.2901 20.2304 -4.5523 8.3122 -5.5514
# 3 20.3564 20.2304 79.4693 -1.9741 12.4701 -6.0078
# 4 -5.4715 -4.5523 -1.9741 28.7494 -1.5445 -4.0302
# 5 18.5069 8.3122 12.4701 -1.5445 35.9827 -4.4972
# 6 -3.9164 -5.5514 -6.0078 -4.0302 -4.4972 27.4400
#
#
#
# Elastic Compliance Matrix: (Units=1/GPa)
#
#
# Indices 1 2 3 4 5 6 
#
# 1 0.012431 -0.001574 -0.001883 0.001768 -0.005246 0.000443
# 2 -0.001574 0.021383 -0.004392 0.003131 -0.002066 0.003261
# 3 -0.001883 -0.004392 0.014766 0.000027 -0.002933 0.001599
# 4 0.001768 0.003131 0.000027 0.036550 0.000724 0.006379
# 5 -0.005246 -0.002066 -0.002933 0.000724 0.032467 0.003619
# 6 0.000443 0.003261 0.001599 0.006379 0.003619 0.039046
#
#
# Mechanical properties :
#
#
# Convention : Reuss Voigt Hill
#
# Bulk Modulus (GPa) = 30.41139 37.50870 33.96004
# Shear Modulus (GPa) = 27.27758 29.96407 28.62083
#
# Velocity S-wave (km/s) = 3.61071 3.78434 3.69854
# Velocity P-wave (km/s) = 5.64960 6.08458 5.87112
#
# Compressibility (1/GPa) = 0.03288242
#
# Stress axis : x y z
#
# Youngs Moduli (GPa) = 80.44246 46.76678 67.72496
#
# Poissons Ratio (x) = 0.07360 0.12753
# Poissons Ratio (y) = 0.12661 0.29743
# Poissons Ratio (z) = 0.15147 0.20539
#
# Static dielectric constant tensor:
#      x y z
#    x 3.780630 0.088010 0.112090 
#    y 0.088010 3.453570 -0.028700 
#    z 0.112090 -0.028700 3.708760 
# 
# 
# High freq. dielectric constant tensor:
#      x y z
#    x 1.821060 0.007770 0.013860 
#    y 0.007770 1.801950 -0.005050 
#    z 0.013860 -0.005050 1.822940 
# 
# From -- ./inp_files/436721.got.cif
#   From: 2010.06.25/outbox.cif.g09.slc.cpg/sg2_219_cif.got.tgz:436721.got - 2010.06.27 13:26:56.
