data_PCOD8003108
_publ_section_title
;
Structure prediction by ZEFSAII (Michael W. Deem and Ramdas Pophale) SiO2 
 PCOD8003108
Probable space group: P -1
;
_chemical_formula_sum "Si O2"
_cell_formula_units_Z 16
_cell_length_a 16.863696
_cell_length_b 12.336178
_cell_length_c 9.168725
_cell_angle_alpha 68.952429
_cell_angle_beta 111.917186
_cell_angle_gamma 155.174373
_cell_volume 741.940493
_symmetry_space_group_name_H-M "P -1"
_symmetry_group_IT_number 2
_symmetry_cell_setting 'triclinic'
loop_
_space_group_symop_operation_xyz
x,y,z
-x,-y,-z
loop_
_atom_site_type_symbol
_atom_site_label
_atom_site_fract_x
_atom_site_fract_y
_atom_site_fract_z
Si Si1 0.055506 0.465924 0.656684
Si Si2 0.702119 0.397920 0.830527
Si Si3 0.731087 0.857336 0.043993
Si Si4 0.010760 0.062642 0.317025
Si Si5 0.027821 0.645493 0.038612
Si Si6 0.516700 0.041697 0.316680
Si Si7 0.580920 0.352516 0.052229
Si Si8 0.988265 0.133403 0.806537
O O1 0.278095 0.745229 0.701550
O O2 0.997730 0.266495 0.659608
O O3 0.000000 0.500000 0.500000
O O4 0.934301 0.347118 0.774383
O O5 0.828172 0.643844 0.710916
O O6 0.837251 0.491089 0.987522
O O7 0.620112 0.211650 0.742442
O O8 0.553620 0.278332 0.899365
O O9 0.801249 0.853689 0.219992
O O10 0.799310 0.068904 0.042557
O O11 0.833945 0.951030 0.917973
O O12 0.505712 0.619169 0.993367
O O13 0.000000 0.000000 0.500000
O O14 0.082341 0.049207 0.264681
O O15 0.000000 0.500000 0.000000
O O16 0.486739 0.141285 0.199587
O O17 0.500000 0.000000 0.500000
O O18 0.804219 0.644725 0.093554
#
# Coordination Sequence:
#
# PCOD8003108 Si02
#       8
#     2   2   2   2   2   2   2   2
#     4  10  23  39  62  96 130 170 206 274 336 380
#     4  11  23  44  64  93 134 173 218 275 325 389
#     4  10  22  40  69  94 122 178 219 265 327 389
#     4  11  25  45  68  91 134 176 217 276 330 385
#     4  10  20  36  62  93 126 173 216 256 326 396
#     4  11  25  39  64 100 136 168 211 276 332 385
#     4  11  22  43  71  98 131 170 222 272 326 395
#     4  10  22  46  65  93 133 172 223 267 324 390
#
# _framework density 21.565069999999999
#
# number of rings (size 3 to 8) (size 9 to 14) (size 15 to 20)
#    0.000    1.500    5.000    1.500   10.500    1.500 
#    0.000    0.625    0.000    0.000    0.000    0.000 
#    0.000    0.000    0.000    0.000    0.000    0.000 
#
# Total GULP energy -198244.993278 kJ/mol
# GULP energy per Si atom -12390.312080 kJ/mol
# Density = 2.151599 g / cm^3
# Si number density = 21.565070 Si / 1000 Ang^3
#
#
#
# Elastic Constant Matrix: (Units=GPa)
#
#
# Indices 1 2 3 4 5 6 
#
# 1 104.0000 7.3619 45.9932 -5.8710 6.8040 11.2189
# 2 7.3619 45.9237 16.3247 -7.9606 -2.1232 8.8955
# 3 45.9932 16.3247 146.2530 -13.0702 13.1994 6.8369
# 4 -5.8710 -7.9606 -13.0702 23.4507 -1.6187 -1.2773
# 5 6.8040 -2.1232 13.1994 -1.6187 41.4276 4.1287
# 6 11.2189 8.8955 6.8369 -1.2773 4.1287 34.0765
#
#
#
# Elastic Compliance Matrix: (Units=1/GPa)
#
#
# Indices 1 2 3 4 5 6 
#
# 1 0.011505 0.000062 -0.003366 0.000827 -0.000479 -0.003040
# 2 0.000062 0.025115 -0.002147 0.007203 0.002862 -0.006223
# 3 -0.003366 -0.002147 0.008595 0.003085 -0.002208 0.000327
# 4 0.000827 0.007203 0.003085 0.047034 0.001203 -0.001154
# 5 -0.000479 0.002862 -0.002208 0.001203 0.025432 -0.003183
# 6 -0.003040 -0.006223 0.000327 -0.001154 -0.003183 0.032248
#
#
# Mechanical properties :
#
#
# Convention : Reuss Voigt Hill
#
# Bulk Modulus (GPa) = 29.14207 48.39291 38.76749
# Shear Modulus (GPa) = 29.02461 34.89076 31.95768
#
# Velocity S-wave (km/s) = 3.67264 4.02671 3.85375
# Velocity P-wave (km/s) = 5.61492 6.64141 6.14962
#
# Compressibility (1/GPa) = 0.03431465
#
# Stress axis : x y z
#
# Youngs Moduli (GPa) = 86.91525 39.81736 116.34413
#
# Poissons Ratio (x) = -0.00247 0.39161
# Poissons Ratio (y) = -0.00540 0.24974
# Poissons Ratio (z) = 0.29255 0.08547
#
# Static dielectric constant tensor:
#      x y z
#    x 2.573070 -0.222590 -0.347340 
#    y -0.222590 3.995840 -0.159900 
#    z -0.347340 -0.159900 3.578680 
# 
# 
# High freq. dielectric constant tensor:
#      x y z
#    x 1.864700 -0.008640 0.007320 
#    y -0.008640 1.847670 -0.011610 
#    z 0.007320 -0.011610 1.833310 
# 
# From -- ./inp_files/307132.got.cif
#   From: 2010.06.25/outbox.cif.g09.slc.cpg/sg2_154_cif.got.tgz:307132.got - 2010.06.27 13:26:56.
