data_PCOD8003074
_publ_section_title
;
Structure prediction by ZEFSAII (Michael W. Deem and Ramdas Pophale) SiO2 
 PCOD8003074
Probable space group: P -1
;
_chemical_formula_sum "Si O2"
_cell_formula_units_Z 16
_cell_length_a 9.724280
_cell_length_b 15.060183
_cell_length_c 9.187744
_cell_angle_alpha 132.935812
_cell_angle_beta 111.226265
_cell_angle_gamma 98.948454
_cell_volume 741.876542
_symmetry_space_group_name_H-M "P -1"
_symmetry_group_IT_number 2
_symmetry_cell_setting 'triclinic'
loop_
_space_group_symop_operation_xyz
x,y,z
-x,-y,-z
loop_
_atom_site_type_symbol
_atom_site_label
_atom_site_fract_x
_atom_site_fract_y
_atom_site_fract_z
Si Si1 0.104089 0.880487 0.714848
Si Si2 0.791600 0.446316 0.848006
Si Si3 0.868631 0.385754 0.529148
Si Si4 0.743325 0.697025 0.192727
Si Si5 0.513472 0.777251 0.321547
Si Si6 0.786882 0.321352 0.107596
Si Si7 0.873332 0.089486 0.905297
Si Si8 0.138135 0.102022 0.793547
O O1 0.156830 0.765492 0.595978
O O2 0.911325 0.818285 0.495245
O O3 0.234378 0.030338 0.829207
O O4 0.099881 0.925214 0.929427
O O5 0.755969 0.418860 0.630906
O O6 0.641657 0.287322 0.686950
O O7 0.754711 0.559652 0.025388
O O8 0.000000 0.500000 0.000000
O O9 0.779626 0.368246 0.320488
O O10 0.086115 0.524983 0.767330
O O11 0.571162 0.665673 0.183062
O O12 0.726579 0.746149 0.077255
O O13 0.683436 0.942553 0.612617
O O14 0.418806 0.784434 0.148005
O O15 0.878437 0.234972 0.044768
O O16 0.042488 0.125087 0.916359
O O17 0.000000 0.000000 0.500000
#
# Coordination Sequence:
#
# PCOD8003074 Si02
#       8
#     2   2   2   2   2   2   2   2
#     4  10  20  39  65  93 127 169 209 254 309 376
#     4  12  23  42  69  91 122 165 218 259 314 377
#     4  10  21  42  66  91 117 169 219 253 305 377
#     4  11  23  42  65  96 125 167 210 259 315 369
#     4  12  24  40  61  97 132 163 202 268 316 373
#     4  10  22  41  64  91 128 162 209 261 312 369
#     4  11  22  39  63  96 128 169 208 255 313 375
#     4  10  20  36  62  88 125 165 207 248 304 375
#
# _framework density 21.566928999999998
#
# number of rings (size 3 to 8) (size 9 to 14) (size 15 to 20)
#    0.000    1.250    5.000    1.875    0.000    0.000 
#    4.500    1.875    0.000    0.000    0.000    0.000 
#    0.000    0.000    0.000    0.000    0.000    0.000 
#
# Total GULP energy -198209.653749 kJ/mol
# GULP energy per Si atom -12388.103359 kJ/mol
# Density = 2.151784 g / cm^3
# Si number density = 21.566929 Si / 1000 Ang^3
#
#
#
# Elastic Constant Matrix: (Units=GPa)
#
#
# Indices 1 2 3 4 5 6 
#
# 1 83.0298 32.1072 32.6141 -8.8748 -14.1799 16.5885
# 2 32.1072 99.9573 34.6108 -10.7342 1.9752 2.2110
# 3 32.6141 34.6108 93.6475 -14.3668 -13.7859 10.7326
# 4 -8.8748 -10.7342 -14.3668 31.7024 2.8884 -4.6514
# 5 -14.1799 1.9752 -13.7859 2.8884 29.5087 0.6695
# 6 16.5885 2.2110 10.7326 -4.6514 0.6695 32.0888
#
#
#
# Elastic Compliance Matrix: (Units=1/GPa)
#
#
# Indices 1 2 3 4 5 6 
#
# 1 0.017881 -0.004908 -0.002223 0.000391 0.008032 -0.008273
# 2 -0.004908 0.013253 -0.004029 0.002283 -0.005429 0.003416
# 3 -0.002223 -0.004029 0.014714 0.003703 0.005783 -0.003078
# 4 0.000391 0.002283 0.003703 0.034771 -0.001717 0.003478
# 5 0.008032 -0.005429 0.005783 -0.001717 0.041136 -0.006819
# 6 -0.008273 0.003416 -0.003078 0.003478 -0.006819 0.036881
#
#
# Mechanical properties :
#
#
# Convention : Reuss Voigt Hill
#
# Bulk Modulus (GPa) = 42.50269 52.81097 47.65683
# Shear Modulus (GPa) = 26.48338 30.48014 28.48176
#
# Velocity S-wave (km/s) = 3.50803 3.76344 3.63798
# Velocity P-wave (km/s) = 6.01319 6.58975 6.30806
#
# Compressibility (1/GPa) = 0.02352792
#
# Stress axis : x y z
#
# Youngs Moduli (GPa) = 55.92481 75.45639 67.96303
#
# Poissons Ratio (x) = 0.37031 0.15109
# Poissons Ratio (y) = 0.27445 0.27384
# Poissons Ratio (z) = 0.12433 0.30403
#
# Static dielectric constant tensor:
#      x y z
#    x 3.802000 0.226200 -0.337650 
#    y 0.226200 4.508610 -0.151260 
#    z -0.337650 -0.151260 3.985860 
# 
# 
# High freq. dielectric constant tensor:
#      x y z
#    x 1.829790 0.002200 -0.028080 
#    y 0.002200 1.864210 -0.010540 
#    z -0.028080 -0.010540 1.840240 
# 
# From -- ./inp_files/209136.got.cif
#   From: 2010.06.25/outbox.cif.g09.slc.cpg/sg2_105_cif.got.tgz:209136.got - 2010.06.27 13:26:56.
