data_PCOD8003551
_publ_section_title
;
Structure prediction by ZEFSAII (Michael W. Deem and Ramdas Pophale) SiO2 
 PCOD8003551
Probable space group: P -1
;
_chemical_formula_sum "Si O2"
_cell_formula_units_Z 16
_cell_length_a 28.566055
_cell_length_b 6.433334
_cell_length_c 6.525423
_cell_angle_alpha 84.958772
_cell_angle_beta 135.191244
_cell_angle_gamma 110.112472
_cell_volume 771.206967
_symmetry_space_group_name_H-M "P -1"
_symmetry_group_IT_number 2
_symmetry_cell_setting 'triclinic'
loop_
_space_group_symop_operation_xyz
x,y,z
-x,-y,-z
loop_
_atom_site_type_symbol
_atom_site_label
_atom_site_fract_x
_atom_site_fract_y
_atom_site_fract_z
Si Si1 0.341106 0.108679 0.636921
Si Si2 0.036498 0.931746 0.307964
Si Si3 0.468087 0.167465 0.294276
Si Si4 0.855683 0.074285 0.660606
Si Si5 0.098370 0.222721 0.854308
Si Si6 0.408161 0.392123 0.428507
Si Si7 0.786342 0.344874 0.655912
Si Si8 0.715860 0.652822 0.237400
O O1 0.379565 0.224225 0.541634
O O2 0.320348 0.292955 0.677371
O O3 0.269366 0.881889 0.385024
O O4 0.398232 0.038281 0.946225
O O5 0.973470 0.756091 0.272575
O O6 0.089214 0.830250 0.369869
O O7 0.084448 0.147231 0.580809
O O8 0.000000 0.000000 0.000000
O O9 0.444680 0.276139 0.401596
O O10 0.530852 0.362208 0.339664
O O11 0.500000 0.000000 0.500000
O O12 0.782947 0.881873 0.358403
O O13 0.840306 0.285053 0.680434
O O14 0.885068 0.964232 0.945434
O O15 0.165151 0.468824 0.044348
O O16 0.341218 0.430155 0.115992
O O17 0.740872 0.448861 0.370222
#
# Coordination Sequence:
#
# PCOD8003551 Si02
#       8
#     2   2   2   2   2   2   2   2
#     4  10  21  37  56  83 116 150 190 234 284 340
#     4   9  18  37  59  79 112 152 187 232 289 341
#     4  10  21  37  58  84 113 146 190 237 279 334
#     4   9  19  35  56  83 114 147 189 239 285 335
#     4   9  19  37  57  81 114 149 188 236 286 341
#     4  10  21  37  57  81 113 152 188 231 284 335
#     4  10  20  37  59  84 116 151 192 240 286 340
#     4   9  20  37  54  80 116 150 189 236 282 335
#
# _framework density 20.746701000000002
#
# number of rings (size 3 to 8) (size 9 to 14) (size 15 to 20)
#    0.000    2.500    0.000    1.125    0.000    5.000 
#    0.000   21.875    0.000    0.000    0.000    0.000 
#    0.000    0.000    0.000    0.000    0.000    0.000 
#
# Total GULP energy -198336.431376 kJ/mol
# GULP energy per Si atom -12396.026961 kJ/mol
# Density = 2.069948 g / cm^3
# Si number density = 20.746701 Si / 1000 Ang^3
#
#
#
# Elastic Constant Matrix: (Units=GPa)
#
#
# Indices 1 2 3 4 5 6 
#
# 1 98.2814 44.0276 66.6632 -11.2014 8.8020 1.3772
# 2 44.0276 93.8885 49.0126 -0.4301 4.1469 -1.6885
# 3 66.6632 49.0126 106.2023 18.1084 7.0188 -2.6382
# 4 -11.2014 -0.4301 18.1084 25.0656 1.3959 9.3379
# 5 8.8020 4.1469 7.0188 1.3959 29.3113 -3.6925
# 6 1.3772 -1.6885 -2.6382 9.3379 -3.6925 25.4434
#
#
#
# Elastic Compliance Matrix: (Units=1/GPa)
#
#
# Indices 1 2 3 4 5 6 
#
# 1 0.042708 -0.001091 -0.035883 0.056059 -0.010297 -0.028173
# 2 -0.001091 0.014930 -0.007184 0.005685 -0.000570 -0.001864
# 3 -0.035883 -0.007184 0.045851 -0.060718 0.007430 0.029582
# 4 0.056059 0.005685 -0.060718 0.132176 -0.016942 -0.059921
# 5 -0.010297 -0.000570 0.007430 -0.016942 0.037957 0.013016
# 6 -0.028173 -0.001864 0.029582 -0.059921 0.013016 0.067652
#
#
# Mechanical properties :
#
#
# Convention : Reuss Voigt Hill
#
# Bulk Modulus (GPa) = 65.89244 68.64212 67.26728
# Shear Modulus (GPa) = 11.50357 25.20867 18.35612
#
# Velocity S-wave (km/s) = 2.35729 3.48957 2.97774
# Velocity P-wave (km/s) = 6.26406 7.02807 6.65703
#
# Compressibility (1/GPa) = 0.01517625
#
# Stress axis : x y z
#
# Youngs Moduli (GPa) = 23.41455 66.97863 21.80954
#
# Poissons Ratio (x) = 0.07305 0.78258
# Poissons Ratio (y) = 0.02554 0.15667
# Poissons Ratio (z) = 0.84018 0.48115
#
# Static dielectric constant tensor:
#      x y z
#    x 4.101380 -0.051730 0.376900 
#    y -0.051730 3.536850 0.154220 
#    z 0.376900 0.154220 3.902740 
# 
# 
# High freq. dielectric constant tensor:
#      x y z
#    x 1.819570 -0.001420 0.023710 
#    y -0.001420 1.788670 0.008000 
#    z 0.023710 0.008000 1.817160 
# 
# From -- ./inp_files/11066.got.cif
#   From: 2010.06.25/outbox.cif.g09.slc.cpg/sg2_6_cif.got.tgz:11066.got - 2010.06.27 13:26:56.
