data_PCOD8003932
_publ_section_title
;
Structure prediction by ZEFSAII (Michael W. Deem and Ramdas Pophale) SiO2 
 PCOD8003932
Probable space group: P -1
;
_chemical_formula_sum "Si O2"
_cell_formula_units_Z 14
_cell_length_a 10.899439
_cell_length_b 14.904433
_cell_length_c 12.783555
_cell_angle_alpha 151.890327
_cell_angle_beta 129.355166
_cell_angle_gamma 40.218800
_cell_volume 626.477456
_symmetry_space_group_name_H-M "P -1"
_symmetry_group_IT_number 2
_symmetry_cell_setting 'triclinic'
loop_
_space_group_symop_operation_xyz
x,y,z
-x,-y,-z
loop_
_atom_site_type_symbol
_atom_site_label
_atom_site_fract_x
_atom_site_fract_y
_atom_site_fract_z
Si Si1 0.346248 0.434755 0.073080
Si Si2 0.626419 0.200050 0.162351
Si Si3 0.654627 0.619357 0.614886
Si Si4 0.061333 0.265401 0.069925
Si Si5 0.626355 0.601453 0.178882
Si Si6 0.438687 0.820920 0.503036
Si Si7 0.052828 0.178375 0.737148
O O1 0.491783 0.239369 0.031166
O O2 0.381660 0.636876 0.288716
O O3 0.124537 0.563096 0.126207
O O4 0.369113 0.313700 0.848570
O O5 0.694955 0.370281 0.369177
O O6 0.511949 0.229675 0.236223
O O7 0.817711 0.945964 0.001597
O O8 0.854067 0.578004 0.716942
O O9 0.587185 0.760859 0.615363
O O10 0.841550 0.408129 0.134015
O O11 0.086520 0.165729 0.865729
O O12 0.534321 0.803274 0.423893
O O13 0.500000 0.500000 0.000000
O O14 0.252713 0.085966 0.688696
O O15 0.000000 0.000000 0.500000
#
# Coordination Sequence:
#
# PCOD8003932 Si02
#       7
#     2   2   2   2   2   2   2
#     4   8  17  33  55  82 115 151 198 237 294 345
#     4  10  20  37  62  90 124 148 189 259 292 339
#     4  10  21  35  59  94 122 145 199 246 297 343
#     4  11  21  37  65  88 113 161 201 233 297 359
#     4   9  19  37  59  83 117 163 198 236 293 354
#     4   9  16  32  56  82 117 155 193 239 286 350
#     4   9  17  31  57  84 112 155 195 235 292 344
#
# _framework density 22.347173000000002
#
# number of rings (size 3 to 8) (size 9 to 14) (size 15 to 20)
#    0.000    2.571    1.429    1.286    2.000    0.571 
#    0.000    9.286    0.000    1.714    0.000    0.000 
#    0.000    0.000    0.000    0.000    0.000    0.000 
#
# Total GULP energy -173544.653288 kJ/mol
# GULP energy per Si atom -12396.046663 kJ/mol
# Density = 2.229631 g / cm^3
# Si number density = 22.347173 Si / 1000 Ang^3
#
#
#
# Elastic Constant Matrix: (Units=GPa)
#
#
# Indices 1 2 3 4 5 6 
#
# 1 97.3963 55.5560 55.4474 -6.8045 -23.7904 -29.4831
# 2 55.5560 165.9941 66.6408 -9.5799 -19.0743 -21.3030
# 3 55.4474 66.6408 63.5624 -14.2429 -27.3896 -6.9108
# 4 -6.8045 -9.5799 -14.2429 37.9787 -1.7060 -4.5420
# 5 -23.7904 -19.0743 -27.3896 -1.7060 48.3010 -6.0692
# 6 -29.4831 -21.3030 -6.9108 -4.5420 -6.0692 38.5546
#
#
#
# Elastic Compliance Matrix: (Units=1/GPa)
#
#
# Indices 1 2 3 4 5 6 
#
# 1 0.030878 0.003588 -0.026831 -0.000893 0.004058 0.021320
# 2 0.003588 0.011651 -0.016008 -0.001823 -0.002048 0.005775
# 3 -0.026831 -0.016008 0.064500 0.014427 0.015837 -0.013609
# 4 -0.000893 -0.001823 0.014427 0.032252 0.008927 0.006101
# 5 0.004058 -0.002048 0.015837 0.008927 0.032570 0.010989
# 6 0.021320 0.005775 -0.013609 0.006101 0.010989 0.045441
#
#
# Mechanical properties :
#
#
# Convention : Reuss Voigt Hill
#
# Bulk Modulus (GPa) = 35.05629 75.80460 55.43044
# Shear Modulus (GPa) = 16.37716 34.92077 25.64897
#
# Velocity S-wave (km/s) = 2.71006 3.95732 3.39152
# Velocity P-wave (km/s) = 5.05111 7.40780 6.33992
#
# Compressibility (1/GPa) = 0.02852555
#
# Stress axis : x y z
#
# Youngs Moduli (GPa) = 32.38520 85.83180 15.50396
#
# Poissons Ratio (x) = -0.30798 0.41599
# Poissons Ratio (y) = -0.11621 0.24819
# Poissons Ratio (z) = 0.86894 1.37402
#
# Static dielectric constant tensor:
#      x y z
#    x 4.085350 -0.222740 -0.298680 
#    y -0.222740 4.131230 -0.271470 
#    z -0.298680 -0.271470 4.210720 
# 
# 
# High freq. dielectric constant tensor:
#      x y z
#    x 1.860780 -0.013350 0.002260 
#    y -0.013350 1.881580 -0.017840 
#    z 0.002260 -0.017840 1.884270 
# 
# From -- ./inp_files/433547.got.cif
#   From: 2010.06.25/outbox.cif.g09.slc.cpg/sg2_217_cif.got.tgz:433547.got - 2010.06.27 13:26:56.
