data_PCOD8003022
_publ_section_title
;
Structure prediction by ZEFSAII (Michael W. Deem and Ramdas Pophale) SiO2 
 PCOD8003022
Probable space group: P -1
;
_chemical_formula_sum "Si O2"
_cell_formula_units_Z 14
_cell_length_a 20.011731
_cell_length_b 9.979774
_cell_length_c 5.035231
_cell_angle_alpha 100.588276
_cell_angle_beta 96.677559
_cell_angle_gamma 34.078473
_cell_volume 552.692244
_symmetry_space_group_name_H-M "P -1"
_symmetry_group_IT_number 2
_symmetry_cell_setting 'triclinic'
loop_
_space_group_symop_operation_xyz
x,y,z
-x,-y,-z
loop_
_atom_site_type_symbol
_atom_site_label
_atom_site_fract_x
_atom_site_fract_y
_atom_site_fract_z
Si Si1 0.943636 0.445471 0.455146
Si Si2 0.598261 0.244421 0.091586
Si Si3 0.461174 0.813618 0.436810
Si Si4 0.275766 0.710253 0.686009
Si Si5 0.722294 0.683882 0.296536
Si Si6 0.874819 0.077163 0.814785
Si Si7 0.844765 0.406541 0.745633
O O1 0.000000 0.500000 0.500000
O O2 0.811007 0.670257 0.346721
O O3 0.929395 0.398544 0.727387
O O4 0.020742 0.209543 0.230185
O O5 0.550685 0.273587 0.362620
O O6 0.710503 0.154150 0.167502
O O7 0.500000 0.500000 0.000000
O O8 0.620462 0.087416 0.826580
O O9 0.601014 0.584273 0.340412
O O10 0.412323 0.041406 0.603062
O O11 0.228210 0.792654 0.393734
O O12 0.180490 0.807925 0.880090
O O13 0.771152 0.494881 0.471543
O O14 0.737011 0.603509 0.978766
O O15 0.925899 0.141091 0.771306
#
# Coordination Sequence:
#
# PCOD8003022 Si02
#       7
#     2   2   2   2   2   2   2
#     4  10  27  45  71 100 130 168 227 278 341 386
#     4  10  20  36  61  91 136 180 218 265 329 385
#     4  11  21  41  63  98 140 174 221 274 333 386
#     4  11  24  37  65  99 132 179 225 263 329 397
#     4  10  24  42  71  93 134 175 221 269 336 387
#     4  12  25  44  68  98 137 175 222 277 321 404
#     4  10  24  46  67  97 131 182 222 263 343 385
#
# _framework density 25.330555
#
# number of rings (size 3 to 8) (size 9 to 14) (size 15 to 20)
#    0.857    0.571    0.000    6.429    6.000    1.143 
#    0.000    4.286    0.000    0.000    0.000    0.000 
#    0.000    0.000    0.000    0.000    0.000    0.000 
#
# Total GULP energy -173445.251011 kJ/mol
# GULP energy per Si atom -12388.946501 kJ/mol
# Density = 2.527290 g / cm^3
# Si number density = 25.330555 Si / 1000 Ang^3
#
#
#
# Elastic Constant Matrix: (Units=GPa)
#
#
# Indices 1 2 3 4 5 6 
#
# 1 58.4771 10.6272 11.1946 9.4886 -17.7911 13.0756
# 2 10.6272 85.3574 15.6374 27.6557 -23.3211 7.9412
# 3 11.1946 15.6374 137.7023 18.1472 -23.8708 -1.2032
# 4 9.4886 27.6557 18.1472 42.8461 -1.4251 -1.2107
# 5 -17.7911 -23.3211 -23.8708 -1.4251 37.2272 -2.1220
# 6 13.0756 7.9412 -1.2032 -1.2107 -2.1220 36.5993
#
#
#
# Elastic Compliance Matrix: (Units=1/GPa)
#
#
# Indices 1 2 3 4 5 6 
#
# 1 0.023577 0.004012 0.000964 -0.008014 0.013594 -0.008739
# 2 0.004012 0.020030 0.001788 -0.014234 0.014762 -0.005335
# 3 0.000964 0.001788 0.008846 -0.004885 0.007054 -0.000194
# 4 -0.008014 -0.014234 -0.004885 0.036074 -0.014147 0.006164
# 5 0.013594 0.014762 0.007054 -0.014147 0.046268 -0.005613
# 6 -0.008739 -0.005335 -0.000194 0.006164 -0.005613 0.031475
#
#
# Mechanical properties :
#
#
# Convention : Reuss Voigt Hill
#
# Bulk Modulus (GPa) = 15.15632 39.60613 27.38122
# Shear Modulus (GPa) = 28.61442 39.60636 34.11039
#
# Velocity S-wave (km/s) = 3.36466 3.95850 3.67360
# Velocity P-wave (km/s) = 4.59249 6.04671 5.36906
#
# Compressibility (1/GPa) = 0.06597910
#
# Stress axis : x y z
#
# Youngs Moduli (GPa) = 42.41351 49.92532 113.05051
#
# Poissons Ratio (x) = -0.20028 -0.10898
# Poissons Ratio (y) = -0.17015 -0.20208
# Poissons Ratio (z) = -0.04089 -0.08924
#
# Static dielectric constant tensor:
#      x y z
#    x 4.557710 0.149010 0.371630 
#    y 0.149010 4.298630 0.096610 
#    z 0.371630 0.096610 5.343540 
# 
# 
# High freq. dielectric constant tensor:
#      x y z
#    x 1.992630 0.006810 -0.005540 
#    y 0.006810 1.998910 -0.000320 
#    z -0.005540 -0.000320 2.029860 
# 
# From -- ./inp_files/116243.got.cif
#   From: 2010.06.25/outbox.cif.g09.slc.cpg/sg2_59_cif.got.tgz:116243.got - 2010.06.27 13:26:56.
