data_PCOD8003581
_publ_section_title
;
Structure prediction by ZEFSAII (Michael W. Deem and Ramdas Pophale) SiO2 
 PCOD8003581
Probable space group: P -1
;
_chemical_formula_sum "Si O2"
_cell_formula_units_Z 16
_cell_length_a 12.101614
_cell_length_b 9.969109
_cell_length_c 18.191922
_cell_angle_alpha 40.593850
_cell_angle_beta 52.780909
_cell_angle_gamma 85.868217
_cell_volume 755.614247
_symmetry_space_group_name_H-M "P -1"
_symmetry_group_IT_number 2
_symmetry_cell_setting 'triclinic'
loop_
_space_group_symop_operation_xyz
x,y,z
-x,-y,-z
loop_
_atom_site_type_symbol
_atom_site_label
_atom_site_fract_x
_atom_site_fract_y
_atom_site_fract_z
Si Si1 0.297520 0.523772 0.579138
Si Si2 0.863906 0.442876 0.016074
Si Si3 0.272003 0.743404 0.358957
Si Si4 0.067912 0.888222 0.629268
Si Si5 0.435425 0.985505 0.449405
Si Si6 0.748607 0.280721 0.914486
Si Si7 0.247403 0.036150 0.844753
Si Si8 0.892581 0.600618 0.577473
O O1 0.192272 0.550206 0.548164
O O2 0.162096 0.170900 0.804081
O O3 0.508658 0.687773 0.386200
O O4 0.326644 0.671721 0.583495
O O5 0.640429 0.271124 0.202971
O O6 0.868032 0.263040 0.031339
O O7 0.000000 0.500000 0.000000
O O8 0.969712 0.756833 0.804868
O O9 0.231681 0.545284 0.388905
O O10 0.130102 0.789726 0.389349
O O11 0.515363 0.080539 0.120773
O O12 0.913920 0.625674 0.738891
O O13 0.290698 0.023018 0.485557
O O14 0.106311 0.171152 0.483147
O O15 0.500000 0.000000 0.500000
O O16 0.769864 0.317864 0.802634
O O17 0.791664 0.089971 0.003204
#
# Coordination Sequence:
#
# PCOD8003581 Si02
#       8
#     2   2   2   2   2   2   2   2
#     4   9  18  36  61  87 120 160 200 242 310 370
#     4  10  20  37  59  87 129 153 196 249 296 365
#     4  10  23  42  64  89 124 163 207 259 311 357
#     4  11  24  39  63  92 121 167 206 250 313 365
#     4  11  22  38  61  91 128 161 198 254 310 368
#     4  10  21  41  63  90 127 160 204 258 304 364
#     4   8  18  34  61  88 116 161 193 242 308 360
#     4  11  24  41  64  91 121 163 214 256 303 370
#
# _framework density 21.174825999999999
#
# number of rings (size 3 to 8) (size 9 to 14) (size 15 to 20)
#    0.000    2.000    1.250    2.250    1.750    3.500 
#    0.000    8.125    2.750    0.000    0.000    0.000 
#    0.000    0.000    0.000    0.000    0.000    0.000 
#
# Total GULP energy -198307.948314 kJ/mol
# GULP energy per Si atom -12394.246770 kJ/mol
# Density = 2.112663 g / cm^3
# Si number density = 21.174826 Si / 1000 Ang^3
#
#
#
# Elastic Constant Matrix: (Units=GPa)
#
#
# Indices 1 2 3 4 5 6 
#
# 1 117.8828 49.3536 45.0865 -6.0154 7.4587 10.6182
# 2 49.3536 81.9262 46.8860 1.7253 11.0867 4.4368
# 3 45.0865 46.8860 72.9801 1.2648 16.3277 -4.7089
# 4 -6.0154 1.7253 1.2648 26.7625 0.6877 5.0527
# 5 7.4587 11.0867 16.3277 0.6877 40.4257 9.2382
# 6 10.6182 4.4368 -4.7089 5.0527 9.2382 40.7515
#
#
#
# Elastic Compliance Matrix: (Units=1/GPa)
#
#
# Indices 1 2 3 4 5 6 
#
# 1 0.013269 -0.004646 -0.006108 0.004404 0.002298 -0.004724
# 2 -0.004646 0.021476 -0.011034 -0.001489 -0.000046 -0.002208
# 3 -0.006108 -0.011034 0.027085 -0.003284 -0.008624 0.008285
# 4 0.004404 -0.001489 -0.003284 0.039827 0.001777 -0.006706
# 5 0.002298 -0.000046 -0.008624 0.001777 0.029733 -0.008551
# 6 -0.004724 -0.002208 0.008285 -0.006706 -0.008551 0.029737
#
#
# Mechanical properties :
#
#
# Convention : Reuss Voigt Hill
#
# Bulk Modulus (GPa) = 54.77641 61.71570 58.24606
# Shear Modulus (GPa) = 23.72050 30.35215 27.03632
#
# Velocity S-wave (km/s) = 3.35060 3.79014 3.57713
# Velocity P-wave (km/s) = 6.39480 6.95433 6.68043
#
# Compressibility (1/GPa) = 0.01825603
#
# Stress axis : x y z
#
# Youngs Moduli (GPa) = 75.36376 46.56255 36.92026
#
# Poissons Ratio (x) = 0.21631 0.22551
# Poissons Ratio (y) = 0.35011 0.40737
# Poissons Ratio (z) = 0.46032 0.51376
#
# Static dielectric constant tensor:
#      x y z
#    x 4.050610 0.097410 0.181290 
#    y 0.097410 3.625410 0.127550 
#    z 0.181290 0.127550 3.866640 
# 
# 
# High freq. dielectric constant tensor:
#      x y z
#    x 1.842170 0.009430 0.004450 
#    y 0.009430 1.812230 0.015210 
#    z 0.004450 0.015210 1.832570 
# 
# From -- ./inp_files/566430.got.cif
#   From: 2010.06.25/outbox.cif.g09.slc.cpg/sg2_284_cif.got.tgz:566430.got - 2010.06.27 13:26:56.
