data_PCOD8003912
_publ_section_title
;
Structure prediction by ZEFSAII (Michael W. Deem and Ramdas Pophale) SiO2 
 PCOD8003912
Probable space group: P -1
;
_chemical_formula_sum "Si O2"
_cell_formula_units_Z 16
_cell_length_a 13.821534
_cell_length_b 13.960818
_cell_length_c 11.608779
_cell_angle_alpha 150.307230
_cell_angle_beta 125.698883
_cell_angle_gamma 72.965596
_cell_volume 763.067794
_symmetry_space_group_name_H-M "P -1"
_symmetry_group_IT_number 2
_symmetry_cell_setting 'triclinic'
loop_
_space_group_symop_operation_xyz
x,y,z
-x,-y,-z
loop_
_atom_site_type_symbol
_atom_site_label
_atom_site_fract_x
_atom_site_fract_y
_atom_site_fract_z
Si Si1 0.478342 0.267379 0.286382
Si Si2 0.566026 0.892700 0.278167
Si Si3 0.736002 0.227277 0.394295
Si Si4 0.356545 0.022220 0.327526
Si Si5 0.442745 0.560269 0.232938
Si Si6 0.986934 0.499275 0.687181
Si Si7 0.219024 0.654201 0.201443
Si Si8 0.960080 0.185656 0.148497
O O1 0.500000 0.500000 0.500000
O O2 0.603250 0.249537 0.298948
O O3 0.487234 0.274754 0.437614
O O4 0.325196 0.044324 0.916958
O O5 0.414137 0.862027 0.160014
O O6 0.660697 0.987927 0.557935
O O7 0.652157 0.082879 0.440989
O O8 0.547124 0.659797 0.978030
O O9 0.834634 0.328383 0.456869
O O10 0.823683 0.369937 0.718307
O O11 0.467609 0.288989 0.656159
O O12 0.206380 0.930423 0.071400
O O13 0.280086 0.493500 0.042496
O O14 0.032890 0.370959 0.495315
O O15 0.988215 0.698710 0.821364
O O16 0.093233 0.600332 0.973633
O O17 0.000000 0.000000 0.000000
#
# Coordination Sequence:
#
# PCOD8003912 Si02
#       8
#     2   2   2   2   2   2   2   2
#     4  10  21  39  61  90 123 155 200 253 310 365
#     4  10  20  37  62  88 122 156 198 260 304 355
#     4  10  22  40  64  91 122 159 202 254 306 368
#     4  10  21  38  58  88 118 156 209 250 307 358
#     4  10  21  34  62  92 117 159 202 255 307 361
#     4  11  24  42  63  87 124 166 207 251 304 372
#     4  10  21  39  62  93 123 159 204 249 310 366
#     4  11  26  43  61  88 124 170 207 255 307 364
#
# _framework density 20.967994000000001
#
# number of rings (size 3 to 8) (size 9 to 14) (size 15 to 20)
#    0.000    1.750    1.250    2.250    1.750    7.000 
#    0.000    0.000    0.000    6.000    0.000    0.000 
#    0.000    0.000    0.000    0.000    0.000    0.000 
#
# Total GULP energy -198386.070576 kJ/mol
# GULP energy per Si atom -12399.129411 kJ/mol
# Density = 2.092027 g / cm^3
# Si number density = 20.967994 Si / 1000 Ang^3
#
#
#
# Elastic Constant Matrix: (Units=GPa)
#
#
# Indices 1 2 3 4 5 6 
#
# 1 93.1014 47.9568 39.5887 9.2305 1.4291 2.8709
# 2 47.9568 114.6640 42.2335 11.3317 1.1381 -10.0684
# 3 39.5887 42.2335 79.6902 4.7880 2.0635 -12.2975
# 4 9.2305 11.3317 4.7880 39.5293 -3.6325 -7.7262
# 5 1.4291 1.1381 2.0635 -3.6325 24.1250 5.2959
# 6 2.8709 -10.0684 -12.2975 -7.7262 5.2959 35.9499
#
#
#
# Elastic Compliance Matrix: (Units=1/GPa)
#
#
# Indices 1 2 3 4 5 6 
#
# 1 0.016258 -0.004705 -0.006274 -0.002695 0.000581 -0.005427
# 2 -0.004705 0.012457 -0.003788 -0.001626 -0.000741 0.002328
# 3 -0.006274 -0.003788 0.018644 0.001344 -0.002255 0.006439
# 4 -0.002695 -0.001626 0.001344 0.027625 0.003027 0.005710
# 5 0.000581 -0.000741 -0.002255 0.003027 0.043592 -0.006797
# 6 -0.005427 0.002328 0.006439 0.005710 -0.006797 0.033333
#
#
# Mechanical properties :
#
#
# Convention : Reuss Voigt Hill
#
# Bulk Modulus (GPa) = 56.10063 60.77928 58.43996
# Shear Modulus (GPa) = 26.68322 30.43262 28.55792
#
# Velocity S-wave (km/s) = 3.57118 3.81384 3.69450
# Velocity P-wave (km/s) = 6.61951 6.96013 6.79195
#
# Compressibility (1/GPa) = 0.01782511
#
# Stress axis : x y z
#
# Youngs Moduli (GPa) = 61.50903 80.27834 53.63593
#
# Poissons Ratio (x) = 0.37769 0.33650
# Poissons Ratio (y) = 0.28939 0.20319
# Poissons Ratio (z) = 0.38589 0.30411
#
# Static dielectric constant tensor:
#      x y z
#    x 3.773890 0.097790 -0.089150 
#    y 0.097790 3.939660 -0.073460 
#    z -0.089150 -0.073460 3.665080 
# 
# 
# High freq. dielectric constant tensor:
#      x y z
#    x 1.816650 0.013640 -0.008020 
#    y 0.013640 1.830630 -0.003750 
#    z -0.008020 -0.003750 1.811380 
# 
# From -- ./inp_files/455277.got.cif
#   From: 2010.06.25/outbox.cif.g09.slc.cpg/sg2_228_cif.got.tgz:455277.got - 2010.06.27 13:26:56.
