data_PCOD8004232
_publ_section_title
;
Structure prediction by ZEFSAII (Michael W. Deem and Ramdas Pophale) SiO2 
 PCOD8004232
Probable space group: P -1
;
_chemical_formula_sum "Si O2"
_cell_formula_units_Z 14
_cell_length_a 11.735212
_cell_length_b 9.476405
_cell_length_c 8.398984
_cell_angle_alpha 108.218621
_cell_angle_beta 84.911990
_cell_angle_gamma 53.511619
_cell_volume 665.586214
_symmetry_space_group_name_H-M "P -1"
_symmetry_group_IT_number 2
_symmetry_cell_setting 'triclinic'
loop_
_space_group_symop_operation_xyz
x,y,z
-x,-y,-z
loop_
_atom_site_type_symbol
_atom_site_label
_atom_site_fract_x
_atom_site_fract_y
_atom_site_fract_z
Si Si1 0.339737 0.251347 0.912206
Si Si2 0.696231 0.617055 0.701438
Si Si3 0.204175 0.094503 0.688550
Si Si4 0.338546 0.591926 0.980849
Si Si5 0.379194 0.076085 0.402458
Si Si6 0.090633 0.792759 0.329877
Si Si7 0.590726 0.314051 0.307198
O O1 0.237319 0.219226 0.820428
O O2 0.314683 0.436324 0.909554
O O3 0.521504 0.065427 0.809344
O O4 0.286263 0.290732 0.115401
O O5 0.710254 0.699236 0.565383
O O6 0.821009 0.379362 0.607363
O O7 0.528077 0.693346 0.764716
O O8 0.257600 0.064832 0.485755
O O9 0.025192 0.215955 0.753308
O O10 0.288739 0.881796 0.676971
O O11 0.317849 0.676725 0.837561
O O12 0.500000 0.500000 0.000000
O O13 0.208743 0.761783 0.177619
O O14 0.500000 0.000000 0.500000
O O15 0.000000 0.000000 0.500000
O O16 0.500000 0.500000 0.500000
#
# Coordination Sequence:
#
# PCOD8004232 Si02
#       7
#     2   2   2   2   2   2   2
#     4  10  21  40  68 100 135 165 236 284 326 406
#     4  11  22  40  68  98 130 182 226 272 344 399
#     4  11  25  41  66  98 141 176 219 288 341 387
#     4  11  24  42  73  99 129 184 230 271 341 402
#     4  10  20  37  66 102 127 170 225 279 328 394
#     4  11  26  47  66 101 145 176 223 286 344 404
#     4  12  23  40  69 102 131 179 232 279 329 408
#
# _framework density 21.034088000000001
#
# number of rings (size 3 to 8) (size 9 to 14) (size 15 to 20)
#    0.000    1.143    5.714    2.143    4.000    3.429 
#    0.000    0.000    0.000    0.000    0.000    0.000 
#    0.000    0.000    0.000    0.000    0.000    0.000 
#
# Total GULP energy -173559.625676 kJ/mol
# GULP energy per Si atom -12397.116120 kJ/mol
# Density = 2.098621 g / cm^3
# Si number density = 21.034088 Si / 1000 Ang^3
#
#
#
# Elastic Constant Matrix: (Units=GPa)
#
#
# Indices 1 2 3 4 5 6 
#
# 1 104.8027 30.9084 37.8231 -11.7622 -16.7769 0.3757
# 2 30.9084 180.3407 58.9686 -27.2989 -20.3138 10.0542
# 3 37.8231 58.9686 115.4157 -3.0841 -18.0275 12.0409
# 4 -11.7622 -27.2989 -3.0841 31.8411 1.8375 -5.6047
# 5 -16.7769 -20.3138 -18.0275 1.8375 31.7203 4.9865
# 6 0.3757 10.0542 12.0409 -5.6047 4.9865 31.8269
#
#
#
# Elastic Compliance Matrix: (Units=1/GPa)
#
#
# Indices 1 2 3 4 5 6 
#
# 1 0.011802 0.000049 -0.003285 0.004061 0.003987 0.001178
# 2 0.000049 0.007952 -0.003395 0.006235 0.002921 -0.000588
# 3 -0.003285 -0.003395 0.012554 -0.004036 0.004245 -0.005014
# 4 0.004061 0.006235 -0.004036 0.038930 0.000607 0.006270
# 5 0.003987 0.002921 0.004245 0.000607 0.039236 -0.008616
# 6 0.001178 -0.000588 -0.005014 0.006270 -0.008616 0.035943
#
#
# Mechanical properties :
#
#
# Convention : Reuss Voigt Hill
#
# Bulk Modulus (GPa) = 52.50008 72.88439 62.69223
# Shear Modulus (GPa) = 30.11553 37.26826 33.69190
#
# Velocity S-wave (km/s) = 3.78795 4.21385 4.00656
# Velocity P-wave (km/s) = 6.64418 7.64206 7.16053
#
# Compressibility (1/GPa) = 0.01904759
#
# Stress axis : x y z
#
# Youngs Moduli (GPa) = 84.72847 125.74895 79.65753
#
# Poissons Ratio (x) = -0.00621 0.26166
# Poissons Ratio (y) = -0.00419 0.27045
# Poissons Ratio (z) = 0.27831 0.42693
#
# Static dielectric constant tensor:
#      x y z
#    x 3.922940 0.116960 -0.236220 
#    y 0.116960 4.072350 -0.162130 
#    z -0.236220 -0.162130 4.074470 
# 
# 
# High freq. dielectric constant tensor:
#      x y z
#    x 1.813300 0.009600 0.000210 
#    y 0.009600 1.831440 -0.003880 
#    z 0.000210 -0.003880 1.821390 
# 
# From -- ./inp_files/159837.got.cif
#   From: 2010.06.25/outbox.cif.g09.slc.cpg/sg2_80_cif.got.tgz:159837.got - 2010.06.27 13:26:56.
