data_PCOD8004035
_publ_section_title
;
Structure prediction by ZEFSAII (Michael W. Deem and Ramdas Pophale) SiO2 
 PCOD8004035
Probable space group: P -1
;
_chemical_formula_sum "Si O2"
_cell_formula_units_Z 14
_cell_length_a 9.311297
_cell_length_b 14.116667
_cell_length_c 12.679708
_cell_angle_alpha 30.957250
_cell_angle_beta 124.793545
_cell_angle_gamma 126.604461
_cell_volume 681.117618
_symmetry_space_group_name_H-M "P -1"
_symmetry_group_IT_number 2
_symmetry_cell_setting 'triclinic'
loop_
_space_group_symop_operation_xyz
x,y,z
-x,-y,-z
loop_
_atom_site_type_symbol
_atom_site_label
_atom_site_fract_x
_atom_site_fract_y
_atom_site_fract_z
Si Si1 0.752652 0.557562 0.889404
Si Si2 0.175816 0.942298 0.163959
Si Si3 0.971029 0.811976 0.399536
Si Si4 0.710776 0.072314 0.995657
Si Si5 0.101815 0.558421 0.153615
Si Si6 0.478386 0.198550 0.170792
Si Si7 0.726670 0.944410 0.569145
O O1 0.797821 0.475674 0.876736
O O2 0.747524 0.776192 0.660126
O O3 0.561535 0.423130 0.975165
O O4 0.895262 0.551815 0.047273
O O5 0.113324 0.804865 0.370398
O O6 0.326126 0.129107 0.085127
O O7 0.255845 0.850029 0.185864
O O8 0.000000 0.000000 0.000000
O O9 0.887998 0.597159 0.605815
O O10 0.805825 0.898707 0.213351
O O11 0.079380 0.935124 0.423649
O O12 0.798296 0.237055 0.955675
O O13 0.500000 0.000000 0.000000
O O14 0.397666 0.164948 0.285113
O O15 0.633360 0.083861 0.332041
#
# Coordination Sequence:
#
# PCOD8004035 Si02
#       7
#     2   2   2   2   2   2   2
#     4  11  22  37  58  94 123 155 198 250 308 359
#     4   9  21  41  64  87 120 166 199 243 302 355
#     4  10  21  42  62  88 124 157 203 254 300 359
#     4  11  23  42  64  86 123 166 202 248 297 362
#     4  11  24  37  61  89 121 162 202 245 304 360
#     4  10  20  38  63  91 118 152 206 250 299 365
#     4  10  20  37  63  90 121 155 194 255 313 348
#
# _framework density 20.554454
#
# number of rings (size 3 to 8) (size 9 to 14) (size 15 to 20)
#    0.000    1.714    2.857    1.286    0.000    4.000 
#    0.000    2.857    0.000    0.000    0.000    0.000 
#    0.000    0.000    0.000    0.000    0.000    0.000 
#
# Total GULP energy -173601.451536 kJ/mol
# GULP energy per Si atom -12400.103681 kJ/mol
# Density = 2.050767 g / cm^3
# Si number density = 20.554454 Si / 1000 Ang^3
#
#
#
# Elastic Constant Matrix: (Units=GPa)
#
#
# Indices 1 2 3 4 5 6 
#
# 1 91.1269 46.2130 20.2963 1.0196 -1.8071 5.9575
# 2 46.2130 114.6715 22.6357 9.6008 -4.5163 -1.1449
# 3 20.2963 22.6357 73.2000 -3.7847 -0.9021 1.2674
# 4 1.0196 9.6008 -3.7847 23.1443 1.3056 4.8922
# 5 -1.8071 -4.5163 -0.9021 1.3056 28.8838 -2.2349
# 6 5.9575 -1.1449 1.2674 4.8922 -2.2349 37.4340
#
#
#
# Elastic Compliance Matrix: (Units=1/GPa)
#
#
# Indices 1 2 3 4 5 6 
#
# 1 0.014432 -0.005596 -0.002130 0.001920 -0.000332 -0.002667
# 2 -0.005596 0.012042 -0.002483 -0.005727 0.001885 0.002204
# 3 -0.002130 -0.002483 0.015225 0.003791 -0.000276 -0.000764
# 4 0.001920 -0.005727 0.003791 0.047799 -0.003364 -0.007057
# 5 -0.000332 0.001885 -0.000276 -0.003364 0.035245 0.002664
# 6 -0.002667 0.002204 -0.000764 -0.007057 0.002664 0.028313
#
#
# Mechanical properties :
#
#
# Convention : Reuss Voigt Hill
#
# Bulk Modulus (GPa) = 46.98970 50.80984 48.89977
# Shear Modulus (GPa) = 27.69034 30.54931 29.11983
#
# Velocity S-wave (km/s) = 3.67436 3.85939 3.76801
# Velocity P-wave (km/s) = 6.39625 6.68080 6.54007
#
# Compressibility (1/GPa) = 0.02128126
#
# Stress axis : x y z
#
# Youngs Moduli (GPa) = 69.28859 83.04463 65.67983
#
# Poissons Ratio (x) = 0.46474 0.13989
# Poissons Ratio (y) = 0.38776 0.16308
# Poissons Ratio (z) = 0.14757 0.20620
#
# Static dielectric constant tensor:
#      x y z
#    x 3.930530 -0.093490 -0.104580 
#    y -0.093490 3.863940 0.176830 
#    z -0.104580 0.176830 3.662750 
# 
# 
# High freq. dielectric constant tensor:
#      x y z
#    x 1.809060 0.004210 -0.008450 
#    y 0.004210 1.808800 0.003740 
#    z -0.008450 0.003740 1.787140 
# 
# From -- ./inp_files/60498.got.cif
#   From: 2010.06.25/outbox.cif.g09.slc.cpg/sg2_31_cif.got.tgz:60498.got - 2010.06.27 13:26:56.
