data_PCOD8004667
_publ_section_title
;
Structure prediction by ZEFSAII (Michael W. Deem and Ramdas Pophale) SiO2 
 PCOD8004667
Probable space group: P -1
;
_chemical_formula_sum "Si O2"
_cell_formula_units_Z 12
_cell_length_a 11.940162
_cell_length_b 6.776116
_cell_length_c 11.610808
_cell_angle_alpha 105.397470
_cell_angle_beta 103.799425
_cell_angle_gamma 38.070596
_cell_volume 557.788488
_symmetry_space_group_name_H-M "P -1"
_symmetry_group_IT_number 2
_symmetry_cell_setting 'triclinic'
loop_
_space_group_symop_operation_xyz
x,y,z
-x,-y,-z
loop_
_atom_site_type_symbol
_atom_site_label
_atom_site_fract_x
_atom_site_fract_y
_atom_site_fract_z
Si Si1 0.016207 0.498682 0.722920
Si Si2 0.611758 0.697434 0.760001
Si Si3 0.696073 0.597241 0.309889
Si Si4 0.324626 0.831319 0.831024
Si Si5 0.840857 0.371874 0.550012
Si Si6 0.187362 0.226807 0.069071
O O1 0.112027 0.561638 0.699951
O O2 0.919917 0.492935 0.601251
O O3 0.859248 0.796413 0.818336
O O4 0.156997 0.160986 0.773241
O O5 0.512994 0.646327 0.791373
O O6 0.747637 0.423171 0.653627
O O7 0.720706 0.675960 0.879939
O O8 0.471247 0.037456 0.713346
O O9 0.684843 0.398617 0.210771
O O10 0.691635 0.574155 0.442931
O O11 0.320454 0.899997 0.976051
O O12 0.000000 0.000000 0.500000
O O13 0.000000 0.500000 0.000000
#
# Coordination Sequence:
#
# PCOD8004667 Si02
#       6
#     2   2   2   2   2   2
#     4   9  20  39  59  88 120 155 197 240 286 342
#     4  10  23  40  59  88 120 153 195 243 294 343
#     4  11  22  38  60  89 122 153 195 242 290 345
#     4  10  20  38  61  87 120 156 193 236 295 351
#     4  11  21  41  62  85 118 160 197 239 292 346
#     4   9  19  39  64  85 118 156 192 242 293 343
#
# _framework density 21.513531
#
# number of rings (size 3 to 8) (size 9 to 14) (size 15 to 20)
#    0.000    2.000    1.667    1.500    0.000    2.000 
#    9.000    0.000    0.000    0.000    0.000    0.000 
#    0.000    0.000    0.000    0.000    0.000    0.000 
#
# Total GULP energy -148795.727065 kJ/mol
# GULP energy per Si atom -12399.643922 kJ/mol
# Density = 2.146457 g / cm^3
# Si number density = 21.513531 Si / 1000 Ang^3
#
#
#
# Elastic Constant Matrix: (Units=GPa)
#
#
# Indices 1 2 3 4 5 6 
#
# 1 141.6924 29.1657 56.9051 31.8973 0.6712 -8.2840
# 2 29.1657 58.0832 36.1719 18.0632 -4.3143 -2.5033
# 3 56.9051 36.1719 149.0296 35.8120 6.3015 -3.8440
# 4 31.8973 18.0632 35.8120 38.3943 -10.6800 2.4097
# 5 0.6712 -4.3143 6.3015 -10.6800 30.6549 4.2321
# 6 -8.2840 -2.5033 -3.8440 2.4097 4.2321 25.0088
#
#
#
# Elastic Compliance Matrix: (Units=1/GPa)
#
#
# Indices 1 2 3 4 5 6 
#
# 1 0.009874 -0.001960 -0.001307 -0.007245 -0.003318 0.004133
# 2 -0.001960 0.022130 -0.003445 -0.005113 0.001918 0.001205
# 3 -0.001307 -0.003445 0.010539 -0.009005 -0.006139 0.002749
# 4 -0.007245 -0.005113 -0.009005 0.049262 0.020172 -0.012456
# 5 -0.003318 0.001918 -0.006139 0.020172 0.042777 -0.011033
# 6 0.004133 0.001205 0.002749 -0.012456 -0.011033 0.044965
#
#
# Mechanical properties :
#
#
# Convention : Reuss Voigt Hill
#
# Bulk Modulus (GPa) = 34.33863 65.92117 50.12990
# Shear Modulus (GPa) = 24.66986 33.91577 29.29282
#
# Velocity S-wave (km/s) = 3.38999 3.97481 3.69399
# Velocity P-wave (km/s) = 5.59632 7.19539 6.44564
#
# Compressibility (1/GPa) = 0.02912172
#
# Stress axis : x y z
#
# Youngs Moduli (GPa) = 101.27629 45.18714 94.88161
#
# Poissons Ratio (x) = 0.08855 0.12400
# Poissons Ratio (y) = 0.19846 0.32682
# Poissons Ratio (z) = 0.13235 0.15565
#
# Static dielectric constant tensor:
#      x y z
#    x 4.043290 -0.303030 -0.085240 
#    y -0.303030 3.541290 0.176230 
#    z -0.085240 0.176230 4.466870 
# 
# 
# High freq. dielectric constant tensor:
#      x y z
#    x 1.849270 -0.020480 0.004740 
#    y -0.020480 1.816990 0.007620 
#    z 0.004740 0.007620 1.864450 
# 
# From -- ./inp_files/22308.got.cif
#   From: 2010.06.25/outbox.cif.g09.slc.cpg/sg2_12_cif.got.tgz:22308.got - 2010.06.27 13:26:56.
