data_PCOD8004859
_publ_section_title
;
Structure prediction by ZEFSAII (Michael W. Deem and Ramdas Pophale) SiO2 
 PCOD8004859
Probable space group: P -1
;
_chemical_formula_sum "Si O2"
_cell_formula_units_Z 16
_cell_length_a 12.241502
_cell_length_b 27.010812
_cell_length_c 24.459754
_cell_angle_alpha 9.997568
_cell_angle_beta 38.160387
_cell_angle_gamma 37.680172
_cell_volume 856.446068
_symmetry_space_group_name_H-M "P -1"
_symmetry_group_IT_number 2
_symmetry_cell_setting 'triclinic'
loop_
_space_group_symop_operation_xyz
x,y,z
-x,-y,-z
loop_
_atom_site_type_symbol
_atom_site_label
_atom_site_fract_x
_atom_site_fract_y
_atom_site_fract_z
Si Si1 0.621323 0.727127 0.723658
Si Si2 0.389278 0.244287 0.814097
Si Si3 0.006579 0.638722 0.168173
Si Si4 0.837260 0.942430 0.805891
Si Si5 0.160549 0.398203 0.935150
Si Si6 0.384633 0.137698 0.223246
Si Si7 0.775193 0.941047 0.321852
Si Si8 0.785327 0.438184 0.077249
O O1 0.729557 0.820413 0.529160
O O2 0.500000 0.000000 0.500000
O O3 0.500000 0.500000 0.000000
O O4 0.761174 0.584528 0.868340
O O5 0.500000 0.500000 0.500000
O O6 0.199152 0.361028 0.732238
O O7 0.348454 0.114701 0.030645
O O8 0.500000 0.000000 0.000000
O O9 0.110571 0.314520 0.479374
O O10 0.002756 0.789456 0.945197
O O11 0.104628 0.810863 0.986556
O O12 0.839155 0.282210 0.434581
O O13 0.854786 0.816174 0.875744
O O14 0.340789 0.288881 0.017370
O O15 0.000481 0.374600 0.067208
O O16 0.598481 0.068286 0.219311
O O17 0.301368 0.847704 0.575494
O O18 0.305682 0.348042 0.073719
#
# Coordination Sequence:
#
# PCOD8004859 Si02
#       8
#     2   2   2   2   2   2   2   2
#     4  12  21  34  52  76 109 150 197 243 298 323
#     4  10  20  38  62  96 122 135 171 224 297 368
#     4  10  22  35  62  85 117 141 173 228 296 342
#     4  10  22  38  61  90 113 148 184 228 308 334
#     4  12  23  40  57  80 117 157 208 245 274 335
#     4  12  25  38  55  79 114 167 208 245 278 320
#     4  12  21  38  51  85 114 150 193 237 281 353
#     4  12  22  39  54  79 112 158 212 254 292 319
#
# _framework density 18.681854000000001
#
# number of rings (size 3 to 8) (size 9 to 14) (size 15 to 20)
#    0.750    0.000    2.500    7.500    0.000    0.000 
#    0.000    0.000    0.000    0.000    0.000   17.500 
#    0.000    0.000    0.000    0.000    0.000    0.000 
#
# Total GULP energy -198406.825987 kJ/mol
# GULP energy per Si atom -12400.426624 kJ/mol
# Density = 1.863933 g / cm^3
# Si number density = 18.681854 Si / 1000 Ang^3
#
#
#
# Elastic Constant Matrix: (Units=GPa)
#
#
# Indices 1 2 3 4 5 6 
#
# 1 103.6556 27.5212 46.1109 -11.9876 -1.8037 -24.2275
# 2 27.5212 108.9713 45.4136 -20.6638 -13.8086 -21.2094
# 3 46.1109 45.4136 93.9649 -17.3104 -36.5080 -7.9222
# 4 -11.9876 -20.6638 -17.3104 35.0726 -1.4221 -7.1665
# 5 -1.8037 -13.8086 -36.5080 -1.4221 39.2858 1.5039
# 6 -24.2275 -21.2094 -7.9222 -7.1665 1.5039 27.7746
#
#
#
# Elastic Compliance Matrix: (Units=1/GPa)
#
#
# Indices 1 2 3 4 5 6 
#
# 1 0.018684 0.003635 -0.012093 0.005775 -0.009568 0.017633
# 2 0.003635 0.016163 -0.006217 0.011084 -0.000164 0.016610
# 3 -0.012093 -0.006217 0.030494 0.007047 0.026089 -0.006193
# 4 0.005775 0.011084 0.007047 0.046448 0.011362 0.026881
# 5 -0.009568 -0.000164 0.026089 0.011362 0.049644 -0.000786
# 6 0.017633 0.016610 -0.006193 0.026881 -0.000786 0.069281
#
#
# Mechanical properties :
#
#
# Convention : Reuss Voigt Hill
#
# Bulk Modulus (GPa) = 27.78387 60.52035 44.15211
# Shear Modulus (GPa) = 18.37825 32.92965 25.65395
#
# Velocity S-wave (km/s) = 3.13988 4.20295 3.70969
# Velocity P-wave (km/s) = 5.29618 7.48456 6.48337
#
# Compressibility (1/GPa) = 0.03599211
#
# Stress axis : x y z
#
# Youngs Moduli (GPa) = 53.52086 61.86784 32.79352
#
# Poissons Ratio (x) = -0.22492 0.39657
# Poissons Ratio (y) = -0.19457 0.20389
# Poissons Ratio (z) = 0.64722 0.38465
#
# Static dielectric constant tensor:
#      x y z
#    x 3.549180 -0.153530 -0.021340 
#    y -0.153530 3.363840 -0.158750 
#    z -0.021340 -0.158750 3.448970 
# 
# 
# High freq. dielectric constant tensor:
#      x y z
#    x 1.727310 -0.009810 -0.018060 
#    y -0.009810 1.713930 -0.025210 
#    z -0.018060 -0.025210 1.729880 
# 
# From -- ./inp_files/611023.got.cif
#   From: 2010.06.25/outbox.cif.g09.slc.cpg/sg2_306_cif.got.tgz:611023.got - 2010.06.27 13:26:56.
