data_PCOD8004114
_publ_section_title
;
Structure prediction by ZEFSAII (Michael W. Deem and Ramdas Pophale) SiO2 
 PCOD8004114
Probable space group: P -1
;
_chemical_formula_sum "Si O2"
_cell_formula_units_Z 16
_cell_length_a 18.494304
_cell_length_b 6.397680
_cell_length_c 15.633290
_cell_angle_alpha 79.248408
_cell_angle_beta 28.984789
_cell_angle_gamma 66.692219
_cell_volume 768.464828
_symmetry_space_group_name_H-M "P -1"
_symmetry_group_IT_number 2
_symmetry_cell_setting 'triclinic'
loop_
_space_group_symop_operation_xyz
x,y,z
-x,-y,-z
loop_
_atom_site_type_symbol
_atom_site_label
_atom_site_fract_x
_atom_site_fract_y
_atom_site_fract_z
Si Si1 0.405817 0.619362 0.363485
Si Si2 0.319973 0.238007 0.995713
Si Si3 0.099551 0.216391 0.942693
Si Si4 0.108240 0.899599 0.519890
Si Si5 0.822882 0.063286 0.284957
Si Si6 0.111193 0.243088 0.357746
Si Si7 0.334431 0.908649 0.860267
Si Si8 0.069406 0.744487 0.180394
O O1 0.531669 0.692669 0.177511
O O2 0.244582 0.708831 0.460163
O O3 0.355232 0.742741 0.500923
O O4 0.481450 0.331194 0.327092
O O5 0.352838 0.000943 0.927059
O O6 0.284178 0.211215 0.134992
O O7 0.140148 0.458019 0.132933
O O8 0.200693 0.040776 0.771797
O O9 0.256722 0.134355 0.854875
O O10 0.000000 0.500000 0.000000
O O11 0.947259 0.177396 0.138334
O O12 0.015980 0.767701 0.580188
O O13 0.185173 0.009989 0.362253
O O14 0.968316 0.137201 0.696095
O O15 0.903748 0.840682 0.285187
O O16 0.000000 0.500000 0.500000
O O17 0.207285 0.801104 0.990446
#
# Coordination Sequence:
#
# PCOD8004114 Si02
#       8
#     2   2   2   2   2   2   2   2
#     4  10  24  40  58  87 127 160 188 240 307 352
#     4  11  21  37  60  88 118 156 202 241 295 353
#     4  10  20  37  64  89 116 154 205 244 285 347
#     4  10  21  39  60  87 118 153 198 249 292 345
#     4   9  20  38  58  88 119 155 197 242 290 348
#     4  11  22  37  64  91 113 153 206 250 289 346
#     4  10  21  37  57  86 122 160 191 242 298 352
#     4   9  17  36  60  81 116 155 198 242 287 343
#
# _framework density 20.820730000000001
#
# number of rings (size 3 to 8) (size 9 to 14) (size 15 to 20)
#    0.000    2.000    2.500    0.750    0.000    4.000 
#    0.000    2.500    0.000    0.000    0.000    0.000 
#    0.000    0.000    0.000    0.000    0.000    0.000 
#
# Total GULP energy -198235.194067 kJ/mol
# GULP energy per Si atom -12389.699629 kJ/mol
# Density = 2.077334 g / cm^3
# Si number density = 20.820730 Si / 1000 Ang^3
#
#
#
# Elastic Constant Matrix: (Units=GPa)
#
#
# Indices 1 2 3 4 5 6 
#
# 1 73.3739 19.6622 30.5764 11.5116 13.1131 -5.7900
# 2 19.6622 88.8120 37.7871 20.3081 1.3966 -14.4668
# 3 30.5764 37.7871 106.4962 17.6306 24.1004 1.1562
# 4 11.5116 20.3081 17.6306 36.3319 -0.5176 1.3967
# 5 13.1131 1.3966 24.1004 -0.5176 28.2771 4.1233
# 6 -5.7900 -14.4668 1.1562 1.3967 4.1233 32.3555
#
#
#
# Elastic Compliance Matrix: (Units=1/GPa)
#
#
# Indices 1 2 3 4 5 6 
#
# 1 0.016961 -0.001178 -0.002438 -0.003759 -0.006317 0.003563
# 2 -0.001178 0.016302 -0.005113 -0.006491 0.002936 0.007167
# 3 -0.002438 -0.005113 0.015115 -0.003802 -0.011328 -0.001655
# 4 -0.003759 -0.006491 -0.003802 0.034507 0.006780 -0.005793
# 5 -0.006317 0.002936 -0.011328 0.006780 0.048791 -0.005924
# 6 0.003563 0.007167 -0.001655 -0.005793 -0.005924 0.035813
#
#
# Mechanical properties :
#
#
# Convention : Reuss Voigt Hill
#
# Bulk Modulus (GPa) = 32.34406 49.41482 40.87944
# Shear Modulus (GPa) = 25.60759 31.43666 28.52213
#
# Velocity S-wave (km/s) = 3.51081 3.88992 3.70522
# Velocity P-wave (km/s) = 5.65709 6.63026 6.16291
#
# Compressibility (1/GPa) = 0.03091758
#
# Stress axis : x y z
#
# Youngs Moduli (GPa) = 58.96044 61.34315 66.15828
#
# Poissons Ratio (x) = 0.07228 0.16131
# Poissons Ratio (y) = 0.06947 0.33830
# Poissons Ratio (z) = 0.14376 0.31367
#
# Static dielectric constant tensor:
#      x y z
#    x 3.763730 -0.274720 0.278800 
#    y -0.274720 3.893770 0.097540 
#    z 0.278800 0.097540 3.861890 
# 
# 
# High freq. dielectric constant tensor:
#      x y z
#    x 1.803310 -0.005870 0.020310 
#    y -0.005870 1.820820 0.007820 
#    z 0.020310 0.007820 1.808490 
# 
# From -- ./inp_files/44572.got.cif
#   From: 2010.06.25/outbox.cif.g09.slc.cpg/sg2_23_cif.got.tgz:44572.got - 2010.06.27 13:26:56.
