data_PCOD8004907
_publ_section_title
;
Structure prediction by ZEFSAII (Michael W. Deem and Ramdas Pophale) SiO2 
 PCOD8004907
Probable space group: P -1
;
_chemical_formula_sum "Si O2"
_cell_formula_units_Z 16
_cell_length_a 22.070536
_cell_length_b 13.800088
_cell_length_c 8.345596
_cell_angle_alpha 92.498113
_cell_angle_beta 102.305009
_cell_angle_gamma 20.526261
_cell_volume 775.273940
_symmetry_space_group_name_H-M "P -1"
_symmetry_group_IT_number 2
_symmetry_cell_setting 'triclinic'
loop_
_space_group_symop_operation_xyz
x,y,z
-x,-y,-z
loop_
_atom_site_type_symbol
_atom_site_label
_atom_site_fract_x
_atom_site_fract_y
_atom_site_fract_z
Si Si1 0.495654 0.942696 0.339130
Si Si2 0.387201 0.566937 0.913214
Si Si3 0.765835 0.361841 0.935211
Si Si4 0.274304 0.029990 0.136984
Si Si5 0.769934 0.541707 0.181622
Si Si6 0.876070 0.545770 0.998688
Si Si7 0.098481 0.956720 0.516579
Si Si8 0.420673 0.372380 0.485732
O O1 0.579729 0.852983 0.207445
O O2 0.618867 0.661838 0.424851
O O3 0.500000 0.000000 0.500000
O O4 0.258113 0.287785 0.213431
O O5 0.187190 0.876534 0.718793
O O6 0.533251 0.281834 0.876963
O O7 0.500000 0.500000 0.000000
O O8 0.319078 0.612191 0.037914
O O9 0.621839 0.595146 0.718862
O O10 0.736684 0.497637 0.045125
O O11 0.000000 0.000000 0.000000
O O12 0.176330 0.262785 0.995362
O O13 0.351582 0.937002 0.357797
O O14 0.110965 0.186974 0.066465
O O15 0.826108 0.556342 0.124950
O O16 0.948708 0.256048 0.382071
O O17 0.271693 0.681037 0.464542
O O18 0.000000 0.000000 0.500000
#
# Coordination Sequence:
#
# PCOD8004907 Si02
#       8
#     2   2   2   2   2   2   2   2
#     4  11  23  39  61  93 127 166 213 274 318 385
#     4  11  25  40  65  96 137 176 214 273 339 394
#     4  12  23  38  65 103 131 164 220 274 324 398
#     4   9  22  44  63  85 135 177 213 266 332 391
#     4  12  23  38  69  95 129 167 222 278 326 390
#     4  10  22  41  66  91 121 177 225 265 321 391
#     4  11  19  41  63  92 130 171 212 269 336 386
#     4  10  20  38  63  88 127 165 207 264 333 379
#
# _framework density 20.637865999999999
#
# number of rings (size 3 to 8) (size 9 to 14) (size 15 to 20)
#    0.000    1.250    3.750    2.625    1.750    3.000 
#    0.000    2.500    0.000    7.500    0.000    0.000 
#    0.000    0.000    0.000    0.000    0.000    0.000 
#
# Total GULP energy -198212.635057 kJ/mol
# GULP energy per Si atom -12388.289691 kJ/mol
# Density = 2.059089 g / cm^3
# Si number density = 20.637866 Si / 1000 Ang^3
#
#
#
# Elastic Constant Matrix: (Units=GPa)
#
#
# Indices 1 2 3 4 5 6 
#
# 1 130.3684 33.5618 63.7428 0.9396 5.6456 -25.4743
# 2 33.5618 81.3423 37.0198 1.4721 7.9413 -15.3554
# 3 63.7428 37.0198 146.8788 -6.1524 3.9176 -18.7221
# 4 0.9396 1.4721 -6.1524 35.7688 0.2264 0.6081
# 5 5.6456 7.9413 3.9176 0.2264 31.6139 0.2849
# 6 -25.4743 -15.3554 -18.7221 0.6081 0.2849 26.6798
#
#
#
# Elastic Compliance Matrix: (Units=1/GPa)
#
#
# Indices 1 2 3 4 5 6 
#
# 1 0.011336 -0.001486 -0.003599 -0.000975 -0.001265 0.007479
# 2 -0.001486 0.015478 -0.002471 -0.001101 -0.003361 0.005816
# 3 -0.003599 -0.002471 0.009269 0.001763 0.000088 0.001605
# 4 -0.000975 -0.001101 0.001763 0.028348 0.000038 -0.000974
# 5 -0.001265 -0.003361 0.000088 0.000038 0.032722 -0.003431
# 6 0.007479 0.005816 0.001605 -0.000974 -0.003431 0.049154
#
#
# Mechanical properties :
#
#
# Convention : Reuss Voigt Hill
#
# Bulk Modulus (GPa) = 47.68726 69.69314 58.69020
# Shear Modulus (GPa) = 29.68963 33.76350 31.72657
#
# Velocity S-wave (km/s) = 3.79700 4.04913 3.92509
# Velocity P-wave (km/s) = 6.50998 7.46348 7.00298
#
# Compressibility (1/GPa) = 0.02096996
#
# Stress axis : x y z
#
# Youngs Moduli (GPa) = 88.21450 64.60990 107.88615
#
# Poissons Ratio (x) = 0.09604 0.38826
# Poissons Ratio (y) = 0.13112 0.26660
# Poissons Ratio (z) = 0.31746 0.15966
#
# Static dielectric constant tensor:
#      x y z
#    x 4.313550 1.231980 0.364880 
#    y 1.231980 7.230190 0.640080 
#    z 0.364880 0.640080 4.342000 
# 
# 
# High freq. dielectric constant tensor:
#      x y z
#    x 1.797530 -0.003950 -0.000160 
#    y -0.003950 1.798530 -0.019890 
#    z -0.000160 -0.019890 1.823690 
# 
# From -- ./inp_files/354124.got.cif
#   From: 2010.06.25/outbox.cif.g09.slc.cpg/sg2_178_cif.got.tgz:354124.got - 2010.06.27 13:26:56.
