data_PCOD8004865
_publ_section_title
;
Structure prediction by ZEFSAII (Michael W. Deem and Ramdas Pophale) SiO2 
 PCOD8004865
Probable space group: P -1
;
_chemical_formula_sum "Si O2"
_cell_formula_units_Z 16
_cell_length_a 7.836550
_cell_length_b 26.160312
_cell_length_c 9.450792
_cell_angle_alpha 23.967060
_cell_angle_beta 98.828688
_cell_angle_gamma 98.064964
_cell_volume 777.699298
_symmetry_space_group_name_H-M "P -1"
_symmetry_group_IT_number 2
_symmetry_cell_setting 'triclinic'
loop_
_space_group_symop_operation_xyz
x,y,z
-x,-y,-z
loop_
_atom_site_type_symbol
_atom_site_label
_atom_site_fract_x
_atom_site_fract_y
_atom_site_fract_z
Si Si1 0.860734 0.308999 0.278479
Si Si2 0.730319 0.382385 0.585407
Si Si3 0.205216 0.263563 0.595274
Si Si4 0.635213 0.599044 0.208414
Si Si5 0.891135 0.594698 0.497586
Si Si6 0.440249 0.047667 0.220783
Si Si7 0.366984 0.789338 0.730982
Si Si8 0.573166 0.289890 0.523521
O O1 0.800273 0.219206 0.369863
O O2 0.706594 0.325108 0.330305
O O3 0.034047 0.249319 0.515647
O O4 0.901984 0.444443 0.876824
O O5 0.729957 0.527671 0.272113
O O6 0.609811 0.373393 0.455869
O O7 0.923247 0.345054 0.660800
O O8 0.664097 0.282273 0.944778
O O9 0.172709 0.360383 0.472426
O O10 0.370227 0.316614 0.390996
O O11 0.259924 0.126493 0.011487
O O12 0.500000 0.500000 0.500000
O O13 0.766865 0.641789 0.238604
O O14 0.528959 0.723928 0.834254
O O15 0.500000 0.000000 0.500000
O O16 0.411755 0.933799 0.396979
O O17 0.588708 0.140352 0.942185
#
# Coordination Sequence:
#
# PCOD8004865 Si02
#       8
#     2   2   2   2   2   2   2   2
#     4  12  25  42  62 100 136 168 205 265 332 384
#     4  11  21  40  67  98 128 166 221 267 309 389
#     4  10  24  42  64  95 132 168 215 262 316 391
#     4  10  20  38  62  97 125 168 216 265 314 379
#     4  12  22  40  64  97 138 163 214 267 318 387
#     4  10  21  45  71  88 123 173 223 265 309 377
#     4  11  23  42  68  91 131 172 215 267 321 369
#     4  10  24  43  68  92 130 166 223 256 320 385
#
# _framework density 20.573504
#
# number of rings (size 3 to 8) (size 9 to 14) (size 15 to 20)
#    0.750    0.500    5.000    3.000    0.000    2.500 
#    0.000    3.750    0.000    0.000    0.000    0.000 
#    0.000    0.000    0.000    0.000    0.000    0.000 
#
# Total GULP energy -198333.626641 kJ/mol
# GULP energy per Si atom -12395.851665 kJ/mol
# Density = 2.052668 g / cm^3
# Si number density = 20.573504 Si / 1000 Ang^3
#
#
#
# Elastic Constant Matrix: (Units=GPa)
#
#
# Indices 1 2 3 4 5 6 
#
# 1 120.2947 20.2963 13.3884 0.8030 14.2026 5.8902
# 2 20.2963 99.4371 18.3896 -10.3161 9.4885 22.8113
# 3 13.3884 18.3896 53.4286 -10.1343 12.4155 11.8196
# 4 0.8030 -10.3161 -10.1343 28.0908 0.3311 -3.9057
# 5 14.2026 9.4885 12.4155 0.3311 32.7756 11.3765
# 6 5.8902 22.8113 11.8196 -3.9057 11.3765 30.0664
#
#
#
# Elastic Compliance Matrix: (Units=1/GPa)
#
#
# Indices 1 2 3 4 5 6 
#
# 1 0.009093 -0.001662 -0.001414 -0.001184 -0.003305 0.001132
# 2 -0.001662 0.012951 -0.001696 0.002979 0.000593 -0.008671
# 3 -0.001414 -0.001696 0.023484 0.007367 -0.006374 -0.004300
# 4 -0.001184 0.002979 0.007367 0.039685 -0.004169 0.001808
# 5 -0.003305 0.000593 -0.006374 -0.004169 0.038539 -0.012420
# 6 0.001132 -0.008671 -0.004300 0.001808 -0.012420 0.046241
#
#
# Mechanical properties :
#
#
# Convention : Reuss Voigt Hill
#
# Bulk Modulus (GPa) = 27.78800 41.92321 34.85560
# Shear Modulus (GPa) = 26.10533 32.92563 29.51548
#
# Velocity S-wave (km/s) = 3.56600 4.00483 3.79177
# Velocity P-wave (km/s) = 5.52188 6.46579 6.01238
#
# Compressibility (1/GPa) = 0.03598676
#
# Stress axis : x y z
#
# Youngs Moduli (GPa) = 109.97133 77.21358 42.58152
#
# Poissons Ratio (x) = 0.12831 0.06020
# Poissons Ratio (y) = 0.18274 0.07220
# Poissons Ratio (z) = 0.15546 0.13092
#
# Static dielectric constant tensor:
#      x y z
#    x 3.937070 0.039000 0.186420 
#    y 0.039000 3.823900 -0.103220 
#    z 0.186420 -0.103220 3.571870 
# 
# 
# High freq. dielectric constant tensor:
#      x y z
#    x 1.806740 0.010010 0.005970 
#    y 0.010010 1.813880 0.001040 
#    z 0.005970 0.001040 1.780100 
# 
# From -- ./inp_files/225168.got.cif
#   From: 2010.06.25/outbox.cif.g09.slc.cpg/sg2_113_cif.got.tgz:225168.got - 2010.06.27 13:26:56.
