data_PCOD8004970
_publ_section_title
;
Structure prediction by ZEFSAII (Michael W. Deem and Ramdas Pophale) SiO2 
 PCOD8004970
Probable space group: P -1
;
_chemical_formula_sum "Si O2"
_cell_formula_units_Z 16
_cell_length_a 16.261518
_cell_length_b 11.484523
_cell_length_c 14.632343
_cell_angle_alpha 151.283940
_cell_angle_beta 35.038450
_cell_angle_gamma 132.605547
_cell_volume 745.385649
_symmetry_space_group_name_H-M "P -1"
_symmetry_group_IT_number 2
_symmetry_cell_setting 'triclinic'
loop_
_space_group_symop_operation_xyz
x,y,z
-x,-y,-z
loop_
_atom_site_type_symbol
_atom_site_label
_atom_site_fract_x
_atom_site_fract_y
_atom_site_fract_z
Si Si1 0.844374 0.918036 0.338294
Si Si2 0.434165 0.263256 0.281912
Si Si3 0.390786 0.244446 0.006422
Si Si4 0.809117 0.734683 0.627966
Si Si5 0.900526 0.544389 0.901067
Si Si6 0.309987 0.567754 0.130660
Si Si7 0.557422 0.741860 0.516013
Si Si8 0.942137 0.164072 0.750199
O O1 0.694956 0.811207 0.387435
O O2 0.931040 0.813645 0.277816
O O3 0.810973 0.211277 0.571939
O O4 0.925151 0.817784 0.100718
O O5 0.279299 0.343118 0.431240
O O6 0.531462 0.476019 0.320970
O O7 0.407263 0.248153 0.402429
O O8 0.500000 0.000000 0.000000
O O9 0.267671 0.322666 0.247893
O O10 0.333933 0.360759 0.043027
O O11 0.539388 0.338719 0.968109
O O12 0.419120 0.950437 0.765547
O O13 0.968176 0.577263 0.366190
O O14 0.819751 0.027821 0.817044
O O15 0.752232 0.546888 0.981475
O O16 0.882319 0.420254 0.932959
O O17 0.000000 0.000000 0.500000
#
# Coordination Sequence:
#
# PCOD8004970 Si02
#       8
#     2   2   2   2   2   2   2   2
#     4  11  22  40  66  94 126 173 221 259 323 392
#     4  11  23  39  62 100 135 159 209 268 334 383
#     4  10  23  44  69  90 131 175 221 273 314 383
#     4  11  23  39  67  97 127 174 205 271 334 381
#     4  11  24  40  65  96 132 172 212 264 330 392
#     4  10  23  47  64  92 130 175 223 269 319 377
#     4  10  23  39  63  96 125 173 211 263 324 391
#     4  10  20  38  63  94 131 167 205 264 328 387
#
# _framework density 21.465398
#
# number of rings (size 3 to 8) (size 9 to 14) (size 15 to 20)
#    0.000    1.500    3.750    1.875    5.250    1.500 
#    2.250    2.500    0.000    0.000    0.000    0.000 
#    0.000    0.000    0.000    0.000    0.000    0.000 
#
# Total GULP energy -198312.201889 kJ/mol
# GULP energy per Si atom -12394.512618 kJ/mol
# Density = 2.141654 g / cm^3
# Si number density = 21.465398 Si / 1000 Ang^3
#
#
#
# Elastic Constant Matrix: (Units=GPa)
#
#
# Indices 1 2 3 4 5 6 
#
# 1 135.4840 32.3962 50.1689 11.7017 -2.5341 9.8952
# 2 32.3962 76.4500 23.9504 -4.0150 6.6839 -3.4991
# 3 50.1689 23.9504 78.9988 5.6543 18.8830 0.5871
# 4 11.7017 -4.0150 5.6543 29.7374 5.3434 0.1273
# 5 -2.5341 6.6839 18.8830 5.3434 28.7779 8.1392
# 6 9.8952 -3.4991 0.5871 0.1273 8.1392 27.9771
#
#
#
# Elastic Compliance Matrix: (Units=1/GPa)
#
#
# Indices 1 2 3 4 5 6 
#
# 1 0.013333 -0.004441 -0.009480 -0.006160 0.011983 -0.008530
# 2 -0.004441 0.016354 -0.001135 0.005213 -0.005923 0.005339
# 3 -0.009480 -0.001135 0.023223 0.002462 -0.018561 0.008113
# 4 -0.006160 0.005213 0.002462 0.038463 -0.012255 0.006169
# 5 0.011983 -0.005923 -0.018561 -0.012255 0.057661 -0.021309
# 6 -0.008530 0.005339 0.008113 0.006169 -0.021309 0.045429
#
#
# Mechanical properties :
#
#
# Convention : Reuss Voigt Hill
#
# Bulk Modulus (GPa) = 43.86538 55.99598 49.93068
# Shear Modulus (GPa) = 21.53549 29.59297 25.56423
#
# Velocity S-wave (km/s) = 3.17087 3.71703 3.45476
# Velocity P-wave (km/s) = 5.82114 6.67570 6.26301
#
# Compressibility (1/GPa) = 0.02279702
#
# Stress axis : x y z
#
# Youngs Moduli (GPa) = 75.00380 61.14735 43.06044
#
# Poissons Ratio (x) = 0.27157 0.40823
# Poissons Ratio (y) = 0.33312 0.04886
# Poissons Ratio (z) = 0.71107 0.06938
#
# Static dielectric constant tensor:
#      x y z
#    x 3.978290 0.137420 -0.056040 
#    y 0.137420 4.160900 0.432390 
#    z -0.056040 0.432390 4.193350 
# 
# 
# High freq. dielectric constant tensor:
#      x y z
#    x 1.845520 0.013500 0.002390 
#    y 0.013500 1.821680 0.002980 
#    z 0.002390 0.002980 1.848240 
# 
# From -- ./inp_files/532128.got.cif
#   From: 2010.06.25/outbox.cif.g09.slc.cpg/sg2_267_cif.got.tgz:532128.got - 2010.06.27 13:26:56.
