data_PCOD8004186
_publ_section_title
;
Structure prediction by ZEFSAII (Michael W. Deem and Ramdas Pophale) SiO2 
 PCOD8004186
Probable space group: P -1
;
_chemical_formula_sum "Si O2"
_cell_formula_units_Z 16
_cell_length_a 8.807640
_cell_length_b 9.561785
_cell_length_c 11.250467
_cell_angle_alpha 115.559048
_cell_angle_beta 85.434930
_cell_angle_gamma 106.466032
_cell_volume 818.704365
_symmetry_space_group_name_H-M "P -1"
_symmetry_group_IT_number 2
_symmetry_cell_setting 'triclinic'
loop_
_space_group_symop_operation_xyz
x,y,z
-x,-y,-z
loop_
_atom_site_type_symbol
_atom_site_label
_atom_site_fract_x
_atom_site_fract_y
_atom_site_fract_z
Si Si1 0.868199 0.354485 0.506827
Si Si2 0.091560 0.152013 0.478331
Si Si3 0.292118 0.169983 0.253049
Si Si4 0.658138 0.968607 0.030799
Si Si5 0.321791 0.404759 0.728687
Si Si6 0.657497 0.262263 0.266521
Si Si7 0.310103 0.495533 0.259357
Si Si8 0.658512 0.641694 0.030178
O O1 0.722701 0.312542 0.410577
O O2 0.800480 0.393241 0.652533
O O3 0.000000 0.500000 0.500000
O O4 0.946000 0.210903 0.462190
O O5 0.182169 0.093937 0.342618
O O6 0.218443 0.283293 0.595414
O O7 0.000000 0.000000 0.500000
O O8 0.235185 0.061087 0.097955
O O9 0.473347 0.175393 0.267542
O O10 0.282072 0.352027 0.304405
O O11 0.623031 0.811277 0.061053
O O12 0.500000 0.000000 0.000000
O O13 0.742307 0.131814 0.158219
O O14 0.313178 0.585892 0.768863
O O15 0.505078 0.401633 0.712504
O O16 0.251913 0.348022 0.844584
O O17 0.249585 0.417349 0.105658
O O18 0.500000 0.500000 0.000000
#
# Coordination Sequence:
#
# PCOD8004186 Si02
#       8
#     2   2   2   2   2   2   2   2
#     4  12  22  39  60  82 114 153 200 236 272 345
#     4  12  26  41  54  82 123 154 187 238 296 335
#     4   9  18  39  62  84 114 149 191 236 280 337
#     4   9  18  34  61  89 112 145 195 240 275 332
#     4  10  20  39  62  86 117 150 186 239 292 336
#     4  10  20  37  65  89 108 149 200 237 276 337
#     4   9  18  37  65  87 105 151 199 230 277 340
#     4   9  18  34  59  88 120 145 181 240 292 334
#
# _framework density 19.543073
#
# number of rings (size 3 to 8) (size 9 to 14) (size 15 to 20)
#    0.000    2.000    2.500    3.000    1.750    2.000 
#   11.250    3.750    0.000    0.000    0.000    0.000 
#    0.000    0.000    0.000    0.000    0.000    0.000 
#
# Total GULP energy -198288.724139 kJ/mol
# GULP energy per Si atom -12393.045259 kJ/mol
# Density = 1.949859 g / cm^3
# Si number density = 19.543073 Si / 1000 Ang^3
#
#
#
# Elastic Constant Matrix: (Units=GPa)
#
#
# Indices 1 2 3 4 5 6 
#
# 1 55.7702 30.6145 40.1783 -5.9150 -15.3695 -3.9343
# 2 30.6145 128.0094 53.1666 -7.4460 -16.5037 -2.5084
# 3 40.1783 53.1666 136.0100 -8.9509 -23.5559 -0.8351
# 4 -5.9150 -7.4460 -8.9509 34.8941 -2.4348 1.6692
# 5 -15.3695 -16.5037 -23.5559 -2.4348 17.0287 -3.5697
# 6 -3.9343 -2.5084 -0.8351 1.6692 -3.5697 28.1113
#
#
#
# Elastic Compliance Matrix: (Units=1/GPa)
#
#
# Indices 1 2 3 4 5 6 
#
# 1 0.028243 -0.002270 -0.003634 0.004493 0.020152 0.005934
# 2 -0.002270 0.010053 -0.002301 0.001465 0.004942 0.001052
# 3 -0.003634 -0.002301 0.011355 0.002515 0.010733 0.000837
# 4 0.004493 0.001465 0.002515 0.031291 0.013575 0.000700
# 5 0.020152 0.004942 0.010733 0.013575 0.101781 0.015699
# 6 0.005934 0.001052 0.000837 0.000700 0.015699 0.038474
#
#
# Mechanical properties :
#
#
# Convention : Reuss Voigt Hill
#
# Bulk Modulus (GPa) = 30.08138 63.07870 46.58004
# Shear Modulus (GPa) = 20.10565 29.06215 24.58390
#
# Velocity S-wave (km/s) = 3.21095 3.86045 3.55058
# Velocity P-wave (km/s) = 5.40118 7.22618 6.37928
#
# Compressibility (1/GPa) = 0.03324315
#
# Stress axis : x y z
#
# Youngs Moduli (GPa) = 35.40669 99.47047 88.07047
#
# Poissons Ratio (x) = 0.22576 0.32003
# Poissons Ratio (y) = 0.08036 0.20261
# Poissons Ratio (z) = 0.12866 0.22883
#
# Static dielectric constant tensor:
#      x y z
#    x 3.278430 -0.083290 0.040360 
#    y -0.083290 3.719260 -0.066130 
#    z 0.040360 -0.066130 4.055420 
# 
# 
# High freq. dielectric constant tensor:
#      x y z
#    x 1.730810 -0.007140 0.000750 
#    y -0.007140 1.754870 -0.001960 
#    z 0.000750 -0.001960 1.780630 
# 
# From -- ./inp_files/180208.got.cif
#   From: 2010.06.25/outbox.cif.g09.slc.cpg/sg2_91_cif.got.tgz:180208.got - 2010.06.27 13:26:56.
