data_PCOD8004028
_publ_section_title
;
Structure prediction by ZEFSAII (Michael W. Deem and Ramdas Pophale) SiO2 
 PCOD8004028
Probable space group: P -1
;
_chemical_formula_sum "Si O2"
_cell_formula_units_Z 16
_cell_length_a 15.612402
_cell_length_b 15.967621
_cell_length_c 12.428013
_cell_angle_alpha 120.477740
_cell_angle_beta 149.781958
_cell_angle_gamma 37.888651
_cell_volume 789.847618
_symmetry_space_group_name_H-M "P -1"
_symmetry_group_IT_number 2
_symmetry_cell_setting 'triclinic'
loop_
_space_group_symop_operation_xyz
x,y,z
-x,-y,-z
loop_
_atom_site_type_symbol
_atom_site_label
_atom_site_fract_x
_atom_site_fract_y
_atom_site_fract_z
Si Si1 0.101744 0.190897 0.083355
Si Si2 0.094593 0.838929 0.777007
Si Si3 0.437606 0.607730 0.802185
Si Si4 0.544272 0.631914 0.312378
Si Si5 0.739724 0.870471 0.547021
Si Si6 0.956762 0.571961 0.610462
Si Si7 0.706458 0.200876 0.621221
Si Si8 0.410891 0.451209 0.300289
O O1 0.124176 0.152154 0.208583
O O2 0.423421 0.061162 0.303534
O O3 0.951122 0.169861 0.847249
O O4 0.918318 0.375389 0.985485
O O5 0.209551 0.768918 0.735285
O O6 0.955135 0.802084 0.641078
O O7 0.350267 0.752803 0.078390
O O8 0.840904 0.035047 0.632837
O O9 0.425980 0.497799 0.738228
O O10 0.371510 0.657341 0.636886
O O11 0.754146 0.504529 0.096295
O O12 0.416095 0.735049 0.349756
O O13 0.854798 0.540837 0.569523
O O14 0.708756 0.768447 0.454076
O O15 0.000000 0.500000 0.500000
O O16 0.448502 0.338673 0.343227
O O17 0.500000 0.500000 0.500000
#
# Coordination Sequence:
#
# PCOD8004028 Si02
#       8
#     2   2   2   2   2   2   2   2
#     4  10  20  37  63  89 124 168 210 263 312 374
#     4  12  23  37  62  96 135 158 210 272 323 372
#     4  12  23  44  64  94 133 171 209 266 321 384
#     4  12  22  40  67  96 129 168 220 257 323 384
#     4  11  22  37  61  96 131 160 203 270 329 363
#     4  12  23  37  63  98 131 169 201 261 331 384
#     4  11  23  39  64  95 123 174 219 259 308 387
#     4  10  20  44  69  84 124 181 217 253 322 374
#
# _framework density 20.257071
#
# number of rings (size 3 to 8) (size 9 to 14) (size 15 to 20)
#    0.000    0.750    7.500    2.250    3.500    0.500 
#    0.000    2.500    0.000    3.000    0.000    0.000 
#    0.000    0.000    0.000    0.000    0.000    0.000 
#
# Total GULP energy -198329.386154 kJ/mol
# GULP energy per Si atom -12395.586635 kJ/mol
# Density = 2.021097 g / cm^3
# Si number density = 20.257071 Si / 1000 Ang^3
#
#
#
# Elastic Constant Matrix: (Units=GPa)
#
#
# Indices 1 2 3 4 5 6 
#
# 1 125.9224 57.9429 44.4417 5.2142 -0.7450 -23.9189
# 2 57.9429 118.9642 33.7269 4.9385 -0.2147 -15.6956
# 3 44.4417 33.7269 65.1057 -5.0417 5.9106 -0.4196
# 4 5.2142 4.9385 -5.0417 26.5396 4.7610 2.4102
# 5 -0.7450 -0.2147 5.9106 4.7610 35.4200 5.3997
# 6 -23.9189 -15.6956 -0.4196 2.4102 5.3997 41.5144
#
#
#
# Elastic Compliance Matrix: (Units=1/GPa)
#
#
# Indices 1 2 3 4 5 6 
#
# 1 0.013810 -0.003359 -0.008097 -0.004450 0.001197 0.006708
# 2 -0.003359 0.011600 -0.003958 -0.002589 0.000630 0.002478
# 3 -0.008097 -0.003958 0.023933 0.008192 -0.004402 -0.005823
# 4 -0.004450 -0.002589 0.008192 0.042197 -0.006374 -0.005081
# 5 0.001197 0.000630 -0.004402 -0.006374 0.030262 -0.002683
# 6 0.006708 0.002478 -0.005823 -0.005081 -0.002683 0.029475
#
#
# Mechanical properties :
#
#
# Convention : Reuss Voigt Hill
#
# Bulk Modulus (GPa) = 54.00805 64.69060 59.34932
# Shear Modulus (GPa) = 26.55679 32.28685 29.42182
#
# Velocity S-wave (km/s) = 3.62469 3.99664 3.81520
# Velocity P-wave (km/s) = 6.65109 7.30080 6.98351
#
# Compressibility (1/GPa) = 0.01851576
#
# Stress axis : x y z
#
# Youngs Moduli (GPa) = 72.41039 86.21011 41.78267
#
# Poissons Ratio (x) = 0.28958 0.33831
# Poissons Ratio (y) = 0.24323 0.16537
# Poissons Ratio (z) = 0.58630 0.34120
#
# Static dielectric constant tensor:
#      x y z
#    x 3.819640 -0.024090 -0.197170 
#    y -0.024090 3.849310 -0.021070 
#    z -0.197170 -0.021070 4.064190 
# 
# 
# High freq. dielectric constant tensor:
#      x y z
#    x 1.789810 -0.008400 0.005290 
#    y -0.008400 1.793070 0.003910 
#    z 0.005290 0.003910 1.773140 
# 
# From -- ./inp_files/423723.got.cif
#   From: 2010.06.25/outbox.cif.g09.slc.cpg/sg2_212_cif.got.tgz:423723.got - 2010.06.27 13:26:56.
