data_PCOD8004814
_publ_section_title
;
Structure prediction by ZEFSAII (Michael W. Deem and Ramdas Pophale) SiO2 
 PCOD8004814
Probable space group: P -1
;
_chemical_formula_sum "Si O2"
_cell_formula_units_Z 16
_cell_length_a 12.834609
_cell_length_b 15.405047
_cell_length_c 15.310873
_cell_angle_alpha 145.114503
_cell_angle_beta 29.155039
_cell_angle_gamma 126.097351
_cell_volume 750.450638
_symmetry_space_group_name_H-M "P -1"
_symmetry_group_IT_number 2
_symmetry_cell_setting 'triclinic'
loop_
_space_group_symop_operation_xyz
x,y,z
-x,-y,-z
loop_
_atom_site_type_symbol
_atom_site_label
_atom_site_fract_x
_atom_site_fract_y
_atom_site_fract_z
Si Si1 0.404931 0.023833 0.791120
Si Si2 0.303436 0.258885 0.372921
Si Si3 0.580421 0.324651 0.549119
Si Si4 0.941861 0.837577 0.201936
Si Si5 0.396634 0.570418 0.729566
Si Si6 0.860302 0.577897 0.938842
Si Si7 0.721831 0.001651 0.951796
Si Si8 0.957453 0.622820 0.714727
O O1 0.344525 0.874936 0.678610
O O2 0.690363 0.962329 0.534136
O O3 0.287477 0.083572 0.021257
O O4 0.276409 0.194063 0.968615
O O5 0.459578 0.327147 0.256036
O O6 0.233068 0.130981 0.267594
O O7 0.057915 0.416629 0.714577
O O8 0.464893 0.168015 0.264238
O O9 0.444733 0.418803 0.636864
O O10 0.399481 0.401301 0.826568
O O11 0.810049 0.349131 0.421424
O O12 0.890203 0.744046 0.080702
O O13 0.062011 0.948332 0.165458
O O14 0.113482 0.701613 0.036361
O O15 0.500000 0.500000 0.500000
O O16 0.909310 0.539148 0.767902
O O17 0.000000 0.500000 0.500000
#
# Coordination Sequence:
#
# PCOD8004814 Si02
#       8
#     2   2   2   2   2   2   2   2
#     4  11  25  40  66  94 128 166 217 261 317 386
#     4  10  20  38  62  90 131 168 207 260 315 379
#     4  11  25  40  68  98 122 173 215 267 321 370
#     4  10  23  39  65 100 127 168 204 265 322 379
#     4  11  19  39  69  95 138 167 208 258 321 389
#     4  11  23  41  66  96 124 166 220 263 312 391
#     4  10  22  39  59  92 130 169 204 260 321 374
#     4  12  26  46  66  87 131 175 218 268 319 375
#
# _framework density 21.320523000000001
#
# number of rings (size 3 to 8) (size 9 to 14) (size 15 to 20)
#    0.000    1.250    2.500    3.375    1.750    5.500 
#    0.000    1.875    0.000    0.000    0.000    0.000 
#    0.000    0.000    0.000    0.000    0.000    0.000 
#
# Total GULP energy -198405.809393 kJ/mol
# GULP energy per Si atom -12400.363087 kJ/mol
# Density = 2.127200 g / cm^3
# Si number density = 21.320523 Si / 1000 Ang^3
#
#
#
# Elastic Constant Matrix: (Units=GPa)
#
#
# Indices 1 2 3 4 5 6 
#
# 1 72.0251 30.3408 38.7895 -12.0023 2.3332 3.0472
# 2 30.3408 69.9093 50.4675 -3.2228 -1.2656 -4.2264
# 3 38.7895 50.4675 127.4348 -11.2594 -18.0547 6.7101
# 4 -12.0023 -3.2228 -11.2594 35.1350 -3.0683 -0.7143
# 5 2.3332 -1.2656 -18.0547 -3.0683 30.5860 -1.6650
# 6 3.0472 -4.2264 6.7101 -0.7143 -1.6650 20.0410
#
#
#
# Elastic Compliance Matrix: (Units=1/GPa)
#
#
# Indices 1 2 3 4 5 6 
#
# 1 0.019227 -0.005909 -0.003433 0.004561 -0.003451 -0.003144
# 2 -0.005909 0.023439 -0.008669 -0.002784 -0.003521 0.008352
# 3 -0.003433 -0.008669 0.014043 0.003145 0.008224 -0.005213
# 4 0.004561 -0.002784 0.003145 0.031145 0.004471 -0.000852
# 5 -0.003451 -0.003521 0.008224 0.004471 0.038135 0.000356
# 6 -0.003144 0.008352 -0.005213 -0.000852 0.000356 0.053882
#
#
# Mechanical properties :
#
#
# Convention : Reuss Voigt Hill
#
# Bulk Modulus (GPa) = 48.33654 56.50720 52.42187
# Shear Modulus (GPa) = 22.44304 27.13718 24.79011
#
# Velocity S-wave (km/s) = 3.24798 3.57153 3.41359
# Velocity P-wave (km/s) = 6.06518 6.60068 6.33859
#
# Compressibility (1/GPa) = 0.02068828
#
# Stress axis : x y z
#
# Youngs Moduli (GPa) = 52.01126 42.66331 71.21201
#
# Poissons Ratio (x) = 0.25208 0.24446
# Poissons Ratio (y) = 0.30731 0.61732
# Poissons Ratio (z) = 0.17855 0.36984
#
# Static dielectric constant tensor:
#      x y z
#    x 3.696350 0.051450 -0.144200 
#    y 0.051450 3.960170 0.104950 
#    z -0.144200 0.104950 3.921430 
# 
# 
# High freq. dielectric constant tensor:
#      x y z
#    x 1.823370 0.007750 -0.009200 
#    y 0.007750 1.836670 0.006810 
#    z -0.009200 0.006810 1.841830 
# 
# From -- ./inp_files/522469.got.cif
#   From: 2010.06.25/outbox.cif.g09.slc.cpg/sg2_262_cif.got.tgz:522469.got - 2010.06.27 13:26:56.
