data_PCOD8004080
_publ_section_title
;
Structure prediction by ZEFSAII (Michael W. Deem and Ramdas Pophale) SiO2 
 PCOD8004080
Probable space group: P -1
;
_chemical_formula_sum "Si O2"
_cell_formula_units_Z 16
_cell_length_a 11.208471
_cell_length_b 11.696166
_cell_length_c 8.745181
_cell_angle_alpha 131.421931
_cell_angle_beta 95.896708
_cell_angle_gamma 112.987194
_cell_volume 674.498733
_symmetry_space_group_name_H-M "P -1"
_symmetry_group_IT_number 2
_symmetry_cell_setting 'triclinic'
loop_
_space_group_symop_operation_xyz
x,y,z
-x,-y,-z
loop_
_atom_site_type_symbol
_atom_site_label
_atom_site_fract_x
_atom_site_fract_y
_atom_site_fract_z
Si Si1 0.428058 0.564678 0.930339
Si Si2 0.663934 0.179838 0.127753
Si Si3 0.692599 0.720082 0.898347
Si Si4 0.376439 0.964066 0.330403
Si Si5 0.635563 0.357935 0.711533
Si Si6 0.243747 0.406851 0.491550
Si Si7 0.873144 0.303239 0.725379
Si Si8 0.907480 0.156545 0.302492
O O1 0.551409 0.707024 0.939635
O O2 0.285952 0.393877 0.660436
O O3 0.500000 0.500000 0.000000
O O4 0.372932 0.658638 0.115970
O O5 0.698640 0.379695 0.360765
O O6 0.790537 0.164110 0.194920
O O7 0.500000 0.000000 0.000000
O O8 0.664382 0.177609 0.941610
O O9 0.703495 0.572834 0.864736
O O10 0.676193 0.656548 0.663058
O O11 0.842833 0.937408 0.130158
O O12 0.463344 0.185947 0.474383
O O13 0.500000 0.000000 0.500000
O O14 0.219257 0.874232 0.321574
O O15 0.753933 0.322514 0.642071
O O16 0.062120 0.261387 0.319832
O O17 0.946336 0.259202 0.563312
O O18 0.000000 0.500000 0.000000
#
# Coordination Sequence:
#
# PCOD8004080 Si02
#       8
#     2   2   2   2   2   2   2   2
#     4  10  22  41  66  94 124 167 219 268 319 382
#     4  12  24  41  69  99 129 170 221 274 324 386
#     4  11  24  43  65  91 129 175 217 263 321 392
#     4  10  20  37  63  94 123 161 211 264 313 370
#     4  10  21  42  66  94 127 165 213 269 322 381
#     4  12  24  44  65  93 133 174 216 270 326 388
#     4  11  22  41  67  96 129 168 211 266 328 388
#     4  12  26  43  64  99 135 172 216 268 329 391
#
# _framework density 23.721319000000001
#
# number of rings (size 3 to 8) (size 9 to 14) (size 15 to 20)
#    0.000    1.000    0.000    8.625    0.000    3.000 
#    0.000    8.125    0.000    0.000    0.000    0.000 
#    0.000    0.000    0.000    0.000    0.000    0.000 
#
# Total GULP energy -198276.439336 kJ/mol
# GULP energy per Si atom -12392.277459 kJ/mol
# Density = 2.366733 g / cm^3
# Si number density = 23.721319 Si / 1000 Ang^3
#
#
#
# Elastic Constant Matrix: (Units=GPa)
#
#
# Indices 1 2 3 4 5 6 
#
# 1 64.2559 23.7094 16.9132 4.5487 12.8515 15.9340
# 2 23.7094 93.8649 41.6722 19.3046 7.7502 7.5439
# 3 16.9132 41.6722 140.0387 8.3876 -3.4490 8.7003
# 4 4.5487 19.3046 8.3876 56.1887 9.6943 -7.0408
# 5 12.8515 7.7502 -3.4490 9.6943 46.0976 -3.5733
# 6 15.9340 7.5439 8.7003 -7.0408 -3.5733 38.4004
#
#
#
# Elastic Compliance Matrix: (Units=1/GPa)
#
#
# Indices 1 2 3 4 5 6 
#
# 1 0.020289 -0.003478 -0.001034 -0.000322 -0.005709 -0.008092
# 2 -0.003478 0.014091 -0.003468 -0.004056 -0.000912 -0.001368
# 3 -0.001034 -0.003468 0.008399 -0.000329 0.001514 -0.000712
# 4 -0.000322 -0.004056 -0.000329 0.020374 -0.003193 0.004444
# 5 -0.005709 -0.000912 0.001514 -0.003193 0.024525 0.003902
# 6 -0.008092 -0.001368 -0.000712 0.004444 0.003902 0.031007
#
#
# Mechanical properties :
#
#
# Convention : Reuss Voigt Hill
#
# Bulk Modulus (GPa) = 37.28548 51.41656 44.35102
# Shear Modulus (GPa) = 34.82282 42.52832 38.67557
#
# Velocity S-wave (km/s) = 3.83560 4.23878 4.04222
# Velocity P-wave (km/s) = 5.94710 6.75860 6.36579
#
# Compressibility (1/GPa) = 0.02682009
#
# Stress axis : x y z
#
# Youngs Moduli (GPa) = 49.28693 70.96725 119.06331
#
# Poissons Ratio (x) = 0.24681 0.12312
# Poissons Ratio (y) = 0.17141 0.41287
# Poissons Ratio (z) = 0.05097 0.24609
#
# Static dielectric constant tensor:
#      x y z
#    x 4.281040 0.332720 -0.305360 
#    y 0.332720 4.624970 0.068060 
#    z -0.305360 0.068060 5.001930 
# 
# 
# High freq. dielectric constant tensor:
#      x y z
#    x 1.922830 0.016380 -0.010920 
#    y 0.016380 1.949730 -0.003400 
#    z -0.010920 -0.003400 1.955220 
# 
# From -- ./inp_files/244030.got.cif
#   From: 2010.06.25/outbox.cif.g09.slc.cpg/sg2_123_cif.got.tgz:244030.got - 2010.06.27 13:26:56.
