data_PCOD8004139
_publ_section_title
;
Structure prediction by ZEFSAII (Michael W. Deem and Ramdas Pophale) SiO2 
 PCOD8004139
Probable space group: P -1
;
_chemical_formula_sum "Si O2"
_cell_formula_units_Z 16
_cell_length_a 12.336646
_cell_length_b 15.909522
_cell_length_c 11.015405
_cell_angle_alpha 59.336197
_cell_angle_beta 78.671704
_cell_angle_gamma 27.717976
_cell_volume 666.438851
_symmetry_space_group_name_H-M "P -1"
_symmetry_group_IT_number 2
_symmetry_cell_setting 'triclinic'
loop_
_space_group_symop_operation_xyz
x,y,z
-x,-y,-z
loop_
_atom_site_type_symbol
_atom_site_label
_atom_site_fract_x
_atom_site_fract_y
_atom_site_fract_z
Si Si1 0.204882 0.500753 0.949618
Si Si2 0.167779 0.747913 0.263023
Si Si3 0.728121 0.032352 0.341253
Si Si4 0.371992 0.383731 0.388758
Si Si5 0.844111 0.737219 0.643104
Si Si6 0.872206 0.651200 0.295448
Si Si7 0.337224 0.974253 0.203155
Si Si8 0.630177 0.216800 0.861133
O O1 0.373507 0.428780 0.865259
O O2 0.940216 0.659387 0.820948
O O3 0.455750 0.227544 0.163275
O O4 0.024919 0.713390 0.933696
O O5 0.376425 0.482539 0.384877
O O6 0.378756 0.670404 0.287995
O O7 0.973047 0.897621 0.318335
O O8 0.959689 0.930865 0.055905
O O9 0.571576 0.224668 0.339956
O O10 0.908367 0.788329 0.525418
O O11 0.535451 0.167642 0.592018
O O12 0.017753 0.640068 0.254420
O O13 0.030425 0.494967 0.729864
O O14 0.500000 0.000000 0.500000
O O15 0.504773 0.941671 0.162901
O O16 0.000000 0.500000 0.500000
O O17 0.425682 0.824355 0.190483
#
# Coordination Sequence:
#
# PCOD8004139 Si02
#       8
#     2   2   2   2   2   2   2   2
#     4  11  24  41  67  96 130 173 215 268 324 388
#     4  10  24  43  67  92 128 173 219 274 325 381
#     4  11  23  42  66  94 131 172 218 263 327 386
#     4  11  22  41  63  95 132 168 216 267 321 388
#     4  12  21  42  64  93 137 168 213 266 316 384
#     4  10  20  37  64  92 130 176 204 265 327 374
#     4  11  21  40  66  94 134 167 216 268 321 387
#     4  10  23  45  65  93 130 169 220 277 323 378
#
# _framework density 24.008205
#
# number of rings (size 3 to 8) (size 9 to 14) (size 15 to 20)
#    0.000    1.250    3.750    3.000    0.000    2.000 
#    0.000    8.750    0.000    0.000    0.000    0.000 
#    0.000    0.000    0.000    0.000    0.000    0.000 
#
# Total GULP energy -198310.006134 kJ/mol
# GULP energy per Si atom -12394.375383 kJ/mol
# Density = 2.395356 g / cm^3
# Si number density = 24.008205 Si / 1000 Ang^3
#
#
#
# Elastic Constant Matrix: (Units=GPa)
#
#
# Indices 1 2 3 4 5 6 
#
# 1 74.0829 19.8014 0.0808 6.4490 -0.4651 9.3204
# 2 19.8014 128.5706 5.2881 6.7203 -5.0261 2.5131
# 3 0.0808 5.2881 47.6039 -0.1661 1.9409 5.7444
# 4 6.4490 6.7203 -0.1661 32.2100 -2.0151 -0.6093
# 5 -0.4651 -5.0261 1.9409 -2.0151 29.5652 -1.5273
# 6 9.3204 2.5131 5.7444 -0.6093 -1.5273 22.2629
#
#
#
# Elastic Compliance Matrix: (Units=1/GPa)
#
#
# Indices 1 2 3 4 5 6 
#
# 1 0.015115 -0.002127 0.001011 -0.002744 -0.000712 -0.006472
# 2 -0.002127 0.008258 -0.001007 -0.001211 0.001368 0.000279
# 3 0.001011 -0.001007 0.021931 -0.000115 -0.001918 -0.006103
# 4 -0.002744 -0.001211 -0.000115 0.032021 0.002061 0.002333
# 5 -0.000712 0.001368 -0.001918 0.002061 0.034469 0.003059
# 6 -0.006472 0.000279 -0.006103 0.002333 0.003059 0.049444
#
#
# Mechanical properties :
#
#
# Convention : Reuss Voigt Hill
#
# Bulk Modulus (GPa) = 24.35650 33.39976 28.87813
# Shear Modulus (GPa) = 27.90622 31.81344 29.85983
#
# Velocity S-wave (km/s) = 3.41304 3.64415 3.53049
# Velocity P-wave (km/s) = 5.06941 5.62570 5.35478
#
# Compressibility (1/GPa) = 0.04105680
#
# Stress axis : x y z
#
# Youngs Moduli (GPa) = 66.16122 121.09100 45.59720
#
# Poissons Ratio (x) = 0.25760 -0.04610
# Poissons Ratio (y) = 0.14074 0.04594
# Poissons Ratio (z) = -0.06690 0.12199
#
# Static dielectric constant tensor:
#      x y z
#    x 4.388150 -0.247670 0.136300 
#    y -0.247670 4.116690 0.281750 
#    z 0.136300 0.281750 4.327530 
# 
# 
# High freq. dielectric constant tensor:
#      x y z
#    x 1.928380 -0.007210 0.013980 
#    y -0.007210 1.964150 0.008290 
#    z 0.013980 0.008290 1.956560 
# 
# From -- ./inp_files/272266.got.cif
#   From: 2010.06.25/outbox.cif.g09.slc.cpg/sg2_137_cif.got.tgz:272266.got - 2010.06.27 13:26:56.
