data_PCOD8004787
_publ_section_title
;
Structure prediction by ZEFSAII (Michael W. Deem and Ramdas Pophale) SiO2 
 PCOD8004787
Probable space group: P -1
;
_chemical_formula_sum "Si O2"
_cell_formula_units_Z 16
_cell_length_a 11.916813
_cell_length_b 10.769945
_cell_length_c 8.944040
_cell_angle_alpha 69.635312
_cell_angle_beta 109.696829
_cell_angle_gamma 63.008813
_cell_volume 772.479254
_symmetry_space_group_name_H-M "P -1"
_symmetry_group_IT_number 2
_symmetry_cell_setting 'triclinic'
loop_
_space_group_symop_operation_xyz
x,y,z
-x,-y,-z
loop_
_atom_site_type_symbol
_atom_site_label
_atom_site_fract_x
_atom_site_fract_y
_atom_site_fract_z
Si Si1 0.660180 0.811935 0.177480
Si Si2 0.030473 0.330445 0.525202
Si Si3 0.617596 0.626963 0.483694
Si Si4 0.279556 0.615814 0.610638
Si Si5 0.159985 0.523667 0.116154
Si Si6 0.626749 0.166458 0.448672
Si Si7 0.369702 0.382084 0.002058
Si Si8 0.860052 0.757003 0.722134
O O1 0.799904 0.820765 0.257304
O O2 0.650898 0.737258 0.359778
O O3 0.691132 0.694205 0.098978
O O4 0.500000 0.000000 0.000000
O O5 0.044408 0.309823 0.361537
O O6 0.000000 0.500000 0.500000
O O7 0.890951 0.331405 0.508916
O O8 0.595788 0.522218 0.401728
O O9 0.770586 0.461007 0.710616
O O10 0.476062 0.752379 0.481609
O O11 0.258903 0.788586 0.522664
O O12 0.373437 0.510518 0.847786
O O13 0.240620 0.515490 0.006821
O O14 0.215276 0.331260 0.247225
O O15 0.977872 0.687022 0.946328
O O16 0.529809 0.232152 0.222606
O O17 0.728782 0.961892 0.586798
#
# Coordination Sequence:
#
# PCOD8004787 Si02
#       8
#     2   2   2   2   2   2   2   2
#     4  11  22  37  63  98 124 153 208 270 320 360
#     4  12  20  41  67  91 123 163 212 259 314 369
#     4  10  22  41  64  89 124 172 209 258 313 374
#     4  11  22  43  66  91 128 173 215 248 314 385
#     4  10  20  38  62  88 125 160 211 259 318 369
#     4  11  25  40  64  94 133 168 210 257 312 381
#     4  10  21  38  64  92 121 169 206 260 312 372
#     4  11  22  37  61  96 125 164 209 265 317 367
#
# _framework density 20.712530999999998
#
# number of rings (size 3 to 8) (size 9 to 14) (size 15 to 20)
#    0.000    1.250    5.000    1.500    1.750    2.500 
#    0.000    0.625    2.750    0.000    0.000    0.000 
#    0.000    0.000    0.000    0.000    0.000    0.000 
#
# Total GULP energy -198219.511861 kJ/mol
# GULP energy per Si atom -12388.719491 kJ/mol
# Density = 2.066539 g / cm^3
# Si number density = 20.712531 Si / 1000 Ang^3
#
#
#
# Elastic Constant Matrix: (Units=GPa)
#
#
# Indices 1 2 3 4 5 6 
#
# 1 79.8509 26.6885 44.3757 8.5297 10.1609 1.1191
# 2 26.6885 58.9387 39.8130 1.2938 -5.8256 -10.4002
# 3 44.3757 39.8130 130.2806 -1.2907 5.5422 -8.8428
# 4 8.5297 1.2938 -1.2907 37.5412 -8.6824 -5.0884
# 5 10.1609 -5.8256 5.5422 -8.6824 28.1966 3.6266
# 6 1.1191 -10.4002 -8.8428 -5.0884 3.6266 24.9510
#
#
#
# Elastic Compliance Matrix: (Units=1/GPa)
#
#
# Indices 1 2 3 4 5 6 
#
# 1 0.019558 -0.007664 -0.004388 -0.007253 -0.009261 -0.005760
# 2 -0.007664 0.026358 -0.005193 0.004023 0.009315 0.008956
# 3 -0.004388 -0.005193 0.011004 0.001542 -0.001496 0.002464
# 4 -0.007253 0.004023 0.001542 0.031978 0.012047 0.007319
# 5 -0.009261 0.009315 -0.001496 0.012047 0.044767 -0.000282
# 6 -0.005760 0.008956 0.002464 0.007319 -0.000282 0.046477
#
#
# Mechanical properties :
#
#
# Convention : Reuss Voigt Hill
#
# Bulk Modulus (GPa) = 44.58656 54.53607 49.56131
# Shear Modulus (GPa) = 22.51158 28.68397 25.59778
#
# Velocity S-wave (km/s) = 3.30033 3.72541 3.51929
# Velocity P-wave (km/s) = 6.00800 6.70015 6.36349
#
# Compressibility (1/GPa) = 0.02242828
#
# Stress axis : x y z
#
# Youngs Moduli (GPa) = 51.13080 37.93948 90.88002
#
# Poissons Ratio (x) = 0.29078 0.39881
# Poissons Ratio (y) = 0.39188 0.47191
# Poissons Ratio (z) = 0.22438 0.19701
#
# Static dielectric constant tensor:
#      x y z
#    x 3.749760 -0.071270 0.125550 
#    y -0.071270 3.639870 0.246530 
#    z 0.125550 0.246530 4.191680 
# 
# 
# High freq. dielectric constant tensor:
#      x y z
#    x 1.797710 -0.014420 0.003980 
#    y -0.014420 1.795330 0.020290 
#    z 0.003980 0.020290 1.829070 
# 
# From -- ./inp_files/244516.got.cif
#   From: 2010.06.25/outbox.cif.g09.slc.cpg/sg2_123_cif.got.tgz:244516.got - 2010.06.27 13:26:56.
