data_PCOD8004546
_publ_section_title
;
Structure prediction by ZEFSAII (Michael W. Deem and Ramdas Pophale) SiO2 
 PCOD8004546
Probable space group: P -1
;
_chemical_formula_sum "Si O2"
_cell_formula_units_Z 16
_cell_length_a 10.173825
_cell_length_b 11.449961
_cell_length_c 16.828663
_cell_angle_alpha 33.259415
_cell_angle_beta 128.856527
_cell_angle_gamma 118.967260
_cell_volume 833.486737
_symmetry_space_group_name_H-M "P -1"
_symmetry_group_IT_number 2
_symmetry_cell_setting 'triclinic'
loop_
_space_group_symop_operation_xyz
x,y,z
-x,-y,-z
loop_
_atom_site_type_symbol
_atom_site_label
_atom_site_fract_x
_atom_site_fract_y
_atom_site_fract_z
Si Si1 0.245135 0.998005 0.862181
Si Si2 0.138621 0.258102 0.352998
Si Si3 0.481736 0.299904 0.363409
Si Si4 0.994674 0.354535 0.002216
Si Si5 0.585946 0.742980 0.108257
Si Si6 0.353593 0.105029 0.274544
Si Si7 0.491980 0.726738 0.910019
Si Si8 0.152457 0.008770 0.652238
O O1 0.246333 0.172351 0.834955
O O2 0.154256 0.101348 0.689786
O O3 0.163855 0.784241 0.977947
O O4 0.438539 0.934334 0.948149
O O5 0.309380 0.266253 0.363304
O O6 0.179306 0.203169 0.491655
O O7 0.028928 0.487514 0.172503
O O8 0.032464 0.072759 0.383106
O O9 0.538281 0.536596 0.256841
O O10 0.455581 0.251980 0.287717
O O11 0.631394 0.137365 0.549328
O O12 0.158962 0.192419 0.146856
O O13 0.000000 0.500000 0.000000
O O14 0.612006 0.698013 0.049945
O O15 0.433831 0.105633 0.216979
O O16 0.297570 0.810271 0.809614
O O17 0.500000 0.500000 0.000000
#
# Coordination Sequence:
#
# PCOD8004546 Si02
#       8
#     2   2   2   2   2   2   2   2
#     4  10  20  38  60  84 118 152 197 237 283 343
#     4  11  20  34  59  85 116 143 193 246 277 334
#     4  11  20  37  55  87 117 149 194 234 292 341
#     4  12  20  37  61  87 111 152 198 238 284 338
#     4  10  21  37  60  85 115 157 193 235 288 349
#     4  11  22  34  58  86 116 151 188 246 288 335
#     4  11  20  35  55  87 120 150 189 241 293 337
#     4  10  21  35  55  89 117 149 192 242 289 333
#
# _framework density 19.196467999999999
#
# number of rings (size 3 to 8) (size 9 to 14) (size 15 to 20)
#    0.000    1.250    6.250    0.750    0.000    0.000 
#    0.000    3.125    0.000    0.000    0.000    0.000 
#    0.000    0.000    0.000    0.000    0.000    0.000 
#
# Total GULP energy -198362.415240 kJ/mol
# GULP energy per Si atom -12397.650952 kJ/mol
# Density = 1.915278 g / cm^3
# Si number density = 19.196468 Si / 1000 Ang^3
#
#
#
# Elastic Constant Matrix: (Units=GPa)
#
#
# Indices 1 2 3 4 5 6 
#
# 1 58.1623 32.6477 28.2844 3.1434 -14.2027 -1.4925
# 2 32.6477 127.1436 46.0166 0.7207 -25.4219 -12.6671
# 3 28.2844 46.0166 122.9187 12.4537 -18.2758 -7.8380
# 4 3.1434 0.7207 12.4537 21.7357 1.9599 -5.2894
# 5 -14.2027 -25.4219 -18.2758 1.9599 39.6718 4.9238
# 6 -1.4925 -12.6671 -7.8380 -5.2894 4.9238 23.8250
#
#
#
# Elastic Compliance Matrix: (Units=1/GPa)
#
#
# Indices 1 2 3 4 5 6 
#
# 1 0.021987 -0.004026 -0.002819 -0.002619 0.004520 -0.003206
# 2 -0.004026 0.011028 -0.002608 0.002476 0.003739 0.004530
# 3 -0.002819 -0.002608 0.010740 -0.005853 0.002538 0.000146
# 4 -0.002619 0.002476 -0.005853 0.053216 -0.006206 0.012324
# 5 0.004520 0.003739 0.002538 -0.006206 0.031285 -0.004737
# 6 -0.003206 0.004530 0.000146 0.012324 -0.004737 0.047943
#
#
# Mechanical properties :
#
#
# Convention : Reuss Voigt Hill
#
# Bulk Modulus (GPa) = 40.24424 58.01358 49.12891
# Shear Modulus (GPa) = 24.58337 30.46490 27.52413
#
# Velocity S-wave (km/s) = 3.58246 3.98805 3.79068
# Velocity P-wave (km/s) = 6.17429 7.17583 6.69382
#
# Compressibility (1/GPa) = 0.02484828
#
# Stress axis : x y z
#
# Youngs Moduli (GPa) = 45.48077 90.67955 93.10795
#
# Poissons Ratio (x) = 0.36511 0.26249
# Poissons Ratio (y) = 0.18312 0.24283
# Poissons Ratio (z) = 0.12822 0.23649
#
# Static dielectric constant tensor:
#      x y z
#    x 3.497240 -0.093170 -0.213470 
#    y -0.093170 3.523330 0.255870 
#    z -0.213470 0.255870 3.887790 
# 
# 
# High freq. dielectric constant tensor:
#      x y z
#    x 1.732330 0.005810 -0.015490 
#    y 0.005810 1.719600 0.011860 
#    z -0.015490 0.011860 1.759930 
# 
# From -- ./inp_files/559598.got.cif
#   From: 2010.06.25/outbox.cif.g09.slc.cpg/sg2_280_cif.got.tgz:559598.got - 2010.06.27 13:26:56.
