data_PCOD8004350
_publ_section_title
;
Structure prediction by ZEFSAII (Michael W. Deem and Ramdas Pophale) SiO2 
 PCOD8004350
Probable space group: P -1
;
_chemical_formula_sum "Si O2"
_cell_formula_units_Z 12
_cell_length_a 23.029433
_cell_length_b 8.826013
_cell_length_c 9.665879
_cell_angle_alpha 67.257586
_cell_angle_beta 35.289815
_cell_angle_gamma 41.324824
_cell_volume 603.233372
_symmetry_space_group_name_H-M "P -1"
_symmetry_group_IT_number 2
_symmetry_cell_setting 'triclinic'
loop_
_space_group_symop_operation_xyz
x,y,z
-x,-y,-z
loop_
_atom_site_type_symbol
_atom_site_label
_atom_site_fract_x
_atom_site_fract_y
_atom_site_fract_z
Si Si1 0.542425 0.303615 0.598727
Si Si2 0.141223 0.320597 0.907292
Si Si3 0.107853 0.094423 0.257603
Si Si4 0.481600 0.595362 0.850713
Si Si5 0.652864 0.674677 0.371004
Si Si6 0.192823 0.664324 0.088674
O O1 0.500000 0.500000 0.500000
O O2 0.595768 0.319259 0.631890
O O3 0.689210 0.992830 0.367583
O O4 0.372331 0.416031 0.914547
O O5 0.195602 0.432301 0.802874
O O6 0.075844 0.314437 0.173794
O O7 0.000000 0.500000 0.000000
O O8 0.944222 0.287062 0.609500
O O9 0.112079 0.954170 0.173781
O O10 0.282296 0.860639 0.092621
O O11 0.562284 0.669148 0.655154
O O12 0.500000 0.500000 0.000000
O O13 0.500000 0.000000 0.500000
O O14 0.753586 0.440041 0.137540
#
# Coordination Sequence:
#
# PCOD8004350 Si02
#       6
#     2   2   2   2   2   2
#     4  11  18  44  68  85 130 186 214 256 334 399
#     4  12  25  40  64  98 134 170 218 275 336 387
#     4  10  21  42  62  96 131 168 222 274 323 383
#     4  11  23  41  69  96 126 174 230 267 314 400
#     4  12  21  42  67  93 129 179 216 262 337 392
#     4  10  20  37  74  86 121 181 217 262 328 392
#
# _framework density 19.892797999999999
#
# number of rings (size 3 to 8) (size 9 to 14) (size 15 to 20)
#    0.000    1.000    8.333    0.000    0.000    6.000 
#    3.000    4.167    0.000    0.000    0.000    0.000 
#    0.000    0.000    0.000    0.000    0.000    0.000 
#
# Total GULP energy -148735.706346 kJ/mol
# GULP energy per Si atom -12394.642196 kJ/mol
# Density = 1.984752 g / cm^3
# Si number density = 19.892798 Si / 1000 Ang^3
#
#
#
# Elastic Constant Matrix: (Units=GPa)
#
#
# Indices 1 2 3 4 5 6 
#
# 1 136.4316 53.1833 44.4785 -21.1422 -9.2862 -5.4430
# 2 53.1833 88.2526 50.2679 -27.3776 -3.8127 -8.8939
# 3 44.4785 50.2679 133.8408 -26.2200 -11.9379 2.9782
# 4 -21.1422 -27.3776 -26.2200 36.1335 4.3498 1.2505
# 5 -9.2862 -3.8127 -11.9379 4.3498 43.3945 -2.9273
# 6 -5.4430 -8.8939 2.9782 1.2505 -2.9273 30.2241
#
#
#
# Elastic Compliance Matrix: (Units=1/GPa)
#
#
# Indices 1 2 3 4 5 6 
#
# 1 0.009872 -0.004847 -0.001141 0.001101 0.001299 0.000544
# 2 -0.004847 0.019999 -0.004314 0.009142 -0.001049 0.004957
# 3 -0.001141 -0.004314 0.010356 0.003458 0.001712 -0.002472
# 4 0.001101 0.009142 0.003458 0.037939 -0.001758 0.000807
# 5 0.001299 -0.001049 0.001712 -0.001758 0.024023 0.002156
# 6 0.000544 0.004957 -0.002472 0.000807 0.002156 0.035062
#
#
# Mechanical properties :
#
#
# Convention : Reuss Voigt Hill
#
# Bulk Modulus (GPa) = 50.95654 72.70941 61.83297
# Shear Modulus (GPa) = 30.41470 35.99009 33.20240
#
# Velocity S-wave (km/s) = 3.91440 4.25809 4.08985
# Velocity P-wave (km/s) = 6.78978 7.79776 7.31116
#
# Compressibility (1/GPa) = 0.01962457
#
# Stress axis : x y z
#
# Youngs Moduli (GPa) = 101.30034 50.00268 96.56199
#
# Poissons Ratio (x) = 0.24234 0.11017
# Poissons Ratio (y) = 0.49096 0.41652
# Poissons Ratio (z) = 0.11557 0.21569
#
# Static dielectric constant tensor:
#      x y z
#    x 4.237330 0.290450 -0.128650 
#    y 0.290450 3.360530 -0.092350 
#    z -0.128650 -0.092350 4.039620 
# 
# 
# High freq. dielectric constant tensor:
#      x y z
#    x 1.782180 0.019200 -0.007100 
#    y 0.019200 1.744250 -0.007090 
#    z -0.007100 -0.007090 1.794100 
# 
# From -- ./inp_files/151136.got.cif
#   From: 2010.06.25/outbox.cif.g09.slc.cpg/sg2_76_cif.got.tgz:151136.got - 2010.06.27 13:26:56.
