data_PCOD8004768
_publ_section_title
;
Structure prediction by ZEFSAII (Michael W. Deem and Ramdas Pophale) SiO2 
 PCOD8004768
Probable space group: P -1
;
_chemical_formula_sum "Si O2"
_cell_formula_units_Z 12
_cell_length_a 12.979771
_cell_length_b 9.854863
_cell_length_c 7.847184
_cell_angle_alpha 135.530374
_cell_angle_beta 64.907198
_cell_angle_gamma 138.371941
_cell_volume 454.035316
_symmetry_space_group_name_H-M "P -1"
_symmetry_group_IT_number 2
_symmetry_cell_setting 'triclinic'
loop_
_space_group_symop_operation_xyz
x,y,z
-x,-y,-z
loop_
_atom_site_type_symbol
_atom_site_label
_atom_site_fract_x
_atom_site_fract_y
_atom_site_fract_z
Si Si1 0.477057 0.302342 0.159659
Si Si2 0.066570 0.392401 0.580194
Si Si3 0.589318 0.350511 0.461923
Si Si4 0.626576 0.954561 0.351248
Si Si5 0.913483 0.578060 0.784562
Si Si6 0.798335 0.813154 0.266865
O O1 0.457852 0.171819 0.240153
O O2 0.374999 0.378168 0.289806
O O3 0.667806 0.580344 0.282517
O O4 0.433238 0.108995 0.860788
O O5 0.250011 0.564268 0.633970
O O6 0.009475 0.277640 0.322541
O O7 0.035499 0.584380 0.810594
O O8 0.941557 0.109300 0.521436
O O9 0.520489 0.179241 0.533994
O O10 0.752739 0.271529 0.580122
O O11 0.695731 0.822988 0.217245
O O12 0.881619 0.732439 0.046625
#
# Coordination Sequence:
#
# PCOD8004768 Si02
#       6
#     2   2   2   2   2   2
#     4  10  21  38  64  91 118 161 202 242 303 356
#     4  10  21  36  59  89 121 158 200 246 298 355
#     4  10  21  39  63  91 122 156 201 251 296 354
#     4  10  21  40  64  89 120 157 199 248 299 353
#     4  10  21  37  61  90 120 159 201 244 299 357
#     4  10  20  38  62  87 120 160 199 245 300 355
#
# _framework density 26.429659999999998
#
# number of rings (size 3 to 8) (size 9 to 14) (size 15 to 20)
#    0.000    2.000    0.000    4.500    0.000    6.000 
#    0.000    7.500    0.000    2.000    0.000    0.000 
#    0.000    0.000    0.000    0.000    0.000    0.000 
#
# Total GULP energy -148730.730335 kJ/mol
# GULP energy per Si atom -12394.227528 kJ/mol
# Density = 2.636951 g / cm^3
# Si number density = 26.429660 Si / 1000 Ang^3
#
#
#
# Elastic Constant Matrix: (Units=GPa)
#
#
# Indices 1 2 3 4 5 6 
#
# 1 89.4439 21.0065 35.0060 -6.4722 -12.0933 31.3826
# 2 21.0065 59.2981 -1.5883 5.6648 10.9069 13.2017
# 3 35.0060 -1.5883 77.9410 -6.6797 -10.3678 0.4685
# 4 -6.4722 5.6648 -6.6797 25.6528 -1.5118 1.2986
# 5 -12.0933 10.9069 -10.3678 -1.5118 53.7106 -20.2224
# 6 31.3826 13.2017 0.4685 1.2986 -20.2224 42.8263
#
#
#
# Elastic Compliance Matrix: (Units=1/GPa)
#
#
# Indices 1 2 3 4 5 6 
#
# 1 0.021319 -0.004616 -0.009395 0.004617 -0.001588 -0.014986
# 2 -0.004616 0.022205 0.000965 -0.005939 -0.008233 -0.007180
# 3 -0.009395 0.000965 0.017754 0.001870 0.004323 0.008377
# 4 0.004617 -0.005939 0.001870 0.042206 0.003309 -0.001290
# 5 -0.001588 -0.008233 0.004323 0.003309 0.026998 0.016303
# 6 -0.014986 -0.007180 0.008377 -0.001290 0.016303 0.044191
#
#
# Mechanical properties :
#
#
# Convention : Reuss Voigt Hill
#
# Bulk Modulus (GPa) = 28.42013 37.28127 32.85070
# Shear Modulus (GPa) = 23.53015 35.92184 29.72600
#
# Velocity S-wave (km/s) = 2.98702 3.69066 3.35732
# Velocity P-wave (km/s) = 4.76160 5.68311 5.24264
#
# Compressibility (1/GPa) = 0.03518633
#
# Stress axis : x y z
#
# Youngs Moduli (GPa) = 46.90745 45.03423 56.32470
#
# Poissons Ratio (x) = 0.20789 0.52914
# Poissons Ratio (y) = 0.21654 -0.05435
# Poissons Ratio (z) = 0.44067 -0.04345
#
# Static dielectric constant tensor:
#      x y z
#    x 5.028460 -0.123900 -0.418340 
#    y -0.123900 5.184530 -0.141050 
#    z -0.418340 -0.141050 4.258710 
# 
# 
# High freq. dielectric constant tensor:
#      x y z
#    x 2.079290 0.001400 -0.032860 
#    y 0.001400 2.062020 -0.002110 
#    z -0.032860 -0.002110 2.030520 
# 
# From -- ./inp_files/304324.got.cif
#   From: 2010.06.25/outbox.cif.g09.slc.cpg/sg2_153_cif.got.tgz:304324.got - 2010.06.27 13:26:56.
