data_PCOD8004480
_publ_section_title
;
Structure prediction by ZEFSAII (Michael W. Deem and Ramdas Pophale) SiO2 
 PCOD8004480
Probable space group: P -1
;
_chemical_formula_sum "Si O2"
_cell_formula_units_Z 14
_cell_length_a 10.510087
_cell_length_b 9.415201
_cell_length_c 7.430931
_cell_angle_alpha 109.921910
_cell_angle_beta 61.303551
_cell_angle_gamma 96.686581
_cell_volume 605.417444
_symmetry_space_group_name_H-M "P -1"
_symmetry_group_IT_number 2
_symmetry_cell_setting 'triclinic'
loop_
_space_group_symop_operation_xyz
x,y,z
-x,-y,-z
loop_
_atom_site_type_symbol
_atom_site_label
_atom_site_fract_x
_atom_site_fract_y
_atom_site_fract_z
Si Si1 0.538083 0.216016 0.146243
Si Si2 0.832929 0.534271 0.082696
Si Si3 0.680326 0.527207 0.533675
Si Si4 0.773058 0.838456 0.674754
Si Si5 0.353492 0.603861 0.143756
Si Si6 0.185872 0.939883 0.956952
Si Si7 0.888064 0.863662 0.229862
O O1 0.480319 0.384102 0.332792
O O2 0.400852 0.109473 0.186980
O O3 0.609665 0.237515 0.907068
O O4 0.657893 0.146065 0.169784
O O5 0.735845 0.464502 0.277002
O O6 0.780417 0.465169 0.902174
O O7 0.802102 0.715758 0.173857
O O8 0.000000 0.500000 0.000000
O O9 0.789700 0.655120 0.585642
O O10 0.690064 0.388021 0.611156
O O11 0.856475 0.905372 0.476848
O O12 0.837421 0.908645 0.840188
O O13 0.500000 0.500000 0.000000
O O14 0.169314 0.991599 0.784685
O O15 0.060317 0.830713 0.058645
#
# Coordination Sequence:
#
# PCOD8004480 Si02
#       7
#     2   2   2   2   2   2   2
#     4   9  20  36  59  89 113 150 193 234 285 347
#     4  11  22  40  61  85 121 155 193 246 295 346
#     4   8  20  38  57  89 116 148 195 238 293 342
#     4   9  19  38  56  83 114 148 189 238 283 334
#     4  10  20  38  59  86 117 152 192 240 290 346
#     4  11  20  38  59  80 120 151 194 234 286 344
#     4  10  23  37  56  86 112 157 191 236 287 345
#
# _framework density 23.124541000000001
#
# number of rings (size 3 to 8) (size 9 to 14) (size 15 to 20)
#    0.857    1.429    0.000    2.571    0.000    3.429 
#    0.000    5.714    0.000    0.000    0.000    0.000 
#    0.000    0.000    0.000    0.000    0.000    0.000 
#
# Total GULP energy -173494.179755 kJ/mol
# GULP energy per Si atom -12392.441411 kJ/mol
# Density = 2.307191 g / cm^3
# Si number density = 23.124541 Si / 1000 Ang^3
#
#
#
# Elastic Constant Matrix: (Units=GPa)
#
#
# Indices 1 2 3 4 5 6 
#
# 1 108.0163 12.8436 18.6890 -18.8995 1.6521 -0.6209
# 2 12.8436 40.3332 16.3425 -23.2169 -10.1508 5.0691
# 3 18.6890 16.3425 79.7143 -33.0493 -16.1171 -8.9555
# 4 -18.8995 -23.2169 -33.0493 37.0790 10.2636 -0.2833
# 5 1.6521 -10.1508 -16.1171 10.2636 14.1029 -6.4703
# 6 -0.6209 5.0691 -8.9555 -0.2833 -6.4703 27.2915
#
#
#
# Elastic Compliance Matrix: (Units=1/GPa)
#
#
# Indices 1 2 3 4 5 6 
#
# 1 0.010929 -0.001835 -0.002464 0.005054 -0.010292 -0.002607
# 2 -0.001835 0.042749 0.006030 0.026162 0.018184 -0.001421
# 3 -0.002464 0.006030 0.027191 0.018925 0.028696 0.014746
# 4 0.005054 0.026162 0.018925 0.064747 -0.007039 0.000469
# 5 -0.010292 0.018184 0.028696 -0.007039 0.141095 0.039183
# 6 -0.002607 -0.001421 0.014746 0.000469 0.039183 0.050979
#
#
# Mechanical properties :
#
#
# Convention : Reuss Voigt Hill
#
# Bulk Modulus (GPa) = 11.85815 35.97932 23.91874
# Shear Modulus (GPa) = 13.79917 27.70726 20.75321
#
# Velocity S-wave (km/s) = 2.44546 3.46522 2.99900
# Velocity P-wave (km/s) = 3.62116 5.62166 4.72842
#
# Compressibility (1/GPa) = 0.08433015
#
# Stress axis : x y z
#
# Youngs Moduli (GPa) = 91.49842 23.39221 36.77642
#
# Poissons Ratio (x) = 0.04293 0.09063
# Poissons Ratio (y) = 0.16790 -0.22175
# Poissons Ratio (z) = 0.22549 -0.14105
#
# Static dielectric constant tensor:
#      x y z
#    x 3.960650 0.195230 -0.039050 
#    y 0.195230 4.210060 -0.514010 
#    z -0.039050 -0.514010 4.119590 
# 
# 
# High freq. dielectric constant tensor:
#      x y z
#    x 1.907550 0.017270 -0.001810 
#    y 0.017270 1.903800 -0.025330 
#    z -0.001810 -0.025330 1.898960 
# 
# From -- ./inp_files/71665.got.cif
#   From: 2010.06.25/outbox.cif.g09.slc.cpg/sg2_36_cif.got.tgz:71665.got - 2010.06.27 13:26:56.
