data_PCOD8004558
_publ_section_title
;
Structure prediction by ZEFSAII (Michael W. Deem and Ramdas Pophale) SiO2 
 PCOD8004558
Probable space group: P -1
;
_chemical_formula_sum "Si O2"
_cell_formula_units_Z 16
_cell_length_a 14.038087
_cell_length_b 6.551651
_cell_length_c 14.458390
_cell_angle_alpha 121.429682
_cell_angle_beta 136.733544
_cell_angle_gamma 72.804654
_cell_volume 769.617130
_symmetry_space_group_name_H-M "P -1"
_symmetry_group_IT_number 2
_symmetry_cell_setting 'triclinic'
loop_
_space_group_symop_operation_xyz
x,y,z
-x,-y,-z
loop_
_atom_site_type_symbol
_atom_site_label
_atom_site_fract_x
_atom_site_fract_y
_atom_site_fract_z
Si Si1 0.711756 0.990168 0.170935
Si Si2 0.459861 0.675078 0.637375
Si Si3 0.034210 0.604888 0.177391
Si Si4 0.678816 0.878791 0.334870
Si Si5 0.017231 0.987263 0.399639
Si Si6 0.902813 0.143994 0.903619
Si Si7 0.288969 0.304885 0.301630
Si Si8 0.525133 0.370368 0.148019
O O1 0.707171 0.957828 0.269077
O O2 0.875138 0.062888 0.271489
O O3 0.627012 0.204138 0.129508
O O4 0.637122 0.738159 0.013210
O O5 0.385826 0.433338 0.480436
O O6 0.622974 0.717943 0.734834
O O7 0.445828 0.626086 0.723230
O O8 0.386173 0.906004 0.609184
O O9 0.045852 0.814573 0.156912
O O10 0.165084 0.457500 0.226865
O O11 0.024393 0.717906 0.299603
O O12 0.897644 0.405556 0.010562
O O13 0.566081 0.639053 0.201580
O O14 0.832772 0.850280 0.481965
O O15 0.000000 0.000000 0.500000
O O16 0.755166 0.969174 0.757402
O O17 0.000000 0.000000 0.000000
#
# Coordination Sequence:
#
# PCOD8004558 Si02
#       8
#     2   2   2   2   2   2   2   2
#     4   9  21  39  56  85 120 151 201 251 292 361
#     4  10  22  36  58  86 121 151 201 249 295 360
#     4  10  20  39  61  87 125 158 200 251 299 364
#     4  10  20  38  60  86 116 157 196 249 304 355
#     4  10  21  38  62  89 122 157 200 251 301 357
#     4   9  21  38  61  87 119 161 199 245 307 360
#     4  10  21  38  57  87 119 156 197 251 300 356
#     4  10  21  38  61  84 117 160 197 247 304 355
#
# _framework density 20.789558
#
# number of rings (size 3 to 8) (size 9 to 14) (size 15 to 20)
#    0.000    2.250    1.250    0.375    1.750    5.500 
#    0.000   10.000    0.000    0.000    0.000    0.000 
#    0.000    0.000    0.000    0.000    0.000    0.000 
#
# Total GULP energy -198234.793517 kJ/mol
# GULP energy per Si atom -12389.674595 kJ/mol
# Density = 2.074224 g / cm^3
# Si number density = 20.789558 Si / 1000 Ang^3
#
#
#
# Elastic Constant Matrix: (Units=GPa)
#
#
# Indices 1 2 3 4 5 6 
#
# 1 79.5742 38.1584 31.1795 8.4800 -1.4061 -11.5667
# 2 38.1584 72.9848 28.4283 16.2930 7.4393 6.1105
# 3 31.1795 28.4283 98.0501 19.3133 6.3782 -2.2126
# 4 8.4800 16.2930 19.3133 38.2101 -3.7470 8.1804
# 5 -1.4061 7.4393 6.3782 -3.7470 30.1892 -0.0133
# 6 -11.5667 6.1105 -2.2126 8.1804 -0.0133 22.8083
#
#
#
# Elastic Compliance Matrix: (Units=1/GPa)
#
#
# Indices 1 2 3 4 5 6 
#
# 1 0.021534 -0.011393 -0.003368 -0.000764 0.004433 0.013923
# 2 -0.011393 0.022982 -0.001940 -0.004678 -0.006369 -0.010449
# 3 -0.003368 -0.001940 0.013257 -0.005916 -0.003213 0.002218
# 4 -0.000764 -0.004678 -0.005916 0.034569 0.006652 -0.012103
# 5 0.004433 -0.006369 -0.003213 0.006652 0.036405 0.001278
# 6 0.013923 -0.010449 0.002218 -0.012103 0.001278 0.058260
#
#
# Mechanical properties :
#
#
# Convention : Reuss Voigt Hill
#
# Bulk Modulus (GPa) = 41.03515 49.57127 45.30321
# Shear Modulus (GPa) = 21.87858 28.43105 25.15481
#
# Velocity S-wave (km/s) = 3.24756 3.70207 3.48224
# Velocity P-wave (km/s) = 5.81751 6.49383 6.16495
#
# Compressibility (1/GPa) = 0.02436935
#
# Stress axis : x y z
#
# Youngs Moduli (GPa) = 46.43908 43.51142 75.43361
#
# Poissons Ratio (x) = 0.49574 0.25405
# Poissons Ratio (y) = 0.52910 0.14637
# Poissons Ratio (z) = 0.15640 0.08443
#
# Static dielectric constant tensor:
#      x y z
#    x 3.850130 -0.179110 0.281610 
#    y -0.179110 3.787880 0.266360 
#    z 0.281610 0.266360 4.280180 
# 
# 
# High freq. dielectric constant tensor:
#      x y z
#    x 1.799050 -0.010300 0.002880 
#    y -0.010300 1.788620 0.012240 
#    z 0.002880 0.012240 1.837800 
# 
# From -- ./inp_files/98521.got.cif
#   From: 2010.06.25/outbox.cif.g09.slc.cpg/sg2_50_cif.got.tgz:98521.got - 2010.06.27 13:26:56.
