data_PCOD8004223
_publ_section_title
;
Structure prediction by ZEFSAII (Michael W. Deem and Ramdas Pophale) SiO2 
 PCOD8004223
Probable space group: P -1
;
_chemical_formula_sum "Si O2"
_cell_formula_units_Z 14
_cell_length_a 12.568142
_cell_length_b 9.409242
_cell_length_c 8.727680
_cell_angle_alpha 91.366682
_cell_angle_beta 88.943390
_cell_angle_gamma 37.737476
_cell_volume 630.340723
_symmetry_space_group_name_H-M "P -1"
_symmetry_group_IT_number 2
_symmetry_cell_setting 'triclinic'
loop_
_space_group_symop_operation_xyz
x,y,z
-x,-y,-z
loop_
_atom_site_type_symbol
_atom_site_label
_atom_site_fract_x
_atom_site_fract_y
_atom_site_fract_z
Si Si1 0.584304 0.548567 0.080913
Si Si2 0.811817 0.222900 0.630834
Si Si3 0.174685 0.854173 0.706593
Si Si4 0.306408 0.022857 0.659296
Si Si5 0.350684 0.364701 0.214256
Si Si6 0.710914 0.018886 0.683942
Si Si7 0.049069 0.475984 0.322343
O O1 0.754701 0.317122 0.161936
O O2 0.452481 0.771759 0.201027
O O3 0.500000 0.500000 0.000000
O O4 0.646947 0.606940 0.966000
O O5 0.822294 0.245199 0.450680
O O6 0.643363 0.484116 0.703500
O O7 0.808932 0.058265 0.643086
O O8 0.970997 0.110635 0.731430
O O9 0.288277 0.875871 0.695689
O O10 0.475412 0.902271 0.743008
O O11 0.340908 0.004297 0.475181
O O12 0.139971 0.285892 0.737862
O O13 0.180108 0.467323 0.286279
O O14 0.853831 0.765528 0.757431
O O15 0.000000 0.500000 0.500000
#
# Coordination Sequence:
#
# PCOD8004223 Si02
#       7
#     2   2   2   2   2   2   2
#     4  12  23  39  62  96 135 169 207 260 326 385
#     4  10  20  38  68  97 121 165 220 271 313 368
#     4  10  20  37  65  99 127 159 219 272 315 370
#     4  10  20  41  69  93 125 165 218 267 314 376
#     4  12  23  40  68  95 129 171 211 258 330 384
#     4  10  22  42  61  94 130 164 214 268 313 377
#     4  10  24  44  65  92 130 164 220 270 311 377
#
# _framework density 22.21021
#
# number of rings (size 3 to 8) (size 9 to 14) (size 15 to 20)
#    0.000    1.429    4.286    0.857    2.000    5.714 
#    5.143    0.714    0.000    0.000    0.000    0.000 
#    0.000    0.000    0.000    0.000    0.000    0.000 
#
# Total GULP energy -173449.378261 kJ/mol
# GULP energy per Si atom -12389.241304 kJ/mol
# Density = 2.215966 g / cm^3
# Si number density = 22.210210 Si / 1000 Ang^3
#
#
#
# Elastic Constant Matrix: (Units=GPa)
#
#
# Indices 1 2 3 4 5 6 
#
# 1 54.5761 29.7501 39.1067 -11.5921 -18.3506 -10.5092
# 2 29.7501 148.8573 44.6030 -22.2899 -2.6033 -5.7405
# 3 39.1067 44.6030 97.6081 -22.8589 -20.3107 -6.8760
# 4 -11.5921 -22.2899 -22.8589 27.4912 -4.6178 9.4491
# 5 -18.3506 -2.6033 -20.3107 -4.6178 28.8231 2.4465
# 6 -10.5092 -5.7405 -6.8760 9.4491 2.4465 33.1869
#
#
#
# Elastic Compliance Matrix: (Units=1/GPa)
#
#
# Indices 1 2 3 4 5 6 
#
# 1 0.032588 -0.003121 -0.006050 0.007228 0.016918 0.005221
# 2 -0.003121 0.008499 -0.002316 0.003571 -0.002207 -0.000852
# 3 -0.006050 -0.002316 0.019649 0.015216 0.012520 -0.003500
# 4 0.007228 0.003571 0.015216 0.064450 0.027185 -0.014296
# 5 0.016918 -0.002207 0.012520 0.027185 0.058826 -0.004507
# 6 0.005221 -0.000852 -0.003500 -0.014296 -0.004507 0.035316
#
#
# Mechanical properties :
#
#
# Convention : Reuss Voigt Hill
#
# Bulk Modulus (GPa) = 26.48093 58.66236 42.57164
# Shear Modulus (GPa) = 19.61638 30.40569 25.01103
#
# Velocity S-wave (km/s) = 2.97512 3.70401 3.35939
# Velocity P-wave (km/s) = 4.87345 6.69048 5.85291
#
# Compressibility (1/GPa) = 0.03776302
#
# Stress axis : x y z
#
# Youngs Moduli (GPa) = 30.68616 117.66277 50.89250
#
# Poissons Ratio (x) = 0.36719 0.30788
# Poissons Ratio (y) = 0.09576 0.11788
# Poissons Ratio (z) = 0.18564 0.27253
#
# Static dielectric constant tensor:
#      x y z
#    x 3.732290 -0.002340 -0.179780 
#    y -0.002340 4.497980 -0.071570 
#    z -0.179780 -0.071570 3.915260 
# 
# 
# High freq. dielectric constant tensor:
#      x y z
#    x 1.852810 -0.005380 -0.021090 
#    y -0.005380 1.899610 -0.003790 
#    z -0.021090 -0.003790 1.849210 
# 
# From -- ./inp_files/186851.got.cif
#   From: 2010.06.25/outbox.cif.g09.slc.cpg/sg2_94_cif.got.tgz:186851.got - 2010.06.27 13:26:56.
