data_PCOD8004935
_publ_section_title
;
Structure prediction by ZEFSAII (Michael W. Deem and Ramdas Pophale) SiO2 
 PCOD8004935
Probable space group: P -1
;
_chemical_formula_sum "Si O2"
_cell_formula_units_Z 16
_cell_length_a 22.939416
_cell_length_b 12.523821
_cell_length_c 15.679057
_cell_angle_alpha 33.202231
_cell_angle_beta 22.764448
_cell_angle_gamma 22.419710
_cell_volume 660.988881
_symmetry_space_group_name_H-M "P -1"
_symmetry_group_IT_number 2
_symmetry_cell_setting 'triclinic'
loop_
_space_group_symop_operation_xyz
x,y,z
-x,-y,-z
loop_
_atom_site_type_symbol
_atom_site_label
_atom_site_fract_x
_atom_site_fract_y
_atom_site_fract_z
Si Si1 0.481699 0.235707 0.396224
Si Si2 0.939008 0.953880 0.021952
Si Si3 0.220986 0.315350 0.032837
Si Si4 0.893483 0.751532 0.364624
Si Si5 0.830898 0.469362 0.523009
Si Si6 0.182885 0.476475 0.798068
Si Si7 0.306637 0.125450 0.267721
Si Si8 0.957947 0.970195 0.331971
O O1 0.343027 0.459822 0.355415
O O2 0.356965 0.369065 0.564490
O O3 0.500000 0.000000 0.500000
O O4 0.712354 0.122658 0.166852
O O5 0.897061 0.976134 0.170060
O O6 0.116235 0.620053 0.994782
O O7 0.001931 0.087717 0.788734
O O8 0.056970 0.287890 0.286108
O O9 0.297694 0.264943 0.864952
O O10 0.438501 0.064916 0.962625
O O11 0.773373 0.738539 0.459210
O O12 0.749654 0.840436 0.579798
O O13 0.144324 0.437350 0.237828
O O14 0.849330 0.301276 0.689616
O O15 0.064745 0.784316 0.780507
O O16 0.000000 0.500000 0.000000
O O17 0.255546 0.960263 0.406432
#
# Coordination Sequence:
#
# PCOD8004935 Si02
#       8
#     2   2   2   2   2   2   2   2
#     4  12  20  38  65  89 121 164 204 257 304 375
#     4  10  21  37  58  88 122 161 208 248 308 362
#     4  10  20  38  63  92 117 166 204 248 310 371
#     4   9  19  38  61  90 118 163 204 252 305 373
#     4  10  21  39  63  91 127 163 207 255 305 366
#     4  11  22  41  65  90 122 164 208 254 310 372
#     4  10  21  39  64  91 127 161 206 258 306 365
#     4  10  24  42  58  92 128 160 210 260 303 367
#
# _framework density 24.206156
#
# number of rings (size 3 to 8) (size 9 to 14) (size 15 to 20)
#    0.000    1.750    3.750    1.500    0.000    8.000 
#    0.000    6.250    0.000    0.000    0.000    0.000 
#    0.000    0.000    0.000    0.000    0.000    0.000 
#
# Total GULP energy -198221.766954 kJ/mol
# GULP energy per Si atom -12388.860435 kJ/mol
# Density = 2.415106 g / cm^3
# Si number density = 24.206156 Si / 1000 Ang^3
#
#
#
# Elastic Constant Matrix: (Units=GPa)
#
#
# Indices 1 2 3 4 5 6 
#
# 1 96.2700 26.7144 11.3060 -10.8597 26.8997 -36.7956
# 2 26.7144 77.9753 33.1557 -4.7237 0.9370 -24.1571
# 3 11.3060 33.1557 68.2036 -9.3528 -1.4184 -18.9740
# 4 -10.8597 -4.7237 -9.3528 46.1157 -11.0310 1.4761
# 5 26.8997 0.9370 -1.4184 -11.0310 37.8340 -4.8048
# 6 -36.7956 -24.1571 -18.9740 1.4761 -4.8048 44.4182
#
#
#
# Elastic Compliance Matrix: (Units=1/GPa)
#
#
# Indices 1 2 3 4 5 6 
#
# 1 0.019977 -0.003039 0.002169 0.001558 -0.011752 0.014500
# 2 -0.003039 0.018274 -0.007038 0.000072 0.002054 0.004634
# 3 0.002169 -0.007038 0.020133 0.003994 0.001388 0.006586
# 4 0.001558 0.000072 0.003994 0.024331 0.006507 0.002931
# 5 -0.011752 0.002054 0.001388 0.006507 0.036135 -0.004333
# 6 0.014500 0.004634 0.006586 0.002931 -0.004333 0.039293
#
#
# Mechanical properties :
#
#
# Convention : Reuss Voigt Hill
#
# Bulk Modulus (GPa) = 23.49184 42.75568 33.12376
# Shear Modulus (GPa) = 26.57493 37.09176 31.83334
#
# Velocity S-wave (km/s) = 3.31699 3.91874 3.63036
# Velocity P-wave (km/s) = 4.93922 6.17874 5.59342
#
# Compressibility (1/GPa) = 0.04256797
#
# Stress axis : x y z
#
# Youngs Moduli (GPa) = 50.05668 54.72388 49.67065
#
# Poissons Ratio (x) = 0.16629 -0.10771
# Poissons Ratio (y) = 0.15210 0.34957
# Poissons Ratio (z) = -0.10855 0.38513
#
# Static dielectric constant tensor:
#      x y z
#    x 5.814440 -0.416940 0.474430 
#    y -0.416940 4.189410 -0.169920 
#    z 0.474430 -0.169920 4.598590 
# 
# 
# High freq. dielectric constant tensor:
#      x y z
#    x 2.002580 -0.024830 0.020210 
#    y -0.024830 1.934160 -0.013330 
#    z 0.020210 -0.013330 1.968960 
# 
# From -- ./inp_files/579876.got.cif
#   From: 2010.06.25/outbox.cif.g09.slc.cpg/sg2_290_cif.got.tgz:579876.got - 2010.06.27 13:26:56.
