data_PCOD8004669
_publ_section_title
;
Structure prediction by ZEFSAII (Michael W. Deem and Ramdas Pophale) SiO2 
 PCOD8004669
Probable space group: P -1
;
_chemical_formula_sum "Si O2"
_cell_formula_units_Z 14
_cell_length_a 11.997278
_cell_length_b 9.648366
_cell_length_c 11.590175
_cell_angle_alpha 142.288219
_cell_angle_beta 113.381668
_cell_angle_gamma 86.871073
_cell_volume 668.068760
_symmetry_space_group_name_H-M "P -1"
_symmetry_group_IT_number 2
_symmetry_cell_setting 'triclinic'
loop_
_space_group_symop_operation_xyz
x,y,z
-x,-y,-z
loop_
_atom_site_type_symbol
_atom_site_label
_atom_site_fract_x
_atom_site_fract_y
_atom_site_fract_z
Si Si1 0.205160 0.816884 0.849390
Si Si2 0.791489 0.691982 0.902200
Si Si3 0.078141 0.488103 0.368007
Si Si4 0.347161 0.774827 0.308803
Si Si5 0.329608 0.144037 0.691164
Si Si6 0.634175 0.329946 0.997941
Si Si7 0.918262 0.019019 0.371433
O O1 0.184766 0.629904 0.609299
O O2 0.058592 0.755960 0.806016
O O3 0.311666 0.785298 0.956105
O O4 0.268088 0.116222 0.038029
O O5 0.847337 0.589864 0.752179
O O6 0.668807 0.454347 0.762351
O O7 0.917749 0.853697 0.150277
O O8 0.019545 0.681407 0.431190
O O9 0.287281 0.661409 0.084055
O O10 0.500000 0.000000 0.500000
O O11 0.260971 0.905072 0.417070
O O12 0.471907 0.161440 0.805792
O O13 0.240886 0.092372 0.734837
O O14 0.340535 0.382997 0.778355
O O15 0.000000 0.000000 0.500000
#
# Coordination Sequence:
#
# PCOD8004669 Si02
#       7
#     2   2   2   2   2   2   2
#     4  10  23  41  62  90 125 168 208 248 309 372
#     4  11  22  40  64  91 128 161 204 257 309 364
#     4  10  22  40  61  89 131 162 204 256 306 364
#     4  10  21  38  64  89 124 161 202 257 308 360
#     4  10  20  38  61  87 126 158 202 259 306 354
#     4  10  21  39  64  88 121 166 209 253 308 364
#     4  11  22  36  62  95 122 156 205 253 307 366
#
# _framework density 20.955925000000001
#
# number of rings (size 3 to 8) (size 9 to 14) (size 15 to 20)
#    0.000    1.714    2.857    1.286    0.000    2.857 
#    0.000    5.714    0.000    0.000    0.000    0.000 
#    0.000    0.000    0.000    0.000    0.000    0.000 
#
# Total GULP energy -173472.412416 kJ/mol
# GULP energy per Si atom -12390.886601 kJ/mol
# Density = 2.090823 g / cm^3
# Si number density = 20.955925 Si / 1000 Ang^3
#
#
#
# Elastic Constant Matrix: (Units=GPa)
#
#
# Indices 1 2 3 4 5 6 
#
# 1 71.0056 49.4619 51.0790 -13.0542 -17.7386 7.7493
# 2 49.4619 174.9195 69.0368 -4.7147 -6.7403 -12.5282
# 3 51.0790 69.0368 105.3394 5.5377 -26.0911 -1.9749
# 4 -13.0542 -4.7147 5.5377 40.9183 11.5238 1.7924
# 5 -17.7386 -6.7403 -26.0911 11.5238 28.5362 -0.5606
# 6 7.7493 -12.5282 -1.9749 1.7924 -0.5606 33.5277
#
#
#
# Elastic Compliance Matrix: (Units=1/GPa)
#
#
# Indices 1 2 3 4 5 6 
#
# 1 0.028271 -0.003800 -0.011403 0.009946 0.002054 -0.009123
# 2 -0.003800 0.009150 -0.005761 0.002231 -0.006296 0.003733
# 3 -0.011403 -0.005761 0.024268 -0.013089 0.019082 0.002931
# 4 0.009946 0.002231 -0.013089 0.035363 -0.019626 -0.004455
# 5 0.002054 -0.006296 0.019082 -0.019626 0.060212 0.000353
# 6 -0.009123 0.003733 0.002931 -0.004455 0.000353 0.033747
#
#
# Mechanical properties :
#
#
# Convention : Reuss Voigt Hill
#
# Bulk Modulus (GPa) = 50.60614 76.71333 63.65974
# Shear Modulus (GPa) = 20.87470 32.70889 26.79179
#
# Velocity S-wave (km/s) = 3.15957 3.95504 3.57947
# Velocity P-wave (km/s) = 6.12468 7.58570 6.89401
#
# Compressibility (1/GPa) = 0.01976045
#
# Stress axis : x y z
#
# Youngs Moduli (GPa) = 35.37224 109.29014 41.20728
#
# Poissons Ratio (x) = 0.41526 0.46990
# Poissons Ratio (y) = 0.13440 0.23739
# Poissons Ratio (z) = 0.40336 0.62960
#
# Static dielectric constant tensor:
#      x y z
#    x 3.972130 0.444600 -0.533070 
#    y 0.444600 3.923530 0.054580 
#    z -0.533070 0.054580 4.251010 
# 
# 
# High freq. dielectric constant tensor:
#      x y z
#    x 1.799270 0.023400 -0.023420 
#    y 0.023400 1.823720 0.014280 
#    z -0.023420 0.014280 1.831840 
# 
# From -- ./inp_files/273091.got.cif
#   From: 2010.06.25/outbox.cif.g09.slc.cpg/sg2_137_cif.got.tgz:273091.got - 2010.06.27 13:26:56.
