data_PCOD8004148
_publ_section_title
;
Structure prediction by ZEFSAII (Michael W. Deem and Ramdas Pophale) SiO2 
 PCOD8004148
Probable space group: P -1
;
_chemical_formula_sum "Si O2"
_cell_formula_units_Z 16
_cell_length_a 14.529579
_cell_length_b 9.321586
_cell_length_c 9.201106
_cell_angle_alpha 78.973210
_cell_angle_beta 72.565051
_cell_angle_gamma 39.234453
_cell_volume 750.273049
_symmetry_space_group_name_H-M "P -1"
_symmetry_group_IT_number 2
_symmetry_cell_setting 'triclinic'
loop_
_space_group_symop_operation_xyz
x,y,z
-x,-y,-z
loop_
_atom_site_type_symbol
_atom_site_label
_atom_site_fract_x
_atom_site_fract_y
_atom_site_fract_z
Si Si1 0.151097 0.777734 0.393056
Si Si2 0.471557 0.202040 0.002905
Si Si3 0.348484 0.307248 0.516900
Si Si4 0.620560 0.985031 0.267726
Si Si5 0.163336 0.319997 0.391397
Si Si6 0.854166 0.401442 0.856363
Si Si7 0.261137 0.956045 0.228358
Si Si8 0.089276 0.249932 0.967250
O O1 0.240173 0.572118 0.505549
O O2 0.110372 0.742580 0.269631
O O3 0.256689 0.791230 0.302209
O O4 0.000000 0.000000 0.500000
O O5 0.301618 0.455532 0.017089
O O6 0.515292 0.166436 0.155965
O O7 0.500000 0.000000 0.000000
O O8 0.568740 0.194957 0.856761
O O9 0.353712 0.223217 0.690668
O O10 0.282929 0.252778 0.456431
O O11 0.520297 0.149132 0.423254
O O12 0.783718 0.867171 0.193024
O O13 0.159318 0.415827 0.225572
O O14 0.208663 0.103788 0.367386
O O15 0.000000 0.500000 0.500000
O O16 0.984152 0.246877 0.946299
O O17 0.155881 0.107219 0.110352
O O18 0.000000 0.500000 0.000000
#
# Coordination Sequence:
#
# PCOD8004148 Si02
#       8
#     2   2   2   2   2   2   2   2
#     4  11  25  42  62  92 134 175 214 250 326 397
#     4  11  19  40  65  97 121 159 217 271 320 373
#     4  10  21  39  64  89 124 168 212 262 319 371
#     4  10  20  37  64  94 120 159 212 269 313 366
#     4  11  19  34  60  90 119 162 216 261 310 363
#     4  11  21  40  62  92 128 166 210 268 319 370
#     4  11  23  38  65  93 124 168 212 263 322 382
#     4  11  22  36  64 100 123 154 221 272 317 365
#
# _framework density 21.325568000000001
#
# number of rings (size 3 to 8) (size 9 to 14) (size 15 to 20)
#    0.000    1.250    5.000    3.000    1.750    1.000 
#    0.000    0.000    0.000    7.500    0.000    0.000 
#    0.000    0.000    0.000    0.000    0.000    0.000 
#
# Total GULP energy -198296.329113 kJ/mol
# GULP energy per Si atom -12393.520570 kJ/mol
# Density = 2.127703 g / cm^3
# Si number density = 21.325568 Si / 1000 Ang^3
#
#
#
# Elastic Constant Matrix: (Units=GPa)
#
#
# Indices 1 2 3 4 5 6 
#
# 1 110.2172 44.3555 36.6214 17.1615 -19.1532 -9.6730
# 2 44.3555 112.7357 35.1339 15.8262 -18.7028 -7.2214
# 3 36.6214 35.1339 69.0479 21.4545 -27.0726 -9.6677
# 4 17.1615 15.8262 21.4545 34.0378 3.9706 -11.9598
# 5 -19.1532 -18.7028 -27.0726 3.9706 31.6732 8.2115
# 6 -9.6730 -7.2214 -9.6677 -11.9598 8.2115 41.9760
#
#
#
# Elastic Compliance Matrix: (Units=1/GPa)
#
#
# Indices 1 2 3 4 5 6 
#
# 1 0.012342 -0.002885 -0.001925 -0.004304 0.004717 -0.000245
# 2 -0.002885 0.011741 -0.001565 -0.003915 0.004607 -0.001022
# 3 -0.001925 -0.001565 0.038979 -0.029789 0.036892 -0.007440
# 4 -0.004304 -0.003915 -0.029789 0.063475 -0.042992 0.017969
# 5 0.004717 0.004607 0.036892 -0.042992 0.078538 -0.017237
# 6 -0.000245 -0.001022 -0.007440 0.017969 -0.017237 0.030369
#
#
# Mechanical properties :
#
#
# Convention : Reuss Voigt Hill
#
# Bulk Modulus (GPa) = 19.87550 58.24695 39.06122
# Shear Modulus (GPa) = 18.87041 33.26338 26.06690
#
# Velocity S-wave (km/s) = 2.97791 3.95370 3.49998
# Velocity P-wave (km/s) = 4.60045 6.94369 5.88978
#
# Compressibility (1/GPa) = 0.05031320
#
# Stress axis : x y z
#
# Youngs Moduli (GPa) = 81.02314 85.16871 25.65470
#
# Poissons Ratio (x) = 0.24569 0.04940
# Poissons Ratio (y) = 0.23373 0.04014
# Poissons Ratio (z) = 0.15600 0.13325
#
# Static dielectric constant tensor:
#      x y z
#    x 3.823940 0.090900 -0.532980 
#    y 0.090900 3.248220 0.695140 
#    z -0.532980 0.695140 2.959370 
# 
# 
# High freq. dielectric constant tensor:
#      x y z
#    x 1.827810 -0.022590 -0.013800 
#    y -0.022590 1.824600 0.006300 
#    z -0.013800 0.006300 1.841210 
# 
# From -- ./inp_files/274547.got.cif
#   From: 2010.06.25/outbox.cif.g09.slc.cpg/sg2_138_cif.got.tgz:274547.got - 2010.06.27 13:26:56.
