data_PCOD8004404
_publ_section_title
;
Structure prediction by ZEFSAII (Michael W. Deem and Ramdas Pophale) SiO2 
 PCOD8004404
Probable space group: P -1
;
_chemical_formula_sum "Si O2"
_cell_formula_units_Z 16
_cell_length_a 16.792634
_cell_length_b 12.047817
_cell_length_c 12.039483
_cell_angle_alpha 142.884894
_cell_angle_beta 37.459402
_cell_angle_gamma 116.069548
_cell_volume 759.541148
_symmetry_space_group_name_H-M "P -1"
_symmetry_group_IT_number 2
_symmetry_cell_setting 'triclinic'
loop_
_space_group_symop_operation_xyz
x,y,z
-x,-y,-z
loop_
_atom_site_type_symbol
_atom_site_label
_atom_site_fract_x
_atom_site_fract_y
_atom_site_fract_z
Si Si1 0.875637 0.936334 0.099938
Si Si2 0.875523 0.954656 0.873218
Si Si3 0.010993 0.491118 0.704718
Si Si4 0.845258 0.659172 0.234535
Si Si5 0.182128 0.931549 0.500736
Si Si6 0.673217 0.703853 0.669507
Si Si7 0.574487 0.402306 0.177566
Si Si8 0.604174 0.159315 0.170280
O O1 0.760295 0.066710 0.434945
O O2 0.791729 0.991726 0.116217
O O3 0.964648 0.681989 0.822516
O O4 0.000000 0.000000 0.000000
O O5 0.970593 0.701040 0.541984
O O6 0.001089 0.023186 0.785629
O O7 0.755801 0.084536 0.013843
O O8 0.168961 0.431685 0.545301
O O9 0.871806 0.557461 0.000571
O O10 0.704681 0.682322 0.483002
O O11 0.808101 0.902434 0.459677
O O12 0.000000 0.500000 0.000000
O O13 0.287531 0.693015 0.141271
O O14 0.568578 0.601922 0.724487
O O15 0.581896 0.957410 0.011863
O O16 0.632231 0.246717 0.095726
O O17 0.534842 0.642176 0.447423
#
# Coordination Sequence:
#
# PCOD8004404 Si02
#       8
#     2   2   2   2   2   2   2   2
#     4   9  19  36  62  83 110 146 192 242 285 334
#     4  10  21  38  60  82 117 143 196 249 274 341
#     4   9  19  34  59  92 107 148 190 239 295 327
#     4   9  18  32  53  86 112 145 192 226 286 341
#     4  10  21  37  55  88 112 149 195 233 291 337
#     4  10  20  38  58  81 124 157 186 230 289 353
#     4  11  23  38  57  83 125 154 189 233 289 348
#     4  10  23  37  56  87 110 161 189 229 289 342
#
# _framework density 21.065349999999999
#
# number of rings (size 3 to 8) (size 9 to 14) (size 15 to 20)
#    0.000    2.250    1.250    0.750    7.000    2.500 
#    2.250    0.625    0.000    1.500    0.000    0.000 
#    0.000    0.000    0.000    0.000    0.000    0.000 
#
# Total GULP energy -198247.077047 kJ/mol
# GULP energy per Si atom -12390.442315 kJ/mol
# Density = 2.101740 g / cm^3
# Si number density = 21.065350 Si / 1000 Ang^3
#
#
#
# Elastic Constant Matrix: (Units=GPa)
#
#
# Indices 1 2 3 4 5 6 
#
# 1 60.9817 -0.3583 13.9974 -9.2365 11.2108 -6.1287
# 2 -0.3583 39.0225 8.2240 -8.1691 1.6798 -6.0652
# 3 13.9974 8.2240 111.4447 -4.5520 27.4722 -7.5124
# 4 -9.2365 -8.1691 -4.5520 22.3117 1.7080 8.1161
# 5 11.2108 1.6798 27.4722 1.7080 30.1051 0.8607
# 6 -6.1287 -6.0652 -7.5124 8.1161 0.8607 10.5808
#
#
#
# Elastic Compliance Matrix: (Units=1/GPa)
#
#
# Indices 1 2 3 4 5 6 
#
# 1 0.019860 0.003333 0.000225 0.006860 -0.008434 0.008997
# 2 0.003333 0.029513 -0.000665 0.007642 -0.003080 0.012764
# 3 0.000225 -0.000665 0.012543 -0.000260 -0.011759 0.009811
# 4 0.006860 0.007642 -0.000260 0.066134 -0.005292 -0.042128
# 5 -0.008434 -0.003080 -0.011759 -0.005292 0.047984 -0.014843
# 6 0.008997 0.012764 0.009811 -0.042128 -0.014843 0.147527
#
#
# Mechanical properties :
#
#
# Convention : Reuss Voigt Hill
#
# Bulk Modulus (GPa) = 14.77040 28.35278 21.56159
# Shear Modulus (GPa) = 14.69105 25.23858 19.96481
#
# Velocity S-wave (km/s) = 2.64370 3.46513 3.08190
# Velocity P-wave (km/s) = 4.04300 5.43122 4.78769
#
# Compressibility (1/GPa) = 0.06770299
#
# Stress axis : x y z
#
# Youngs Moduli (GPa) = 50.35247 33.88298 79.72448
#
# Poissons Ratio (x) = -0.11292 -0.01797
# Poissons Ratio (y) = -0.16780 0.05299
# Poissons Ratio (z) = -0.01135 0.02252
#
# Static dielectric constant tensor:
#      x y z
#    x 3.723220 -0.489150 0.572300 
#    y -0.489150 3.669720 0.056050 
#    z 0.572300 0.056050 4.083120 
# 
# 
# High freq. dielectric constant tensor:
#      x y z
#    x 1.818330 -0.009160 0.023590 
#    y -0.009160 1.805620 0.010350 
#    z 0.023590 0.010350 1.831110 
# 
# From -- ./inp_files/185739.got.cif
#   From: 2010.06.25/outbox.cif.g09.slc.cpg/sg2_93_cif.got.tgz:185739.got - 2010.06.27 13:26:56.
