data_PCOD8004160
_publ_section_title
;
Structure prediction by ZEFSAII (Michael W. Deem and Ramdas Pophale) SiO2 
 PCOD8004160
Probable space group: P -1
;
_chemical_formula_sum "Si O2"
_cell_formula_units_Z 14
_cell_length_a 15.532947
_cell_length_b 14.391287
_cell_length_c 14.901173
_cell_angle_alpha 160.386922
_cell_angle_beta 38.444690
_cell_angle_gamma 142.173637
_cell_volume 673.176361
_symmetry_space_group_name_H-M "P -1"
_symmetry_group_IT_number 2
_symmetry_cell_setting 'triclinic'
loop_
_space_group_symop_operation_xyz
x,y,z
-x,-y,-z
loop_
_atom_site_type_symbol
_atom_site_label
_atom_site_fract_x
_atom_site_fract_y
_atom_site_fract_z
Si Si1 0.418697 0.740787 0.771260
Si Si2 0.640740 0.077462 0.396561
Si Si3 0.824600 0.642665 0.831581
Si Si4 0.096079 0.642679 0.970509
Si Si5 0.085471 0.240594 0.461656
Si Si6 0.309281 0.736165 0.668425
Si Si7 0.035302 0.979068 0.092464
O O1 0.500000 0.500000 0.500000
O O2 0.257253 0.611952 0.820929
O O3 0.418044 0.840461 0.757624
O O4 0.500000 0.000000 0.000000
O O5 0.762836 0.306228 0.559144
O O6 0.611399 0.207428 0.441555
O O7 0.500000 0.000000 0.500000
O O8 0.693093 0.792130 0.078600
O O9 0.934781 0.770753 0.778559
O O10 0.914421 0.703809 0.906516
O O11 0.029763 0.469683 0.776342
O O12 0.000000 0.500000 0.000000
O O13 0.101219 0.976425 0.269349
O O14 0.239046 0.397529 0.433615
O O15 0.979889 0.111418 0.347475
O O16 0.180032 0.890501 0.918220
#
# Coordination Sequence:
#
# PCOD8004160 Si02
#       7
#     2   2   2   2   2   2   2
#     4  11  23  40  65  93 119 164 222 263 308 389
#     4  11  23  41  60  89 131 174 204 251 319 382
#     4  10  23  35  62  92 126 153 210 261 301 369
#     4  11  24  41  63  92 126 163 205 270 336 377
#     4  11  19  37  64  90 117 163 208 248 316 394
#     4  10  22  39  67  87 123 168 211 258 319 376
#     4  10  20  37  64  96 117 155 212 266 306 361
#
# _framework density 20.796928000000001
#
# number of rings (size 3 to 8) (size 9 to 14) (size 15 to 20)
#    0.000    1.429    4.286    2.571    2.000    1.714 
#    0.000    4.286    0.000    0.000    0.000    0.000 
#    0.000    0.000    0.000    0.000    0.000    0.000 
#
# Total GULP energy -173535.593810 kJ/mol
# GULP energy per Si atom -12395.399558 kJ/mol
# Density = 2.074959 g / cm^3
# Si number density = 20.796928 Si / 1000 Ang^3
#
#
#
# Elastic Constant Matrix: (Units=GPa)
#
#
# Indices 1 2 3 4 5 6 
#
# 1 128.8896 31.4899 25.3981 -0.5842 36.7904 -5.7986
# 2 31.4899 113.9270 22.1239 -9.1187 18.6531 -22.6295
# 3 25.3981 22.1239 84.6001 10.4239 22.5336 -5.5503
# 4 -0.5842 -9.1187 10.4239 33.8867 -1.9791 4.5298
# 5 36.7904 18.6531 22.5336 -1.9791 42.9045 1.5272
# 6 -5.7986 -22.6295 -5.5503 4.5298 1.5272 28.2654
#
#
#
# Elastic Compliance Matrix: (Units=1/GPa)
#
#
# Indices 1 2 3 4 5 6 
#
# 1 0.010622 -0.001184 -0.000421 -0.000731 -0.008468 0.001723
# 2 -0.001184 0.011921 -0.001505 0.002260 -0.003587 0.008837
# 3 -0.000421 -0.001505 0.015234 -0.005937 -0.007368 0.003050
# 4 -0.000731 0.002260 -0.005937 0.032862 0.004457 -0.005014
# 5 -0.008468 -0.003587 -0.007368 0.004457 0.036515 -0.008743
# 6 0.001723 0.008837 0.003050 -0.005014 -0.008743 0.044682
#
#
# Mechanical properties :
#
#
# Convention : Reuss Voigt Hill
#
# Bulk Modulus (GPa) = 31.68862 53.93784 42.81323
# Shear Modulus (GPa) = 29.66040 37.57164 33.61602
#
# Velocity S-wave (km/s) = 3.78059 4.25502 4.02480
# Velocity P-wave (km/s) = 5.85896 7.08040 6.49844
#
# Compressibility (1/GPa) = 0.03155707
#
# Stress axis : x y z
#
# Youngs Moduli (GPa) = 94.14438 83.88860 65.64105
#
# Poissons Ratio (x) = 0.09933 0.02762
# Poissons Ratio (y) = 0.11148 0.09880
# Poissons Ratio (z) = 0.03961 0.12626
#
# Static dielectric constant tensor:
#      x y z
#    x 4.102970 -0.197510 0.289240 
#    y -0.197510 3.625900 0.162990 
#    z 0.289240 0.162990 3.959840 
# 
# 
# High freq. dielectric constant tensor:
#      x y z
#    x 1.815600 -0.016180 0.017440 
#    y -0.016180 1.776170 0.017060 
#    z 0.017440 0.017060 1.831960 
# 
# From -- ./inp_files/56212.got.cif
#   From: 2010.06.25/outbox.cif.g09.slc.cpg/sg2_29_cif.got.tgz:56212.got - 2010.06.27 13:26:56.
