data_PCOD8004309
_publ_section_title
;
Structure prediction by ZEFSAII (Michael W. Deem and Ramdas Pophale) SiO2 
 PCOD8004309
Probable space group: P -1
;
_chemical_formula_sum "Si O2"
_cell_formula_units_Z 14
_cell_length_a 16.311031
_cell_length_b 5.148179
_cell_length_c 9.930321
_cell_angle_alpha 121.501823
_cell_angle_beta 115.027633
_cell_angle_gamma 70.542626
_cell_volume 637.407627
_symmetry_space_group_name_H-M "P -1"
_symmetry_group_IT_number 2
_symmetry_cell_setting 'triclinic'
loop_
_space_group_symop_operation_xyz
x,y,z
-x,-y,-z
loop_
_atom_site_type_symbol
_atom_site_label
_atom_site_fract_x
_atom_site_fract_y
_atom_site_fract_z
Si Si1 0.258836 0.682931 0.594700
Si Si2 0.944263 0.217504 0.409163
Si Si3 0.796669 0.249370 0.705194
Si Si4 0.488519 0.924013 0.316583
Si Si5 0.291869 0.151318 0.287506
Si Si6 0.446669 0.784440 0.814037
Si Si7 0.004751 0.855482 0.110036
O O1 0.161388 0.668708 0.593826
O O2 0.240536 0.877122 0.495036
O O3 0.305870 0.338178 0.487597
O O4 0.336155 0.819709 0.774765
O O5 0.000000 0.500000 0.500000
O O6 0.000000 0.000000 0.500000
O O7 0.932093 0.034736 0.211573
O O8 0.780717 0.625597 0.794870
O O9 0.746744 0.155583 0.778732
O O10 0.900629 0.101166 0.743441
O O11 0.509068 0.559857 0.210560
O O12 0.500000 0.000000 0.500000
O O13 0.383335 0.046959 0.239076
O O14 0.545231 0.120814 0.311559
O O15 0.500000 0.000000 0.000000
O O16 0.000000 0.500000 0.000000
O O17 0.000000 0.000000 0.000000
#
# Coordination Sequence:
#
# PCOD8004309 Si02
#       7
#     2   2   2   2   2   2   2
#     4  10  24  41  73  95 142 176 241 276 343 409
#     4  12  24  45  75 102 130 188 238 274 340 431
#     4  10  20  40  65  97 133 176 229 278 334 412
#     4  12  22  44  73  98 129 187 240 274 339 417
#     4  10  20  37  68 100 123 172 246 279 313 398
#     4  12  27  45  67 105 148 178 225 300 354 394
#     4  12  25  44  66 102 146 172 218 299 358 397
#
# _framework density 21.963965999999999
#
# number of rings (size 3 to 8) (size 9 to 14) (size 15 to 20)
#    0.857    0.000    2.857    5.143    0.000    0.000 
#    7.714    0.000    0.000    0.000    0.000    0.000 
#    0.000    0.000    0.000    0.000    0.000    0.000 
#
# Total GULP energy -173448.726329 kJ/mol
# GULP energy per Si atom -12389.194738 kJ/mol
# Density = 2.191397 g / cm^3
# Si number density = 21.963966 Si / 1000 Ang^3
#
#
#
# Elastic Constant Matrix: (Units=GPa)
#
#
# Indices 1 2 3 4 5 6 
#
# 1 158.7304 53.6362 32.1633 1.1558 5.3671 -5.9447
# 2 53.6362 140.0497 31.9557 -5.1352 -4.4116 12.7363
# 3 32.1633 31.9557 84.1533 -0.6128 3.0746 -6.6304
# 4 1.1558 -5.1352 -0.6128 33.9246 0.1450 -1.5932
# 5 5.3671 -4.4116 3.0746 0.1450 32.2479 -7.3916
# 6 -5.9447 12.7363 -6.6304 -1.5932 -7.3916 44.5052
#
#
#
# Elastic Compliance Matrix: (Units=1/GPa)
#
#
# Indices 1 2 3 4 5 6 
#
# 1 0.007668 -0.002716 -0.001757 -0.000637 -0.001174 0.001322
# 2 -0.002716 0.009175 -0.002730 0.001279 0.001241 -0.003143
# 3 -0.001757 -0.002730 0.013816 0.000016 -0.000833 0.002467
# 4 -0.000637 0.001279 0.000016 0.029723 0.000298 0.000665
# 5 -0.001174 0.001241 -0.000833 0.000298 0.032549 0.004780
# 6 0.001322 -0.003143 0.002467 0.000665 0.004780 0.024731
#
#
# Mechanical properties :
#
#
# Convention : Reuss Voigt Hill
#
# Bulk Modulus (GPa) = 61.52491 68.71598 65.12044
# Shear Modulus (GPa) = 36.36779 39.81409 38.09094
#
# Velocity S-wave (km/s) = 4.07356 4.26220 4.16895
# Velocity P-wave (km/s) = 7.08504 7.45490 7.27232
#
# Compressibility (1/GPa) = 0.01625358
#
# Stress axis : x y z
#
# Youngs Moduli (GPa) = 130.41787 108.98799 72.38015
#
# Poissons Ratio (x) = 0.29604 0.12715
# Poissons Ratio (y) = 0.35425 0.19758
# Poissons Ratio (z) = 0.22910 0.29750
#
# Static dielectric constant tensor:
#      x y z
#    x 4.119170 -0.134290 -0.018750 
#    y -0.134290 4.052770 -0.128190 
#    z -0.018750 -0.128190 3.689310 
# 
# 
# High freq. dielectric constant tensor:
#      x y z
#    x 1.874880 0.000320 0.000770 
#    y 0.000320 1.878870 -0.010580 
#    z 0.000770 -0.010580 1.830470 
# 
# From -- ./inp_files/289293.got.cif
#   From: 2010.06.25/outbox.cif.g09.slc.cpg/sg2_145_cif.got.tgz:289293.got - 2010.06.27 13:26:56.
