data_PCOD8004946
_publ_section_title
;
Structure prediction by ZEFSAII (Michael W. Deem and Ramdas Pophale) SiO2 
 PCOD8004946
Probable space group: P -1
;
_chemical_formula_sum "Si O2"
_cell_formula_units_Z 16
_cell_length_a 8.231693
_cell_length_b 15.700979
_cell_length_c 21.112532
_cell_angle_alpha 160.588315
_cell_angle_beta 128.174448
_cell_angle_gamma 53.163823
_cell_volume 711.497593
_symmetry_space_group_name_H-M "P -1"
_symmetry_group_IT_number 2
_symmetry_cell_setting 'triclinic'
loop_
_space_group_symop_operation_xyz
x,y,z
-x,-y,-z
loop_
_atom_site_type_symbol
_atom_site_label
_atom_site_fract_x
_atom_site_fract_y
_atom_site_fract_z
Si Si1 0.719690 0.970303 0.562786
Si Si2 0.805738 0.401732 0.291567
Si Si3 0.941237 0.426388 0.634711
Si Si4 0.363927 0.331304 0.082586
Si Si5 0.679718 0.934318 0.245108
Si Si6 0.967655 0.225643 0.702161
Si Si7 0.262460 0.063214 0.307449
Si Si8 0.134745 0.103472 0.967837
O O1 0.846672 0.179642 0.705730
O O2 0.500000 0.000000 0.500000
O O3 0.828912 0.693016 0.375688
O O4 0.713731 0.015807 0.668597
O O5 0.013493 0.421694 0.313008
O O6 0.585708 0.441319 0.228351
O O7 0.808575 0.635716 0.505821
O O8 0.818927 0.130598 0.138244
O O9 0.794538 0.186653 0.426284
O O10 0.846947 0.629717 0.804002
O O11 0.164143 0.532776 0.190243
O O12 0.315023 0.096279 0.952871
O O13 0.371685 0.236413 0.946574
O O14 0.471226 0.025049 0.292846
O O15 0.803408 0.747496 0.195012
O O16 0.000000 0.000000 0.500000
O O17 0.090863 0.897157 0.118117
#
# Coordination Sequence:
#
# PCOD8004946 Si02
#       8
#     2   2   2   2   2   2   2   2
#     4  10  20  38  63  92 125 164 204 255 315 375
#     4  11  23  43  65  91 124 165 211 266 315 365
#     4  10  22  41  64  92 126 164 208 261 313 373
#     4  12  24  41  65  95 127 166 211 256 311 378
#     4  11  24  42  63  94 129 165 206 256 314 378
#     4  11  21  39  65  94 127 165 203 255 315 375
#     4  11  24  42  64  92 127 166 211 259 311 375
#     4  12  24  42  64  92 125 167 214 262 312 367
#
# _framework density 22.487777999999999
#
# number of rings (size 3 to 8) (size 9 to 14) (size 15 to 20)
#    0.000    1.000    0.000    9.750    0.000    0.000 
#    0.000    3.750    0.000    0.000    0.000    0.000 
#    0.000    0.000    0.000    0.000    0.000    0.000 
#
# Total GULP energy -198257.175186 kJ/mol
# GULP energy per Si atom -12391.073449 kJ/mol
# Density = 2.243660 g / cm^3
# Si number density = 22.487778 Si / 1000 Ang^3
#
#
#
# Elastic Constant Matrix: (Units=GPa)
#
#
# Indices 1 2 3 4 5 6 
#
# 1 127.7907 20.2044 21.0969 -3.4202 -4.0960 6.2077
# 2 20.2044 63.4389 11.3548 2.5087 -9.1205 5.2212
# 3 21.0969 11.3548 73.3427 -3.3730 -8.6047 2.5742
# 4 -3.4202 2.5087 -3.3730 28.2373 3.4096 8.9783
# 5 -4.0960 -9.1205 -8.6047 3.4096 39.5469 -2.7837
# 6 6.2077 5.2212 2.5742 8.9783 -2.7837 25.5937
#
#
#
# Elastic Compliance Matrix: (Units=1/GPa)
#
#
# Indices 1 2 3 4 5 6 
#
# 1 0.008665 -0.002350 -0.002021 0.001718 -0.000378 -0.002063
# 2 -0.002350 0.017530 -0.001654 -0.001887 0.003476 -0.001800
# 3 -0.002021 -0.001654 0.014870 0.001704 0.002427 -0.001002
# 4 0.001718 -0.001887 0.001704 0.041376 -0.004524 -0.015210
# 5 -0.000378 0.003476 0.002427 -0.004524 0.027227 0.003687
# 6 -0.002063 -0.001800 -0.001002 -0.015210 0.003687 0.045777
#
#
# Mechanical properties :
#
#
# Convention : Reuss Voigt Hill
#
# Bulk Modulus (GPa) = 34.46575 41.09828 37.78202
# Shear Modulus (GPa) = 28.22196 32.80335 30.51265
#
# Velocity S-wave (km/s) = 3.54643 3.82346 3.68755
# Velocity P-wave (km/s) = 5.66827 6.14877 5.91340
#
# Compressibility (1/GPa) = 0.02901431
#
# Stress axis : x y z
#
# Youngs Moduli (GPa) = 115.41108 57.04455 67.24768
#
# Poissons Ratio (x) = 0.13407 0.13594
# Poissons Ratio (y) = 0.27125 0.11121
# Poissons Ratio (z) = 0.23329 0.09434
#
# Static dielectric constant tensor:
#      x y z
#    x 4.341760 0.170110 0.122310 
#    y 0.170110 4.175370 0.101380 
#    z 0.122310 0.101380 3.995300 
# 
# 
# High freq. dielectric constant tensor:
#      x y z
#    x 1.907120 0.008340 0.002580 
#    y 0.008340 1.885860 0.003270 
#    z 0.002580 0.003270 1.879910 
# 
# From -- ./inp_files/590569.got.cif
#   From: 2010.06.25/outbox.cif.g09.slc.cpg/sg2_296_cif.got.tgz:590569.got - 2010.06.27 13:26:56.
