data_PCOD8004222
_publ_section_title
;
Structure prediction by ZEFSAII (Michael W. Deem and Ramdas Pophale) SiO2 
 PCOD8004222
Probable space group: P -1
;
_chemical_formula_sum "Si O2"
_cell_formula_units_Z 14
_cell_length_a 10.601609
_cell_length_b 12.606105
_cell_length_c 14.683226
_cell_angle_alpha 150.229048
_cell_angle_beta 41.280291
_cell_angle_gamma 127.199752
_cell_volume 635.978121
_symmetry_space_group_name_H-M "P -1"
_symmetry_group_IT_number 2
_symmetry_cell_setting 'triclinic'
loop_
_space_group_symop_operation_xyz
x,y,z
-x,-y,-z
loop_
_atom_site_type_symbol
_atom_site_label
_atom_site_fract_x
_atom_site_fract_y
_atom_site_fract_z
Si Si1 0.103623 0.162394 0.123001
Si Si2 0.809923 0.608524 0.299980
Si Si3 0.126371 0.786527 0.151644
Si Si4 0.067863 0.405001 0.150077
Si Si5 0.347237 0.711321 0.242901
Si Si6 0.885890 0.024422 0.297457
Si Si7 0.550519 0.020000 0.773362
O O1 0.071281 0.379132 0.239445
O O2 0.995188 0.182675 0.293628
O O3 0.326104 0.077005 0.962681
O O4 0.000000 0.000000 0.000000
O O5 0.608681 0.761033 0.542701
O O6 0.973668 0.756634 0.292454
O O7 0.860946 0.466181 0.258543
O O8 0.786561 0.447558 0.109878
O O9 0.312784 0.885040 0.157672
O O10 0.019361 0.944818 0.251713
O O11 0.161397 0.618240 0.234770
O O12 0.173055 0.180685 0.879604
O O13 0.305356 0.824024 0.448537
O O14 0.419240 0.890364 0.275651
O O15 0.500000 0.500000 0.000000
#
# Coordination Sequence:
#
# PCOD8004222 Si02
#       7
#     2   2   2   2   2   2   2
#     4  10  24  47  62  88 134 176 208 256 317 378
#     4  10  20  37  66  99 127 159 205 267 321 367
#     4  10  20  37  65  99 126 161 208 260 322 373
#     4  10  21  42  64  93 130 164 208 256 321 372
#     4  12  23  38  64 100 122 162 219 264 311 373
#     4  10  23  43  64  88 135 169 201 262 319 373
#     4  12  22  40  66  96 128 162 215 265 308 375
#
# _framework density 22.013335999999999
#
# number of rings (size 3 to 8) (size 9 to 14) (size 15 to 20)
#    0.000    1.429    4.286    1.286    0.000    1.714 
#    5.143    7.857    0.000    0.000    0.000    0.000 
#    0.000    0.000    0.000    0.000    0.000    0.000 
#
# Total GULP energy -173468.497636 kJ/mol
# GULP energy per Si atom -12390.606974 kJ/mol
# Density = 2.196323 g / cm^3
# Si number density = 22.013336 Si / 1000 Ang^3
#
#
#
# Elastic Constant Matrix: (Units=GPa)
#
#
# Indices 1 2 3 4 5 6 
#
# 1 50.4184 15.6832 0.6609 4.7527 -1.0064 -16.9830
# 2 15.6832 67.6054 33.7620 -12.0637 -0.0898 -19.9859
# 3 0.6609 33.7620 109.0769 8.5798 -0.4126 -18.5038
# 4 4.7527 -12.0637 8.5798 22.8131 -4.0976 3.0051
# 5 -1.0064 -0.0898 -0.4126 -4.0976 23.8054 8.5446
# 6 -16.9830 -19.9859 -18.5038 3.0051 8.5446 40.9182
#
#
#
# Elastic Compliance Matrix: (Units=1/GPa)
#
#
# Indices 1 2 3 4 5 6 
#
# 1 0.027793 -0.008298 0.005648 -0.014963 -0.005763 0.012339
# 2 -0.008298 0.025252 -0.008622 0.018158 0.001522 0.003339
# 3 0.005648 -0.008622 0.013799 -0.012426 -0.003882 0.006097
# 4 -0.014963 0.018158 -0.012426 0.065210 0.014298 -0.010736
# 5 -0.005763 0.001522 -0.003882 0.014298 0.049470 -0.014784
# 6 0.012339 0.003339 0.006097 -0.010736 -0.014784 0.037824
#
#
# Mechanical properties :
#
#
# Convention : Reuss Voigt Hill
#
# Bulk Modulus (GPa) = 22.57297 36.36811 29.47054
# Shear Modulus (GPa) = 19.48114 29.30697 24.39405
#
# Velocity S-wave (km/s) = 2.97807 3.65270 3.33250
# Velocity P-wave (km/s) = 4.70124 5.86058 5.31263
#
# Compressibility (1/GPa) = 0.04430078
#
# Stress axis : x y z
#
# Youngs Moduli (GPa) = 35.98026 39.60078 72.46758
#
# Poissons Ratio (x) = 0.32862 -0.40933
# Poissons Ratio (y) = 0.29858 0.62481
# Poissons Ratio (z) = -0.20323 0.34143
#
# Static dielectric constant tensor:
#      x y z
#    x 4.108090 -0.321190 0.042090 
#    y -0.321190 4.358410 -0.003140 
#    z 0.042090 -0.003140 3.939770 
# 
# 
# High freq. dielectric constant tensor:
#      x y z
#    x 1.862120 -0.015440 0.004540 
#    y -0.015440 1.858270 0.016500 
#    z 0.004540 0.016500 1.861320 
# 
# From -- ./inp_files/283431.got.cif
#   From: 2010.06.25/outbox.cif.g09.slc.cpg/sg2_142_cif.got.tgz:283431.got - 2010.06.27 13:26:56.
