data_PCOD8004757
_publ_section_title
;
Structure prediction by ZEFSAII (Michael W. Deem and Ramdas Pophale) SiO2 
 PCOD8004757
Probable space group: P -1
;
_chemical_formula_sum "Si O2"
_cell_formula_units_Z 16
_cell_length_a 9.037031
_cell_length_b 9.701635
_cell_length_c 17.499814
_cell_angle_alpha 130.646268
_cell_angle_beta 122.136075
_cell_angle_gamma 43.571422
_cell_volume 797.087216
_symmetry_space_group_name_H-M "P -1"
_symmetry_group_IT_number 2
_symmetry_cell_setting 'triclinic'
loop_
_space_group_symop_operation_xyz
x,y,z
-x,-y,-z
loop_
_atom_site_type_symbol
_atom_site_label
_atom_site_fract_x
_atom_site_fract_y
_atom_site_fract_z
Si Si1 0.706869 0.861356 0.829971
Si Si2 0.965008 0.485428 0.305261
Si Si3 0.118584 0.116449 0.774131
Si Si4 0.572838 0.825421 0.022848
Si Si5 0.380268 0.034829 0.674732
Si Si6 0.228862 0.656157 0.679626
Si Si7 0.646650 0.564664 0.527426
Si Si8 0.347506 0.448968 0.191302
O O1 0.612402 0.743431 0.808157
O O2 0.957585 0.675150 0.808130
O O3 0.642727 0.069340 0.943873
O O4 0.582386 0.980415 0.760258
O O5 0.742874 0.725813 0.314178
O O6 0.928438 0.372094 0.324010
O O7 0.159927 0.504331 0.385569
O O8 0.232873 0.209251 0.886134
O O9 0.218950 0.029633 0.686152
O O10 0.874042 0.320201 0.766386
O O11 0.127334 0.919427 0.748447
O O12 0.650014 0.599369 0.916882
O O13 0.500000 0.000000 0.000000
O O14 0.481594 0.835465 0.567879
O O15 0.241828 0.561657 0.565613
O O16 0.466073 0.517906 0.731681
O O17 0.500000 0.500000 0.500000
#
# Coordination Sequence:
#
# PCOD8004757 Si02
#       8
#     2   2   2   2   2   2   2   2
#     4   9  18  37  60  86 116 153 198 241 280 351
#     4  11  24  39  62  85 124 159 189 242 309 347
#     4  11  20  36  65  90 116 157 201 241 292 345
#     4   9  17  35  62  92 116 149 203 251 280 339
#     4  10  20  38  62  86 113 158 199 235 289 354
#     4  12  24  40  56  93 123 151 196 252 294 347
#     4  11  23  41  63  86 118 153 204 246 283 353
#     4  11  20  36  63  90 117 154 205 246 286 349
#
# _framework density 20.073086
#
# number of rings (size 3 to 8) (size 9 to 14) (size 15 to 20)
#    0.000    1.500    6.250    1.500    0.000    4.000 
#    0.000    0.625    0.000    3.750    0.000    0.000 
#    0.000    0.000    0.000    0.000    0.000    0.000 
#
# Total GULP energy -198248.035400 kJ/mol
# GULP energy per Si atom -12390.502212 kJ/mol
# Density = 2.002740 g / cm^3
# Si number density = 20.073086 Si / 1000 Ang^3
#
#
#
# Elastic Constant Matrix: (Units=GPa)
#
#
# Indices 1 2 3 4 5 6 
#
# 1 59.8517 5.9125 10.9167 -4.8740 -13.4837 5.8388
# 2 5.9125 86.3090 13.9455 2.2687 0.0457 -11.3712
# 3 10.9167 13.9455 70.7091 -3.9928 -21.3589 -4.1139
# 4 -4.8740 2.2687 -3.9928 20.0944 -7.9008 -3.2576
# 5 -13.4837 0.0457 -21.3589 -7.9008 30.6114 0.6726
# 6 5.8388 -11.3712 -4.1139 -3.2576 0.6726 32.9467
#
#
#
# Elastic Compliance Matrix: (Units=1/GPa)
#
#
# Indices 1 2 3 4 5 6 
#
# 1 0.020743 -0.002412 0.001529 0.010096 0.012892 -0.003583
# 2 -0.002412 0.012986 -0.003585 -0.003932 -0.004689 0.004169
# 3 0.001529 -0.003585 0.021048 0.012581 0.018569 0.001985
# 4 0.010096 -0.003932 0.012581 0.067949 0.030669 0.004517
# 5 0.012892 -0.004689 0.018569 0.030669 0.059220 0.000239
# 6 -0.003583 0.004169 0.001985 0.004517 0.000239 0.033115
#
#
# Mechanical properties :
#
#
# Convention : Reuss Voigt Hill
#
# Bulk Modulus (GPa) = 21.81424 30.93548 26.37486
# Shear Modulus (GPa) = 20.89626 29.13684 25.01655
#
# Velocity S-wave (km/s) = 3.22997 3.81404 3.53409
# Velocity P-wave (km/s) = 4.98008 5.90260 5.46086
#
# Compressibility (1/GPa) = 0.04584162
#
# Stress axis : x y z
#
# Youngs Moduli (GPa) = 48.20816 77.00721 47.50992
#
# Poissons Ratio (x) = 0.18577 -0.07265
# Poissons Ratio (y) = 0.11629 0.17031
# Poissons Ratio (z) = -0.07371 0.27605
#
# Static dielectric constant tensor:
#      x y z
#    x 3.565380 -0.241280 -0.639580 
#    y -0.241280 3.568670 0.267390 
#    z -0.639580 0.267390 3.994730 
# 
# 
# High freq. dielectric constant tensor:
#      x y z
#    x 1.766610 -0.022530 -0.033300 
#    y -0.022530 1.778950 0.003320 
#    z -0.033300 0.003320 1.777920 
# 
# From -- ./inp_files/218763.got.cif
#   From: 2010.06.25/outbox.cif.g09.slc.cpg/sg2_110_cif.got.tgz:218763.got - 2010.06.27 13:26:56.
