data_PCOD8004781
_publ_section_title
;
Structure prediction by ZEFSAII (Michael W. Deem and Ramdas Pophale) SiO2 
 PCOD8004781
Probable space group: P -1
;
_chemical_formula_sum "Si O2"
_cell_formula_units_Z 16
_cell_length_a 28.013819
_cell_length_b 8.929834
_cell_length_c 13.831569
_cell_angle_alpha 125.528690
_cell_angle_beta 158.982618
_cell_angle_gamma 44.206993
_cell_volume 809.887510
_symmetry_space_group_name_H-M "P -1"
_symmetry_group_IT_number 2
_symmetry_cell_setting 'triclinic'
loop_
_space_group_symop_operation_xyz
x,y,z
-x,-y,-z
loop_
_atom_site_type_symbol
_atom_site_label
_atom_site_fract_x
_atom_site_fract_y
_atom_site_fract_z
Si Si1 0.549157 0.226795 0.724326
Si Si2 0.457905 0.922202 0.755038
Si Si3 0.842997 0.258976 0.292164
Si Si4 0.725167 0.275641 0.587374
Si Si5 0.956229 0.878964 0.752929
Si Si6 0.894631 0.407498 0.245817
Si Si7 0.766933 0.692463 0.385934
Si Si8 0.561371 0.840327 0.704359
O O1 0.370173 0.453251 0.504579
O O2 0.547364 0.173495 0.587680
O O3 0.597512 0.016806 0.804194
O O4 0.681957 0.273159 0.011691
O O5 0.402461 0.765748 0.624636
O O6 0.459474 0.929646 0.644953
O O7 0.330073 0.181856 0.650914
O O8 0.641073 0.812180 0.101592
O O9 0.832977 0.359323 0.206452
O O10 0.844879 0.422717 0.436320
O O11 0.000000 0.000000 0.500000
O O12 0.797610 0.142747 0.571602
O O13 0.879689 0.168881 0.910241
O O14 0.917566 0.710866 0.663330
O O15 0.988337 0.830295 0.681345
O O16 0.000000 0.500000 0.500000
O O17 0.735052 0.591321 0.949156
#
# Coordination Sequence:
#
# PCOD8004781 Si02
#       8
#     2   2   2   2   2   2   2   2
#     4  11  24  40  61  89 124 157 201 259 300 350
#     4  10  20  39  64  87 113 162 205 241 298 362
#     4  12  25  40  61  90 123 155 203 257 303 354
#     4  10  20  38  62  88 121 151 202 248 290 353
#     4  10  21  35  62  90 118 160 194 243 297 358
#     4  12  21  38  62  86 120 161 201 239 301 370
#     4  10  20  38  63  85 122 157 197 248 300 357
#     4  11  23  39  62  87 120 163 200 248 305 360
#
# _framework density 19.75583
#
# number of rings (size 3 to 8) (size 9 to 14) (size 15 to 20)
#    0.000    1.250    5.000    0.750    1.750    1.000 
#    2.250    0.625    0.000    3.000    0.000    0.000 
#    0.000    0.000    0.000    0.000    0.000    0.000 
#
# Total GULP energy -198412.196595 kJ/mol
# GULP energy per Si atom -12400.762287 kJ/mol
# Density = 1.971086 g / cm^3
# Si number density = 19.755830 Si / 1000 Ang^3
#
#
#
# Elastic Constant Matrix: (Units=GPa)
#
#
# Indices 1 2 3 4 5 6 
#
# 1 88.1696 39.9121 8.2394 -12.5205 1.8041 -21.6545
# 2 39.9121 125.4106 13.1193 -10.2037 0.6586 -18.6737
# 3 8.2394 13.1193 48.8056 1.1257 6.5858 1.9113
# 4 -12.5205 -10.2037 1.1257 34.7393 0.7223 0.4450
# 5 1.8041 0.6586 6.5858 0.7223 21.8772 -1.4978
# 6 -21.6545 -18.6737 1.9113 0.4450 -1.4978 38.4993
#
#
#
# Elastic Compliance Matrix: (Units=1/GPa)
#
#
# Indices 1 2 3 4 5 6 
#
# 1 0.015416 -0.003252 -0.002086 0.004582 -0.000208 0.007136
# 2 -0.003252 0.009853 -0.002374 0.001742 0.000839 0.003081
# 3 -0.002086 -0.002374 0.022579 -0.001993 -0.006740 -0.003685
# 4 0.004582 0.001742 -0.001993 0.030986 -0.000638 0.003138
# 5 -0.000208 0.000839 -0.006740 -0.000638 0.047923 0.002497
# 6 0.007136 0.003081 -0.003685 0.003138 0.002497 0.031726
#
#
# Mechanical properties :
#
#
# Convention : Reuss Voigt Hill
#
# Bulk Modulus (GPa) = 30.83869 42.76973 36.80421
# Shear Modulus (GPa) = 27.06879 32.43082 29.74981
#
# Velocity S-wave (km/s) = 3.70559 4.05604 3.88477
# Velocity P-wave (km/s) = 5.82687 6.60541 6.22831
#
# Compressibility (1/GPa) = 0.03242680
#
# Stress axis : x y z
#
# Youngs Moduli (GPa) = 64.86714 101.49217 44.28823
#
# Poissons Ratio (x) = 0.33001 0.09237
# Poissons Ratio (y) = 0.21092 0.10513
# Poissons Ratio (z) = 0.13528 0.24091
#
# Static dielectric constant tensor:
#      x y z
#    x 3.870270 -0.125060 0.035580 
#    y -0.125060 4.203570 -0.049140 
#    z 0.035580 -0.049140 3.654840 
# 
# 
# High freq. dielectric constant tensor:
#      x y z
#    x 1.752850 -0.027360 0.020480 
#    y -0.027360 1.784660 0.011520 
#    z 0.020480 0.011520 1.770410 
# 
# From -- ./inp_files/256889.got.cif
#   From: 2010.06.25/outbox.cif.g09.slc.cpg/sg2_129_cif.got.tgz:256889.got - 2010.06.27 13:26:56.
