data_PCOD8004714
_publ_section_title
;
Structure prediction by ZEFSAII (Michael W. Deem and Ramdas Pophale) SiO2 
 PCOD8004714
Probable space group: P -1
;
_chemical_formula_sum "Si O2"
_cell_formula_units_Z 16
_cell_length_a 25.567318
_cell_length_b 9.041555
_cell_length_c 10.650588
_cell_angle_alpha 42.772853
_cell_angle_beta 149.264084
_cell_angle_gamma 144.560530
_cell_volume 724.877749
_symmetry_space_group_name_H-M "P -1"
_symmetry_group_IT_number 2
_symmetry_cell_setting 'triclinic'
loop_
_space_group_symop_operation_xyz
x,y,z
-x,-y,-z
loop_
_atom_site_type_symbol
_atom_site_label
_atom_site_fract_x
_atom_site_fract_y
_atom_site_fract_z
Si Si1 0.928069 0.130434 0.312853
Si Si2 0.230532 0.085065 0.115346
Si Si3 0.819928 0.731123 0.709548
Si Si4 0.881444 0.222551 0.424757
Si Si5 0.468727 0.138274 0.514098
Si Si6 0.443560 0.620988 0.718446
Si Si7 0.731074 0.458068 0.954356
Si Si8 0.020376 0.641027 0.083880
O O1 0.874755 0.062441 0.385329
O O2 0.015625 0.442614 0.301053
O O3 0.000000 0.000000 0.500000
O O4 0.818502 0.035818 0.047744
O O5 0.362670 0.134821 0.373970
O O6 0.234926 0.352115 0.975006
O O7 0.149519 0.904290 0.176472
O O8 0.692402 0.599348 0.457568
O O9 0.807510 0.622044 0.890099
O O10 0.875208 0.039783 0.638999
O O11 0.912740 0.688936 0.850767
O O12 0.000000 0.500000 0.500000
O O13 0.765286 0.246713 0.181863
O O14 0.476334 0.255119 0.318785
O O15 0.589801 0.318128 0.727983
O O16 0.440813 0.850585 0.637602
O O17 0.500000 0.500000 0.000000
O O18 0.000000 0.500000 0.000000
#
# Coordination Sequence:
#
# PCOD8004714 Si02
#       8
#     2   2   2   2   2   2   2   2
#     4  11  23  40  62  96 130 167 215 269 326 386
#     4  11  24  42  65  90 132 177 213 268 324 388
#     4  11  23  40  66  96 129 171 216 267 330 386
#     4  12  25  40  68  98 132 168 215 271 325 390
#     4  10  23  41  66  94 129 171 221 264 325 383
#     4  10  21  39  67  97 126 166 216 274 322 385
#     4  11  24  44  65  94 135 172 219 269 322 389
#     4  10  20  38  61  91 127 162 213 262 325 380
#
# _framework density 22.072686999999998
#
# number of rings (size 3 to 8) (size 9 to 14) (size 15 to 20)
#    0.000    1.250    1.250    5.625    7.000    1.000 
#    0.000    0.000    0.000    4.500    0.000    0.000 
#    0.000    0.000    0.000    0.000    0.000    0.000 
#
# Total GULP energy -198398.861531 kJ/mol
# GULP energy per Si atom -12399.928846 kJ/mol
# Density = 2.202245 g / cm^3
# Si number density = 22.072687 Si / 1000 Ang^3
#
#
#
# Elastic Constant Matrix: (Units=GPa)
#
#
# Indices 1 2 3 4 5 6 
#
# 1 73.6764 16.9090 34.7522 -1.1443 29.3420 -2.9653
# 2 16.9090 103.9960 28.2062 -19.8771 18.7770 0.5033
# 3 34.7522 28.2062 105.3726 -22.4432 29.8264 9.4311
# 4 -1.1443 -19.8771 -22.4432 44.0439 -0.0984 3.1718
# 5 29.3420 18.7770 29.8264 -0.0984 42.3045 -0.2019
# 6 -2.9653 0.5033 9.4311 3.1718 -0.2019 32.4608
#
#
#
# Elastic Compliance Matrix: (Units=1/GPa)
#
#
# Indices 1 2 3 4 5 6 
#
# 1 0.020020 -0.000625 -0.004155 -0.002133 -0.010669 0.003188
# 2 -0.000625 0.011600 -0.000573 0.004959 -0.004303 -0.000582
# 3 -0.004155 -0.000573 0.015377 0.007859 -0.007714 -0.005654
# 4 -0.002133 0.004959 0.007859 0.029271 -0.006221 -0.005454
# 5 -0.010669 -0.004303 -0.007714 -0.006221 0.038382 0.002180
# 6 0.003188 -0.000582 -0.005654 -0.005454 0.002180 0.033296
#
#
# Mechanical properties :
#
#
# Convention : Reuss Voigt Hill
#
# Bulk Modulus (GPa) = 27.55408 49.19777 38.37593
# Shear Modulus (GPa) = 29.28250 37.30702 33.29476
#
# Velocity S-wave (km/s) = 3.64626 4.11565 3.88804
# Velocity P-wave (km/s) = 5.49885 6.70240 6.13023
#
# Compressibility (1/GPa) = 0.03629227
#
# Stress axis : x y z
#
# Youngs Moduli (GPa) = 49.94939 86.20445 65.03058
#
# Poissons Ratio (x) = 0.05387 0.27021
# Poissons Ratio (y) = 0.03122 0.03725
# Poissons Ratio (z) = 0.20755 0.04937
#
# Static dielectric constant tensor:
#      x y z
#    x 4.396640 0.578210 -0.324840 
#    y 0.578210 4.884150 -0.544750 
#    z -0.324840 -0.544750 4.274440 
# 
# 
# High freq. dielectric constant tensor:
#      x y z
#    x 1.867190 -0.005390 0.010610 
#    y -0.005390 1.884900 -0.005030 
#    z 0.010610 -0.005030 1.865210 
# 
# From -- ./inp_files/345854.got.cif
#   From: 2010.06.25/outbox.cif.g09.slc.cpg/sg2_173_cif.got.tgz:345854.got - 2010.06.27 13:26:56.
