data_PCOD8004982
_publ_section_title
;
Structure prediction by ZEFSAII (Michael W. Deem and Ramdas Pophale) SiO2 
 PCOD8004982
Probable space group: P -1
;
_chemical_formula_sum "Si O2"
_cell_formula_units_Z 14
_cell_length_a 19.335155
_cell_length_b 9.231377
_cell_length_c 8.658009
_cell_angle_alpha 46.870254
_cell_angle_beta 147.563264
_cell_angle_gamma 125.617179
_cell_volume 604.870520
_symmetry_space_group_name_H-M "P -1"
_symmetry_group_IT_number 2
_symmetry_cell_setting 'triclinic'
loop_
_space_group_symop_operation_xyz
x,y,z
-x,-y,-z
loop_
_atom_site_type_symbol
_atom_site_label
_atom_site_fract_x
_atom_site_fract_y
_atom_site_fract_z
Si Si1 0.412691 0.188691 0.698572
Si Si2 0.673428 0.183864 0.671785
Si Si3 0.971362 0.286205 0.183524
Si Si4 0.987218 0.917229 0.286916
Si Si5 0.424733 0.208482 0.362831
Si Si6 0.612392 0.388523 0.118846
Si Si7 0.193871 0.927846 0.419657
O O1 0.416743 0.284231 0.467222
O O2 0.268773 0.106490 0.521017
O O3 0.466810 0.343451 0.813589
O O4 0.500000 0.000000 0.000000
O O5 0.576565 0.164860 0.648002
O O6 0.616718 0.357409 0.332228
O O7 0.663666 0.984558 0.695151
O O8 0.818666 0.239220 0.953303
O O9 0.031405 0.259730 0.490024
O O10 0.034412 0.118466 0.316884
O O11 0.000000 0.500000 0.000000
O O12 0.088046 0.845910 0.399599
O O13 0.859455 0.975479 0.909651
O O14 0.359554 0.379667 0.015553
O O15 0.718272 0.257690 0.325197
#
# Coordination Sequence:
#
# PCOD8004982 Si02
#       7
#     2   2   2   2   2   2   2
#     4  10  20  38  63  95 131 161 207 262 323 388
#     4  11  24  42  64  95 134 168 212 266 321 387
#     4  11  25  45  67  96 126 173 230 265 317 384
#     4  10  23  45  67  91 130 177 217 271 324 369
#     4  11  23  40  67  96 131 173 204 262 338 376
#     4  11  22  40  64  98 130 165 213 262 321 396
#     4  10  21  43  67  94 134 171 214 270 328 380
#
# _framework density 23.145447999999998
#
# number of rings (size 3 to 8) (size 9 to 14) (size 15 to 20)
#    0.000    1.429    4.286    0.857    4.000    4.571 
#    2.571    1.429    0.000    0.000    0.000    0.000 
#    0.000    0.000    0.000    0.000    0.000    0.000 
#
# Total GULP energy -173480.211666 kJ/mol
# GULP energy per Si atom -12391.443690 kJ/mol
# Density = 2.309277 g / cm^3
# Si number density = 23.145448 Si / 1000 Ang^3
#
#
#
# Elastic Constant Matrix: (Units=GPa)
#
#
# Indices 1 2 3 4 5 6 
#
# 1 77.1284 10.0792 23.9368 -4.7589 0.6504 10.8147
# 2 10.0792 48.3549 37.3236 -5.1347 -4.0076 16.8620
# 3 23.9368 37.3236 99.3670 -1.2074 -22.1467 14.2431
# 4 -4.7589 -5.1347 -1.2074 35.1932 11.7090 -9.1410
# 5 0.6504 -4.0076 -22.1467 11.7090 45.1961 -1.0382
# 6 10.8147 16.8620 14.2431 -9.1410 -1.0382 28.4230
#
#
#
# Elastic Compliance Matrix: (Units=1/GPa)
#
#
# Indices 1 2 3 4 5 6 
#
# 1 0.014740 0.001435 -0.004112 0.001953 -0.002695 -0.003869
# 2 0.001435 0.034725 -0.012146 0.002371 -0.003839 -0.014438
# 3 -0.004112 -0.012146 0.017758 -0.005074 0.008966 -0.001433
# 4 0.001953 0.002371 -0.005074 0.035561 -0.011255 0.011419
# 5 -0.002695 -0.003839 0.008966 -0.011255 0.029047 -0.003749
# 6 -0.003869 -0.014438 -0.001433 0.011419 -0.003749 0.049474
#
#
# Mechanical properties :
#
#
# Convention : Reuss Voigt Hill
#
# Bulk Modulus (GPa) = 26.61232 40.83662 33.72447
# Shear Modulus (GPa) = 22.37372 31.99650 27.18511
#
# Velocity S-wave (km/s) = 3.11248 3.72211 3.43087
# Velocity P-wave (km/s) = 4.94364 6.01281 5.50425
#
# Compressibility (1/GPa) = 0.03757658
#
# Stress axis : x y z
#
# Youngs Moduli (GPa) = 67.84370 28.79796 56.31121
#
# Poissons Ratio (x) = -0.04132 0.23154
# Poissons Ratio (y) = -0.09734 0.68396
# Poissons Ratio (z) = 0.27896 0.34978
#
# Static dielectric constant tensor:
#      x y z
#    x 3.986840 0.263370 -0.043510 
#    y 0.263370 4.102330 0.107410 
#    z -0.043510 0.107410 4.314520 
# 
# 
# High freq. dielectric constant tensor:
#      x y z
#    x 1.920110 0.004650 -0.008480 
#    y 0.004650 1.892120 0.000110 
#    z -0.008480 0.000110 1.923180 
# 
# From -- ./inp_files/343359.got.cif
#   From: 2010.06.25/outbox.cif.g09.slc.cpg/sg2_172_cif.got.tgz:343359.got - 2010.06.27 13:26:56.
