data_PCOD8004348
_publ_section_title
;
Structure prediction by ZEFSAII (Michael W. Deem and Ramdas Pophale) SiO2 
 PCOD8004348
Probable space group: P -1
;
_chemical_formula_sum "Si O2"
_cell_formula_units_Z 14
_cell_length_a 16.126270
_cell_length_b 7.556584
_cell_length_c 9.180173
_cell_angle_alpha 96.459394
_cell_angle_beta 84.459501
_cell_angle_gamma 146.601763
_cell_volume 611.873148
_symmetry_space_group_name_H-M "P -1"
_symmetry_group_IT_number 2
_symmetry_cell_setting 'triclinic'
loop_
_space_group_symop_operation_xyz
x,y,z
-x,-y,-z
loop_
_atom_site_type_symbol
_atom_site_label
_atom_site_fract_x
_atom_site_fract_y
_atom_site_fract_z
Si Si1 0.447700 0.077391 0.100723
Si Si2 0.438594 0.265409 0.848746
Si Si3 0.877323 0.145829 0.055027
Si Si4 0.859408 0.438061 0.764114
Si Si5 0.247373 0.129991 0.247480
Si Si6 0.582415 0.147696 0.344927
Si Si7 0.166030 0.326127 0.457049
O O1 0.522468 0.205445 0.260326
O O2 0.266018 0.751203 0.108017
O O3 0.492784 0.330516 0.016588
O O4 0.500000 0.000000 0.000000
O O5 0.574972 0.612685 0.774104
O O6 0.268661 0.038869 0.850002
O O7 0.434994 0.066035 0.756731
O O8 0.976078 0.215384 0.165901
O O9 0.000000 0.500000 0.000000
O O10 0.817770 0.926624 0.906202
O O11 0.820020 0.481856 0.634256
O O12 0.845978 0.203584 0.702671
O O13 0.237812 0.280279 0.367947
O O14 0.755391 0.491962 0.385815
O O15 0.500000 0.000000 0.500000
O O16 0.000000 0.000000 0.500000
#
# Coordination Sequence:
#
# PCOD8004348 Si02
#       7
#     2   2   2   2   2   2   2
#     4  10  20  37  72  98 130 178 229 278 342 394
#     4  11  21  42  72 104 137 180 235 288 339 415
#     4  10  22  39  68 103 139 177 225 289 347 398
#     4  11  24  46  67 102 140 180 233 289 345 407
#     4  11  24  44  73 102 140 179 237 288 341 417
#     4  11  22  44  69  97 143 184 231 287 344 408
#     4  12  28  47  67 101 143 185 233 288 346 421
#
# _framework density 22.880561
#
# number of rings (size 3 to 8) (size 9 to 14) (size 15 to 20)
#    0.000    1.143    5.714    1.286    4.000    2.286 
#    0.000    1.429    0.000    0.000    0.000    0.000 
#    0.000    0.000    0.000    0.000    0.000    0.000 
#
# Total GULP energy -173474.056582 kJ/mol
# GULP energy per Si atom -12391.004042 kJ/mol
# Density = 2.282848 g / cm^3
# Si number density = 22.880561 Si / 1000 Ang^3
#
#
#
# Elastic Constant Matrix: (Units=GPa)
#
#
# Indices 1 2 3 4 5 6 
#
# 1 74.4776 9.1458 25.2318 -5.0425 8.4018 6.5951
# 2 9.1458 104.0322 11.4520 -9.9162 -2.2133 24.6580
# 3 25.2318 11.4520 81.2498 0.0087 1.6766 1.9295
# 4 -5.0425 -9.9162 0.0087 38.5498 -1.3615 -0.0483
# 5 8.4018 -2.2133 1.6766 -1.3615 32.2027 -2.1967
# 6 6.5951 24.6580 1.9295 -0.0483 -2.1967 44.0225
#
#
#
# Elastic Compliance Matrix: (Units=1/GPa)
#
#
# Indices 1 2 3 4 5 6 
#
# 1 0.015838 -0.000250 -0.004749 0.001865 -0.003975 -0.002221
# 2 -0.000250 0.011594 -0.001419 0.002964 0.000627 -0.006360
# 3 -0.004749 -0.001419 0.013952 -0.000973 0.000436 0.000915
# 4 0.001865 0.002964 -0.000973 0.026972 0.000783 -0.001828
# 5 -0.003975 0.000627 0.000436 0.000783 0.032269 0.001836
# 6 -0.002221 -0.006360 0.000915 -0.001828 0.001836 0.026660
#
#
# Mechanical properties :
#
#
# Convention : Reuss Voigt Hill
#
# Bulk Modulus (GPa) = 35.02789 39.04651 37.03720
# Shear Modulus (GPa) = 33.41453 37.21701 35.31577
#
# Velocity S-wave (km/s) = 3.82565 4.03746 3.93298
# Velocity P-wave (km/s) = 5.90393 6.23195 6.07016
#
# Compressibility (1/GPa) = 0.02854868
#
# Stress axis : x y z
#
# Youngs Moduli (GPa) = 63.14090 86.25259 71.67595
#
# Poissons Ratio (x) = 0.02156 0.34035
# Poissons Ratio (y) = 0.01579 0.10169
# Poissons Ratio (z) = 0.29982 0.12237
#
# Static dielectric constant tensor:
#      x y z
#    x 4.706240 0.253430 0.443790 
#    y 0.253430 4.667590 0.027270 
#    z 0.443790 0.027270 2.909440 
# 
# 
# High freq. dielectric constant tensor:
#      x y z
#    x 1.906010 0.011140 -0.005220 
#    y 0.011140 1.916100 0.002990 
#    z -0.005220 0.002990 1.900310 
# 
# From -- ./inp_files/327588.got.cif
#   From: 2010.06.25/outbox.cif.g09.slc.cpg/sg2_164_cif.got.tgz:327588.got - 2010.06.27 13:26:56.
