data_PCOD8004085
_publ_section_title
;
Structure prediction by ZEFSAII (Michael W. Deem and Ramdas Pophale) SiO2 
 PCOD8004085
Probable space group: P -1
;
_chemical_formula_sum "Si O2"
_cell_formula_units_Z 14
_cell_length_a 13.278726
_cell_length_b 10.865956
_cell_length_c 13.573243
_cell_angle_alpha 67.302750
_cell_angle_beta 133.572076
_cell_angle_gamma 147.793693
_cell_volume 650.001965
_symmetry_space_group_name_H-M "P -1"
_symmetry_group_IT_number 2
_symmetry_cell_setting 'triclinic'
loop_
_space_group_symop_operation_xyz
x,y,z
-x,-y,-z
loop_
_atom_site_type_symbol
_atom_site_label
_atom_site_fract_x
_atom_site_fract_y
_atom_site_fract_z
Si Si1 0.321668 0.146845 0.244215
Si Si2 0.089191 0.427634 0.118193
Si Si3 0.793990 0.243747 0.241088
Si Si4 0.275772 0.404145 0.074011
Si Si5 0.329611 0.786229 0.628293
Si Si6 0.609319 0.256378 0.575183
Si Si7 0.612759 0.903180 0.074465
O O1 0.379276 0.349744 0.201613
O O2 0.520271 0.231066 0.276830
O O3 0.397761 0.180013 0.399603
O O4 0.000791 0.841246 0.102672
O O5 0.243057 0.480831 0.117512
O O6 0.287392 0.599620 0.295348
O O7 0.822220 0.111629 0.061934
O O8 0.000000 0.500000 0.000000
O O9 0.605377 0.095734 0.257475
O O10 0.128294 0.549202 0.383432
O O11 0.755407 0.064678 0.224291
O O12 0.678585 0.256999 0.082060
O O13 0.524309 0.673529 0.090059
O O14 0.000000 0.500000 0.500000
O O15 0.449718 0.983649 0.564941
#
# Coordination Sequence:
#
# PCOD8004085 Si02
#       7
#     2   2   2   2   2   2   2
#     4  11  25  44  59  93 133 169 204 255 319 367
#     4  11  22  42  69  95 123 161 214 261 309 370
#     4  10  20  37  63  95 118 153 209 266 302 362
#     4  11  24  44  63  88 134 167 205 260 308 378
#     4  12  23  37  64  92 123 160 206 256 310 371
#     4  11  23  41  63  94 124 160 213 261 312 360
#     4  10  20  37  66  92 119 161 208 256 314 363
#
# _framework density 21.538395999999999
#
# number of rings (size 3 to 8) (size 9 to 14) (size 15 to 20)
#    0.000    1.143    1.429    7.286    2.000    0.571 
#    2.571    5.000    0.000    0.000    0.000    0.000 
#    0.000    0.000    0.000    0.000    0.000    0.000 
#
# Total GULP energy -173562.783059 kJ/mol
# GULP energy per Si atom -12397.341647 kJ/mol
# Density = 2.148937 g / cm^3
# Si number density = 21.538396 Si / 1000 Ang^3
#
#
#
# Elastic Constant Matrix: (Units=GPa)
#
#
# Indices 1 2 3 4 5 6 
#
# 1 51.0761 43.5374 28.3066 -15.6381 0.6677 5.4545
# 2 43.5374 187.9607 55.1784 -6.9663 13.8929 -3.4462
# 3 28.3066 55.1784 124.9987 -13.8426 0.0212 -3.8771
# 4 -15.6381 -6.9663 -13.8426 30.0333 2.2371 2.0454
# 5 0.6677 13.8929 0.0212 2.2371 29.0065 -7.4323
# 6 5.4545 -3.4462 -3.8771 2.0454 -7.4323 28.1583
#
#
#
# Elastic Compliance Matrix: (Units=1/GPa)
#
#
# Indices 1 2 3 4 5 6 
#
# 1 0.031791 -0.005946 -0.003254 0.014357 -0.001218 -0.008698
# 2 -0.005946 0.007495 -0.002171 -0.002213 -0.002988 0.001142
# 3 -0.003254 -0.002171 0.009996 0.002168 0.001444 0.001965
# 4 0.014357 -0.002213 0.002168 0.042051 -0.004294 -0.006941
# 5 -0.001218 -0.002988 0.001444 -0.004294 0.038999 0.010675
# 6 -0.008698 0.001142 0.001965 -0.006941 0.010675 0.040930
#
#
# Mechanical properties :
#
#
# Convention : Reuss Voigt Hill
#
# Bulk Modulus (GPa) = 37.67954 68.67557 53.17756
# Shear Modulus (GPa) = 24.64867 33.24050 28.94458
#
# Velocity S-wave (km/s) = 3.38658 3.93276 3.66985
# Velocity P-wave (km/s) = 5.72922 7.25097 6.53455
#
# Compressibility (1/GPa) = 0.02653960
#
# Stress axis : x y z
#
# Youngs Moduli (GPa) = 31.45545 133.42976 100.03829
#
# Poissons Ratio (x) = 0.79335 0.32554
# Poissons Ratio (y) = 0.18703 0.21719
# Poissons Ratio (z) = 0.10236 0.28969
#
# Static dielectric constant tensor:
#      x y z
#    x 3.984060 0.117200 -0.346810 
#    y 0.117200 4.058990 0.075920 
#    z -0.346810 0.075920 4.010920 
# 
# 
# High freq. dielectric constant tensor:
#      x y z
#    x 1.829970 0.008330 -0.027710 
#    y 0.008330 1.857250 0.014450 
#    z -0.027710 0.014450 1.848010 
# 
# From -- ./inp_files/257778.got.cif
#   From: 2010.06.25/outbox.cif.g09.slc.cpg/sg2_129_cif.got.tgz:257778.got - 2010.06.27 13:26:56.
