data_PCOD8004719
_publ_section_title
;
Structure prediction by ZEFSAII (Michael W. Deem and Ramdas Pophale) SiO2 
 PCOD8004719
Probable space group: P -1
;
_chemical_formula_sum "Si O2"
_cell_formula_units_Z 16
_cell_length_a 11.417997
_cell_length_b 14.649721
_cell_length_c 8.783249
_cell_angle_alpha 50.219275
_cell_angle_beta 40.423139
_cell_angle_gamma 51.743603
_cell_volume 705.930481
_symmetry_space_group_name_H-M "P -1"
_symmetry_group_IT_number 2
_symmetry_cell_setting 'triclinic'
loop_
_space_group_symop_operation_xyz
x,y,z
-x,-y,-z
loop_
_atom_site_type_symbol
_atom_site_label
_atom_site_fract_x
_atom_site_fract_y
_atom_site_fract_z
Si Si1 0.530388 0.683472 0.844957
Si Si2 0.460709 0.561433 0.748482
Si Si3 0.733267 0.969602 0.475304
Si Si4 0.885264 0.467383 0.365524
Si Si5 0.080258 0.260770 0.604850
Si Si6 0.999773 0.121492 0.124197
Si Si7 0.646528 0.060609 0.127364
Si Si8 0.904926 0.350431 0.152442
O O1 0.428981 0.653748 0.825257
O O2 0.719769 0.716950 0.571588
O O3 0.387717 0.793707 0.961843
O O4 0.581169 0.567033 0.029560
O O5 0.668335 0.539571 0.500597
O O6 0.315577 0.622494 0.695713
O O7 0.811778 0.074382 0.362745
O O8 0.692584 0.989848 0.315096
O O9 0.885403 0.836269 0.467204
O O10 0.534872 0.965708 0.749355
O O11 0.938393 0.377447 0.264602
O O12 0.935386 0.386784 0.555987
O O13 0.002504 0.568373 0.137838
O O14 0.992359 0.208225 0.891537
O O15 0.000483 0.205564 0.181915
O O16 0.175190 0.000004 0.090567
#
# Coordination Sequence:
#
# PCOD8004719 Si02
#       8
#     2   2   2   2   2   2   2   2
#     4  10  21  35  62  96 123 143 200 255 290 352
#     4  11  23  37  62  90 118 157 198 249 296 349
#     4   9  19  32  56  87 122 150 189 240 293 354
#     4  11  25  42  62  82 124 165 194 246 300 349
#     4  10  20  38  61  92 121 153 195 246 301 345
#     4  11  22  35  64  88 119 153 198 243 290 354
#     4   9  18  35  53  88 123 155 179 241 308 341
#     4  11  25  44  58  88 121 159 205 241 294 358
#
# _framework density 22.665122
#
# number of rings (size 3 to 8) (size 9 to 14) (size 15 to 20)
#    0.000    1.750    1.250    4.125    7.000    2.000 
#    0.000    0.625    0.000    1.500    0.000    0.000 
#    0.000    0.000    0.000    0.000    0.000    0.000 
#
# Total GULP energy -198386.747861 kJ/mol
# GULP energy per Si atom -12399.171741 kJ/mol
# Density = 2.261353 g / cm^3
# Si number density = 22.665122 Si / 1000 Ang^3
#
#
#
# Elastic Constant Matrix: (Units=GPa)
#
#
# Indices 1 2 3 4 5 6 
#
# 1 50.5011 39.6462 15.9345 -4.3334 -24.7344 15.3305
# 2 39.6462 145.6296 31.6008 3.8437 -25.3843 22.6423
# 3 15.9345 31.6008 51.7623 -2.5929 -20.6030 10.7160
# 4 -4.3334 3.8437 -2.5929 28.1337 -1.0375 -6.4959
# 5 -24.7344 -25.3843 -20.6030 -1.0375 27.7051 -3.4656
# 6 15.3305 22.6423 10.7160 -6.4959 -3.4656 33.8710
#
#
#
# Elastic Compliance Matrix: (Units=1/GPa)
#
#
# Indices 1 2 3 4 5 6 
#
# 1 0.046755 -0.005210 0.008933 0.006847 0.042004 -0.014894
# 2 -0.005210 0.009903 -0.003283 -0.003262 0.001395 -0.003706
# 3 0.008933 -0.003283 0.031384 0.003826 0.027419 -0.008239
# 4 0.006847 -0.003262 0.003826 0.039136 0.008212 0.006217
# 5 0.042004 0.001395 0.027419 0.008212 0.093383 -0.017489
# 6 -0.014894 -0.003706 -0.008239 0.006217 -0.017489 0.040752
#
#
# Mechanical properties :
#
#
# Convention : Reuss Voigt Hill
#
# Bulk Modulus (GPa) = 11.24572 46.91734 29.08153
# Shear Modulus (GPa) = 17.23698 28.65606 22.94652
#
# Velocity S-wave (km/s) = 2.76072 3.55959 3.18530
# Velocity P-wave (km/s) = 3.89032 6.13510 5.13683
#
# Compressibility (1/GPa) = 0.08892269
#
# Stress axis : x y z
#
# Youngs Moduli (GPa) = 21.38805 100.97960 31.86308
#
# Poissons Ratio (x) = 0.52614 -0.28465
# Poissons Ratio (y) = 0.11144 0.10460
# Poissons Ratio (z) = -0.19107 0.33150
#
# Static dielectric constant tensor:
#      x y z
#    x 3.755880 -0.003920 -0.399800 
#    y -0.003920 4.426390 -0.008240 
#    z -0.399800 -0.008240 3.841870 
# 
# 
# High freq. dielectric constant tensor:
#      x y z
#    x 1.870620 0.003100 -0.039900 
#    y 0.003100 1.912510 -0.003060 
#    z -0.039900 -0.003060 1.868910 
# 
# From -- ./inp_files/271711.got.cif
#   From: 2010.06.25/outbox.cif.g09.slc.cpg/sg2_136_cif.got.tgz:271711.got - 2010.06.27 13:26:56.
