data_PCOD8004924
_publ_section_title
;
Structure prediction by ZEFSAII (Michael W. Deem and Ramdas Pophale) SiO2 
 PCOD8004924
Probable space group: P -1
;
_chemical_formula_sum "Si O2"
_cell_formula_units_Z 14
_cell_length_a 19.437693
_cell_length_b 7.478883
_cell_length_c 6.615887
_cell_angle_alpha 120.229669
_cell_angle_beta 44.308603
_cell_angle_gamma 116.394897
_cell_volume 574.770714
_symmetry_space_group_name_H-M "P -1"
_symmetry_group_IT_number 2
_symmetry_cell_setting 'triclinic'
loop_
_space_group_symop_operation_xyz
x,y,z
-x,-y,-z
loop_
_atom_site_type_symbol
_atom_site_label
_atom_site_fract_x
_atom_site_fract_y
_atom_site_fract_z
Si Si1 0.164871 0.405166 0.843964
Si Si2 0.533986 0.739391 0.595351
Si Si3 0.220291 0.676192 0.526808
Si Si4 0.035847 0.782417 0.742901
Si Si5 0.738624 0.718118 0.036460
Si Si6 0.826040 0.965444 0.668513
Si Si7 0.363166 0.984339 0.150543
O O1 0.210352 0.622711 0.760265
O O2 0.243258 0.332699 0.796074
O O3 0.137604 0.233401 0.629772
O O4 0.058579 0.402691 0.184913
O O5 0.500000 0.500000 0.500000
O O6 0.630100 0.788905 0.276666
O O7 0.571087 0.805266 0.783424
O O8 0.439810 0.853002 0.802732
O O9 0.111284 0.717386 0.713142
O O10 0.304104 0.871327 0.407275
O O11 0.254879 0.484330 0.225237
O O12 0.098198 0.824104 0.422485
O O13 0.000000 0.000000 0.000000
O O14 0.818222 0.913341 0.895867
O O15 0.714907 0.976431 0.831681
#
# Coordination Sequence:
#
# PCOD8004924 Si02
#       7
#     2   2   2   2   2   2   2
#     4  10  20  38  63  90 130 169 208 259 313 370
#     4  11  22  41  68  95 126 164 215 261 321 384
#     4  10  21  40  63  93 126 167 212 257 315 377
#     4   9  19  38  63  89 127 169 210 258 312 370
#     4  11  22  39  62  93 129 165 212 263 315 372
#     4   9  20  39  62  92 129 167 209 260 313 374
#     4  10  21  42  66  93 130 165 210 266 316 377
#
# _framework density 24.357541000000001
#
# number of rings (size 3 to 8) (size 9 to 14) (size 15 to 20)
#    0.000    2.000    2.857    0.429    0.000    1.714 
#    5.143    4.286    0.000    0.000    0.000    0.000 
#    0.000    0.000    0.000    0.000    0.000    0.000 
#
# Total GULP energy -173436.548204 kJ/mol
# GULP energy per Si atom -12388.324872 kJ/mol
# Density = 2.430210 g / cm^3
# Si number density = 24.357541 Si / 1000 Ang^3
#
#
#
# Elastic Constant Matrix: (Units=GPa)
#
#
# Indices 1 2 3 4 5 6 
#
# 1 64.1699 22.2853 32.9793 -16.4920 -13.1325 -15.3487
# 2 22.2853 102.1371 19.9625 -22.3774 10.2453 -3.4776
# 3 32.9793 19.9625 90.2640 -23.0323 -12.6711 -10.3835
# 4 -16.4920 -22.3774 -23.0323 44.9080 -13.3299 8.5363
# 5 -13.1325 10.2453 -12.6711 -13.3299 45.6407 -10.7321
# 6 -15.3487 -3.4776 -10.3835 8.5363 -10.7321 35.7545
#
#
#
# Elastic Compliance Matrix: (Units=1/GPa)
#
#
# Indices 1 2 3 4 5 6 
#
# 1 0.026059 -0.004260 -0.003762 0.006911 0.012176 0.011685
# 2 -0.004260 0.011944 -0.001186 0.003152 -0.004014 -0.002969
# 3 -0.003762 -0.001186 0.015905 0.007540 0.006517 0.003044
# 4 0.006911 0.003152 0.007540 0.034022 0.013649 0.001437
# 5 0.012176 -0.004014 0.006517 0.013649 0.035427 0.014104
# 6 0.011685 -0.002969 0.003044 0.001437 0.014104 0.037470
#
#
# Mechanical properties :
#
#
# Convention : Reuss Voigt Hill
#
# Bulk Modulus (GPa) = 28.17521 45.22506 36.70014
# Shear Modulus (GPa) = 26.16791 37.35023 31.75907
#
# Velocity S-wave (km/s) = 3.28125 3.92013 3.61483
# Velocity P-wave (km/s) = 5.09391 6.25279 5.70286
#
# Compressibility (1/GPa) = 0.03549219
#
# Stress axis : x y z
#
# Youngs Moduli (GPa) = 38.37387 83.72330 62.87483
#
# Poissons Ratio (x) = 0.35666 0.23655
# Poissons Ratio (y) = 0.16347 0.07455
# Poissons Ratio (z) = 0.14437 0.09927
#
# Static dielectric constant tensor:
#      x y z
#    x 4.993260 2.011780 -3.354080 
#    y 2.011780 9.822340 -7.540890 
#    z -3.354080 -7.540890 14.825670 
# 
# 
# High freq. dielectric constant tensor:
#      x y z
#    x 1.938560 -0.004760 -0.027040 
#    y -0.004760 1.969240 -0.002270 
#    z -0.027040 -0.002270 1.987610 
# 
# From -- ./inp_files/107469.got.cif
#   From: 2010.06.25/outbox.cif.g09.slc.cpg/sg2_54_cif.got.tgz:107469.got - 2010.06.27 13:26:56.
