data_PCOD8004725
_publ_section_title
;
Structure prediction by ZEFSAII (Michael W. Deem and Ramdas Pophale) SiO2 
 PCOD8004725
Probable space group: P -1
;
_chemical_formula_sum "Si O2"
_cell_formula_units_Z 16
_cell_length_a 8.491660
_cell_length_b 16.247120
_cell_length_c 12.186002
_cell_angle_alpha 54.262064
_cell_angle_beta 52.024815
_cell_angle_gamma 95.573455
_cell_volume 753.733289
_symmetry_space_group_name_H-M "P -1"
_symmetry_group_IT_number 2
_symmetry_cell_setting 'triclinic'
loop_
_space_group_symop_operation_xyz
x,y,z
-x,-y,-z
loop_
_atom_site_type_symbol
_atom_site_label
_atom_site_fract_x
_atom_site_fract_y
_atom_site_fract_z
Si Si1 0.317946 0.029145 0.508823
Si Si2 0.881438 0.007252 0.819038
Si Si3 0.209774 0.442323 0.630143
Si Si4 0.893932 0.346843 0.279507
Si Si5 0.710440 0.068177 0.632466
Si Si6 0.041696 0.831710 0.139417
Si Si7 0.195755 0.651688 0.933052
Si Si8 0.536764 0.740489 0.301268
O O1 0.202825 0.960538 0.491744
O O2 0.488707 0.197010 0.292613
O O3 0.500000 0.000000 0.500000
O O4 0.062011 0.970553 0.744355
O O5 0.799046 0.035490 0.723502
O O6 0.030375 0.139299 0.737166
O O7 0.590182 0.862955 0.115077
O O8 0.500000 0.500000 0.500000
O O9 0.315261 0.594099 0.434787
O O10 0.052150 0.322033 0.693914
O O11 0.005330 0.365144 0.882249
O O12 0.879368 0.331977 0.167128
O O13 0.609679 0.296608 0.488472
O O14 0.903860 0.240114 0.414475
O O15 0.165397 0.517868 0.058153
O O16 0.370925 0.966417 0.859133
O O17 0.847864 0.806614 0.144032
#
# Coordination Sequence:
#
# PCOD8004725 Si02
#       8
#     2   2   2   2   2   2   2   2
#     4  12  24  42  68  91 123 170 216 264 312 374
#     4  12  26  40  62  95 132 168 212 262 316 384
#     4   9  20  36  61  94 123 154 209 274 312 363
#     4  10  21  37  63  92 130 158 207 267 314 371
#     4  12  24  41  61  95 133 170 207 256 327 378
#     4  11  21  39  65  92 124 165 217 261 309 374
#     4  10  20  38  61  95 119 163 211 263 313 363
#     4  10  21  38  63  96 125 161 219 263 312 365
#
# _framework density 21.227668999999999
#
# number of rings (size 3 to 8) (size 9 to 14) (size 15 to 20)
#    0.000    1.250    3.750    2.625    1.750    1.000 
#    0.000    2.500    0.000    0.000    0.000    0.000 
#    0.000    0.000    0.000    0.000    0.000    0.000 
#
# Total GULP energy -198215.911341 kJ/mol
# GULP energy per Si atom -12388.494459 kJ/mol
# Density = 2.117935 g / cm^3
# Si number density = 21.227669 Si / 1000 Ang^3
#
#
#
# Elastic Constant Matrix: (Units=GPa)
#
#
# Indices 1 2 3 4 5 6 
#
# 1 53.8590 32.6900 33.4294 -8.1307 21.6729 -1.2084
# 2 32.6900 163.3695 54.7706 -14.1628 13.8144 5.3190
# 3 33.4294 54.7706 99.5419 -22.6049 15.1023 6.2294
# 4 -8.1307 -14.1628 -22.6049 44.0247 -6.0447 -0.2443
# 5 21.6729 13.8144 15.1023 -6.0447 26.3356 5.3605
# 6 -1.2084 5.3190 6.2294 -0.2443 5.3605 18.8034
#
#
#
# Elastic Compliance Matrix: (Units=1/GPa)
#
#
# Indices 1 2 3 4 5 6 
#
# 1 0.035850 -0.002955 -0.007606 -0.001829 -0.026708 0.013250
# 2 -0.002955 0.007826 -0.003217 0.000389 0.000565 -0.001494
# 3 -0.007606 -0.003217 0.015824 0.005828 0.001249 -0.005101
# 4 -0.001829 0.000389 0.005828 0.026107 0.004587 -0.003127
# 5 -0.026708 0.000565 0.001249 0.004587 0.064168 -0.020524
# 6 0.013250 -0.001494 -0.005101 -0.003127 -0.020524 0.061957
#
#
# Mechanical properties :
#
#
# Convention : Reuss Voigt Hill
#
# Bulk Modulus (GPa) = 31.30620 62.06114 46.68367
# Shear Modulus (GPa) = 20.00515 30.89143 25.44829
#
# Velocity S-wave (km/s) = 3.07320 3.81890 3.46616
# Velocity P-wave (km/s) = 5.23188 6.98175 6.16917
#
# Compressibility (1/GPa) = 0.03194255
#
# Stress axis : x y z
#
# Youngs Moduli (GPa) = 27.89407 127.78562 63.19517
#
# Poissons Ratio (x) = 0.37762 0.48066
# Poissons Ratio (y) = 0.08243 0.20332
# Poissons Ratio (z) = 0.21216 0.41113
#
# Static dielectric constant tensor:
#      x y z
#    x 3.212220 -0.127980 0.050980 
#    y -0.127980 4.562760 -0.525380 
#    z 0.050980 -0.525380 4.268490 
# 
# 
# High freq. dielectric constant tensor:
#      x y z
#    x 1.770490 -0.009610 0.001220 
#    y -0.009610 1.862130 -0.006690 
#    z 0.001220 -0.006690 1.847650 
# 
# From -- ./inp_files/402973.got.cif
#   From: 2010.06.25/outbox.cif.g09.slc.cpg/sg2_202_cif.got.tgz:402973.got - 2010.06.27 13:26:56.
