data_PCOD8004908
_publ_section_title
;
Structure prediction by ZEFSAII (Michael W. Deem and Ramdas Pophale) SiO2 
 PCOD8004908
Probable space group: P -1
;
_chemical_formula_sum "Si O2"
_cell_formula_units_Z 16
_cell_length_a 8.814266
_cell_length_b 11.550639
_cell_length_c 13.951394
_cell_angle_alpha 63.814351
_cell_angle_beta 98.048380
_cell_angle_gamma 141.343272
_cell_volume 741.269711
_symmetry_space_group_name_H-M "P -1"
_symmetry_group_IT_number 2
_symmetry_cell_setting 'triclinic'
loop_
_space_group_symop_operation_xyz
x,y,z
-x,-y,-z
loop_
_atom_site_type_symbol
_atom_site_label
_atom_site_fract_x
_atom_site_fract_y
_atom_site_fract_z
Si Si1 0.057105 0.338833 0.034935
Si Si2 0.912722 0.041388 0.897620
Si Si3 0.272402 0.254839 0.525697
Si Si4 0.703765 0.505790 0.199965
Si Si5 0.774784 0.029426 0.481861
Si Si6 0.864945 0.856282 0.775322
Si Si7 0.592526 0.179652 0.087352
Si Si8 0.397248 0.840444 0.682797
O O1 0.070779 0.245760 0.155704
O O2 0.751412 0.169489 0.058075
O O3 0.175463 0.362551 0.938988
O O4 0.225351 0.572765 0.999549
O O5 0.153226 0.296337 0.788827
O O6 0.797044 0.888336 0.852874
O O7 0.676756 0.974296 0.936774
O O8 0.000000 0.000000 0.000000
O O9 0.500000 0.500000 0.500000
O O10 0.081687 0.210681 0.458099
O O11 0.371330 0.198992 0.490620
O O12 0.109643 0.083832 0.660663
O O13 0.393042 0.311824 0.251905
O O14 0.782783 0.410027 0.259314
O O15 0.756653 0.134805 0.366693
O O16 0.654081 0.995446 0.583828
O O17 0.522853 0.099916 0.221137
#
# Coordination Sequence:
#
# PCOD8004908 Si02
#       8
#     2   2   2   2   2   2   2   2
#     4  10  20  38  63  88 129 168 201 252 319 374
#     4  12  23  37  64  95 127 172 216 248 308 389
#     4  11  25  43  66  97 128 162 213 274 319 375
#     4  11  22  39  65  92 126 170 210 258 316 380
#     4  10  22  44  67  90 126 163 219 264 317 377
#     4  12  22  43  62  89 129 168 208 259 320 379
#     4  10  21  39  62  94 131 166 207 259 316 373
#     4  10  20  43  66  90 124 173 209 260 317 373
#
# _framework density 21.584585000000001
#
# number of rings (size 3 to 8) (size 9 to 14) (size 15 to 20)
#    0.000    1.250    5.000    1.875    1.750    0.500 
#    4.500    3.750    0.000    0.000    0.000    0.000 
#    0.000    0.000    0.000    0.000    0.000    0.000 
#
# Total GULP energy -198309.891218 kJ/mol
# GULP energy per Si atom -12394.368201 kJ/mol
# Density = 2.153546 g / cm^3
# Si number density = 21.584585 Si / 1000 Ang^3
#
#
#
# Elastic Constant Matrix: (Units=GPa)
#
#
# Indices 1 2 3 4 5 6 
#
# 1 123.1350 40.2566 48.8054 -4.0419 24.2089 12.1296
# 2 40.2566 103.7386 19.7156 -21.6967 12.3090 9.5724
# 3 48.8054 19.7156 96.8474 -10.4458 18.1284 8.8724
# 4 -4.0419 -21.6967 -10.4458 26.0340 -1.9798 -0.9684
# 5 24.2089 12.3090 18.1284 -1.9798 47.2018 3.6602
# 6 12.1296 9.5724 8.8724 -0.9684 3.6602 28.4174
#
#
#
# Elastic Compliance Matrix: (Units=1/GPa)
#
#
# Indices 1 2 3 4 5 6 
#
# 1 0.012070 -0.003957 -0.004878 -0.003706 -0.003285 -0.001999
# 2 -0.003957 0.013691 0.000857 0.010949 -0.001204 -0.002662
# 3 -0.004878 0.000857 0.013858 0.005240 -0.002668 -0.002011
# 4 -0.003706 0.010949 0.005240 0.048932 -0.000761 -0.001977
# 5 -0.003285 -0.001204 -0.002668 -0.000761 0.024216 -0.000504
# 6 -0.001999 -0.002662 -0.002011 -0.001977 -0.000504 0.037565
#
#
# Mechanical properties :
#
#
# Convention : Reuss Voigt Hill
#
# Bulk Modulus (GPa) = 42.26198 60.14180 51.20189
# Shear Modulus (GPa) = 28.70654 34.66020 31.68337
#
# Velocity S-wave (km/s) = 3.65081 4.01157 3.83544
# Velocity P-wave (km/s) = 6.11502 7.02714 6.58689
#
# Compressibility (1/GPa) = 0.02366193
#
# Stress axis : x y z
#
# Youngs Moduli (GPa) = 82.85204 73.04153 72.15891
#
# Poissons Ratio (x) = 0.28906 0.35202
# Poissons Ratio (y) = 0.32788 -0.06187
# Poissons Ratio (z) = 0.40419 -0.06263
#
# Static dielectric constant tensor:
#      x y z
#    x 4.241220 -0.109440 0.124400 
#    y -0.109440 3.823170 -0.000850 
#    z 0.124400 -0.000850 3.934440 
# 
# 
# High freq. dielectric constant tensor:
#      x y z
#    x 1.862290 -0.006300 0.007570 
#    y -0.006300 1.822370 -0.003080 
#    z 0.007570 -0.003080 1.851260 
# 
# From -- ./inp_files/500177.got.cif
#   From: 2010.06.25/outbox.cif.g09.slc.cpg/sg2_251_cif.got.tgz:500177.got - 2010.06.27 13:26:56.
