data_PCOD8004685
_publ_section_title
;
Structure prediction by ZEFSAII (Michael W. Deem and Ramdas Pophale) SiO2 
 PCOD8004685
Probable space group: P -1
;
_chemical_formula_sum "Si O2"
_cell_formula_units_Z 14
_cell_length_a 21.374574
_cell_length_b 11.290311
_cell_length_c 15.895610
_cell_angle_alpha 31.137219
_cell_angle_beta 19.546652
_cell_angle_gamma 32.971770
_cell_volume 651.954818
_symmetry_space_group_name_H-M "P -1"
_symmetry_group_IT_number 2
_symmetry_cell_setting 'triclinic'
loop_
_space_group_symop_operation_xyz
x,y,z
-x,-y,-z
loop_
_atom_site_type_symbol
_atom_site_label
_atom_site_fract_x
_atom_site_fract_y
_atom_site_fract_z
Si Si1 0.601918 0.129863 0.554582
Si Si2 0.982556 0.186276 0.481987
Si Si3 0.322034 0.939693 0.309744
Si Si4 0.050873 0.639354 0.026917
Si Si5 0.695090 0.943675 0.236363
Si Si6 0.393282 0.758858 0.975271
Si Si7 0.270094 0.450002 0.709158
O O1 0.653799 0.018474 0.647748
O O2 0.778068 0.239968 0.229907
O O3 0.423365 0.345591 0.650438
O O4 0.551741 0.922085 0.687350
O O5 0.766147 0.205418 0.773199
O O6 0.000000 0.000000 0.500000
O O7 0.128069 0.099057 0.425956
O O8 0.020437 0.434657 0.252016
O O9 0.319002 0.668514 0.463370
O O10 0.500000 0.000000 0.000000
O O11 0.080755 0.537219 0.953971
O O12 0.869723 0.852750 0.132388
O O13 0.721951 0.744969 0.251860
O O14 0.500000 0.000000 0.500000
O O15 0.705994 0.180640 0.027186
O O16 0.500000 0.500000 0.000000
#
# Coordination Sequence:
#
# PCOD8004685 Si02
#       7
#     2   2   2   2   2   2   2
#     4  10  22  40  62  89 123 161 203 254 308 366
#     4  12  23  38  64  97 127 161 204 253 304 360
#     4  11  20  34  59  95 125 156 202 258 304 350
#     4  11  21  40  64  91 121 161 205 250 303 366
#     4  11  23  40  61  88 122 165 205 245 304 373
#     4  11  24  44  63  89 124 161 203 257 311 367
#     4  10  20  38  61  89 123 161 201 249 302 366
#
# _framework density 21.473880999999999
#
# number of rings (size 3 to 8) (size 9 to 14) (size 15 to 20)
#    0.000    1.143    0.000    9.857    0.000    1.143 
#    0.000   10.714    0.000    0.000    0.000    0.000 
#    0.000    0.000    0.000    0.000    0.000    0.000 
#
# Total GULP energy -173496.673565 kJ/mol
# GULP energy per Si atom -12392.619540 kJ/mol
# Density = 2.142501 g / cm^3
# Si number density = 21.473881 Si / 1000 Ang^3
#
#
#
# Elastic Constant Matrix: (Units=GPa)
#
#
# Indices 1 2 3 4 5 6 
#
# 1 57.3999 39.2715 30.0009 2.4109 7.2810 -24.4052
# 2 39.2715 164.6696 68.9157 1.7293 4.8707 -33.6817
# 3 30.0009 68.9157 139.2317 -3.1205 4.9888 -8.7456
# 4 2.4109 1.7293 -3.1205 52.0322 -5.7515 8.4032
# 5 7.2810 4.8707 4.9888 -5.7515 26.2783 -5.5824
# 6 -24.4052 -33.6817 -8.7456 8.4032 -5.5824 37.2251
#
#
#
# Elastic Compliance Matrix: (Units=1/GPa)
#
#
# Indices 1 2 3 4 5 6 
#
# 1 0.028562 -0.001343 -0.004380 -0.004746 -0.004280 0.016911
# 2 -0.001343 0.009578 -0.004050 -0.001613 0.000560 0.007282
# 3 -0.004380 -0.004050 0.009894 0.001623 -0.000549 -0.004661
# 4 -0.004746 -0.001613 0.001623 0.021410 0.004209 -0.008392
# 5 -0.004280 0.000560 -0.000549 0.004209 0.040742 0.002731
# 6 0.016911 0.007282 -0.004661 -0.008392 0.002731 0.045749
#
#
# Mechanical properties :
#
#
# Convention : Reuss Voigt Hill
#
# Bulk Modulus (GPa) = 35.10359 70.85305 52.97832
# Shear Modulus (GPa) = 27.03008 37.98131 32.50570
#
# Velocity S-wave (km/s) = 3.55172 4.21018 3.89489
# Velocity P-wave (km/s) = 5.76214 7.52999 6.70459
#
# Compressibility (1/GPa) = 0.02848711
#
# Stress axis : x y z
#
# Youngs Moduli (GPa) = 35.01097 104.40518 101.06937
#
# Poissons Ratio (x) = 0.14022 0.44273
# Poissons Ratio (y) = 0.04702 0.40936
# Poissons Ratio (z) = 0.15337 0.42287
#
# Static dielectric constant tensor:
#      x y z
#    x 4.012990 -0.554630 -0.070330 
#    y -0.554630 4.275530 -0.062520 
#    z -0.070330 -0.062520 4.143610 
# 
# 
# High freq. dielectric constant tensor:
#      x y z
#    x 1.833890 -0.030260 -0.000350 
#    y -0.030260 1.854360 -0.003530 
#    z -0.000350 -0.003530 1.849570 
# 
# From -- ./inp_files/154187.got.cif
#   From: 2010.06.25/outbox.cif.g09.slc.cpg/sg2_78_cif.got.tgz:154187.got - 2010.06.27 13:26:56.
