data_PCOD8004209
_publ_section_title
;
Structure prediction by ZEFSAII (Michael W. Deem and Ramdas Pophale) SiO2 
 PCOD8004209
Probable space group: P -1
;
_chemical_formula_sum "Si O2"
_cell_formula_units_Z 14
_cell_length_a 11.201710
_cell_length_b 20.074191
_cell_length_c 14.218401
_cell_angle_alpha 23.256000
_cell_angle_beta 147.479376
_cell_angle_gamma 149.022503
_cell_volume 625.064888
_symmetry_space_group_name_H-M "P -1"
_symmetry_group_IT_number 2
_symmetry_cell_setting 'triclinic'
loop_
_space_group_symop_operation_xyz
x,y,z
-x,-y,-z
loop_
_atom_site_type_symbol
_atom_site_label
_atom_site_fract_x
_atom_site_fract_y
_atom_site_fract_z
Si Si1 0.385204 0.614367 0.337732
Si Si2 0.005216 0.534566 0.569428
Si Si3 0.268081 0.788230 0.693944
Si Si4 0.596583 0.153988 0.497442
Si Si5 0.038451 0.375330 0.082331
Si Si6 0.113524 0.116436 0.619451
Si Si7 0.816715 0.729187 0.867354
O O1 0.500000 0.500000 0.500000
O O2 0.605761 0.796117 0.283149
O O3 0.242979 0.522056 0.460197
O O4 0.211523 0.663381 0.088504
O O5 0.150688 0.753687 0.398549
O O6 0.000000 0.500000 0.500000
O O7 0.167450 0.429641 0.851162
O O8 0.370978 0.770091 0.685210
O O9 0.063126 0.874408 0.424817
O O10 0.486548 0.931488 0.716487
O O11 0.161970 0.583813 0.934682
O O12 0.415999 0.230826 0.323621
O O13 0.009284 0.230366 0.332058
O O14 0.211940 0.336252 0.174036
O O15 0.057452 0.913638 0.807274
#
# Coordination Sequence:
#
# PCOD8004209 Si02
#       7
#     2   2   2   2   2   2   2
#     4  11  23  42  67  92 135 168 216 278 322 383
#     4  11  24  41  63 100 132 169 217 266 331 394
#     4  10  20  37  65  93 122 165 221 263 313 395
#     4  10  20  40  65  85 128 170 208 264 324 381
#     4  11  22  40  64  97 124 166 222 261 327 387
#     4  11  23  41  64  95 125 170 216 263 329 381
#     4  10  23  41  62  93 127 169 212 267 322 390
#
# _framework density 22.397673999999999
#
# number of rings (size 3 to 8) (size 9 to 14) (size 15 to 20)
#    0.000    1.429    4.286    1.286    2.000    2.286 
#    5.143    0.000    0.000    4.286    0.000    0.000 
#    0.000    0.000    0.000    0.000    0.000    0.000 
#
# Total GULP energy -173433.433253 kJ/mol
# GULP energy per Si atom -12388.102375 kJ/mol
# Density = 2.234670 g / cm^3
# Si number density = 22.397674 Si / 1000 Ang^3
#
#
#
# Elastic Constant Matrix: (Units=GPa)
#
#
# Indices 1 2 3 4 5 6 
#
# 1 95.0377 25.7146 13.1613 3.2557 7.2880 -5.7558
# 2 25.7146 181.2849 23.1863 -25.9952 -4.9925 6.2510
# 3 13.1613 23.1863 46.5098 -7.0952 -2.1867 -6.6564
# 4 3.2557 -25.9952 -7.0952 34.3249 -1.4275 1.1568
# 5 7.2880 -4.9925 -2.1867 -1.4275 26.9539 -5.1489
# 6 -5.7558 6.2510 -6.6564 1.1568 -5.1489 32.8013
#
#
#
# Elastic Compliance Matrix: (Units=1/GPa)
#
#
# Indices 1 2 3 4 5 6 
#
# 1 0.011945 -0.001967 -0.002895 -0.003424 -0.003740 0.001417
# 2 -0.001967 0.006939 -0.002355 0.005088 0.001496 -0.002090
# 3 -0.002895 -0.002355 0.024997 0.003624 0.003608 0.005452
# 4 -0.003424 0.005088 0.003624 0.034263 0.003697 -0.001463
# 5 -0.003740 0.001496 0.003608 0.003697 0.040012 0.005941
# 6 0.001417 -0.002090 0.005452 -0.001463 0.005941 0.033224
#
#
# Mechanical properties :
#
#
# Convention : Reuss Voigt Hill
#
# Bulk Modulus (GPa) = 33.95975 49.66188 41.81081
# Shear Modulus (GPa) = 28.46868 36.20072 32.33470
#
# Velocity S-wave (km/s) = 3.56905 4.02465 3.80368
# Velocity P-wave (km/s) = 5.67268 6.61952 6.16430
#
# Compressibility (1/GPa) = 0.02944662
#
# Stress axis : x y z
#
# Youngs Moduli (GPa) = 83.71566 144.10739 40.00464
#
# Poissons Ratio (x) = 0.28346 0.11581
# Poissons Ratio (y) = 0.16467 0.09423
# Poissons Ratio (z) = 0.24236 0.33944
#
# Static dielectric constant tensor:
#      x y z
#    x 4.551430 -0.009370 0.150030 
#    y -0.009370 4.463050 -0.379200 
#    z 0.150030 -0.379200 3.724920 
# 
# 
# High freq. dielectric constant tensor:
#      x y z
#    x 1.914700 0.001640 0.019780 
#    y 0.001640 1.892530 -0.027740 
#    z 0.019780 -0.027740 1.842090 
# 
# From -- ./inp_files/215004.got.cif
#   From: 2010.06.25/outbox.cif.g09.slc.cpg/sg2_108_cif.got.tgz:215004.got - 2010.06.27 13:26:56.
