data_PCOD8004331
_publ_section_title
;
Structure prediction by ZEFSAII (Michael W. Deem and Ramdas Pophale) SiO2 
 PCOD8004331
Probable space group: P -1
;
_chemical_formula_sum "Si O2"
_cell_formula_units_Z 16
_cell_length_a 21.111918
_cell_length_b 8.420664
_cell_length_c 11.295700
_cell_angle_alpha 121.728002
_cell_angle_beta 135.295273
_cell_angle_gamma 31.517807
_cell_volume 720.773652
_symmetry_space_group_name_H-M "P -1"
_symmetry_group_IT_number 2
_symmetry_cell_setting 'triclinic'
loop_
_space_group_symop_operation_xyz
x,y,z
-x,-y,-z
loop_
_atom_site_type_symbol
_atom_site_label
_atom_site_fract_x
_atom_site_fract_y
_atom_site_fract_z
Si Si1 0.048582 0.990764 0.306686
Si Si2 0.281563 0.327064 0.286233
Si Si3 0.921917 0.925299 0.861468
Si Si4 0.547646 0.295520 0.300183
Si Si5 0.838002 0.772527 0.068816
Si Si6 0.149772 0.158780 0.617967
Si Si7 0.484259 0.790590 0.520349
Si Si8 0.765751 0.243219 0.005469
O O1 0.118017 0.670116 0.248197
O O2 0.105590 0.048334 0.304828
O O3 0.113459 0.993425 0.508175
O O4 0.866928 0.261849 0.172440
O O5 0.352352 0.385493 0.334168
O O6 0.367951 0.128826 0.441821
O O7 0.286508 0.149687 0.129716
O O8 0.010687 0.595937 0.895566
O O9 0.779173 0.162045 0.851766
O O10 0.000000 0.000000 0.000000
O O11 0.492676 0.594214 0.373846
O O12 0.571387 0.146513 0.395697
O O13 0.702792 0.029903 0.332986
O O14 0.413746 0.427707 0.091222
O O15 0.809735 0.843689 0.197701
O O16 0.835707 0.975654 0.082338
O O17 0.000000 0.500000 0.500000
#
# Coordination Sequence:
#
# PCOD8004331 Si02
#       8
#     2   2   2   2   2   2   2   2
#     4  11  23  43  72  97 137 177 222 275 330 398
#     4  11  21  42  69 108 131 172 223 277 338 383
#     4  10  20  37  69  99 126 170 218 279 321 382
#     4  11  24  44  67 101 133 175 222 279 332 392
#     4  12  24  40  68  99 138 175 222 274 331 400
#     4  12  28  46  66  95 139 184 221 264 343 407
#     4  10  23  40  74 101 134 166 229 285 326 385
#     4  11  24  40  70 105 130 166 233 281 330 382
#
# _framework density 22.198371000000002
#
# number of rings (size 3 to 8) (size 9 to 14) (size 15 to 20)
#    0.000    1.000    6.250    1.125    3.500    2.000 
#    0.000    2.500    0.000    0.000    0.000    0.000 
#    0.000    0.000    0.000    0.000    0.000    0.000 
#
# Total GULP energy -198231.151200 kJ/mol
# GULP energy per Si atom -12389.446950 kJ/mol
# Density = 2.214785 g / cm^3
# Si number density = 22.198371 Si / 1000 Ang^3
#
#
#
# Elastic Constant Matrix: (Units=GPa)
#
#
# Indices 1 2 3 4 5 6 
#
# 1 102.3376 45.7853 38.8315 -7.3098 2.5918 -6.7330
# 2 45.7853 86.1871 38.7987 -12.1754 1.1753 -12.0675
# 3 38.8315 38.7987 114.3712 3.2498 13.1969 -16.4065
# 4 -7.3098 -12.1754 3.2498 34.7164 -2.6443 2.5916
# 5 2.5918 1.1753 13.1969 -2.6443 26.8826 -14.4870
# 6 -6.7330 -12.0675 -16.4065 2.5916 -14.4870 33.4947
#
#
#
# Elastic Compliance Matrix: (Units=1/GPa)
#
#
# Indices 1 2 3 4 5 6 
#
# 1 0.013462 -0.005895 -0.002718 0.001081 -0.000063 -0.000860
# 2 -0.005895 0.017999 -0.004119 0.005465 0.005062 0.005048
# 3 -0.002718 -0.004119 0.012010 -0.003655 -0.004674 0.002113
# 4 0.001081 0.005465 -0.003655 0.031642 0.004509 -0.000102
# 5 -0.000063 0.005062 -0.004674 0.004509 0.051213 0.021323
# 6 -0.000860 0.005048 0.002113 -0.000102 0.021323 0.041767
#
#
# Mechanical properties :
#
#
# Convention : Reuss Voigt Hill
#
# Bulk Modulus (GPa) = 55.53535 61.08078 58.30807
# Shear Modulus (GPa) = 25.05511 30.98408 28.01959
#
# Velocity S-wave (km/s) = 3.36324 3.74007 3.55665
# Velocity P-wave (km/s) = 6.33672 6.79900 6.57193
#
# Compressibility (1/GPa) = 0.01800655
#
# Stress axis : x y z
#
# Youngs Moduli (GPa) = 74.28044 55.55976 83.26353
#
# Poissons Ratio (x) = 0.32753 0.22629
# Poissons Ratio (y) = 0.43789 0.34300
# Poissons Ratio (z) = 0.20188 0.22888
#
# Static dielectric constant tensor:
#      x y z
#    x 4.144630 0.049890 -0.089550 
#    y 0.049890 3.864620 0.010880 
#    z -0.089550 0.010880 4.332650 
# 
# 
# High freq. dielectric constant tensor:
#      x y z
#    x 1.872030 0.010280 0.004670 
#    y 0.010280 1.855840 -0.013370 
#    z 0.004670 -0.013370 1.881950 
# 
# From -- ./inp_files/470091.got.cif
#   From: 2010.06.25/outbox.cif.g09.slc.cpg/sg2_236_cif.got.tgz:470091.got - 2010.06.27 13:26:56.
