data_PCOD8004679
_publ_section_title
;
Structure prediction by ZEFSAII (Michael W. Deem and Ramdas Pophale) SiO2 
 PCOD8004679
Probable space group: P -1
;
_chemical_formula_sum "Si O2"
_cell_formula_units_Z 16
_cell_length_a 6.636844
_cell_length_b 15.272831
_cell_length_c 8.457972
_cell_angle_alpha 87.458857
_cell_angle_beta 86.448824
_cell_angle_gamma 116.537698
_cell_volume 763.034898
_symmetry_space_group_name_H-M "P -1"
_symmetry_group_IT_number 2
_symmetry_cell_setting 'triclinic'
loop_
_space_group_symop_operation_xyz
x,y,z
-x,-y,-z
loop_
_atom_site_type_symbol
_atom_site_label
_atom_site_fract_x
_atom_site_fract_y
_atom_site_fract_z
Si Si1 0.216310 0.238850 0.565213
Si Si2 0.588515 0.195071 0.984264
Si Si3 0.337842 0.588100 0.414227
Si Si4 0.096684 0.884796 0.924220
Si Si5 0.836578 0.921720 0.201714
Si Si6 0.425653 0.520377 0.739474
Si Si7 0.021673 0.654387 0.258033
Si Si8 0.677283 0.725933 0.809388
O O1 0.450104 0.306709 0.637612
O O2 0.153828 0.127401 0.627939
O O3 0.030115 0.272513 0.632554
O O4 0.242217 0.248248 0.376267
O O5 0.402111 0.139069 0.867162
O O6 0.798316 0.286813 0.888653
O O7 0.669169 0.119897 0.063554
O O8 0.492395 0.231042 0.133123
O O9 0.333117 0.564647 0.600895
O O10 0.373513 0.504595 0.324026
O O11 0.111284 0.593228 0.370806
O O12 0.902935 0.776061 0.899918
O O13 0.123241 0.966127 0.782650
O O14 0.039445 0.922067 0.087544
O O15 0.205593 0.423361 0.816216
O O16 0.544671 0.607653 0.855174
#
# Coordination Sequence:
#
# PCOD8004679 Si02
#       8
#     2   2   2   2   2   2   2   2
#     4  10  20  38  61  89 115 152 195 241 285 340
#     4  11  22  39  60  89 117 150 196 240 285 346
#     4   9  18  35  57  87 116 150 199 239 275 337
#     4  10  22  40  61  86 117 155 190 239 296 343
#     4  10  20  40  66  84 112 153 200 239 283 348
#     4   9  20  35  55  85 121 154 188 236 289 338
#     4  11  20  34  64  87 111 156 203 230 276 352
#     4  10  24  39  55  86 128 150 181 248 294 337
#
# _framework density 20.968897999999999
#
# number of rings (size 3 to 8) (size 9 to 14) (size 15 to 20)
#    0.000    2.000    2.500    1.500    0.000    4.000 
#    0.000    1.875    0.000    0.000    0.000    0.000 
#    0.000    0.000    0.000    0.000    0.000    0.000 
#
# Total GULP energy -198340.133580 kJ/mol
# GULP energy per Si atom -12396.258349 kJ/mol
# Density = 2.092117 g / cm^3
# Si number density = 20.968898 Si / 1000 Ang^3
#
#
#
# Elastic Constant Matrix: (Units=GPa)
#
#
# Indices 1 2 3 4 5 6 
#
# 1 96.4819 20.1304 16.8743 -0.1555 -4.7311 -18.0329
# 2 20.1304 80.4770 7.1191 -1.9456 -1.3744 -2.8036
# 3 16.8743 7.1191 43.0961 -2.0633 -12.7266 -9.1562
# 4 -0.1555 -1.9456 -2.0633 28.4527 2.4175 -0.0895
# 5 -4.7311 -1.3744 -12.7266 2.4175 20.4431 -5.1883
# 6 -18.0329 -2.8036 -9.1562 -0.0895 -5.1883 28.3582
#
#
#
# Elastic Compliance Matrix: (Units=1/GPa)
#
#
# Indices 1 2 3 4 5 6 
#
# 1 0.012948 -0.002746 -0.001804 -0.000546 0.003802 0.008073
# 2 -0.002746 0.013220 -0.001674 0.000865 -0.001195 -0.001196
# 3 -0.001804 -0.001674 0.034489 0.000337 0.024533 0.014313
# 4 -0.000546 0.000865 0.000337 0.035587 -0.004275 -0.000822
# 5 0.003802 -0.001195 0.024533 -0.004275 0.071400 0.023271
# 6 0.008073 -0.001196 0.014313 -0.000822 0.023271 0.049155
#
#
# Mechanical properties :
#
#
# Convention : Reuss Voigt Hill
#
# Bulk Modulus (GPa) = 20.74348 34.25583 27.49966
# Shear Modulus (GPa) = 20.38188 27.17954 23.78071
#
# Velocity S-wave (km/s) = 3.12108 3.60416 3.37129
# Velocity P-wave (km/s) = 4.78562 5.80447 5.31950
#
# Compressibility (1/GPa) = 0.04820791
#
# Stress axis : x y z
#
# Youngs Moduli (GPa) = 77.23422 75.64433 28.99505
#
# Poissons Ratio (x) = 0.20773 0.05231
# Poissons Ratio (y) = 0.21209 0.04854
# Poissons Ratio (z) = 0.13933 0.12662
#
# Static dielectric constant tensor:
#      x y z
#    x 3.856530 0.024120 -0.050160 
#    y 0.024120 4.177420 -0.114480 
#    z -0.050160 -0.114480 3.366780 
# 
# 
# High freq. dielectric constant tensor:
#      x y z
#    x 1.826800 -0.001410 -0.003460 
#    y -0.001410 1.831500 -0.016000 
#    z -0.003460 -0.016000 1.786410 
# 
# From -- ./inp_files/49364.got.cif
#   From: 2010.06.25/outbox.cif.g09.slc.cpg/sg2_25_cif.got.tgz:49364.got - 2010.06.27 13:26:56.
