data_PCOD8004673
_publ_section_title
;
Structure prediction by ZEFSAII (Michael W. Deem and Ramdas Pophale) SiO2 
 PCOD8004673
Probable space group: P -1
;
_chemical_formula_sum "Si O2"
_cell_formula_units_Z 16
_cell_length_a 12.318623
_cell_length_b 13.943723
_cell_length_c 9.588543
_cell_angle_alpha 69.594243
_cell_angle_beta 128.025953
_cell_angle_gamma 139.106234
_cell_volume 827.202825
_symmetry_space_group_name_H-M "P -1"
_symmetry_group_IT_number 2
_symmetry_cell_setting 'triclinic'
loop_
_space_group_symop_operation_xyz
x,y,z
-x,-y,-z
loop_
_atom_site_type_symbol
_atom_site_label
_atom_site_fract_x
_atom_site_fract_y
_atom_site_fract_z
Si Si1 0.798100 0.203088 0.096772
Si Si2 0.986085 0.296392 0.897272
Si Si3 0.389330 0.106076 0.839907
Si Si4 0.073782 0.520475 0.204211
Si Si5 0.332927 0.992833 0.356210
Si Si6 0.753956 0.901213 0.988090
Si Si7 0.204639 0.225603 0.150441
Si Si8 0.554863 0.777594 0.464502
O O1 0.979561 0.358034 0.248994
O O2 0.774293 0.075721 0.202986
O O3 0.605855 0.170331 0.987091
O O4 0.836422 0.216586 0.953910
O O5 0.023239 0.434943 0.810884
O O6 0.188496 0.341261 0.072797
O O7 0.882918 0.181235 0.744043
O O8 0.347408 0.158547 0.910160
O O9 0.374716 0.174979 0.663173
O O10 0.313085 0.648506 0.352238
O O11 0.000000 0.500000 0.000000
O O12 0.336142 0.066784 0.455292
O O13 0.500000 0.000000 0.500000
O O14 0.372294 0.082093 0.205023
O O15 0.729383 0.780872 0.946359
O O16 0.989189 0.059534 0.105871
O O17 0.364295 0.282464 0.368998
#
# Coordination Sequence:
#
# PCOD8004673 Si02
#       8
#     2   2   2   2   2   2   2   2
#     4  10  20  33  57  83 112 144 185 224 290 325
#     4  10  17  36  58  79 112 148 180 230 272 326
#     4  11  19  34  58  86 110 145 183 237 281 319
#     4  10  19  36  54  84 112 149 185 229 272 341
#     4  10  16  29  52  84 105 136 186 227 260 325
#     4   9  19  33  53  76 120 147 175 226 286 322
#     4   9  19  35  53  84 112 149 185 221 272 342
#     4  11  21  32  58  89 111 141 192 230 271 329
#
# _framework density 19.342293000000002
#
# number of rings (size 3 to 8) (size 9 to 14) (size 15 to 20)
#    0.000    2.000    6.250    0.750    1.750    0.500 
#    0.000    2.500    0.000    7.500    0.000    0.000 
#    0.000    1.250    0.000    0.000    0.000    0.000 
#
# Total GULP energy -198221.335399 kJ/mol
# GULP energy per Si atom -12388.833462 kJ/mol
# Density = 1.929827 g / cm^3
# Si number density = 19.342293 Si / 1000 Ang^3
#
#
#
# Elastic Constant Matrix: (Units=GPa)
#
#
# Indices 1 2 3 4 5 6 
#
# 1 120.4688 29.8047 51.9093 -7.5050 -0.6680 -4.2003
# 2 29.8047 68.7178 27.1350 7.9665 -4.0979 -10.6751
# 3 51.9093 27.1350 105.4874 0.0792 9.8038 -2.4650
# 4 -7.5050 7.9665 0.0792 21.6885 -3.7405 -4.5144
# 5 -0.6680 -4.0979 9.8038 -3.7405 36.8397 -6.1927
# 6 -4.2003 -10.6751 -2.4650 -4.5144 -6.1927 14.3474
#
#
#
# Elastic Compliance Matrix: (Units=1/GPa)
#
#
# Indices 1 2 3 4 5 6 
#
# 1 0.011837 -0.003184 -0.005160 0.006384 0.002431 0.003268
# 2 -0.003184 0.020566 -0.003866 -0.004732 0.005210 0.014466
# 3 -0.005160 -0.003866 0.013378 -0.002361 -0.005175 -0.005066
# 4 0.006384 -0.004732 -0.002361 0.055677 0.009133 0.019403
# 5 0.002431 0.005210 -0.005175 0.009133 0.033617 0.021082
# 6 0.003268 0.014466 -0.005066 0.019403 0.021082 0.095753
#
#
# Mechanical properties :
#
#
# Convention : Reuss Voigt Hill
#
# Bulk Modulus (GPa) = 46.81490 56.93022 51.87256
# Shear Modulus (GPa) = 19.05706 26.96346 23.01026
#
# Velocity S-wave (km/s) = 3.14228 3.73770 3.45285
# Velocity P-wave (km/s) = 6.11728 6.93716 6.54008
#
# Compressibility (1/GPa) = 0.02136072
#
# Stress axis : x y z
#
# Youngs Moduli (GPa) = 84.47834 48.62301 74.74910
#
# Poissons Ratio (x) = 0.15481 0.38574
# Poissons Ratio (y) = 0.26897 0.28900
# Poissons Ratio (z) = 0.43594 0.18799
#
# Static dielectric constant tensor:
#      x y z
#    x 3.787590 -0.439600 0.034200 
#    y -0.439600 3.785200 0.171800 
#    z 0.034200 0.171800 3.642290 
# 
# 
# High freq. dielectric constant tensor:
#      x y z
#    x 1.755260 -0.025450 0.006100 
#    y -0.025450 1.713120 0.009510 
#    z 0.006100 0.009510 1.743000 
# 
# From -- ./inp_files/270241.got.cif
#   From: 2010.06.25/outbox.cif.g09.slc.cpg/sg2_136_cif.got.tgz:270241.got - 2010.06.27 13:26:56.
