data_PCOD8004713
_publ_section_title
;
Structure prediction by ZEFSAII (Michael W. Deem and Ramdas Pophale) SiO2 
 PCOD8004713
Probable space group: P -1
;
_chemical_formula_sum "Si O2"
_cell_formula_units_Z 14
_cell_length_a 8.790849
_cell_length_b 23.275526
_cell_length_c 11.731406
_cell_angle_alpha 27.926049
_cell_angle_beta 120.234773
_cell_angle_gamma 138.603079
_cell_volume 637.571964
_symmetry_space_group_name_H-M "P -1"
_symmetry_group_IT_number 2
_symmetry_cell_setting 'triclinic'
loop_
_space_group_symop_operation_xyz
x,y,z
-x,-y,-z
loop_
_atom_site_type_symbol
_atom_site_label
_atom_site_fract_x
_atom_site_fract_y
_atom_site_fract_z
Si Si1 0.944821 0.446752 0.744824
Si Si2 0.271711 0.936005 0.178672
Si Si3 0.325771 0.347044 0.601896
Si Si4 0.014582 0.987372 0.660850
Si Si5 0.863812 0.629353 0.228469
Si Si6 0.354542 0.109357 0.133128
Si Si7 0.509107 0.189546 0.615260
O O1 0.935688 0.571513 0.457126
O O2 0.973571 0.336790 0.876003
O O3 0.207311 0.590929 0.669004
O O4 0.661936 0.281178 0.992252
O O5 0.461098 0.922965 0.241505
O O6 0.956741 0.736880 0.387011
O O7 0.310874 0.977785 0.256043
O O8 0.386706 0.107188 0.841894
O O9 0.500000 0.500000 0.500000
O O10 0.539949 0.458883 0.381587
O O11 0.249385 0.169661 0.916296
O O12 0.819185 0.984697 0.651888
O O13 0.947842 0.810837 0.978265
O O14 0.000000 0.000000 0.500000
O O15 0.309941 0.169200 0.501670
#
# Coordination Sequence:
#
# PCOD8004713 Si02
#       7
#     2   2   2   2   2   2   2
#     4  10  21  37  67  95 118 151 196 274 319 346
#     4  11  21  34  64  97 126 151 198 265 316 361
#     4  11  18  31  59  95 123 150 191 261 314 355
#     4  12  26  43  60  84 129 175 205 240 296 377
#     4  10  20  38  61  91 127 155 196 251 323 358
#     4  11  22  37  60  95 126 158 202 249 319 363
#     4  11  21  38  60  93 125 155 203 250 316 361
#
# _framework density 21.958304999999999
#
# number of rings (size 3 to 8) (size 9 to 14) (size 15 to 20)
#    0.000    1.143    2.857    7.286    2.000    0.000 
#    0.000    4.286    0.000    0.000    0.000    0.000 
#    0.000    0.000    0.000    0.000    0.000    0.000 
#
# Total GULP energy -173465.434129 kJ/mol
# GULP energy per Si atom -12390.388152 kJ/mol
# Density = 2.190833 g / cm^3
# Si number density = 21.958305 Si / 1000 Ang^3
#
#
#
# Elastic Constant Matrix: (Units=GPa)
#
#
# Indices 1 2 3 4 5 6 
#
# 1 127.6257 51.0142 30.3197 -6.4520 -36.2641 -1.9301
# 2 51.0142 132.5767 43.5816 -28.7536 -36.2621 6.8899
# 3 30.3197 43.5816 32.4150 -17.7225 -16.9455 4.6382
# 4 -6.4520 -28.7536 -17.7225 28.9806 1.0396 -9.1940
# 5 -36.2641 -36.2621 -16.9455 1.0396 35.7758 -12.6095
# 6 -1.9301 6.8899 4.6382 -9.1940 -12.6095 41.0131
#
#
#
# Elastic Compliance Matrix: (Units=1/GPa)
#
#
# Indices 1 2 3 4 5 6 
#
# 1 0.012759 0.000339 -0.006888 0.000118 0.011761 0.004965
# 2 0.000339 0.016874 -0.009541 0.012192 0.014495 0.005450
# 3 -0.006888 -0.009541 0.086715 0.044093 0.026488 0.009500
# 4 0.000118 0.012192 0.044093 0.079421 0.039087 0.022792
# 5 0.011761 0.014495 0.026488 0.039087 0.075529 0.027106
# 6 0.004965 0.005450 0.009500 0.022792 0.027106 0.036069
#
#
# Mechanical properties :
#
#
# Convention : Reuss Voigt Hill
#
# Bulk Modulus (GPa) = 11.88094 60.27204 36.07649
# Shear Modulus (GPa) = 13.60158 32.33402 22.96780
#
# Velocity S-wave (km/s) = 2.49153 3.84150 3.23766
# Velocity P-wave (km/s) = 3.70127 6.86908 5.51741
#
# Compressibility (1/GPa) = 0.08416841
#
# Stress axis : x y z
#
# Youngs Moduli (GPa) = 78.37590 59.26177 11.53199
#
# Poissons Ratio (x) = -0.02009 0.07943
# Poissons Ratio (y) = -0.02657 0.11003
# Poissons Ratio (z) = 0.53985 0.56543
#
# Static dielectric constant tensor:
#      x y z
#    x 4.713200 0.189670 -0.318370 
#    y 0.189670 3.687980 -0.414520 
#    z -0.318370 -0.414520 3.553580 
# 
# 
# High freq. dielectric constant tensor:
#      x y z
#    x 1.897780 0.008000 -0.016050 
#    y 0.008000 1.839500 -0.048930 
#    z -0.016050 -0.048930 1.804920 
# 
# From -- ./inp_files/168504.got.cif
#   From: 2010.06.25/outbox.cif.g09.slc.cpg/sg2_85_cif.got.tgz:168504.got - 2010.06.27 13:26:56.
