data_PCOD8004071
_publ_section_title
;
Structure prediction by ZEFSAII (Michael W. Deem and Ramdas Pophale) SiO2 
 PCOD8004071
Probable space group: P -1
;
_chemical_formula_sum "Si O2"
_cell_formula_units_Z 14
_cell_length_a 12.941786
_cell_length_b 12.303542
_cell_length_c 8.822004
_cell_angle_alpha 49.443065
_cell_angle_beta 53.873582
_cell_angle_gamma 34.512995
_cell_volume 599.957685
_symmetry_space_group_name_H-M "P -1"
_symmetry_group_IT_number 2
_symmetry_cell_setting 'triclinic'
loop_
_space_group_symop_operation_xyz
x,y,z
-x,-y,-z
loop_
_atom_site_type_symbol
_atom_site_label
_atom_site_fract_x
_atom_site_fract_y
_atom_site_fract_z
Si Si1 0.195893 0.021136 0.050210
Si Si2 0.202592 0.035974 0.384514
Si Si3 0.005162 0.660809 0.301985
Si Si4 0.158144 0.725654 0.349369
Si Si5 0.439611 0.631263 0.708892
Si Si6 0.321924 0.137368 0.425177
Si Si7 0.549018 0.674766 0.881864
O O1 0.119275 0.923422 0.172536
O O2 0.211939 0.043285 0.191745
O O3 0.398126 0.875783 0.933969
O O4 0.046719 0.254055 0.902003
O O5 0.333021 0.058501 0.319335
O O6 0.988166 0.219556 0.454156
O O7 0.285283 0.815578 0.562441
O O8 0.821248 0.853911 0.379709
O O9 0.000000 0.500000 0.500000
O O10 0.160735 0.637020 0.265738
O O11 0.367668 0.538201 0.396685
O O12 0.459680 0.721451 0.752541
O O13 0.376071 0.527922 0.919757
O O14 0.276353 0.349616 0.255934
O O15 0.500000 0.000000 0.500000
#
# Coordination Sequence:
#
# PCOD8004071 Si02
#       7
#     2   2   2   2   2   2   2
#     4  11  23  42  63  94 131 166 208 263 325 369
#     4  11  24  41  66  92 133 169 202 264 324 374
#     4  11  23  39  65  92 121 166 216 260 308 374
#     4  10  23  42  66  92 127 168 214 260 307 380
#     4  10  21  40  67  95 121 164 219 259 309 373
#     4  11  20  40  63  87 126 167 209 254 309 379
#     4  10  20  37  63  93 122 160 216 256 300 379
#
# _framework density 23.334980999999999
#
# number of rings (size 3 to 8) (size 9 to 14) (size 15 to 20)
#    0.000    1.429    2.857    2.571    0.000    6.286 
#    0.000    7.143    0.000    0.000    0.000    0.000 
#    0.000    0.000    0.000    0.000    0.000    0.000 
#
# Total GULP energy -173503.131535 kJ/mol
# GULP energy per Si atom -12393.080824 kJ/mol
# Density = 2.328187 g / cm^3
# Si number density = 23.334981 Si / 1000 Ang^3
#
#
#
# Elastic Constant Matrix: (Units=GPa)
#
#
# Indices 1 2 3 4 5 6 
#
# 1 111.7192 17.4667 56.9029 -3.6304 -4.0896 15.1883
# 2 17.4667 65.8818 34.0632 0.7135 11.5263 -2.6141
# 3 56.9029 34.0632 112.8205 -5.4850 16.4197 10.7559
# 4 -3.6304 0.7135 -5.4850 40.9144 -2.4433 -11.5714
# 5 -4.0896 11.5263 16.4197 -2.4433 45.4450 3.7336
# 6 15.1883 -2.6141 10.7559 -11.5714 3.7336 36.2902
#
#
#
# Elastic Compliance Matrix: (Units=1/GPa)
#
#
# Indices 1 2 3 4 5 6 
#
# 1 0.013157 -0.000976 -0.006566 -0.000656 0.004119 -0.004264
# 2 -0.000976 0.018767 -0.005037 -0.000298 -0.003331 0.003501
# 3 -0.006566 -0.005037 0.014492 0.000850 -0.004406 -0.001186
# 4 -0.000656 -0.000298 0.000850 0.026947 0.000456 0.008546
# 5 0.004119 -0.003331 -0.004406 0.000456 0.025091 -0.003094
# 6 -0.004264 0.003501 -0.001186 0.008546 -0.003094 0.032987
#
#
# Mechanical properties :
#
#
# Convention : Reuss Voigt Hill
#
# Bulk Modulus (GPa) = 47.04360 56.36524 51.70442
# Shear Modulus (GPa) = 30.54641 36.66248 33.60445
#
# Velocity S-wave (km/s) = 3.62199 3.96806 3.79897
# Velocity P-wave (km/s) = 6.13968 6.72319 6.43805
#
# Compressibility (1/GPa) = 0.02125688
#
# Stress axis : x y z
#
# Youngs Moduli (GPa) = 76.00422 53.28525 69.00389
#
# Poissons Ratio (x) = 0.05201 0.45310
# Poissons Ratio (y) = 0.07418 0.34760
# Poissons Ratio (z) = 0.49906 0.26842
#
# Static dielectric constant tensor:
#      x y z
#    x 4.517430 -0.282530 -0.625660 
#    y -0.282530 5.273950 0.186890 
#    z -0.625660 0.186890 4.541360 
# 
# 
# High freq. dielectric constant tensor:
#      x y z
#    x 1.914180 -0.004050 -0.022130 
#    y -0.004050 1.947560 -0.000390 
#    z -0.022130 -0.000390 1.913420 
# 
# From -- ./inp_files/175263.got.cif
#   From: 2010.06.25/outbox.cif.g09.slc.cpg/sg2_88_cif.got.tgz:175263.got - 2010.06.27 13:26:56.
