data_PCOD8004151
_publ_section_title
;
Structure prediction by ZEFSAII (Michael W. Deem and Ramdas Pophale) SiO2 
 PCOD8004151
Probable space group: P -1
;
_chemical_formula_sum "Si O2"
_cell_formula_units_Z 16
_cell_length_a 9.310366
_cell_length_b 17.041164
_cell_length_c 8.828205
_cell_angle_alpha 111.431955
_cell_angle_beta 81.218855
_cell_angle_gamma 47.493056
_cell_volume 781.443832
_symmetry_space_group_name_H-M "P -1"
_symmetry_group_IT_number 2
_symmetry_cell_setting 'triclinic'
loop_
_space_group_symop_operation_xyz
x,y,z
-x,-y,-z
loop_
_atom_site_type_symbol
_atom_site_label
_atom_site_fract_x
_atom_site_fract_y
_atom_site_fract_z
Si Si1 0.746482 0.905136 0.800160
Si Si2 0.038850 0.354096 0.822753
Si Si3 0.250743 0.082381 0.545499
Si Si4 0.213340 0.914948 0.515380
Si Si5 0.602484 0.660852 0.741916
Si Si6 0.350305 0.337707 0.923476
Si Si7 0.880114 0.131816 0.193540
Si Si8 0.103336 0.343256 0.467733
O O1 0.721033 0.950859 0.662608
O O2 0.896421 0.751422 0.655087
O O3 0.921864 0.885882 0.850794
O O4 0.500000 0.000000 0.000000
O O5 0.051924 0.245313 0.741945
O O6 0.173381 0.338532 0.929441
O O7 0.154014 0.331480 0.629499
O O8 0.768975 0.515211 0.983684
O O9 0.500000 0.000000 0.500000
O O10 0.217063 0.014392 0.604936
O O11 0.445379 0.766737 0.302964
O O12 0.182756 0.872643 0.635922
O O13 0.000000 0.000000 0.500000
O O14 0.366301 0.726870 0.753033
O O15 0.669680 0.716080 0.685984
O O16 0.838239 0.494916 0.569989
O O17 0.544180 0.712505 0.960201
O O18 0.000000 0.000000 0.000000
#
# Coordination Sequence:
#
# PCOD8004151 Si02
#       8
#     2   2   2   2   2   2   2   2
#     4  11  25  42  64  92 124 162 213 261 310 374
#     4   9  19  38  63  91 126 161 211 254 304 364
#     4  11  23  40  65  95 124 162 208 262 307 374
#     4  12  24  42  63  91 128 166 204 258 319 372
#     4  10  21  38  64  94 126 165 207 250 316 372
#     4  10  20  37  64  94 123 162 207 256 306 372
#     4  12  26  42  63  90 128 167 206 261 318 372
#     4   9  20  39  64  91 126 167 206 254 304 377
#
# _framework density 20.474920000000001
#
# number of rings (size 3 to 8) (size 9 to 14) (size 15 to 20)
#    0.000    1.500    2.500    2.250    5.250    1.500 
#    0.000    0.625    2.750    0.000    0.000    0.000 
#    0.000    0.000    0.000    0.000    0.000    0.000 
#
# Total GULP energy -198232.004848 kJ/mol
# GULP energy per Si atom -12389.500303 kJ/mol
# Density = 2.042832 g / cm^3
# Si number density = 20.474920 Si / 1000 Ang^3
#
#
#
# Elastic Constant Matrix: (Units=GPa)
#
#
# Indices 1 2 3 4 5 6 
#
# 1 133.3185 44.1967 35.3491 2.3948 7.9171 -12.6860
# 2 44.1967 84.0159 37.3471 -2.0162 4.3941 -9.1466
# 3 35.3491 37.3471 92.3856 13.2171 8.1946 5.9138
# 4 2.3948 -2.0162 13.2171 34.6122 0.4775 7.1000
# 5 7.9171 4.3941 8.1946 0.4775 29.7898 -3.7997
# 6 -12.6860 -9.1466 5.9138 7.1000 -3.7997 38.2028
#
#
#
# Elastic Compliance Matrix: (Units=1/GPa)
#
#
# Indices 1 2 3 4 5 6 
#
# 1 0.009653 -0.003795 -0.002148 -0.000594 -0.001069 0.002634
# 2 -0.003795 0.017005 -0.006096 0.002903 0.000548 0.003270
# 3 -0.002148 -0.006096 0.015391 -0.005241 -0.003177 -0.003897
# 4 -0.000594 0.002903 -0.005241 0.032054 0.000065 -0.004642
# 5 -0.001069 0.000548 -0.003177 0.000065 0.035123 0.003749
# 6 0.002634 0.003270 -0.003897 -0.004642 0.003749 0.029672
#
#
# Mechanical properties :
#
#
# Convention : Reuss Voigt Hill
#
# Bulk Modulus (GPa) = 55.64002 60.38953 58.01478
# Shear Modulus (GPa) = 29.59143 33.37610 31.48376
#
# Velocity S-wave (km/s) = 3.80577 4.04183 3.92557
# Velocity P-wave (km/s) = 6.82243 7.16521 6.99592
#
# Compressibility (1/GPa) = 0.01797268
#
# Stress axis : x y z
#
# Youngs Moduli (GPa) = 103.59225 58.80472 64.97148
#
# Poissons Ratio (x) = 0.22315 0.13958
# Poissons Ratio (y) = 0.39311 0.39604
# Poissons Ratio (z) = 0.22254 0.35845
#
# Static dielectric constant tensor:
#      x y z
#    x 3.721850 -0.041020 0.154460 
#    y -0.041020 3.789630 0.226060 
#    z 0.154460 0.226060 3.814390 
# 
# 
# High freq. dielectric constant tensor:
#      x y z
#    x 1.785690 -0.007450 0.010560 
#    y -0.007450 1.811600 0.004960 
#    z 0.010560 0.004960 1.810750 
# 
# From -- ./inp_files/215511.got.cif
#   From: 2010.06.25/outbox.cif.g09.slc.cpg/sg2_108_cif.got.tgz:215511.got - 2010.06.27 13:26:56.
