data_PCOD8004115
_publ_section_title
;
Structure prediction by ZEFSAII (Michael W. Deem and Ramdas Pophale) SiO2 
 PCOD8004115
Probable space group: P -1
;
_chemical_formula_sum "Si O2"
_cell_formula_units_Z 16
_cell_length_a 10.985340
_cell_length_b 8.964916
_cell_length_c 22.203557
_cell_angle_alpha 139.812430
_cell_angle_beta 38.762908
_cell_angle_gamma 114.997683
_cell_volume 798.263134
_symmetry_space_group_name_H-M "P -1"
_symmetry_group_IT_number 2
_symmetry_cell_setting 'triclinic'
loop_
_space_group_symop_operation_xyz
x,y,z
-x,-y,-z
loop_
_atom_site_type_symbol
_atom_site_label
_atom_site_fract_x
_atom_site_fract_y
_atom_site_fract_z
Si Si1 0.254645 0.620595 0.923745
Si Si2 0.916888 0.787304 0.460466
Si Si3 0.044386 0.365933 0.377376
Si Si4 0.097755 0.905276 0.744699
Si Si5 0.509555 0.049247 0.080606
Si Si6 0.589551 0.939566 0.261986
Si Si7 0.933555 0.617324 0.814312
Si Si8 0.050519 0.217414 0.017086
O O1 0.425668 0.716853 0.862372
O O2 0.380155 0.337575 0.813193
O O3 0.105050 0.622019 0.926466
O O4 0.100808 0.811123 0.093519
O O5 0.047053 0.572516 0.392746
O O6 0.991178 0.665589 0.328273
O O7 0.661709 0.886111 0.597707
O O8 0.000000 0.000000 0.500000
O O9 0.888146 0.245363 0.370713
O O10 0.000000 0.500000 0.500000
O O11 0.275876 0.129845 0.223637
O O12 0.048444 0.762946 0.776773
O O13 0.319638 0.926441 0.681074
O O14 0.500000 0.000000 0.000000
O O15 0.676295 0.787089 0.965175
O O16 0.708265 0.913541 0.143978
O O17 0.988839 0.578955 0.851717
O O18 0.000000 0.000000 0.000000
#
# Coordination Sequence:
#
# PCOD8004115 Si02
#       8
#     2   2   2   2   2   2   2   2
#     4  10  20  37  64  89 122 158 199 248 301 364
#     4  11  25  45  58  84 130 165 196 248 310 365
#     4  11  24  39  61  90 120 155 208 257 292 356
#     4   9  18  39  61  87 119 158 197 249 298 359
#     4  11  18  38  66  82 116 167 206 238 308 353
#     4  11  23  38  64  92 123 163 196 246 319 358
#     4  10  21  38  63  88 118 156 205 250 290 363
#     4  11  19  39  63  97 118 146 210 259 291 356
#
# _framework density 20.043517000000001
#
# number of rings (size 3 to 8) (size 9 to 14) (size 15 to 20)
#    0.000    1.500    7.500    2.250    1.750    2.000 
#    6.750    1.250    0.000    0.000    0.000    0.000 
#    0.000    0.000    0.000    0.000    0.000    0.000 
#
# Total GULP energy -198282.925315 kJ/mol
# GULP energy per Si atom -12392.682832 kJ/mol
# Density = 1.999790 g / cm^3
# Si number density = 20.043517 Si / 1000 Ang^3
#
#
#
# Elastic Constant Matrix: (Units=GPa)
#
#
# Indices 1 2 3 4 5 6 
#
# 1 116.9371 22.7605 56.0086 -12.8222 34.3968 6.4672
# 2 22.7605 42.5315 32.4019 0.9717 6.4402 9.1618
# 3 56.0086 32.4019 111.6316 -7.5379 14.0600 3.3029
# 4 -12.8222 0.9717 -7.5379 30.8719 -0.2139 0.9406
# 5 34.3968 6.4402 14.0600 -0.2139 48.2710 -6.3644
# 6 6.4672 9.1618 3.3029 0.9406 -6.3644 36.0233
#
#
#
# Elastic Compliance Matrix: (Units=1/GPa)
#
#
# Indices 1 2 3 4 5 6 
#
# 1 0.014950 -0.001889 -0.005342 0.005006 -0.009282 -0.003484
# 2 -0.001889 0.032860 -0.008418 -0.003659 -0.001582 -0.007430
# 3 -0.005342 -0.008418 0.013976 0.001406 0.001126 0.001981
# 4 0.005006 -0.003659 0.001406 0.034955 -0.003550 -0.001637
# 5 -0.009282 -0.001582 0.001126 -0.003550 0.028124 0.007027
# 6 -0.003484 -0.007430 0.001981 -0.001637 0.007027 0.031378
#
#
# Mechanical properties :
#
#
# Convention : Reuss Voigt Hill
#
# Bulk Modulus (GPa) = 32.80018 54.82693 43.81355
# Shear Modulus (GPa) = 25.29039 33.69520 29.49279
#
# Velocity S-wave (km/s) = 3.55600 4.10457 3.84009
# Velocity P-wave (km/s) = 5.76716 7.06234 6.44736
#
# Compressibility (1/GPa) = 0.03048764
#
# Stress axis : x y z
#
# Youngs Moduli (GPa) = 66.88980 30.43251 71.54961
#
# Poissons Ratio (x) = 0.05748 0.38225
# Poissons Ratio (y) = 0.12633 0.60231
# Poissons Ratio (z) = 0.35735 0.25618
#
# Static dielectric constant tensor:
#      x y z
#    x 4.076810 0.110490 0.307020 
#    y 0.110490 3.232580 0.092300 
#    z 0.307020 0.092300 3.702150 
# 
# 
# High freq. dielectric constant tensor:
#      x y z
#    x 1.795720 0.011410 0.005130 
#    y 0.011410 1.750770 0.008340 
#    z 0.005130 0.008340 1.777830 
# 
# From -- ./inp_files/610026.got.cif
#   From: 2010.06.25/outbox.cif.g09.slc.cpg/sg2_306_cif.got.tgz:610026.got - 2010.06.27 13:26:56.
