data_PCOD8004863
_publ_section_title
;
Structure prediction by ZEFSAII (Michael W. Deem and Ramdas Pophale) SiO2 
 PCOD8004863
Probable space group: P -1
;
_chemical_formula_sum "Si O2"
_cell_formula_units_Z 14
_cell_length_a 30.330030
_cell_length_b 24.716136
_cell_length_c 15.226895
_cell_angle_alpha 17.509375
_cell_angle_beta 19.501261
_cell_angle_gamma 10.251838
_cell_volume 609.335312
_symmetry_space_group_name_H-M "P -1"
_symmetry_group_IT_number 2
_symmetry_cell_setting 'triclinic'
loop_
_space_group_symop_operation_xyz
x,y,z
-x,-y,-z
loop_
_atom_site_type_symbol
_atom_site_label
_atom_site_fract_x
_atom_site_fract_y
_atom_site_fract_z
Si Si1 0.171634 0.222302 0.533733
Si Si2 0.050623 0.159515 0.405618
Si Si3 0.593782 0.256548 0.472486
Si Si4 0.185942 0.913166 0.115800
Si Si5 0.957039 0.615991 0.668441
Si Si6 0.690946 0.798962 0.202169
Si Si7 0.125957 0.663887 0.800653
O O1 0.029424 0.343141 0.522636
O O2 0.000000 0.500000 0.500000
O O3 0.399065 0.095661 0.283834
O O4 0.262190 0.926194 0.862789
O O5 0.944199 0.128500 0.591083
O O6 0.819461 0.546971 0.270569
O O7 0.189299 0.909077 0.617411
O O8 0.246783 0.060701 0.139131
O O9 0.437790 0.590908 0.197911
O O10 0.421550 0.344435 0.729028
O O11 0.710662 0.985801 0.601335
O O12 0.981150 0.267302 0.007807
O O13 0.201829 0.395991 0.603194
O O14 0.948453 0.408741 0.014189
O O15 0.000000 0.000000 0.500000
#
# Coordination Sequence:
#
# PCOD8004863 Si02
#       7
#     2   2   2   2   2   2   2
#     4  12  26  45  64  96 138 183 214 261 342 402
#     4  10  22  42  69 103 126 172 223 275 330 379
#     4  10  22  39  68  95 130 171 221 276 327 381
#     4  11  24  43  63 100 137 172 220 272 326 396
#     4  11  22  42  66  95 128 179 222 267 327 389
#     4  10  23  42  69  98 134 169 226 273 319 396
#     4  10  20  38  62  96 133 168 214 271 330 381
#
# _framework density 22.975854999999999
#
# number of rings (size 3 to 8) (size 9 to 14) (size 15 to 20)
#    0.000    1.429    1.429    3.857    0.000    6.857 
#    5.143    2.857    0.000    0.000    0.000    0.000 
#    0.000    0.000    0.000    0.000    0.000    0.000 
#
# Total GULP energy -173518.986507 kJ/mol
# GULP energy per Si atom -12394.213322 kJ/mol
# Density = 2.292356 g / cm^3
# Si number density = 22.975855 Si / 1000 Ang^3
#
#
#
# Elastic Constant Matrix: (Units=GPa)
#
#
# Indices 1 2 3 4 5 6 
#
# 1 86.7200 34.0735 -5.5695 -2.5109 14.9205 0.9876
# 2 34.0735 76.5542 5.6150 -3.2834 -1.5465 11.5280
# 3 -5.5695 5.6150 67.4334 8.6484 18.6639 1.5706
# 4 -2.5109 -3.2834 8.6484 26.1709 0.0710 1.4771
# 5 14.9205 -1.5465 18.6639 0.0710 37.3477 -2.0523
# 6 0.9876 11.5280 1.5706 1.4771 -2.0523 38.6035
#
#
#
# Elastic Compliance Matrix: (Units=1/GPa)
#
#
# Indices 1 2 3 4 5 6 
#
# 1 0.016586 -0.008166 0.004709 -0.001042 -0.009240 0.001371
# 2 -0.008166 0.017965 -0.004045 0.003062 0.005758 -0.004802
# 3 0.004709 -0.004045 0.019681 -0.006522 -0.011877 -0.000095
# 4 -0.001042 0.003062 -0.006522 0.040752 0.003615 -0.001990
# 5 -0.009240 0.005758 -0.011877 0.003615 0.036678 0.000812
# 6 0.001371 -0.004802 -0.000095 -0.001990 0.000812 0.027427
#
#
# Mechanical properties :
#
#
# Convention : Reuss Voigt Hill
#
# Bulk Modulus (GPa) = 25.49134 33.21618 29.35376
# Shear Modulus (GPa) = 26.71397 33.53034 30.12215
#
# Velocity S-wave (km/s) = 3.41353 3.82432 3.62475
# Velocity P-wave (km/s) = 5.16287 5.83000 5.50655
#
# Compressibility (1/GPa) = 0.03922901
#
# Stress axis : x y z
#
# Youngs Moduli (GPa) = 60.29102 55.66524 50.81040
#
# Poissons Ratio (x) = 0.45454 -0.23926
# Poissons Ratio (y) = 0.49231 0.20552
# Poissons Ratio (z) = -0.28391 0.22515
#
# Static dielectric constant tensor:
#      x y z
#    x 4.437180 0.179370 0.505320 
#    y 0.179370 4.176830 0.042770 
#    z 0.505320 0.042770 4.407640 
# 
# 
# High freq. dielectric constant tensor:
#      x y z
#    x 1.920510 0.000390 0.017770 
#    y 0.000390 1.906720 -0.018230 
#    z 0.017770 -0.018230 1.895380 
# 
# From -- ./inp_files/545148.got.cif
#   From: 2010.06.25/outbox.cif.g09.slc.cpg/sg2_273_cif.got.tgz:545148.got - 2010.06.27 13:26:56.
