data_PCOD8004834
_publ_section_title
;
Structure prediction by ZEFSAII (Michael W. Deem and Ramdas Pophale) SiO2 
 PCOD8004834
Probable space group: P -1
;
_chemical_formula_sum "Si O2"
_cell_formula_units_Z 16
_cell_length_a 14.827809
_cell_length_b 12.079922
_cell_length_c 9.523891
_cell_angle_alpha 114.645987
_cell_angle_beta 149.993864
_cell_angle_gamma 65.640955
_cell_volume 770.434095
_symmetry_space_group_name_H-M "P -1"
_symmetry_group_IT_number 2
_symmetry_cell_setting 'triclinic'
loop_
_space_group_symop_operation_xyz
x,y,z
-x,-y,-z
loop_
_atom_site_type_symbol
_atom_site_label
_atom_site_fract_x
_atom_site_fract_y
_atom_site_fract_z
Si Si1 0.945734 0.855835 0.622235
Si Si2 0.075765 0.911687 0.432069
Si Si3 0.611276 0.281384 0.263290
Si Si4 0.673370 0.728104 0.343842
Si Si5 0.496562 0.643051 0.550633
Si Si6 0.126394 0.279355 0.822836
Si Si7 0.790040 0.452748 0.406032
Si Si8 0.655236 0.280853 0.913492
O O1 0.833320 0.816913 0.587155
O O2 0.850682 0.805770 0.329408
O O3 0.926857 0.004959 0.668041
O O4 0.160626 0.811555 0.891627
O O5 0.277783 0.846917 0.704757
O O6 0.956140 0.797421 0.202536
O O7 0.000000 0.000000 0.500000
O O8 0.616162 0.284922 0.439270
O O9 0.694119 0.402423 0.385567
O O10 0.409832 0.285532 0.930794
O O11 0.770768 0.598585 0.460602
O O12 0.509903 0.776612 0.257128
O O13 0.500000 0.500000 0.500000
O O14 0.402502 0.685907 0.303003
O O15 0.696780 0.680534 0.847808
O O16 0.001727 0.402731 0.672513
O O17 0.694431 0.404232 0.112657
#
# Coordination Sequence:
#
# PCOD8004834 Si02
#       8
#     2   2   2   2   2   2   2   2
#     4  10  21  39  65  87 116 161 208 255 301 360
#     4   9  19  41  64  89 118 152 213 269 294 342
#     4  10  20  38  62  92 120 158 207 250 304 366
#     4  11  19  36  62  90 119 157 210 247 310 359
#     4  12  23  38  58  93 132 161 194 249 312 373
#     4   9  20  38  61  89 119 160 202 251 308 358
#     4   9  19  37  61  85 119 160 200 259 297 363
#     4  10  23  38  56  90 127 158 200 252 311 358
#
# _framework density 20.767513000000001
#
# number of rings (size 3 to 8) (size 9 to 14) (size 15 to 20)
#    0.000    2.000    1.250    5.250    1.750    1.500 
#    6.750    4.375    0.000    0.000    0.000    0.000 
#    0.000    0.000    0.000    0.000    0.000    0.000 
#
# Total GULP energy -198273.329895 kJ/mol
# GULP energy per Si atom -12392.083118 kJ/mol
# Density = 2.072024 g / cm^3
# Si number density = 20.767513 Si / 1000 Ang^3
#
#
#
# Elastic Constant Matrix: (Units=GPa)
#
#
# Indices 1 2 3 4 5 6 
#
# 1 115.2036 52.4147 38.4627 -7.3107 7.0563 24.7580
# 2 52.4147 133.7215 44.1559 -17.9645 21.0351 25.2197
# 3 38.4627 44.1559 73.5407 -3.1244 3.9307 24.3254
# 4 -7.3107 -17.9645 -3.1244 16.2529 1.6279 -4.5510
# 5 7.0563 21.0351 3.9307 1.6279 33.9829 -3.7374
# 6 24.7580 25.2197 24.3254 -4.5510 -3.7374 25.5545
#
#
#
# Elastic Compliance Matrix: (Units=1/GPa)
#
#
# Indices 1 2 3 4 5 6 
#
# 1 0.012276 -0.002213 -0.002501 0.000680 -0.001743 -0.007462
# 2 -0.002213 0.014184 -0.003949 0.012845 -0.009267 -0.007163
# 3 -0.002501 -0.003949 0.022471 -0.005601 -0.001153 -0.016236
# 4 0.000680 0.012845 -0.005601 0.077196 -0.010683 0.004181
# 5 -0.001743 -0.009267 -0.001153 -0.010683 0.037882 0.015569
# 6 -0.007462 -0.007163 -0.016236 0.004181 0.015569 0.071908
#
#
# Mechanical properties :
#
#
# Convention : Reuss Voigt Hill
#
# Bulk Modulus (GPa) = 31.64047 65.83692 48.73870
# Shear Modulus (GPa) = 18.95544 27.65355 23.30450
#
# Velocity S-wave (km/s) = 3.02444 3.65304 3.35350
# Velocity P-wave (km/s) = 5.24071 7.04014 6.20599
#
# Compressibility (1/GPa) = 0.03160509
#
# Stress axis : x y z
#
# Youngs Moduli (GPa) = 81.46122 70.50336 44.50126
#
# Poissons Ratio (x) = 0.15601 0.11132
# Poissons Ratio (y) = 0.18026 0.17572
# Poissons Ratio (z) = 0.20377 0.27839
#
# Static dielectric constant tensor:
#      x y z
#    x 3.986850 0.321970 0.179970 
#    y 0.321970 3.963950 -0.247250 
#    z 0.179970 -0.247250 3.644010 
# 
# 
# High freq. dielectric constant tensor:
#      x y z
#    x 1.816270 0.015870 0.021970 
#    y 0.015870 1.804100 -0.023360 
#    z 0.021970 -0.023360 1.790190 
# 
# From -- ./inp_files/224126.got.cif
#   From: 2010.06.25/outbox.cif.g09.slc.cpg/sg2_113_cif.got.tgz:224126.got - 2010.06.27 13:26:56.
