data_PCOD8004868
_publ_section_title
;
Structure prediction by ZEFSAII (Michael W. Deem and Ramdas Pophale) SiO2 
 PCOD8004868
Probable space group: P -1
;
_chemical_formula_sum "Si O2"
_cell_formula_units_Z 16
_cell_length_a 8.889663
_cell_length_b 19.927238
_cell_length_c 16.619859
_cell_angle_alpha 31.962612
_cell_angle_beta 40.125593
_cell_angle_gamma 28.782449
_cell_volume 747.845056
_symmetry_space_group_name_H-M "P -1"
_symmetry_group_IT_number 2
_symmetry_cell_setting 'triclinic'
loop_
_space_group_symop_operation_xyz
x,y,z
-x,-y,-z
loop_
_atom_site_type_symbol
_atom_site_label
_atom_site_fract_x
_atom_site_fract_y
_atom_site_fract_z
Si Si1 0.158143 0.169901 0.594606
Si Si2 0.439842 0.397240 0.180211
Si Si3 0.147178 0.922232 0.763362
Si Si4 0.047768 0.133470 0.939481
Si Si5 0.225694 0.456600 0.669744
Si Si6 0.348591 0.821532 0.543746
Si Si7 0.504536 0.792553 0.330815
Si Si8 0.293042 0.787097 0.150386
O O1 0.460384 0.140683 0.524082
O O2 0.873406 0.361780 0.484739
O O3 0.037676 0.139780 0.752453
O O4 0.234738 0.034950 0.634678
O O5 0.549188 0.237499 0.245149
O O6 0.623611 0.318228 0.271895
O O7 0.073220 0.525579 0.217906
O O8 0.500000 0.500000 0.000000
O O9 0.839245 0.025945 0.728025
O O10 0.075778 0.852674 0.935907
O O11 0.223736 0.202841 0.795277
O O12 0.732404 0.247329 0.896947
O O13 0.297856 0.937578 0.005589
O O14 0.429949 0.340118 0.627232
O O15 0.412477 0.379438 0.755468
O O16 0.503862 0.738635 0.477250
O O17 0.000000 0.000000 0.500000
#
# Coordination Sequence:
#
# PCOD8004868 Si02
#       8
#     2   2   2   2   2   2   2   2
#     4  10  22  43  65  94 134 166 225 272 327 390
#     4  11  26  46  66  98 140 169 220 277 338 390
#     4  11  23  43  69  97 129 182 216 265 336 400
#     4  10  21  37  66  98 128 171 222 270 317 401
#     4  11  24  40  68  97 130 174 216 284 326 384
#     4  11  24  44  69  99 131 183 216 276 329 396
#     4  12  22  40  71  99 128 174 232 262 331 398
#     4  10  20  38  62  97 130 171 212 274 335 372
#
# _framework density 21.394805999999999
#
# number of rings (size 3 to 8) (size 9 to 14) (size 15 to 20)
#    0.000    1.250    5.000    1.500    1.750    4.000 
#    2.250    0.625    0.000    0.000    0.000    0.000 
#    0.000    0.000    0.000    0.000    0.000    0.000 
#
# Total GULP energy -198346.876222 kJ/mol
# GULP energy per Si atom -12396.679764 kJ/mol
# Density = 2.134611 g / cm^3
# Si number density = 21.394806 Si / 1000 Ang^3
#
#
#
# Elastic Constant Matrix: (Units=GPa)
#
#
# Indices 1 2 3 4 5 6 
#
# 1 111.3864 32.7557 46.6465 -10.0460 28.8008 -4.6461
# 2 32.7557 82.8605 26.2435 -11.5024 8.5688 -2.2529
# 3 46.6465 26.2435 127.0528 -3.6366 25.3867 5.9358
# 4 -10.0460 -11.5024 -3.6366 26.5098 1.8419 5.4577
# 5 28.8008 8.5688 25.3867 1.8419 37.1853 -4.3355
# 6 -4.6461 -2.2529 5.9358 5.4577 -4.3355 34.3423
#
#
#
# Elastic Compliance Matrix: (Units=1/GPa)
#
#
# Indices 1 2 3 4 5 6 
#
# 1 0.013423 -0.003107 -0.002587 0.003855 -0.008056 0.000430
# 2 -0.003107 0.014520 -0.001722 0.004875 0.000001 0.000055
# 3 -0.002587 -0.001722 0.010342 0.000658 -0.005042 -0.002991
# 4 0.003855 0.004875 0.000658 0.043377 -0.007537 -0.007117
# 5 -0.008056 0.000001 -0.005042 -0.007537 0.037615 0.005728
# 6 0.000430 0.000055 -0.002991 -0.007117 0.005728 0.031552
#
#
# Mechanical properties :
#
#
# Convention : Reuss Voigt Hill
#
# Bulk Modulus (GPa) = 42.63585 59.17680 50.90633
# Shear Modulus (GPa) = 28.82212 33.98442 31.40327
#
# Velocity S-wave (km/s) = 3.67434 3.98985 3.83534
# Velocity P-wave (km/s) = 6.16218 6.99605 6.59231
#
# Compressibility (1/GPa) = 0.02345444
#
# Stress axis : x y z
#
# Youngs Moduli (GPa) = 74.49784 68.86936 96.69315
#
# Poissons Ratio (x) = 0.21400 0.25010
# Poissons Ratio (y) = 0.23149 0.16647
# Poissons Ratio (z) = 0.19269 0.11857
#
# Static dielectric constant tensor:
#      x y z
#    x 3.984090 0.011410 0.255720 
#    y 0.011410 3.753560 -0.004740 
#    z 0.255720 -0.004740 4.125350 
# 
# 
# High freq. dielectric constant tensor:
#      x y z
#    x 1.842560 -0.000950 0.013690 
#    y -0.000950 1.824760 0.003540 
#    z 0.013690 0.003540 1.851230 
# 
# From -- ./inp_files/562618.got.cif
#   From: 2010.06.25/outbox.cif.g09.slc.cpg/sg2_282_cif.got.tgz:562618.got - 2010.06.27 13:26:56.
