data_PCOD8004410
_publ_section_title
;
Structure prediction by ZEFSAII (Michael W. Deem and Ramdas Pophale) SiO2 
 PCOD8004410
Probable space group: P -1
;
_chemical_formula_sum "Si O2"
_cell_formula_units_Z 16
_cell_length_a 15.641406
_cell_length_b 6.244841
_cell_length_c 13.500072
_cell_angle_alpha 94.187269
_cell_angle_beta 144.079765
_cell_angle_gamma 74.236979
_cell_volume 718.839879
_symmetry_space_group_name_H-M "P -1"
_symmetry_group_IT_number 2
_symmetry_cell_setting 'triclinic'
loop_
_space_group_symop_operation_xyz
x,y,z
-x,-y,-z
loop_
_atom_site_type_symbol
_atom_site_label
_atom_site_fract_x
_atom_site_fract_y
_atom_site_fract_z
Si Si1 0.163838 0.055260 0.453482
Si Si2 0.437374 0.313859 0.333485
Si Si3 0.119380 0.533130 0.720330
Si Si4 0.553124 0.858072 0.321406
Si Si5 0.285600 0.519171 0.390016
Si Si6 0.287814 0.700835 0.046895
Si Si7 0.983706 0.041776 0.868311
Si Si8 0.944589 0.227464 0.520278
O O1 0.149442 0.818063 0.475150
O O2 0.340613 0.040735 0.642296
O O3 0.049127 0.275659 0.408754
O O4 0.126414 0.068895 0.299829
O O5 0.337347 0.347734 0.340258
O O6 0.611133 0.317317 0.510479
O O7 0.339592 0.521560 0.177915
O O8 0.448719 0.062139 0.301820
O O9 0.161388 0.567430 0.645842
O O10 0.094418 0.289040 0.701026
O O11 0.247004 0.565571 0.913520
O O12 0.680363 0.638774 0.486801
O O13 0.429865 0.775470 0.144266
O O14 0.101336 0.680786 0.216549
O O15 0.149985 0.932010 0.964440
O O16 0.000000 0.000000 0.000000
O O17 0.000000 0.000000 0.500000
#
# Coordination Sequence:
#
# PCOD8004410 Si02
#       8
#     2   2   2   2   2   2   2   2
#     4  10  22  37  63  90 127 172 213 250 313 392
#     4  10  20  38  58  82 126 178 216 262 310 373
#     4   9  20  40  66  97 123 153 211 267 318 374
#     4  11  23  39  58  91 128 182 211 250 318 389
#     4  10  21  37  60  81 125 177 225 259 308 373
#     4  10  23  39  62  96 132 163 211 271 324 363
#     4  11  21  40  60  91 129 168 223 274 305 362
#     4   9  19  39  68  94 121 160 204 258 324 383
#
# _framework density 22.258087
#
# number of rings (size 3 to 8) (size 9 to 14) (size 15 to 20)
#    0.000    2.000    2.500    0.375    1.750    4.000 
#    2.250    1.875    0.000    7.500    0.000    0.000 
#    0.000    0.000    0.000    0.000    0.000    0.000 
#
# Total GULP energy -198213.813956 kJ/mol
# GULP energy per Si atom -12388.363372 kJ/mol
# Density = 2.220743 g / cm^3
# Si number density = 22.258087 Si / 1000 Ang^3
#
#
#
# Elastic Constant Matrix: (Units=GPa)
#
#
# Indices 1 2 3 4 5 6 
#
# 1 73.4529 26.7671 55.3969 18.0120 -0.4113 20.9661
# 2 26.7671 113.4651 47.6910 12.0905 9.8954 8.0617
# 3 55.3969 47.6910 123.9326 17.3298 10.7339 7.2735
# 4 18.0120 12.0905 17.3298 51.8572 -4.6545 8.4341
# 5 -0.4113 9.8954 10.7339 -4.6545 24.5589 5.8972
# 6 20.9661 8.0617 7.2735 8.4341 5.8972 27.6708
#
#
#
# Elastic Compliance Matrix: (Units=1/GPa)
#
#
# Indices 1 2 3 4 5 6 
#
# 1 0.029765 -0.001135 -0.012388 -0.001547 0.011085 -0.020857
# 2 -0.001135 0.010865 -0.003198 -0.001287 -0.003147 -0.000402
# 3 -0.012388 -0.003198 0.015342 -0.002223 -0.008134 0.008696
# 4 -0.001547 -0.001287 -0.002223 0.022536 0.007244 -0.006281
# 5 0.011085 -0.003147 -0.008134 0.007244 0.051551 -0.018539
# 6 -0.020857 -0.000402 0.008696 -0.006281 -0.018539 0.055639
#
#
# Mechanical properties :
#
#
# Convention : Reuss Voigt Hill
#
# Bulk Modulus (GPa) = 44.38275 63.39565 53.88920
# Shear Modulus (GPa) = 22.06052 32.88376 27.47214
#
# Velocity S-wave (km/s) = 3.15163 3.84785 3.51701
# Velocity P-wave (km/s) = 5.76429 6.94875 6.38405
#
# Compressibility (1/GPa) = 0.02253128
#
# Stress axis : x y z
#
# Youngs Moduli (GPa) = 33.59638 92.03690 65.18263
#
# Poissons Ratio (x) = 0.10447 0.80746
# Poissons Ratio (y) = 0.03813 0.20842
# Poissons Ratio (z) = 0.41618 0.29429
#
# Static dielectric constant tensor:
#      x y z
#    x 4.181530 0.094670 -0.128630 
#    y 0.094670 4.187720 0.064250 
#    z -0.128630 0.064250 4.074710 
# 
# 
# High freq. dielectric constant tensor:
#      x y z
#    x 1.858830 -0.005710 -0.004610 
#    y -0.005710 1.887930 0.007200 
#    z -0.004610 0.007200 1.859770 
# 
# From -- ./inp_files/128226.got.cif
#   From: 2010.06.25/outbox.cif.g09.slc.cpg/sg2_65_cif.got.tgz:128226.got - 2010.06.27 13:26:56.
