data_PCOD8004694
_publ_section_title
;
Structure prediction by ZEFSAII (Michael W. Deem and Ramdas Pophale) SiO2 
 PCOD8004694
Probable space group: P -1
;
_chemical_formula_sum "Si O2"
_cell_formula_units_Z 16
_cell_length_a 28.776467
_cell_length_b 11.019040
_cell_length_c 13.177207
_cell_angle_alpha 157.898525
_cell_angle_beta 27.942796
_cell_angle_gamma 152.623637
_cell_volume 677.009221
_symmetry_space_group_name_H-M "P -1"
_symmetry_group_IT_number 2
_symmetry_cell_setting 'triclinic'
loop_
_space_group_symop_operation_xyz
x,y,z
-x,-y,-z
loop_
_atom_site_type_symbol
_atom_site_label
_atom_site_fract_x
_atom_site_fract_y
_atom_site_fract_z
Si Si1 0.254881 0.302909 0.465351
Si Si2 0.722121 0.116073 0.621845
Si Si3 0.154168 0.196048 0.162644
Si Si4 0.438652 0.213040 0.477014
Si Si5 0.194560 0.940327 0.095560
Si Si6 0.982335 0.414895 0.185707
Si Si7 0.550331 0.739001 0.827652
Si Si8 0.086600 0.901254 0.640320
O O1 0.369914 0.342588 0.315004
O O2 0.248294 0.226093 0.299688
O O3 0.152845 0.992391 0.476187
O O4 0.256567 0.684576 0.774679
O O5 0.754718 0.535225 0.877999
O O6 0.821918 0.015616 0.384767
O O7 0.685628 0.959836 0.457070
O O8 0.621013 0.985481 0.791546
O O9 0.071532 0.391994 0.487390
O O10 0.205568 0.149636 0.132688
O O11 0.100039 0.825791 0.925375
O O12 0.500000 0.500000 0.500000
O O13 0.457819 0.385095 0.685193
O O14 0.489970 0.923401 0.154132
O O15 0.069740 0.715910 0.184595
O O16 0.028442 0.175352 0.979314
O O17 0.000000 0.500000 0.500000
#
# Coordination Sequence:
#
# PCOD8004694 Si02
#       8
#     2   2   2   2   2   2   2   2
#     4  10  22  40  64  89 112 161 203 246 293 355
#     4  10  22  37  60  92 120 157 193 241 308 350
#     4  12  24  39  59  85 122 161 201 254 284 347
#     4  10  20  38  61  90 121 154 191 243 300 367
#     4  11  22  40  61  84 119 158 214 241 287 344
#     4  11  23  39  57  84 117 170 205 238 289 342
#     4  10  21  40  65  89 119 151 195 249 301 363
#     4  10  20  40  57  87 126 156 194 244 294 356
#
# _framework density 23.633357
#
# number of rings (size 3 to 8) (size 9 to 14) (size 15 to 20)
#    0.000    1.500    1.250    5.250    0.000    4.500 
#    4.500    0.000    0.000    4.500    0.000    0.000 
#    0.000    0.000    0.000    0.000    0.000    0.000 
#
# Total GULP energy -198379.531119 kJ/mol
# GULP energy per Si atom -12398.720695 kJ/mol
# Density = 2.357957 g / cm^3
# Si number density = 23.633357 Si / 1000 Ang^3
#
#
#
# Elastic Constant Matrix: (Units=GPa)
#
#
# Indices 1 2 3 4 5 6 
#
# 1 70.1060 28.3715 -34.9482 -13.4037 -21.9418 26.2637
# 2 28.3715 32.1282 2.2175 -2.6421 -7.8948 10.7549
# 3 -34.9482 2.2175 52.6226 -15.6291 -11.0974 10.7779
# 4 -13.4037 -2.6421 -15.6291 12.9812 5.0507 -3.7584
# 5 -21.9418 -7.8948 -11.0974 5.0507 39.9628 10.0609
# 6 26.2637 10.7549 10.7779 -3.7584 10.0609 34.5275
#
#
#
# Elastic Compliance Matrix: (Units=1/GPa)
#
#
# Indices 1 2 3 4 5 6 
#
# 1 -0.010672 0.000795 -0.020590 -0.026782 -0.011764 0.014810
# 2 0.000795 0.040463 0.008048 0.007555 0.014526 -0.019131
# 3 -0.020590 0.008048 -0.006548 -0.017144 -0.013730 0.017333
# 4 -0.026782 0.007555 -0.017144 0.055323 -0.034927 0.039570
# 5 -0.011764 0.014526 -0.013730 -0.034927 0.022447 -0.001633
# 6 0.014810 -0.019131 0.017333 0.039570 -0.001633 0.023028
#
#
# Mechanical properties :
#
#
# Convention : Reuss Voigt Hill
#
# Bulk Modulus (GPa) = -3982.57592 16.23760 -1983.16916
# Shear Modulus (GPa) = 33.90924 28.10870 31.00897
#
# Velocity S-wave (km/s) = 3.79199 3.45246 3.62620
# Velocity P-wave (km/s) = 40.86118 4.77265 28.69545
#
# Compressibility (1/GPa) = -0.00025109
#
# Stress axis : x y z
#
# Youngs Moduli (GPa) = -93.70242 24.71395 -152.72779
#
# Poissons Ratio (x) = -0.01964 -3.14461
# Poissons Ratio (y) = 0.07445 1.22914
# Poissons Ratio (z) = -1.92930 -0.19890
#
# Static dielectric constant tensor:
#      x y z
#    x 8.699640 2.385240 -1.415330 
#    y 2.385240 5.400350 -0.516770 
#    z -1.415330 -0.516770 4.808650 
# 
# 
# High freq. dielectric constant tensor:
#      x y z
#    x 1.943290 0.019400 -0.005860 
#    y 0.019400 1.917610 0.005820 
#    z -0.005860 0.005820 1.939630 
# 
# From -- ./inp_files/477647.got.cif
#   From: 2010.06.25/outbox.cif.g09.slc.cpg/sg2_239_cif.got.tgz:477647.got - 2010.06.27 13:26:56.
