data_PCOD8004945
_publ_section_title
;
Structure prediction by ZEFSAII (Michael W. Deem and Ramdas Pophale) SiO2 
 PCOD8004945
Probable space group: P -1
;
_chemical_formula_sum "Si O2"
_cell_formula_units_Z 14
_cell_length_a 9.024365
_cell_length_b 11.009822
_cell_length_c 12.478867
_cell_angle_alpha 117.154851
_cell_angle_beta 40.716329
_cell_angle_gamma 121.935437
_cell_volume 682.910416
_symmetry_space_group_name_H-M "P -1"
_symmetry_group_IT_number 2
_symmetry_cell_setting 'triclinic'
loop_
_space_group_symop_operation_xyz
x,y,z
-x,-y,-z
loop_
_atom_site_type_symbol
_atom_site_label
_atom_site_fract_x
_atom_site_fract_y
_atom_site_fract_z
Si Si1 0.784484 0.061815 0.356433
Si Si2 0.954631 0.138322 0.528896
Si Si3 0.772644 0.248630 0.245663
Si Si4 0.976472 0.452194 0.872654
Si Si5 0.176338 0.939851 0.058864
Si Si6 0.666686 0.660966 0.468759
Si Si7 0.371241 0.816582 0.102159
O O1 0.910705 0.128677 0.423557
O O2 0.866519 0.185301 0.271140
O O3 0.500000 0.000000 0.500000
O O4 0.899844 0.937779 0.208603
O O5 0.722752 0.161254 0.719851
O O6 0.188997 0.277668 0.476394
O O7 0.000000 0.000000 0.500000
O O8 0.499992 0.239744 0.423412
O O9 0.937675 0.412501 0.199970
O O10 0.772732 0.156554 0.102667
O O11 0.703890 0.355168 0.953638
O O12 0.134426 0.341756 0.730280
O O13 0.000000 0.500000 0.000000
O O14 0.242815 0.888298 0.114608
O O15 0.344045 0.106869 0.020896
O O16 0.500000 0.500000 0.500000
#
# Coordination Sequence:
#
# PCOD8004945 Si02
#       7
#     2   2   2   2   2   2   2
#     4  12  26  39  62  96 134 168 207 265 326 373
#     4  11  20  38  62  88 123 164 213 256 306 372
#     4  11  23  40  62  95 129 166 207 261 322 373
#     4  10  20  38  63  92 125 163 210 257 307 377
#     4  11  22  38  64  93 125 160 212 267 312 375
#     4   9  21  38  62  92 123 164 217 253 302 377
#     4  10  21  37  63  94 119 157 221 264 306 363
#
# _framework density 20.500492999999999
#
# number of rings (size 3 to 8) (size 9 to 14) (size 15 to 20)
#    0.000    1.429    2.857    3.000    4.000    0.000 
#    0.000    7.143    0.000    1.714    0.000    0.000 
#    0.000    0.000    0.000    0.000    0.000    0.000 
#
# Total GULP energy -173479.248957 kJ/mol
# GULP energy per Si atom -12391.374926 kJ/mol
# Density = 2.045383 g / cm^3
# Si number density = 20.500493 Si / 1000 Ang^3
#
#
#
# Elastic Constant Matrix: (Units=GPa)
#
#
# Indices 1 2 3 4 5 6 
#
# 1 76.6898 26.2029 32.6892 8.9823 -0.8117 -2.6807
# 2 26.2029 106.1192 29.3242 -2.7473 -4.5189 20.9157
# 3 32.6892 29.3242 97.2103 19.8552 -1.5299 3.0241
# 4 8.9823 -2.7473 19.8552 33.4207 4.6956 2.4927
# 5 -0.8117 -4.5189 -1.5299 4.6956 36.8249 -4.7810
# 6 -2.6807 20.9157 3.0241 2.4927 -4.7810 37.7001
#
#
#
# Elastic Compliance Matrix: (Units=1/GPa)
#
#
# Indices 1 2 3 4 5 6 
#
# 1 0.016478 -0.003783 -0.003946 -0.002765 0.000587 0.003844
# 2 -0.003783 0.012859 -0.003325 0.004635 -0.000204 -0.007469
# 3 -0.003946 -0.003325 0.014219 -0.007918 0.001249 0.001105
# 4 -0.002765 0.004635 -0.007918 0.036871 -0.005202 -0.005230
# 5 0.000587 -0.000204 0.001249 -0.005202 0.028378 0.003997
# 6 0.003844 -0.007469 0.001105 -0.005230 0.003997 0.031706
#
#
# Mechanical properties :
#
#
# Convention : Reuss Voigt Hill
#
# Bulk Modulus (GPa) = 46.61812 50.71688 48.66750
# Shear Modulus (GPa) = 29.45189 34.37600 31.91394
#
# Velocity S-wave (km/s) = 3.79442 4.09936 3.94984
# Velocity P-wave (km/s) = 6.47968 6.87018 6.67778
#
# Compressibility (1/GPa) = 0.02145089
#
# Stress axis : x y z
#
# Youngs Moduli (GPa) = 60.68590 77.76367 70.32674
#
# Poissons Ratio (x) = 0.29416 0.27749
# Poissons Ratio (y) = 0.22956 0.23381
# Poissons Ratio (z) = 0.23945 0.25853
#
# Static dielectric constant tensor:
#      x y z
#    x 3.737150 0.341280 -0.347390 
#    y 0.341280 4.039710 -0.002120 
#    z -0.347390 -0.002120 4.031310 
# 
# 
# High freq. dielectric constant tensor:
#      x y z
#    x 1.774250 0.019170 0.004220 
#    y 0.019170 1.807280 -0.002780 
#    z 0.004220 -0.002780 1.818310 
# 
# From -- ./inp_files/154258.got.cif
#   From: 2010.06.25/outbox.cif.g09.slc.cpg/sg2_78_cif.got.tgz:154258.got - 2010.06.27 13:26:56.
