data_PCOD8004353
_publ_section_title
;
Structure prediction by ZEFSAII (Michael W. Deem and Ramdas Pophale) SiO2 
 PCOD8004353
Probable space group: P -1
;
_chemical_formula_sum "Si O2"
_cell_formula_units_Z 14
_cell_length_a 22.586516
_cell_length_b 20.248906
_cell_length_c 8.589665
_cell_angle_alpha 47.300249
_cell_angle_beta 36.642528
_cell_angle_gamma 19.780406
_cell_volume 733.732011
_symmetry_space_group_name_H-M "P -1"
_symmetry_group_IT_number 2
_symmetry_cell_setting 'triclinic'
loop_
_space_group_symop_operation_xyz
x,y,z
-x,-y,-z
loop_
_atom_site_type_symbol
_atom_site_label
_atom_site_fract_x
_atom_site_fract_y
_atom_site_fract_z
Si Si1 0.723939 0.170542 0.955705
Si Si2 0.088851 0.303064 0.236983
Si Si3 0.596379 0.699764 0.727928
Si Si4 0.733046 0.017483 0.758297
Si Si5 0.498146 0.693341 0.473775
Si Si6 0.121791 0.765297 0.567824
Si Si7 0.724975 0.665756 0.205114
O O1 0.741152 0.262205 0.745697
O O2 0.511778 0.308793 0.075039
O O3 0.674240 0.193403 0.204842
O O4 0.961419 0.925135 0.796611
O O5 0.254690 0.248144 0.035694
O O6 0.873559 0.462132 0.556981
O O7 0.235340 0.092325 0.248710
O O8 0.982809 0.418198 0.107192
O O9 0.467887 0.845675 0.914655
O O10 0.559970 0.794792 0.501797
O O11 0.653262 0.169072 0.582976
O O12 0.972061 0.845241 0.616200
O O13 0.690370 0.460064 0.408567
O O14 0.625684 0.683894 0.250965
#
# Coordination Sequence:
#
# PCOD8004353 Si02
#       7
#     2   2   2   2   2   2   2
#     4   9  19  36  57  74 103 144 170 205 268 301
#     4   9  17  35  55  74 105 137 173 215 249 308
#     4   8  17  34  53  78 100 137 175 207 258 307
#     4  11  21  32  56  80 104 137 172 211 264 300
#     4  11  21  35  54  81 104 136 173 213 258 309
#     4  10  20  38  54  76 107 135 174 217 247 311
#     4   8  17  36  55  71 106 140 169 212 260 295
#
# _framework density 19.080535999999999
#
# number of rings (size 3 to 8) (size 9 to 14) (size 15 to 20)
#    0.857    1.714    1.429    0.429    0.000    2.857 
#    0.000    7.143    0.000    0.000    0.000    0.000 
#    0.000    0.000    0.000    0.000    0.000    0.000 
#
# Total GULP energy -173516.195542 kJ/mol
# GULP energy per Si atom -12394.013967 kJ/mol
# Density = 1.903711 g / cm^3
# Si number density = 19.080536 Si / 1000 Ang^3
#
#
#
# Elastic Constant Matrix: (Units=GPa)
#
#
# Indices 1 2 3 4 5 6 
#
# 1 23.6220 22.7800 28.3986 0.1180 -10.7969 12.1386
# 2 22.7800 108.8506 41.4639 -5.9458 -3.5487 11.8590
# 3 28.3986 41.4639 114.3037 8.9832 -16.6943 20.9942
# 4 0.1180 -5.9458 8.9832 20.9406 8.1874 5.2559
# 5 -10.7969 -3.5487 -16.6943 8.1874 26.7140 -8.3599
# 6 12.1386 11.8590 20.9942 5.2559 -8.3599 22.3729
#
#
#
# Elastic Compliance Matrix: (Units=1/GPa)
#
#
# Indices 1 2 3 4 5 6 
#
# 1 0.086620 -0.011100 -0.010077 -0.001209 0.020145 -0.023845
# 2 -0.011100 0.013499 -0.003599 0.009835 -0.009034 -0.003441
# 3 -0.010077 -0.003599 0.014613 -0.009652 0.007096 -0.001419
# 4 -0.001209 0.009835 -0.009652 0.075986 -0.037008 -0.027179
# 5 0.020145 -0.009034 0.007096 -0.037008 0.066663 0.020803
# 6 -0.023845 -0.003441 -0.001419 -0.027179 0.020803 0.074948
#
#
# Mechanical properties :
#
#
# Convention : Reuss Voigt Hill
#
# Bulk Modulus (GPa) = 15.34242 48.00683 31.67463
# Shear Modulus (GPa) = 12.38828 24.28106 18.33467
#
# Velocity S-wave (km/s) = 2.55083 3.57116 3.10322
# Velocity P-wave (km/s) = 4.09072 6.49761 5.42922
#
# Compressibility (1/GPa) = 0.06517875
#
# Stress axis : x y z
#
# Youngs Moduli (GPa) = 11.54470 74.08206 68.43083
#
# Poissons Ratio (x) = 0.82234 0.68958
# Poissons Ratio (y) = 0.12815 0.24628
# Poissons Ratio (z) = 0.11634 0.26662
#
# Static dielectric constant tensor:
#      x y z
#    x 3.253280 0.120760 -0.152550 
#    y 0.120760 3.202490 0.119720 
#    z -0.152550 0.119720 3.553220 
# 
# 
# High freq. dielectric constant tensor:
#      x y z
#    x 1.722690 0.013580 -0.014540 
#    y 0.013580 1.720540 0.009090 
#    z -0.014540 0.009090 1.745310 
# 
# From -- ./inp_files/291478.got.cif
#   From: 2010.06.25/outbox.cif.g09.slc.cpg/sg2_146_cif.got.tgz:291478.got - 2010.06.27 13:26:56.
