data_PCOD8004626
_publ_section_title
;
Structure prediction by ZEFSAII (Michael W. Deem and Ramdas Pophale) SiO2 
 PCOD8004626
Probable space group: P -1
;
_chemical_formula_sum "Si O2"
_cell_formula_units_Z 16
_cell_length_a 11.965496
_cell_length_b 9.348781
_cell_length_c 11.827873
_cell_angle_alpha 129.556861
_cell_angle_beta 114.395581
_cell_angle_gamma 97.625602
_cell_volume 767.413188
_symmetry_space_group_name_H-M "P -1"
_symmetry_group_IT_number 2
_symmetry_cell_setting 'triclinic'
loop_
_space_group_symop_operation_xyz
x,y,z
-x,-y,-z
loop_
_atom_site_type_symbol
_atom_site_label
_atom_site_fract_x
_atom_site_fract_y
_atom_site_fract_z
Si Si1 0.437843 0.472779 0.333155
Si Si2 0.358644 0.918648 0.643304
Si Si3 0.398271 0.092332 0.523073
Si Si4 0.772833 0.231511 0.258808
Si Si5 0.068907 0.280146 0.354088
Si Si6 0.144696 0.441674 0.226280
Si Si7 0.135924 0.918905 0.182305
Si Si8 0.359715 0.035855 0.138399
O O1 0.500000 0.500000 0.500000
O O2 0.550178 0.673421 0.397405
O O3 0.280330 0.435475 0.237340
O O4 0.411577 0.236314 0.169404
O O5 0.330714 0.948019 0.776674
O O6 0.210777 0.696577 0.417494
O O7 0.389766 0.115078 0.668077
O O8 0.503855 0.908096 0.695194
O O9 0.500000 0.000000 0.500000
O O10 0.235323 0.902765 0.310960
O O11 0.801883 0.471894 0.422262
O O12 0.916454 0.222907 0.314752
O O13 0.696936 0.174858 0.074719
O O14 0.062106 0.278788 0.215681
O O15 0.099626 0.093203 0.303837
O O16 0.015191 0.330729 0.021142
O O17 0.230012 0.005261 0.148414
#
# Coordination Sequence:
#
# PCOD8004626 Si02
#       8
#     2   2   2   2   2   2   2   2
#     4  12  20  37  65  96 124 160 208 270 318 359
#     4  11  24  42  60  90 136 171 205 255 324 381
#     4  12  23  42  61  92 134 169 206 268 327 370
#     4  10  23  39  64  90 135 171 208 252 321 388
#     4  10  20  38  61 100 128 160 206 271 314 369
#     4  11  19  34  62  96 125 151 208 267 315 366
#     4  12  22  35  70  98 122 159 218 271 317 364
#     4  12  21  40  67 100 121 164 219 266 313 377
#
# _framework density 20.849263000000001
#
# number of rings (size 3 to 8) (size 9 to 14) (size 15 to 20)
#    0.000    0.750    7.500    1.500    1.750    0.500 
#    0.000    1.250    0.000    0.000    0.000    0.000 
#    0.000    0.000    0.000    0.000    0.000    0.000 
#
# Total GULP energy -198247.267092 kJ/mol
# GULP energy per Si atom -12390.454193 kJ/mol
# Density = 2.080181 g / cm^3
# Si number density = 20.849263 Si / 1000 Ang^3
#
#
#
# Elastic Constant Matrix: (Units=GPa)
#
#
# Indices 1 2 3 4 5 6 
#
# 1 74.7091 13.9435 34.9745 -3.5017 12.7023 1.4663
# 2 13.9435 81.7008 19.9312 -8.6426 4.2235 11.6216
# 3 34.9745 19.9312 97.2186 -6.1035 10.2354 -4.8312
# 4 -3.5017 -8.6426 -6.1035 21.8112 -3.3980 0.9558
# 5 12.7023 4.2235 10.2354 -3.3980 36.7648 -2.9605
# 6 1.4663 11.6216 -4.8312 0.9558 -2.9605 25.2838
#
#
#
# Elastic Compliance Matrix: (Units=1/GPa)
#
#
# Indices 1 2 3 4 5 6 
#
# 1 0.016949 -0.001001 -0.005526 0.000192 -0.004354 -0.002096
# 2 -0.001001 0.014697 -0.002624 0.005141 -0.000739 -0.007480
# 3 -0.005526 -0.002624 0.013202 0.001439 -0.001020 0.003875
# 4 0.000192 0.005141 0.001439 0.048971 0.003181 -0.003578
# 5 -0.004354 -0.000739 -0.001020 0.003181 0.029669 0.003751
# 6 -0.002096 -0.007480 0.003875 -0.003578 0.003751 0.044426
#
#
# Mechanical properties :
#
#
# Convention : Reuss Voigt Hill
#
# Bulk Modulus (GPa) = 37.67027 43.48077 40.57552
# Shear Modulus (GPa) = 25.63245 29.09056 27.36151
#
# Velocity S-wave (km/s) = 3.51011 3.73940 3.62657
# Velocity P-wave (km/s) = 5.87665 6.28842 6.08602
#
# Compressibility (1/GPa) = 0.02654614
#
# Stress axis : x y z
#
# Youngs Moduli (GPa) = 58.99905 68.04213 75.74412
#
# Poissons Ratio (x) = 0.06812 0.41857
# Poissons Ratio (y) = 0.05907 0.19875
# Poissons Ratio (z) = 0.32603 0.17854
#
# Static dielectric constant tensor:
#      x y z
#    x 3.793600 0.141870 0.181840 
#    y 0.141870 3.736350 0.027860 
#    z 0.181840 0.027860 4.066890 
# 
# 
# High freq. dielectric constant tensor:
#      x y z
#    x 1.813840 0.005420 0.019710 
#    y 0.005420 1.787130 -0.004440 
#    z 0.019710 -0.004440 1.819310 
# 
# From -- ./inp_files/282698.got.cif
#   From: 2010.06.25/outbox.cif.g09.slc.cpg/sg2_142_cif.got.tgz:282698.got - 2010.06.27 13:26:56.
