data_PCOD8004263
_publ_section_title
;
Structure prediction by ZEFSAII (Michael W. Deem and Ramdas Pophale) SiO2 
 PCOD8004263
Probable space group: P -1
;
_chemical_formula_sum "Si O2"
_cell_formula_units_Z 16
_cell_length_a 23.293875
_cell_length_b 16.411536
_cell_length_c 11.699351
_cell_angle_alpha 143.210226
_cell_angle_beta 27.305508
_cell_angle_gamma 158.467006
_cell_volume 744.214396
_symmetry_space_group_name_H-M "P -1"
_symmetry_group_IT_number 2
_symmetry_cell_setting 'triclinic'
loop_
_space_group_symop_operation_xyz
x,y,z
-x,-y,-z
loop_
_atom_site_type_symbol
_atom_site_label
_atom_site_fract_x
_atom_site_fract_y
_atom_site_fract_z
Si Si1 0.342598 0.803410 0.271623
Si Si2 0.057327 0.639739 0.404892
Si Si3 0.639917 0.745020 0.980818
Si Si4 0.511409 0.124737 0.523389
Si Si5 0.103468 0.205227 0.118278
Si Si6 0.524142 0.678907 0.862190
Si Si7 0.966594 0.584540 0.248472
Si Si8 0.970228 0.060496 0.447807
O O1 0.274777 0.787227 0.245093
O O2 0.133390 0.619855 0.511065
O O3 0.494535 0.042162 0.334498
O O4 0.461052 0.763373 0.005428
O O5 0.007834 0.748772 0.656208
O O6 0.080193 0.643248 0.232005
O O7 0.551417 0.732079 0.006995
O O8 0.873395 0.897490 0.708851
O O9 0.500000 0.500000 0.000000
O O10 0.651630 0.890496 0.203174
O O11 0.722482 0.387147 0.471062
O O12 0.500000 0.000000 0.500000
O O13 0.084164 0.157156 0.232328
O O14 0.338085 0.409425 0.884310
O O15 0.000000 0.000000 0.000000
O O16 0.734586 0.799541 0.568754
O O17 0.048960 0.804321 0.312702
O O18 0.000000 0.500000 0.000000
#
# Coordination Sequence:
#
# PCOD8004263 Si02
#       8
#     2   2   2   2   2   2   2   2
#     4  10  20  37  66  95 126 172 223 276 329 395
#     4   9  20  39  62  95 131 170 218 273 338 393
#     4  12  22  41  67  96 135 174 221 281 337 398
#     4  12  21  38  67  96 126 175 232 269 332 400
#     4  10  22  41  66  91 133 177 218 272 331 402
#     4  11  22  42  66  92 132 179 220 278 336 390
#     4  11  22  40  64  99 137 167 218 287 333 396
#     4  11  24  42  66  97 133 175 221 276 340 398
#
# _framework density 21.499181
#
# number of rings (size 3 to 8) (size 9 to 14) (size 15 to 20)
#    0.000    1.250    5.000    1.875    1.750    0.500 
#    0.000    5.625    0.000    0.000    0.000    0.000 
#    0.000    0.000    0.000    0.000    0.000    0.000 
#
# Total GULP energy -198321.327974 kJ/mol
# GULP energy per Si atom -12395.082998 kJ/mol
# Density = 2.145025 g / cm^3
# Si number density = 21.499181 Si / 1000 Ang^3
#
#
#
# Elastic Constant Matrix: (Units=GPa)
#
#
# Indices 1 2 3 4 5 6 
#
# 1 95.7811 35.5330 34.4316 2.5829 -16.6310 22.1088
# 2 35.5330 122.4563 52.0892 1.3577 -1.6355 10.5981
# 3 34.4316 52.0892 107.0136 -4.3371 -9.4215 1.8639
# 4 2.5829 1.3577 -4.3371 42.4682 6.7446 1.8546
# 5 -16.6310 -1.6355 -9.4215 6.7446 24.8253 -4.0694
# 6 22.1088 10.5981 1.8639 1.8546 -4.0694 32.3174
#
#
#
# Elastic Compliance Matrix: (Units=1/GPa)
#
#
# Indices 1 2 3 4 5 6 
#
# 1 0.016050 -0.002405 -0.003177 -0.002196 0.008541 -0.008806
# 2 -0.002405 0.011068 -0.004849 -0.000131 -0.003027 -0.002078
# 3 -0.003177 -0.004849 0.012953 0.001097 0.002710 0.003295
# 4 -0.002196 -0.000131 0.001097 0.025117 -0.008047 -0.000973
# 5 0.008541 -0.003027 0.002710 -0.008047 0.049291 0.001662
# 6 -0.008806 -0.002078 0.003295 -0.000973 0.001662 0.037724
#
#
# Mechanical properties :
#
#
# Convention : Reuss Voigt Hill
#
# Bulk Modulus (GPa) = 52.06206 63.26207 57.66207
# Shear Modulus (GPa) = 27.86026 33.46865 30.66446
#
# Velocity S-wave (km/s) = 3.60373 3.94984 3.78075
# Velocity P-wave (km/s) = 6.44859 7.09160 6.77772
#
# Compressibility (1/GPa) = 0.01920785
#
# Stress axis : x y z
#
# Youngs Moduli (GPa) = 62.30617 90.35410 77.20405
#
# Poissons Ratio (x) = 0.21732 0.24527
# Poissons Ratio (y) = 0.14986 0.37436
# Poissons Ratio (z) = 0.19794 0.43812
#
# Static dielectric constant tensor:
#      x y z
#    x 3.900050 -0.072050 -0.144750 
#    y -0.072050 3.984250 -0.298260 
#    z -0.144750 -0.298260 3.812650 
# 
# 
# High freq. dielectric constant tensor:
#      x y z
#    x 1.842510 0.001240 -0.014150 
#    y 0.001240 1.841820 -0.010000 
#    z -0.014150 -0.010000 1.832650 
# 
# From -- ./inp_files/271737.got.cif
#   From: 2010.06.25/outbox.cif.g09.slc.cpg/sg2_136_cif.got.tgz:271737.got - 2010.06.27 13:26:56.
