data_PCOD8004029
_publ_section_title
;
Structure prediction by ZEFSAII (Michael W. Deem and Ramdas Pophale) SiO2 
 PCOD8004029
Probable space group: P -1
;
_chemical_formula_sum "Si O2"
_cell_formula_units_Z 16
_cell_length_a 23.397539
_cell_length_b 20.339425
_cell_length_c 13.790549
_cell_angle_alpha 158.820857
_cell_angle_beta 30.481257
_cell_angle_gamma 161.128871
_cell_volume 754.954249
_symmetry_space_group_name_H-M "P -1"
_symmetry_group_IT_number 2
_symmetry_cell_setting 'triclinic'
loop_
_space_group_symop_operation_xyz
x,y,z
-x,-y,-z
loop_
_atom_site_type_symbol
_atom_site_label
_atom_site_fract_x
_atom_site_fract_y
_atom_site_fract_z
Si Si1 0.695823 0.615665 0.638419
Si Si2 0.644859 0.139009 0.398557
Si Si3 0.916452 0.769295 0.886330
Si Si4 0.241399 0.973943 0.772109
Si Si5 0.110305 0.170595 0.782094
Si Si6 0.552381 0.062248 0.119070
Si Si7 0.655631 0.209021 0.769058
Si Si8 0.411541 0.292331 0.434751
O O1 0.680986 0.397250 0.409435
O O2 0.553872 0.469157 0.558377
O O3 0.656844 0.710131 0.912969
O O4 0.899900 0.891181 0.678714
O O5 0.749726 0.454263 0.649771
O O6 0.500000 0.000000 0.500000
O O7 0.776342 0.154152 0.274560
O O8 0.532092 0.928889 0.181070
O O9 0.857843 0.811561 0.124194
O O10 0.047107 0.776825 0.744853
O O11 0.000000 0.000000 0.000000
O O12 0.336853 0.975937 0.551502
O O13 0.225679 0.157603 0.546518
O O14 0.176114 0.451804 0.035111
O O15 0.370985 0.853259 0.162791
O O16 0.500000 0.000000 0.000000
O O17 0.645240 0.983560 0.893221
O O18 0.500000 0.500000 0.500000
#
# Coordination Sequence:
#
# PCOD8004029 Si02
#       8
#     2   2   2   2   2   2   2   2
#     4  10  25  41  67  99 136 169 217 284 338 392
#     4  10  20  37  63  89 129 175 219 256 321 406
#     4  11  24  39  59  98 143 169 213 277 331 401
#     4  10  22  40  64  97 134 174 216 262 338 405
#     4  11  23  43  67  99 134 171 232 270 327 405
#     4  10  24  46  64  95 134 168 228 286 330 390
#     4  11  22  40  70  97 131 179 224 271 329 407
#     4  11  23  45  73  93 126 180 231 278 329 387
#
# _framework density 21.193337
#
# number of rings (size 3 to 8) (size 9 to 14) (size 15 to 20)
#    0.000    1.500    3.750    1.125    7.000    3.500 
#    0.000    0.000    0.000    0.000    0.000    0.000 
#    0.000    0.000    0.000    0.000    0.000    0.000 
#
# Total GULP energy -198244.595102 kJ/mol
# GULP energy per Si atom -12390.287194 kJ/mol
# Density = 2.114510 g / cm^3
# Si number density = 21.193337 Si / 1000 Ang^3
#
#
#
# Elastic Constant Matrix: (Units=GPa)
#
#
# Indices 1 2 3 4 5 6 
#
# 1 64.4011 41.3920 35.8199 0.9453 -9.3510 -17.1065
# 2 41.3920 113.2869 61.1191 4.5187 -9.3717 -16.1041
# 3 35.8199 61.1191 162.5369 -1.4173 -15.0336 -16.8946
# 4 0.9453 4.5187 -1.4173 50.1313 -4.1778 0.8279
# 5 -9.3510 -9.3717 -15.0336 -4.1778 29.9841 -0.5122
# 6 -17.1065 -16.1041 -16.8946 0.8279 -0.5122 43.5005
#
#
#
# Elastic Compliance Matrix: (Units=1/GPa)
#
#
# Indices 1 2 3 4 5 6 
#
# 1 0.022654 -0.006189 -0.001621 0.000358 0.004471 0.006033
# 2 -0.006189 0.013188 -0.003458 -0.001162 0.000315 0.001131
# 3 -0.001621 -0.003458 0.008196 0.000774 0.002652 0.001282
# 4 0.000358 -0.001162 0.000774 0.020320 0.002962 -0.000341
# 5 0.004471 0.000315 0.002652 0.002962 0.036642 0.003280
# 6 0.006033 0.001131 0.001282 -0.000341 0.003280 0.026322
#
#
# Mechanical properties :
#
#
# Convention : Reuss Voigt Hill
#
# Bulk Modulus (GPa) = 46.51377 68.54301 57.52839
# Shear Modulus (GPa) = 31.84191 38.18276 35.01234
#
# Velocity S-wave (km/s) = 3.88035 4.24918 4.06894
# Velocity P-wave (km/s) = 6.48623 7.51572 7.01987
#
# Compressibility (1/GPa) = 0.02149901
#
# Stress axis : x y z
#
# Youngs Moduli (GPa) = 44.14247 75.82932 122.01800
#
# Poissons Ratio (x) = 0.46932 0.19784
# Poissons Ratio (y) = 0.27320 0.42199
# Poissons Ratio (z) = 0.07157 0.26225
#
# Static dielectric constant tensor:
#      x y z
#    x 3.239550 0.011230 -0.258730 
#    y 0.011230 3.851330 -0.106420 
#    z -0.258730 -0.106420 4.637890 
# 
# 
# High freq. dielectric constant tensor:
#      x y z
#    x 1.824620 -0.005600 -0.001790 
#    y -0.005600 1.817230 0.000770 
#    z -0.001790 0.000770 1.844150 
# 
# From -- ./inp_files/543239.got.cif
#   From: 2010.06.25/outbox.cif.g09.slc.cpg/sg2_272_cif.got.tgz:543239.got - 2010.06.27 13:26:56.
