data_PCOD8004813
_publ_section_title
;
Structure prediction by ZEFSAII (Michael W. Deem and Ramdas Pophale) SiO2 
 PCOD8004813
Probable space group: P -1
;
_chemical_formula_sum "Si O2"
_cell_formula_units_Z 16
_cell_length_a 6.511916
_cell_length_b 9.481698
_cell_length_c 16.877469
_cell_angle_alpha 71.656032
_cell_angle_beta 62.899425
_cell_angle_gamma 52.404068
_cell_volume 734.023396
_symmetry_space_group_name_H-M "P -1"
_symmetry_group_IT_number 2
_symmetry_cell_setting 'triclinic'
loop_
_space_group_symop_operation_xyz
x,y,z
-x,-y,-z
loop_
_atom_site_type_symbol
_atom_site_label
_atom_site_fract_x
_atom_site_fract_y
_atom_site_fract_z
Si Si1 0.888105 0.275110 0.470490
Si Si2 0.512902 0.696835 0.881886
Si Si3 0.963594 0.308916 0.620166
Si Si4 0.000516 0.532238 0.707411
Si Si5 0.582622 0.096034 0.578807
Si Si6 0.130561 0.594785 0.001989
Si Si7 0.385239 0.048340 0.922783
Si Si8 0.543710 0.202455 0.737226
O O1 0.862043 0.386430 0.534817
O O2 0.632253 0.251058 0.518425
O O3 0.877891 0.363767 0.373558
O O4 0.178727 0.089150 0.466837
O O5 0.720634 0.667328 0.780387
O O6 0.661217 0.551895 0.948599
O O7 0.375330 0.892170 0.909516
O O8 0.277982 0.659407 0.902939
O O9 0.912726 0.460143 0.662607
O O10 0.785703 0.235551 0.697233
O O11 0.286621 0.147519 0.590486
O O12 0.236639 0.384351 0.749844
O O13 0.594675 0.078660 0.674912
O O14 0.917287 0.772872 0.056107
O O15 0.000000 0.500000 0.000000
O O16 0.572712 0.093013 0.830093
O O17 0.500000 0.000000 0.000000
#
# Coordination Sequence:
#
# PCOD8004813 Si02
#       8
#     2   2   2   2   2   2   2   2
#     4  10  20  38  62  90 126 165 216 264 322 383
#     4  11  25  43  70  96 131 177 214 273 332 392
#     4  10  22  38  62  92 125 170 209 270 320 383
#     4  11  23  39  62  91 129 168 215 264 328 382
#     4   9  20  40  62  88 125 168 212 269 319 386
#     4  11  24  46  69  98 132 166 223 273 329 397
#     4  12  24  45  71  97 132 176 221 271 338 390
#     4  10  23  41  61  90 132 165 216 270 320 386
#
# _framework density 21.79767
#
# number of rings (size 3 to 8) (size 9 to 14) (size 15 to 20)
#    0.000    1.500    2.500    1.875    1.750    5.500 
#    6.750    0.000    0.000    0.000    0.000    0.000 
#    0.000    0.000    0.000    0.000    0.000    0.000 
#
# Total GULP energy -198312.009413 kJ/mol
# GULP energy per Si atom -12394.500588 kJ/mol
# Density = 2.174806 g / cm^3
# Si number density = 21.797670 Si / 1000 Ang^3
#
#
#
# Elastic Constant Matrix: (Units=GPa)
#
#
# Indices 1 2 3 4 5 6 
#
# 1 95.2013 42.5387 49.0087 -2.8265 -23.8703 19.2480
# 2 42.5387 104.4362 32.4041 7.4610 -7.7875 10.2892
# 3 49.0087 32.4041 157.7038 -16.8008 -13.2664 9.9687
# 4 -2.8265 7.4610 -16.8008 37.1618 -4.0656 -1.0111
# 5 -23.8703 -7.7875 -13.2664 -4.0656 32.5434 3.5665
# 6 19.2480 10.2892 9.9687 -1.0111 3.5665 17.6724
#
#
#
# Elastic Compliance Matrix: (Units=1/GPa)
#
#
# Indices 1 2 3 4 5 6 
#
# 1 0.024160 -0.005278 -0.002988 0.002871 0.018349 -0.025095
# 2 -0.005278 0.012337 -0.001426 -0.003746 -0.001919 -0.000457
# 3 -0.002988 -0.001426 0.008119 0.003859 0.001318 -0.000540
# 4 0.002871 -0.003746 0.003859 0.030301 0.006872 -0.002777
# 5 0.018349 -0.001919 0.001318 0.006872 0.048298 -0.028966
# 6 -0.025095 -0.000457 -0.000540 -0.002777 -0.028966 0.090175
#
#
# Mechanical properties :
#
#
# Convention : Reuss Voigt Hill
#
# Bulk Modulus (GPa) = 39.63316 67.24938 53.44127
# Shear Modulus (GPa) = 20.73090 33.03486 26.88288
#
# Velocity S-wave (km/s) = 3.08727 3.89719 3.51563
# Velocity P-wave (km/s) = 5.56148 7.15328 6.40701
#
# Compressibility (1/GPa) = 0.02523140
#
# Stress axis : x y z
#
# Youngs Moduli (GPa) = 41.38988 81.05551 123.17202
#
# Poissons Ratio (x) = 0.42784 0.36803
# Poissons Ratio (y) = 0.21847 0.17567
# Poissons Ratio (z) = 0.12367 0.11560
#
# Static dielectric constant tensor:
#      x y z
#    x 3.783370 -0.042850 -0.334820 
#    y -0.042850 3.939530 0.126050 
#    z -0.334820 0.126050 4.167340 
# 
# 
# High freq. dielectric constant tensor:
#      x y z
#    x 1.852010 0.003660 -0.015660 
#    y 0.003660 1.855840 0.006000 
#    z -0.015660 0.006000 1.867820 
# 
# From -- ./inp_files/52875.got.cif
#   From: 2010.06.25/outbox.cif.g09.slc.cpg/sg2_27_cif.got.tgz:52875.got - 2010.06.27 13:26:56.
