data_PCOD8004937
_publ_section_title
;
Structure prediction by ZEFSAII (Michael W. Deem and Ramdas Pophale) SiO2 
 PCOD8004937
Probable space group: P -1
;
_chemical_formula_sum "Si O2"
_cell_formula_units_Z 16
_cell_length_a 9.260119
_cell_length_b 25.120705
_cell_length_c 8.382583
_cell_angle_alpha 131.038754
_cell_angle_beta 148.366727
_cell_angle_gamma 62.368920
_cell_volume 748.710822
_symmetry_space_group_name_H-M "P -1"
_symmetry_group_IT_number 2
_symmetry_cell_setting 'triclinic'
loop_
_space_group_symop_operation_xyz
x,y,z
-x,-y,-z
loop_
_atom_site_type_symbol
_atom_site_label
_atom_site_fract_x
_atom_site_fract_y
_atom_site_fract_z
Si Si1 0.792156 0.047043 0.438999
Si Si2 0.311615 0.437840 0.462258
Si Si3 0.005374 0.363547 0.714564
Si Si4 0.111290 0.147699 0.688533
Si Si5 0.281188 0.757943 0.573557
Si Si6 0.559017 0.397217 0.132213
Si Si7 0.236379 0.008460 0.368369
Si Si8 0.750286 0.369238 0.920561
O O1 0.930544 0.124149 0.636527
O O2 0.789612 0.054105 0.643038
O O3 0.000000 0.000000 0.500000
O O4 0.500000 0.000000 0.000000
O O5 0.475032 0.522014 0.778634
O O6 0.537703 0.392652 0.639362
O O7 0.169942 0.412375 0.108649
O O8 0.053806 0.427951 0.327435
O O9 0.794803 0.288542 0.427401
O O10 0.806113 0.404770 0.510789
O O11 0.255138 0.348530 0.807723
O O12 0.236336 0.084735 0.602328
O O13 0.880385 0.177322 0.428959
O O14 0.384843 0.213675 0.091749
O O15 0.177841 0.705464 0.221352
O O16 0.627133 0.357914 0.959344
O O17 0.500000 0.000000 0.500000
O O18 0.000000 0.000000 0.000000
#
# Coordination Sequence:
#
# PCOD8004937 Si02
#       8
#     2   2   2   2   2   2   2   2
#     4  10  20  38  63  92 120 155 197 235 281 343
#     4  11  21  39  61  87 116 159 203 248 316 377
#     4  11  23  38  59  86 123 158 199 253 302 366
#     4  11  22  41  66  85 118 169 202 229 284 370
#     4  11  23  42  59  83 118 170 208 229 288 369
#     4  12  22  38  61  90 117 152 201 267 319 345
#     4  11  22  39  64  99 129 146 184 253 304 331
#     4  11  23  39  60  86 120 155 203 260 296 353
#
# _framework density 21.370063999999999
#
# number of rings (size 3 to 8) (size 9 to 14) (size 15 to 20)
#    0.000    1.000    0.000   10.500    0.000    0.000 
#    0.000    7.500    0.000    0.000    0.000    0.000 
#    0.000    0.000    0.000    0.000    0.000    0.000 
#
# Total GULP energy -198236.464186 kJ/mol
# GULP energy per Si atom -12389.779012 kJ/mol
# Density = 2.132143 g / cm^3
# Si number density = 21.370064 Si / 1000 Ang^3
#
#
#
# Elastic Constant Matrix: (Units=GPa)
#
#
# Indices 1 2 3 4 5 6 
#
# 1 151.8184 42.3799 41.9453 9.5579 26.7136 13.9238
# 2 42.3799 79.1257 29.0175 -7.3739 8.8616 -0.2212
# 3 41.9453 29.0175 104.5314 -11.1190 29.2493 16.8787
# 4 9.5579 -7.3739 -11.1190 34.8026 -0.2097 7.7872
# 5 26.7136 8.8616 29.2493 -0.2097 42.8509 -1.9920
# 6 13.9238 -0.2212 16.8787 7.7872 -1.9920 33.9377
#
#
#
# Elastic Compliance Matrix: (Units=1/GPa)
#
#
# Indices 1 2 3 4 5 6 
#
# 1 0.009364 -0.004394 -0.001278 -0.003328 -0.004199 -0.002718
# 2 -0.004394 0.016338 -0.003504 0.002866 0.001911 0.003106
# 3 -0.001278 -0.003504 0.016109 0.006858 -0.009891 -0.009665
# 4 -0.003328 0.002866 0.006858 0.034706 -0.003503 -0.010196
# 5 -0.004199 0.001911 -0.009891 -0.003503 0.032730 0.009379
# 6 -0.002718 0.003106 -0.009665 -0.010196 0.009379 0.038298
#
#
# Mechanical properties :
#
#
# Convention : Reuss Voigt Hill
#
# Bulk Modulus (GPa) = 42.62475 62.46232 52.54354
# Shear Modulus (GPa) = 28.78244 37.12710 32.95477
#
# Velocity S-wave (km/s) = 3.67394 4.17266 3.93122
# Velocity P-wave (km/s) = 6.16331 7.24618 6.72657
#
# Compressibility (1/GPa) = 0.02346055
#
# Stress axis : x y z
#
# Youngs Moduli (GPa) = 106.78907 61.20572 62.07547
#
# Poissons Ratio (x) = 0.26896 0.07932
# Poissons Ratio (y) = 0.46927 0.21748
# Poissons Ratio (z) = 0.13646 0.21444
#
# Static dielectric constant tensor:
#      x y z
#    x 4.698960 1.118010 1.135770 
#    y 1.118010 5.417670 1.252410 
#    z 1.135770 1.252410 4.976210 
# 
# 
# High freq. dielectric constant tensor:
#      x y z
#    x 1.849500 0.007140 0.026720 
#    y 0.007140 1.835670 -0.020430 
#    z 0.026720 -0.020430 1.835930 
# 
# From -- ./inp_files/217760.got.cif
#   From: 2010.06.25/outbox.cif.g09.slc.cpg/sg2_109_cif.got.tgz:217760.got - 2010.06.27 13:26:56.
