data_PCOD8004758
_publ_section_title
;
Structure prediction by ZEFSAII (Michael W. Deem and Ramdas Pophale) SiO2 
 PCOD8004758
Probable space group: P -1
;
_chemical_formula_sum "Si O2"
_cell_formula_units_Z 16
_cell_length_a 15.805407
_cell_length_b 14.338811
_cell_length_c 7.571946
_cell_angle_alpha 59.930796
_cell_angle_beta 86.233604
_cell_angle_gamma 39.479337
_cell_volume 766.835426
_symmetry_space_group_name_H-M "P -1"
_symmetry_group_IT_number 2
_symmetry_cell_setting 'triclinic'
loop_
_space_group_symop_operation_xyz
x,y,z
-x,-y,-z
loop_
_atom_site_type_symbol
_atom_site_label
_atom_site_fract_x
_atom_site_fract_y
_atom_site_fract_z
Si Si1 0.139545 0.265906 0.261012
Si Si2 0.556337 0.270786 0.965721
Si Si3 0.392286 0.022749 0.758759
Si Si4 0.668918 0.299299 0.364136
Si Si5 0.446728 0.377134 0.495342
Si Si6 0.605944 0.987083 0.826941
Si Si7 0.864974 0.203048 0.712275
Si Si8 0.112304 0.060971 0.590115
O O1 0.241208 0.203663 0.472783
O O2 0.246923 0.131940 0.199509
O O3 0.069257 0.223802 0.356054
O O4 0.000000 0.500000 0.000000
O O5 0.439434 0.478863 0.898217
O O6 0.526710 0.330189 0.710836
O O7 0.516581 0.189655 0.094680
O O8 0.749473 0.077140 0.148770
O O9 0.531832 0.960516 0.774584
O O10 0.329626 0.097902 0.899862
O O11 0.540592 0.340484 0.364471
O O12 0.759824 0.228563 0.600245
O O13 0.813335 0.107728 0.394547
O O14 0.252232 0.609221 0.309064
O O15 0.464576 0.230373 0.606711
O O16 0.944124 0.200892 0.564570
O O17 0.000000 0.000000 0.000000
#
# Coordination Sequence:
#
# PCOD8004758 Si02
#       8
#     2   2   2   2   2   2   2   2
#     4  11  24  41  62  92 133 167 207 264 326 372
#     4   9  19  35  61  86 115 161 200 253 305 373
#     4   9  21  39  65  92 122 164 216 267 308 372
#     4  11  20  37  62  87 120 157 205 250 310 377
#     4  10  20  38  62  86 115 164 205 248 306 373
#     4  10  20  42  65  90 121 163 225 260 303 381
#     4  11  23  39  58  91 128 160 200 257 318 371
#     4  11  22  39  58  90 127 157 204 259 315 373
#
# _framework density 20.864972000000002
#
# number of rings (size 3 to 8) (size 9 to 14) (size 15 to 20)
#    0.000    1.750    1.250    4.125    0.000    4.500 
#    2.250    0.000    0.000    0.000    0.000    0.000 
#    0.000    0.000    0.000    0.000    0.000    0.000 
#
# Total GULP energy -198352.371993 kJ/mol
# GULP energy per Si atom -12397.023250 kJ/mol
# Density = 2.081748 g / cm^3
# Si number density = 20.864972 Si / 1000 Ang^3
#
#
#
# Elastic Constant Matrix: (Units=GPa)
#
#
# Indices 1 2 3 4 5 6 
#
# 1 97.7640 32.8457 32.7286 -5.3400 -20.6254 -4.3885
# 2 32.8457 87.7343 30.4263 -11.3602 -8.1164 -12.2223
# 3 32.7286 30.4263 131.1820 -12.7860 -9.5267 0.8228
# 4 -5.3400 -11.3602 -12.7860 31.2974 0.9035 -2.4691
# 5 -20.6254 -8.1164 -9.5267 0.9035 23.7380 -1.0882
# 6 -4.3885 -12.2223 0.8228 -2.4691 -1.0882 35.9709
#
#
#
# Elastic Compliance Matrix: (Units=1/GPa)
#
#
# Indices 1 2 3 4 5 6 
#
# 1 0.014354 -0.003574 -0.001985 0.000109 0.010490 0.000907
# 2 -0.003574 0.014812 -0.002071 0.004278 0.001193 0.004974
# 3 -0.001985 -0.002071 0.008917 0.002448 0.001008 -0.000951
# 4 0.000109 0.004278 0.002448 0.034786 0.001392 0.003841
# 5 0.010490 0.001193 0.001008 0.001392 0.052154 0.003335
# 6 0.000907 0.004974 -0.000951 0.003841 0.003335 0.029987
#
#
# Mechanical properties :
#
#
# Convention : Reuss Voigt Hill
#
# Bulk Modulus (GPa) = 43.82037 56.52017 50.17027
# Shear Modulus (GPa) = 28.10915 32.91325 30.51120
#
# Velocity S-wave (km/s) = 3.67439 3.97601 3.82817
# Velocity P-wave (km/s) = 6.24892 6.94446 6.60585
#
# Compressibility (1/GPa) = 0.02282044
#
# Stress axis : x y z
#
# Youngs Moduli (GPa) = 69.66653 67.51414 112.15130
#
# Poissons Ratio (x) = 0.24132 0.22266
# Poissons Ratio (y) = 0.24901 0.23229
# Poissons Ratio (z) = 0.13831 0.13984
#
# Static dielectric constant tensor:
#      x y z
#    x 3.917230 0.162320 -0.149500 
#    y 0.162320 3.915660 -0.060680 
#    z -0.149500 -0.060680 3.852510 
# 
# 
# High freq. dielectric constant tensor:
#      x y z
#    x 1.817370 0.007490 -0.011020 
#    y 0.007490 1.810950 0.005000 
#    z -0.011020 0.005000 1.819350 
# 
# From -- ./inp_files/314649.got.cif
#   From: 2010.06.25/outbox.cif.g09.slc.cpg/sg2_158_cif.got.tgz:314649.got - 2010.06.27 13:26:56.
