data_PCOD8004554
_publ_section_title
;
Structure prediction by ZEFSAII (Michael W. Deem and Ramdas Pophale) SiO2 
 PCOD8004554
Probable space group: P -1
;
_chemical_formula_sum "Si O2"
_cell_formula_units_Z 16
_cell_length_a 14.777970
_cell_length_b 9.062134
_cell_length_c 15.576255
_cell_angle_alpha 141.211420
_cell_angle_beta 41.284573
_cell_angle_gamma 120.139245
_cell_volume 844.367558
_symmetry_space_group_name_H-M "P -1"
_symmetry_group_IT_number 2
_symmetry_cell_setting 'triclinic'
loop_
_space_group_symop_operation_xyz
x,y,z
-x,-y,-z
loop_
_atom_site_type_symbol
_atom_site_label
_atom_site_fract_x
_atom_site_fract_y
_atom_site_fract_z
Si Si1 0.851892 0.793516 0.468710
Si Si2 0.174432 0.725746 0.198654
Si Si3 0.839193 0.816130 0.290091
Si Si4 0.163127 0.706685 0.999000
Si Si5 0.624453 0.148808 0.208566
Si Si6 0.637985 0.478292 0.503870
Si Si7 0.590340 0.174054 0.555909
Si Si8 0.576419 0.647952 0.076193
O O1 0.811446 0.868589 0.433932
O O2 0.780292 0.578176 0.453056
O O3 0.017215 0.695558 0.315899
O O4 0.797944 0.024418 0.670864
O O5 0.206307 0.722894 0.073881
O O6 0.273061 0.503363 0.072959
O O7 0.999070 0.807785 0.146439
O O8 0.746014 0.026937 0.397526
O O9 0.792492 0.567610 0.188450
O O10 0.246679 0.865950 0.955223
O O11 0.660911 0.253053 0.320988
O O12 0.485122 0.308975 0.341892
O O13 0.599723 0.882900 0.117133
O O14 0.601565 0.391612 0.583726
O O15 0.520186 0.288367 0.743820
O O16 0.500000 0.000000 0.500000
O O17 0.500000 0.500000 0.000000
#
# Coordination Sequence:
#
# PCOD8004554 Si02
#       8
#     2   2   2   2   2   2   2   2
#     4  10  21  41  64  86 119 161 193 237 296 355
#     4  10  22  40  62  89 121 155 197 238 292 357
#     4  10  20  38  60  85 120 157 193 237 298 351
#     4  10  21  37  61  88 117 154 196 244 290 347
#     4  11  22  38  59  88 121 153 198 246 292 344
#     4  11  22  37  61  88 117 157 200 241 290 351
#     4  12  23  38  59  87 119 156 198 243 292 350
#     4  12  25  40  61  89 121 157 195 246 297 347
#
# _framework density 18.949093000000001
#
# number of rings (size 3 to 8) (size 9 to 14) (size 15 to 20)
#    0.000    1.250    2.500    4.500    0.000    2.000 
#    0.000    3.750    0.000    6.000    0.000    0.000 
#    0.000    0.000    0.000    0.000    0.000    0.000 
#
# Total GULP energy -198513.687417 kJ/mol
# GULP energy per Si atom -12407.105464 kJ/mol
# Density = 1.890596 g / cm^3
# Si number density = 18.949093 Si / 1000 Ang^3
#
#
#
# Elastic Constant Matrix: (Units=GPa)
#
#
# Indices 1 2 3 4 5 6 
#
# 1 111.0724 62.2461 70.2851 12.4160 12.0268 -2.1399
# 2 62.2461 161.9492 56.0484 -2.3642 3.4663 7.3975
# 3 70.2851 56.0484 88.2131 3.6035 5.4439 2.5433
# 4 12.4160 -2.3642 3.6035 31.3405 -2.5258 -0.1451
# 5 12.0268 3.4663 5.4439 -2.5258 36.7201 7.6854
# 6 -2.1399 7.3975 2.5433 -0.1451 7.6854 29.3227
#
#
#
# Elastic Compliance Matrix: (Units=1/GPa)
#
#
# Indices 1 2 3 4 5 6 
#
# 1 0.021944 -0.003588 -0.014652 -0.007765 -0.006341 0.005401
# 2 -0.003588 0.008624 -0.002740 0.002494 0.001478 -0.002575
# 3 -0.014652 -0.002740 0.024580 0.002940 0.002262 -0.003088
# 4 -0.007765 0.002494 0.002940 0.035211 0.004826 -0.002542
# 5 -0.006341 0.001478 0.002262 0.004826 0.031083 -0.009155
# 6 0.005401 -0.002575 -0.003088 -0.002542 -0.009155 0.037802
#
#
# Mechanical properties :
#
#
# Convention : Reuss Voigt Hill
#
# Bulk Modulus (GPa) = 75.81613 82.04377 78.92995
# Shear Modulus (GPa) = 24.31909 30.98701 27.65305
#
# Velocity S-wave (km/s) = 3.58633 4.04824 3.82427
# Velocity P-wave (km/s) = 7.56613 8.07725 7.82586
#
# Compressibility (1/GPa) = 0.01318981
#
# Stress axis : x y z
#
# Youngs Moduli (GPa) = 45.57098 115.94957 40.68301
#
# Poissons Ratio (x) = 0.41601 0.59607
# Poissons Ratio (y) = 0.16350 0.11147
# Poissons Ratio (z) = 0.66769 0.31769
#
# Static dielectric constant tensor:
#      x y z
#    x 3.658840 0.059590 0.031150 
#    y 0.059590 3.390450 -0.058100 
#    z 0.031150 -0.058100 3.623800 
# 
# 
# High freq. dielectric constant tensor:
#      x y z
#    x 1.749360 0.003980 0.001760 
#    y 0.003980 1.731050 -0.006100 
#    z 0.001760 -0.006100 1.747100 
# 
# From -- ./inp_files/256980.got.cif
#   From: 2010.06.25/outbox.cif.g09.slc.cpg/sg2_129_cif.got.tgz:256980.got - 2010.06.27 13:26:56.
