data_PCOD8004473
_publ_section_title
;
Structure prediction by ZEFSAII (Michael W. Deem and Ramdas Pophale) SiO2 
 PCOD8004473
Probable space group: P -1
;
_chemical_formula_sum "Si O2"
_cell_formula_units_Z 16
_cell_length_a 9.866568
_cell_length_b 20.310408
_cell_length_c 8.775425
_cell_angle_alpha 97.832176
_cell_angle_beta 30.094549
_cell_angle_gamma 106.485411
_cell_volume 823.420458
_symmetry_space_group_name_H-M "P -1"
_symmetry_group_IT_number 2
_symmetry_cell_setting 'triclinic'
loop_
_space_group_symop_operation_xyz
x,y,z
-x,-y,-z
loop_
_atom_site_type_symbol
_atom_site_label
_atom_site_fract_x
_atom_site_fract_y
_atom_site_fract_z
Si Si1 0.229171 0.085848 0.103340
Si Si2 0.605579 0.021958 0.570791
Si Si3 0.604242 0.573546 0.009537
Si Si4 0.495249 0.902616 0.867790
Si Si5 0.149369 0.595687 0.015868
Si Si6 0.890516 0.436947 0.293333
Si Si7 0.252941 0.343834 0.400779
Si Si8 0.853800 0.818541 0.555366
O O1 0.304367 0.049954 0.175131
O O2 0.218072 0.161950 0.193636
O O3 0.942510 0.041470 0.279212
O O4 0.494177 0.087540 0.737163
O O5 0.500000 0.000000 0.500000
O O6 0.446354 0.952044 0.800532
O O7 0.344992 0.589453 0.352849
O O8 0.500000 0.500000 0.000000
O O9 0.822360 0.572853 0.929397
O O10 0.754728 0.635010 0.761742
O O11 0.664965 0.849087 0.632167
O O12 0.188989 0.854919 0.214157
O O13 0.016257 0.650069 0.240798
O O14 0.933089 0.517955 0.239348
O O15 0.191452 0.608200 0.797039
O O16 0.456523 0.604982 0.791533
O O17 0.243654 0.264240 0.395240
#
# Coordination Sequence:
#
# PCOD8004473 Si02
#       8
#     2   2   2   2   2   2   2   2
#     4  10  20  38  59  85 115 151 188 231 281 335
#     4  12  22  34  62  95 117 143 184 241 294 329
#     4  12  21  37  60  90 114 148 194 259 294 341
#     4  10  20  38  62  83 113 151 192 235 273 340
#     4  11  22  37  61  85 116 151 193 243 300 362
#     4  11  22  38  57  89 120 146 180 256 323 338
#     4  12  23  38  63  85 113 156 209 238 284 356
#     4  10  22  37  63  80 113 157 204 228 270 340
#
# _framework density 19.431139999999999
#
# number of rings (size 3 to 8) (size 9 to 14) (size 15 to 20)
#    0.750    0.250    3.750    4.500    0.000    2.000 
#    0.000    0.000   16.500    0.000    0.000    0.000 
#    0.000    0.000    0.000    0.000    0.000    0.000 
#
# Total GULP energy -198258.884516 kJ/mol
# GULP energy per Si atom -12391.180282 kJ/mol
# Density = 1.938691 g / cm^3
# Si number density = 19.431140 Si / 1000 Ang^3
#
#
#
# Elastic Constant Matrix: (Units=GPa)
#
#
# Indices 1 2 3 4 5 6 
#
# 1 117.0898 22.4394 33.8467 3.2185 6.2521 -6.8268
# 2 22.4394 57.2651 16.2508 10.1585 3.9462 3.2015
# 3 33.8467 16.2508 97.5836 12.2626 -4.8302 -1.8120
# 4 3.2185 10.1585 12.2626 20.0491 -0.9960 -2.1963
# 5 6.2521 3.9462 -4.8302 -0.9960 32.6481 5.1745
# 6 -6.8268 3.2015 -1.8120 -2.1963 5.1745 14.5720
#
#
#
# Elastic Compliance Matrix: (Units=1/GPa)
#
#
# Indices 1 2 3 4 5 6 
#
# 1 0.010805 -0.003959 -0.003493 0.003026 -0.003135 0.007067
# 2 -0.003959 0.021736 -0.001114 -0.010625 -0.001093 -0.007982
# 3 -0.003493 -0.001114 0.012580 -0.006630 0.002748 -0.001802
# 4 0.003026 -0.010625 -0.006630 0.060141 -0.000362 0.012121
# 5 -0.003135 -0.001093 0.002748 -0.000362 0.033810 -0.012947
# 6 0.007067 -0.007982 -0.001802 0.012121 -0.012947 0.079890
#
#
# Mechanical properties :
#
#
# Convention : Reuss Voigt Hill
#
# Bulk Modulus (GPa) = 35.72529 46.33469 41.02999
# Shear Modulus (GPa) = 20.37308 26.74729 23.56018
#
# Velocity S-wave (km/s) = 3.24153 3.71417 3.48587
# Velocity P-wave (km/s) = 5.69522 6.50313 6.11254
#
# Compressibility (1/GPa) = 0.02799138
#
# Stress axis : x y z
#
# Youngs Moduli (GPa) = 92.55023 46.00591 79.48954
#
# Poissons Ratio (x) = 0.18212 0.27763
# Poissons Ratio (y) = 0.36637 0.08854
# Poissons Ratio (z) = 0.32324 0.05124
#
# Static dielectric constant tensor:
#      x y z
#    x 3.570500 -0.027500 -0.006650 
#    y -0.027500 3.317830 0.261230 
#    z -0.006650 0.261230 3.680130 
# 
# 
# High freq. dielectric constant tensor:
#      x y z
#    x 1.755320 -0.001530 -0.011460 
#    y -0.001530 1.723370 0.026150 
#    z -0.011460 0.026150 1.770330 
# 
# From -- ./inp_files/222069.got.cif
#   From: 2010.06.25/outbox.cif.g09.slc.cpg/sg2_112_cif.got.tgz:222069.got - 2010.06.27 13:26:56.
