data_PCOD8004860
_publ_section_title
;
Structure prediction by ZEFSAII (Michael W. Deem and Ramdas Pophale) SiO2 
 PCOD8004860
Probable space group: P -1
;
_chemical_formula_sum "Si O2"
_cell_formula_units_Z 16
_cell_length_a 9.250725
_cell_length_b 11.638476
_cell_length_c 18.317943
_cell_angle_alpha 31.130555
_cell_angle_beta 58.948003
_cell_angle_gamma 48.184021
_cell_volume 752.143701
_symmetry_space_group_name_H-M "P -1"
_symmetry_group_IT_number 2
_symmetry_cell_setting 'triclinic'
loop_
_space_group_symop_operation_xyz
x,y,z
-x,-y,-z
loop_
_atom_site_type_symbol
_atom_site_label
_atom_site_fract_x
_atom_site_fract_y
_atom_site_fract_z
Si Si1 0.940189 0.072980 0.057700
Si Si2 0.576948 0.814256 0.447201
Si Si3 0.194709 0.752338 0.286743
Si Si4 0.602360 0.958448 0.210679
Si Si5 0.686506 0.495710 0.985031
Si Si6 0.799611 0.176065 0.411582
Si Si7 0.440340 0.216515 0.833654
Si Si8 0.809355 0.070492 0.298176
O O1 0.771789 0.016893 0.157463
O O2 0.855601 0.371072 0.944765
O O3 0.136247 0.893968 0.147594
O O4 0.000000 0.000000 0.000000
O O5 0.724801 0.543791 0.592863
O O6 0.607399 0.770821 0.374945
O O7 0.354315 0.899542 0.476253
O O8 0.631940 0.019466 0.353133
O O9 0.368689 0.795623 0.245135
O O10 0.019890 0.843063 0.340118
O O11 0.654159 0.846221 0.176658
O O12 0.382354 0.210694 0.135701
O O13 0.500000 0.500000 0.000000
O O14 0.764063 0.333250 0.127620
O O15 0.715857 0.486840 0.264575
O O16 0.834561 0.091045 0.365371
O O17 0.000000 0.000000 0.500000
O O18 0.500000 0.000000 0.000000
#
# Coordination Sequence:
#
# PCOD8004860 Si02
#       8
#     2   2   2   2   2   2   2   2
#     4  10  20  38  62  96 126 160 211 273 311 367
#     4  11  23  42  67  93 125 172 213 263 332 380
#     4  10  23  40  65  94 128 169 212 259 325 384
#     4  11  22  40  65  92 127 172 213 257 321 395
#     4   9  18  38  62  92 127 162 214 261 318 373
#     4  11  28  45  63  98 132 173 216 271 324 392
#     4  11  25  46  65  93 133 177 216 263 326 386
#     4  11  21  43  66  95 129 163 219 271 319 383
#
# _framework density 21.27253
#
# number of rings (size 3 to 8) (size 9 to 14) (size 15 to 20)
#    0.000    1.500    3.750    2.250    3.500    4.000 
#    9.000    3.125    0.000    0.000    0.000    0.000 
#    0.000    0.000    0.000    0.000    0.000    0.000 
#
# Total GULP energy -198244.929465 kJ/mol
# GULP energy per Si atom -12390.308092 kJ/mol
# Density = 2.122411 g / cm^3
# Si number density = 21.272530 Si / 1000 Ang^3
#
#
#
# Elastic Constant Matrix: (Units=GPa)
#
#
# Indices 1 2 3 4 5 6 
#
# 1 81.4639 38.7315 20.6229 -4.0530 13.7985 -1.6617
# 2 38.7315 119.7119 41.5672 4.4634 12.2461 1.7690
# 3 20.6229 41.5672 60.4693 -13.1311 10.6081 -3.5848
# 4 -4.0530 4.4634 -13.1311 38.2160 2.0134 7.1543
# 5 13.7985 12.2461 10.6081 2.0134 35.2805 5.0580
# 6 -1.6617 1.7690 -3.5848 7.1543 5.0580 41.7613
#
#
#
# Elastic Compliance Matrix: (Units=1/GPa)
#
#
# Indices 1 2 3 4 5 6 
#
# 1 0.015436 -0.004226 -0.001129 0.001804 -0.004467 0.000928
# 2 -0.004226 0.012837 -0.008470 -0.004744 0.000106 -0.000639
# 3 -0.001129 -0.008470 0.025855 0.009746 -0.005162 0.001489
# 4 0.001804 -0.004744 0.009746 0.031149 -0.003217 -0.003837
# 5 -0.004467 0.000106 -0.005162 -0.003217 0.032363 -0.003994
# 6 0.000928 -0.000639 0.001489 -0.003837 -0.003994 0.025279
#
#
# Mechanical properties :
#
#
# Convention : Reuss Voigt Hill
#
# Bulk Modulus (GPa) = 37.76651 51.49870 44.63261
# Shear Modulus (GPa) = 27.87175 33.76646 30.81911
#
# Velocity S-wave (km/s) = 3.62363 3.98845 3.81041
# Velocity P-wave (km/s) = 5.94136 6.74328 6.35498
#
# Compressibility (1/GPa) = 0.02647848
#
# Stress axis : x y z
#
# Youngs Moduli (GPa) = 64.78480 77.89955 38.67770
#
# Poissons Ratio (x) = 0.32922 0.04366
# Poissons Ratio (y) = 0.27379 0.32758
# Poissons Ratio (z) = 0.07312 0.65978
#
# Static dielectric constant tensor:
#      x y z
#    x 3.924610 -0.193080 0.188690 
#    y -0.193080 4.188300 -0.318070 
#    z 0.188690 -0.318070 4.190990 
# 
# 
# High freq. dielectric constant tensor:
#      x y z
#    x 1.830100 -0.004890 0.014620 
#    y -0.004890 1.842010 -0.002600 
#    z 0.014620 -0.002600 1.833210 
# 
# From -- ./inp_files/216462.got.cif
#   From: 2010.06.25/outbox.cif.g09.slc.cpg/sg2_109_cif.got.tgz:216462.got - 2010.06.27 13:26:56.
