data_PCOD8004752
_publ_section_title
;
Structure prediction by ZEFSAII (Michael W. Deem and Ramdas Pophale) SiO2 
 PCOD8004752
Probable space group: P -1
;
_chemical_formula_sum "Si O2"
_cell_formula_units_Z 16
_cell_length_a 7.474975
_cell_length_b 10.263345
_cell_length_c 22.330251
_cell_angle_alpha 143.895226
_cell_angle_beta 115.798749
_cell_angle_gamma 79.123820
_cell_volume 864.946460
_symmetry_space_group_name_H-M "P -1"
_symmetry_group_IT_number 2
_symmetry_cell_setting 'triclinic'
loop_
_space_group_symop_operation_xyz
x,y,z
-x,-y,-z
loop_
_atom_site_type_symbol
_atom_site_label
_atom_site_fract_x
_atom_site_fract_y
_atom_site_fract_z
Si Si1 0.908384 0.684526 0.525721
Si Si2 0.893314 0.591950 0.756732
Si Si3 0.082299 0.945338 0.130008
Si Si4 0.495864 0.950183 0.148480
Si Si5 0.915814 0.877187 0.211648
Si Si6 0.967365 0.748171 0.427134
Si Si7 0.117841 0.606221 0.917052
Si Si8 0.569990 0.445999 0.306138
O O1 0.665148 0.560629 0.426775
O O2 0.000000 0.500000 0.500000
O O3 0.923702 0.895309 0.651220
O O4 0.039402 0.773765 0.516705
O O5 0.965405 0.823361 0.813036
O O6 0.891875 0.373391 0.634795
O O7 0.662546 0.543639 0.732486
O O8 0.053847 0.620151 0.844752
O O9 0.333828 0.995605 0.191190
O O10 0.969678 0.858686 0.143481
O O11 0.995933 0.740676 0.991966
O O12 0.680577 0.888270 0.186551
O O13 0.580413 0.182399 0.207016
O O14 0.367980 0.735789 0.007538
O O15 0.938210 0.659008 0.169682
O O16 0.721473 0.590812 0.329248
O O17 0.000000 0.000000 0.500000
#
# Coordination Sequence:
#
# PCOD8004752 Si02
#       8
#     2   2   2   2   2   2   2   2
#     4  10  20  38  62  85 114 156 197 234 285 353
#     4  11  20  43  61  81 121 159 193 238 291 345
#     4   9  22  37  60  86 114 152 201 235 285 352
#     4   9  20  38  59  87 117 153 198 237 287 351
#     4  12  19  41  58  85 125 151 186 255 298 323
#     4  10  22  40  58  89 119 149 196 243 288 347
#     4  10  23  37  61  89 117 154 197 243 288 347
#     4   9  21  39  62  85 117 155 195 241 285 345
#
# _framework density 18.498253999999999
#
# number of rings (size 3 to 8) (size 9 to 14) (size 15 to 20)
#    1.500    0.500    1.250    3.375    0.000    0.500 
#    4.500    3.125    0.000    0.000    0.000    0.000 
#    0.000    0.000    0.000    0.000    0.000    0.000 
#
# Total GULP energy -198290.205953 kJ/mol
# GULP energy per Si atom -12393.137872 kJ/mol
# Density = 1.845615 g / cm^3
# Si number density = 18.498254 Si / 1000 Ang^3
#
#
#
# Elastic Constant Matrix: (Units=GPa)
#
#
# Indices 1 2 3 4 5 6 
#
# 1 50.6870 23.9680 8.0104 4.0467 -3.4321 -3.6637
# 2 23.9680 95.4955 29.3376 11.5827 -1.5380 -4.7926
# 3 8.0104 29.3376 80.5420 13.7516 -3.6871 -3.6458
# 4 4.0467 11.5827 13.7516 41.0739 -1.1917 -3.5898
# 5 -3.4321 -1.5380 -3.6871 -1.1917 35.2497 1.2525
# 6 -3.6637 -4.7926 -3.6458 -3.5898 1.2525 25.1536
#
#
#
# Elastic Compliance Matrix: (Units=1/GPa)
#
#
# Indices 1 2 3 4 5 6 
#
# 1 0.022640 -0.005495 0.000007 -0.000446 0.001876 0.002095
# 2 -0.005495 0.013333 -0.003979 -0.001819 -0.000464 0.000927
# 3 0.000007 -0.003979 0.014579 -0.003657 0.001201 0.000774
# 4 -0.000446 -0.001819 -0.003657 0.026381 0.000287 0.002809
# 5 0.001876 -0.000464 0.001201 0.000287 0.028703 -0.001029
# 6 0.002095 0.000927 0.000774 0.002809 -0.001029 0.040802
#
#
# Mechanical properties :
#
#
# Convention : Reuss Voigt Hill
#
# Bulk Modulus (GPa) = 31.62773 38.81736 35.22254
# Shear Modulus (GPa) = 28.42328 31.32267 29.87298
#
# Velocity S-wave (km/s) = 3.92412 4.11941 4.02295
# Velocity P-wave (km/s) = 6.13730 6.60726 6.37661
#
# Compressibility (1/GPa) = 0.03161783
#
# Stress axis : x y z
#
# Youngs Moduli (GPa) = 44.16908 75.00281 68.59214
#
# Poissons Ratio (x) = 0.41214 -0.00046
# Poissons Ratio (y) = 0.24271 0.27291
# Poissons Ratio (z) = -0.00029 0.29842
#
# Static dielectric constant tensor:
#      x y z
#    x 3.134320 -0.057820 0.039040 
#    y -0.057820 3.247930 0.133580 
#    z 0.039040 0.133580 3.411000 
# 
# 
# High freq. dielectric constant tensor:
#      x y z
#    x 1.697840 -0.004790 -0.002410 
#    y -0.004790 1.716510 0.015050 
#    z -0.002410 0.015050 1.720120 
# 
# From -- ./inp_files/588226.got.cif
#   From: 2010.06.25/outbox.cif.g09.slc.cpg/sg2_295_cif.got.tgz:588226.got - 2010.06.27 13:26:56.
