data_PCOD8004598
_publ_section_title
;
Structure prediction by ZEFSAII (Michael W. Deem and Ramdas Pophale) SiO2 
 PCOD8004598
Probable space group: P -1
;
_chemical_formula_sum "Si O2"
_cell_formula_units_Z 16
_cell_length_a 22.501732
_cell_length_b 5.581179
_cell_length_c 15.868890
_cell_angle_alpha 93.654407
_cell_angle_beta 158.364823
_cell_angle_gamma 95.667429
_cell_volume 662.233435
_symmetry_space_group_name_H-M "P -1"
_symmetry_group_IT_number 2
_symmetry_cell_setting 'triclinic'
loop_
_space_group_symop_operation_xyz
x,y,z
-x,-y,-z
loop_
_atom_site_type_symbol
_atom_site_label
_atom_site_fract_x
_atom_site_fract_y
_atom_site_fract_z
Si Si1 0.540388 0.876483 0.361766
Si Si2 0.288065 0.918295 0.706737
Si Si3 0.542498 0.314181 0.926335
Si Si4 0.030002 0.067722 0.818711
Si Si5 0.105859 0.723210 0.210839
Si Si6 0.773377 0.529885 0.498425
Si Si7 0.210528 0.127238 0.769919
Si Si8 0.379446 0.270004 0.177832
O O1 0.439050 0.835272 0.136440
O O2 0.485383 0.592354 0.329767
O O3 0.757462 0.004169 0.647594
O O4 0.487488 0.096571 0.342951
O O5 0.261930 0.626399 0.639850
O O6 0.124555 0.961388 0.452443
O O7 0.482233 0.136663 0.929446
O O8 0.271571 0.936641 0.787999
O O9 0.374438 0.367207 0.678339
O O10 0.717973 0.590129 0.179692
O O11 0.033377 0.236126 0.909828
O O12 0.222969 0.198994 0.037055
O O13 0.974821 0.764285 0.767300
O O14 0.241301 0.652885 0.444740
O O15 0.000000 0.500000 0.000000
O O16 0.300493 0.178434 0.979542
O O17 0.000000 0.000000 0.500000
#
# Coordination Sequence:
#
# PCOD8004598 Si02
#       8
#     2   2   2   2   2   2   2   2
#     4  11  23  45  69  98 132 179 221 268 344 399
#     4  10  20  38  60  89 128 168 229 272 324 375
#     4  10  21  39  62  86 129 176 215 278 323 392
#     4  10  22  42  65  94 130 179 213 268 338 403
#     4  11  23  42  73 102 125 162 227 285 325 401
#     4  10  20  40  68  89 129 170 222 261 351 384
#     4  11  22  37  57  94 129 172 233 272 319 376
#     4  11  26  44  68  92 144 186 215 267 337 400
#
# _framework density 24.160664000000001
#
# number of rings (size 3 to 8) (size 9 to 14) (size 15 to 20)
#    0.000    1.500    5.000    1.875    3.500    1.000 
#    9.000    4.375    0.000    0.000    0.000    0.000 
#    0.000    0.000    0.000    0.000    0.000    0.000 
#
# Total GULP energy -198348.311083 kJ/mol
# GULP energy per Si atom -12396.769443 kJ/mol
# Density = 2.410567 g / cm^3
# Si number density = 24.160664 Si / 1000 Ang^3
#
#
#
# Elastic Constant Matrix: (Units=GPa)
#
#
# Indices 1 2 3 4 5 6 
#
# 1 127.2511 49.9598 60.5717 20.6881 27.6933 -25.4910
# 2 49.9598 132.1818 37.6333 26.0692 15.6411 -9.7291
# 3 60.5717 37.6333 90.0634 33.5258 23.2402 -7.7867
# 4 20.6881 26.0692 33.5258 42.7734 -2.0420 4.7739
# 5 27.6933 15.6411 23.2402 -2.0420 45.7583 9.3556
# 6 -25.4910 -9.7291 -7.7867 4.7739 9.3556 30.4885
#
#
#
# Elastic Compliance Matrix: (Units=1/GPa)
#
#
# Indices 1 2 3 4 5 6 
#
# 1 0.017874 -0.001335 -0.003827 -0.007503 -0.012548 0.018566
# 2 -0.001335 0.010039 0.000701 -0.006740 -0.004225 0.004618
# 3 -0.003827 0.000701 0.025687 -0.020632 -0.014173 0.011164
# 4 -0.007503 -0.006740 -0.020632 0.051829 0.025708 -0.029697
# 5 -0.012548 -0.004225 -0.014173 0.025708 0.046115 -0.033635
# 6 0.018566 0.004618 0.011164 -0.029697 -0.033635 0.067618
#
#
# Mechanical properties :
#
#
# Convention : Reuss Voigt Hill
#
# Bulk Modulus (GPa) = 22.38234 71.75844 47.07039
# Shear Modulus (GPa) = 20.57810 37.22616 28.90213
#
# Velocity S-wave (km/s) = 2.92159 3.92953 3.46243
# Velocity P-wave (km/s) = 4.54587 7.09600 5.95895
#
# Compressibility (1/GPa) = 0.04467809
#
# Stress axis : x y z
#
# Youngs Moduli (GPa) = 55.94648 99.60800 38.93039
#
# Poissons Ratio (x) = 0.13298 0.14900
# Poissons Ratio (y) = 0.07469 -0.02730
# Poissons Ratio (z) = 0.21412 -0.06984
#
# Static dielectric constant tensor:
#      x y z
#    x 4.492120 0.151300 0.437120 
#    y 0.151300 4.938790 0.406510 
#    z 0.437120 0.406510 4.314060 
# 
# 
# High freq. dielectric constant tensor:
#      x y z
#    x 1.951380 -0.010500 0.014070 
#    y -0.010500 1.976650 0.010720 
#    z 0.014070 0.010720 1.946380 
# 
# From -- ./inp_files/128252.got.cif
#   From: 2010.06.25/outbox.cif.g09.slc.cpg/sg2_65_cif.got.tgz:128252.got - 2010.06.27 13:26:56.
