data_PCOD8004585
_publ_section_title
;
Structure prediction by ZEFSAII (Michael W. Deem and Ramdas Pophale) SiO2 
 PCOD8004585
Probable space group: P -1
;
_chemical_formula_sum "Si O2"
_cell_formula_units_Z 12
_cell_length_a 17.368446
_cell_length_b 12.683184
_cell_length_c 8.952129
_cell_angle_alpha 143.561782
_cell_angle_beta 148.701648
_cell_angle_gamma 37.023808
_cell_volume 567.777617
_symmetry_space_group_name_H-M "P -1"
_symmetry_group_IT_number 2
_symmetry_cell_setting 'triclinic'
loop_
_space_group_symop_operation_xyz
x,y,z
-x,-y,-z
loop_
_atom_site_type_symbol
_atom_site_label
_atom_site_fract_x
_atom_site_fract_y
_atom_site_fract_z
Si Si1 0.981711 0.441571 0.236472
Si Si2 0.346379 0.305204 0.151751
Si Si3 0.367909 0.910333 0.813644
Si Si4 0.613595 0.362186 0.216735
Si Si5 0.872575 0.159623 0.876215
Si Si6 0.733108 0.462497 0.243398
O O1 0.000000 0.500000 0.500000
O O2 0.141916 0.429854 0.401416
O O3 0.834204 0.598197 0.089744
O O4 0.956222 0.240042 0.974808
O O5 0.457269 0.233673 0.108151
O O6 0.403576 0.450865 0.503447
O O7 0.365419 0.122697 0.080099
O O8 0.318655 0.827974 0.788074
O O9 0.245800 0.927205 0.495641
O O10 0.735503 0.339771 0.256588
O O11 0.441769 0.380147 0.888207
O O12 0.774523 0.328958 0.015671
O O13 0.000000 0.000000 0.000000
#
# Coordination Sequence:
#
# PCOD8004585 Si02
#       6
#     2   2   2   2   2   2
#     4  10  20  38  60  88 121 160 200 252 298 353
#     4  11  22  38  66  91 120 161 210 250 296 364
#     4  11  21  38  66  92 117 162 212 246 300 364
#     4  11  22  43  63  90 128 163 195 255 308 363
#     4  11  21  39  63  92 121 160 208 254 298 360
#     4  10  23  41  62  89 128 162 199 249 316 355
#
# _framework density 21.135034000000001
#
# number of rings (size 3 to 8) (size 9 to 14) (size 15 to 20)
#    0.000    1.333    3.333    4.500    0.000    2.000 
#    3.000    3.333    0.000    0.000    0.000    0.000 
#    0.000    0.000    0.000    0.000    0.000    0.000 
#
# Total GULP energy -148805.610751 kJ/mol
# GULP energy per Si atom -12400.467563 kJ/mol
# Density = 2.108693 g / cm^3
# Si number density = 21.135034 Si / 1000 Ang^3
#
#
#
# Elastic Constant Matrix: (Units=GPa)
#
#
# Indices 1 2 3 4 5 6 
#
# 1 102.7806 35.9919 27.3654 -6.5363 29.2315 30.1848
# 2 35.9919 98.9702 34.2427 -3.6750 16.2060 28.4480
# 3 27.3654 34.2427 77.6759 -11.4187 26.1205 5.7270
# 4 -6.5363 -3.6750 -11.4187 37.6933 0.9560 8.4527
# 5 29.2315 16.2060 26.1205 0.9560 34.2160 -1.7037
# 6 30.1848 28.4480 5.7270 8.4527 -1.7037 32.9959
#
#
#
# Elastic Compliance Matrix: (Units=1/GPa)
#
#
# Indices 1 2 3 4 5 6 
#
# 1 0.026389 0.004198 0.003154 0.014174 -0.029002 -0.033436
# 2 0.004198 0.017604 -0.003178 0.006385 -0.010705 -0.020655
# 3 0.003154 -0.003178 0.020886 0.008555 -0.017715 -0.006876
# 4 0.014174 0.006385 0.008555 0.039867 -0.024344 -0.031427
# 5 -0.029002 -0.010705 -0.017715 -0.024344 0.075716 0.048981
# 6 -0.033436 -0.020655 -0.006876 -0.031427 0.048981 0.090476
#
#
# Mechanical properties :
#
#
# Convention : Reuss Voigt Hill
#
# Bulk Modulus (GPa) = 13.65628 52.73632 33.19630
# Shear Modulus (GPa) = 17.42173 33.10285 25.26229
#
# Velocity S-wave (km/s) = 2.87419 3.96189 3.46103
# Velocity P-wave (km/s) = 4.18211 6.77754 5.63139
#
# Compressibility (1/GPa) = 0.07322641
#
# Stress axis : x y z
#
# Youngs Moduli (GPa) = 37.89465 56.80523 47.87979
#
# Poissons Ratio (x) = -0.23848 -0.15101
# Poissons Ratio (y) = -0.15909 0.15217
# Poissons Ratio (z) = -0.11951 0.18054
#
# Static dielectric constant tensor:
#      x y z
#    x 4.432220 0.524510 0.446050 
#    y 0.524510 3.832940 0.018920 
#    z 0.446050 0.018920 4.154400 
# 
# 
# High freq. dielectric constant tensor:
#      x y z
#    x 1.816160 0.023540 0.023450 
#    y 0.023540 1.818030 -0.009780 
#    z 0.023450 -0.009780 1.837590 
# 
# From -- ./inp_files/145561.got.cif
#   From: 2010.06.25/outbox.cif.g09.slc.cpg/sg2_73_cif.got.tgz:145561.got - 2010.06.27 13:26:56.
