data_PCOD8004428
_publ_section_title
;
Structure prediction by ZEFSAII (Michael W. Deem and Ramdas Pophale) SiO2 
 PCOD8004428
Probable space group: P -1
;
_chemical_formula_sum "Si O2"
_cell_formula_units_Z 16
_cell_length_a 8.642065
_cell_length_b 13.854273
_cell_length_c 15.097870
_cell_angle_alpha 137.471700
_cell_angle_beta 62.024297
_cell_angle_gamma 86.657508
_cell_volume 794.448467
_symmetry_space_group_name_H-M "P -1"
_symmetry_group_IT_number 2
_symmetry_cell_setting 'triclinic'
loop_
_space_group_symop_operation_xyz
x,y,z
-x,-y,-z
loop_
_atom_site_type_symbol
_atom_site_label
_atom_site_fract_x
_atom_site_fract_y
_atom_site_fract_z
Si Si1 0.481334 0.838340 0.305094
Si Si2 0.188812 0.657021 0.612419
Si Si3 0.128285 0.177018 0.753574
Si Si4 0.014749 0.999191 0.215184
Si Si5 0.321873 0.096746 0.031750
Si Si6 0.347008 0.763360 0.801139
Si Si7 0.433464 0.817924 0.097171
Si Si8 0.582206 0.481327 0.063819
O O1 0.748386 0.753201 0.187807
O O2 0.425642 0.851774 0.225889
O O3 0.282615 0.051569 0.541371
O O4 0.462362 0.698050 0.269291
O O5 0.245554 0.704797 0.721126
O O6 0.380843 0.431013 0.381883
O O7 0.936008 0.720084 0.736998
O O8 0.173535 0.781996 0.622709
O O9 0.133657 0.050991 0.741179
O O10 0.864755 0.351449 0.907561
O O11 0.170764 0.989065 0.243422
O O12 0.193811 0.844775 0.986618
O O13 0.378857 0.181658 0.999356
O O14 0.500000 0.000000 0.000000
O O15 0.332523 0.930404 0.875661
O O16 0.497484 0.614226 0.923094
O O17 0.500000 0.500000 0.000000
#
# Coordination Sequence:
#
# PCOD8004428 Si02
#       8
#     2   2   2   2   2   2   2   2
#     4  10  22  40  61  88 120 148 200 247 291 351
#     4  10  22  39  60  86 120 156 196 239 291 348
#     4  10  22  38  63  89 116 154 193 246 298 343
#     4  10  20  38  58  87 118 159 192 238 296 346
#     4  11  20  39  61  87 124 152 191 244 290 343
#     4  10  22  39  59  86 119 157 198 239 289 350
#     4  10  21  37  60  88 116 159 196 231 297 347
#     4   9  20  39  60  83 117 152 193 240 288 344
#
# _framework density 20.139755999999998
#
# number of rings (size 3 to 8) (size 9 to 14) (size 15 to 20)
#    0.000    2.000    2.500    1.875    3.500    7.000 
#    0.000    5.000    0.000    0.000    0.000    0.000 
#    0.000    0.000    0.000    0.000    0.000    0.000 
#
# Total GULP energy -198320.132576 kJ/mol
# GULP energy per Si atom -12395.008286 kJ/mol
# Density = 2.009392 g / cm^3
# Si number density = 20.139756 Si / 1000 Ang^3
#
#
#
# Elastic Constant Matrix: (Units=GPa)
#
#
# Indices 1 2 3 4 5 6 
#
# 1 79.8416 31.2198 18.8150 -5.3429 -1.1724 -0.9471
# 2 31.2198 116.0746 29.0989 0.5183 -1.2933 9.9666
# 3 18.8150 29.0989 62.6743 9.3006 -5.4629 -1.3406
# 4 -5.3429 0.5183 9.3006 24.0603 -4.6141 -4.1571
# 5 -1.1724 -1.2933 -5.4629 -4.6141 25.4794 4.0746
# 6 -0.9471 9.9666 -1.3406 -4.1571 4.0746 42.2059
#
#
#
# Elastic Compliance Matrix: (Units=1/GPa)
#
#
# Indices 1 2 3 4 5 6 
#
# 1 0.015042 -0.003262 -0.003700 0.005177 0.000438 0.001458
# 2 -0.003262 0.010752 -0.004096 0.000153 -0.000019 -0.002725
# 3 -0.003700 -0.004096 0.020388 -0.008057 0.002454 0.000501
# 4 0.005177 0.000153 -0.008057 0.047751 0.006543 0.003896
# 5 0.000438 -0.000019 0.002454 0.006543 0.041500 -0.003270
# 6 0.001458 -0.002725 0.000501 0.003896 -0.003270 0.025085
#
#
# Mechanical properties :
#
#
# Convention : Reuss Voigt Hill
#
# Bulk Modulus (GPa) = 41.54947 46.31754 43.93351
# Shear Modulus (GPa) = 26.22514 30.31290 28.26902
#
# Velocity S-wave (km/s) = 3.61246 3.88381 3.75059
# Velocity P-wave (km/s) = 6.17051 6.56962 6.37319
#
# Compressibility (1/GPa) = 0.02406770
#
# Stress axis : x y z
#
# Youngs Moduli (GPa) = 66.47922 93.00374 49.04802
#
# Poissons Ratio (x) = 0.30334 0.18149
# Poissons Ratio (y) = 0.21683 0.20088
# Poissons Ratio (z) = 0.24599 0.38091
#
# Static dielectric constant tensor:
#      x y z
#    x 4.031860 0.162560 -0.008300 
#    y 0.162560 3.958970 0.312400 
#    z -0.008300 0.312400 3.563550 
# 
# 
# High freq. dielectric constant tensor:
#      x y z
#    x 1.802980 -0.002320 -0.000990 
#    y -0.002320 1.791190 0.011920 
#    z -0.000990 0.011920 1.764700 
# 
# From -- ./inp_files/353745.got.cif
#   From: 2010.06.25/outbox.cif.g09.slc.cpg/sg2_177_cif.got.tgz:353745.got - 2010.06.27 13:26:56.
