data_PCOD8004500
_publ_section_title
;
Structure prediction by ZEFSAII (Michael W. Deem and Ramdas Pophale) SiO2 
 PCOD8004500
Probable space group: P -1
;
_chemical_formula_sum "Si O2"
_cell_formula_units_Z 12
_cell_length_a 9.557606
_cell_length_b 10.142752
_cell_length_c 8.268684
_cell_angle_alpha 65.870173
_cell_angle_beta 72.522076
_cell_angle_gamma 43.123210
_cell_volume 500.048989
_symmetry_space_group_name_H-M "P -1"
_symmetry_group_IT_number 2
_symmetry_cell_setting 'triclinic'
loop_
_space_group_symop_operation_xyz
x,y,z
-x,-y,-z
loop_
_atom_site_type_symbol
_atom_site_label
_atom_site_fract_x
_atom_site_fract_y
_atom_site_fract_z
Si Si1 0.548210 0.776883 0.051038
Si Si2 0.092716 0.028575 0.175857
Si Si3 0.259585 0.619357 0.695894
Si Si4 0.952951 0.246673 0.782377
Si Si5 0.405636 0.378287 0.439851
Si Si6 0.637275 0.884165 0.266704
O O1 0.656366 0.547387 0.109105
O O2 0.679618 0.789065 0.119460
O O3 0.330008 0.906131 0.153467
O O4 0.516598 0.873695 0.836429
O O5 0.978768 0.179441 0.293381
O O6 0.073321 0.868668 0.275306
O O7 0.968448 0.171631 0.993041
O O8 0.288458 0.517877 0.568720
O O9 0.381878 0.686302 0.630052
O O10 0.151826 0.203077 0.688420
O O11 0.752116 0.486439 0.720061
O O12 0.452219 0.174756 0.549289
#
# Coordination Sequence:
#
# PCOD8004500 Si02
#       6
#     2   2   2   2   2   2
#     4   9  18  40  62  83 112 156 198 231 278 350
#     4  10  21  38  64  86 111 155 200 234 278 345
#     4  10  21  38  64  86 111 155 200 234 278 345
#     4  10  20  38  59  89 118 149 191 241 291 335
#     4  10  20  38  59  89 118 149 191 241 291 335
#     4   9  19  36  61  80 123 153 180 242 296 331
#
# _framework density 23.997648000000002
#
# number of rings (size 3 to 8) (size 9 to 14) (size 15 to 20)
#    0.000    2.333    1.667    0.500    0.000    1.333 
#    0.000   21.667    0.000    0.000    0.000    0.000 
#    0.000    0.000    0.000    0.000    0.000    0.000 
#
# Total GULP energy -148746.720430 kJ/mol
# GULP energy per Si atom -12395.560036 kJ/mol
# Density = 2.394303 g / cm^3
# Si number density = 23.997648 Si / 1000 Ang^3
#
#
#
# Elastic Constant Matrix: (Units=GPa)
#
#
# Indices 1 2 3 4 5 6 
#
# 1 88.6716 10.6949 11.1639 -9.7151 -32.1124 -2.5026
# 2 10.6949 88.5795 18.8381 -6.9551 -15.7897 3.5595
# 3 11.1639 18.8381 59.6654 -31.6278 -27.9327 8.6441
# 4 -9.7151 -6.9551 -31.6278 33.3110 9.5625 -0.7506
# 5 -32.1124 -15.7897 -27.9327 9.5625 37.5403 -13.5262
# 6 -2.5026 3.5595 8.6441 -0.7506 -13.5262 20.8278
#
#
#
# Elastic Compliance Matrix: (Units=1/GPa)
#
#
# Indices 1 2 3 4 5 6 
#
# 1 0.025249 0.000407 0.017234 0.013087 0.039060 0.021650
# 2 0.000407 0.012472 -0.002839 -0.001221 0.004505 0.001977
# 3 0.017234 -0.002839 0.064122 0.050447 0.052737 0.012011
# 4 0.013087 -0.001221 0.050447 0.072660 0.031005 0.003599
# 5 0.039060 0.004505 0.052737 0.031005 0.113861 0.057098
# 6 0.021650 0.001977 0.012011 0.003599 0.057098 0.082503
#
#
# Mechanical properties :
#
#
# Convention : Reuss Voigt Hill
#
# Bulk Modulus (GPa) = 7.60763 35.36782 21.48772
# Shear Modulus (GPa) = 12.98439 31.41714 22.20076
#
# Velocity S-wave (km/s) = 2.32861 3.62218 3.04488
# Velocity P-wave (km/s) = 3.22598 5.68011 4.61901
#
# Compressibility (1/GPa) = 0.13144703
#
# Stress axis : x y z
#
# Youngs Moduli (GPa) = 39.60510 80.18263 15.59527
#
# Poissons Ratio (x) = -0.03259 -0.26877
# Poissons Ratio (y) = -0.01610 0.04427
# Poissons Ratio (z) = -0.68256 0.22761
#
# Static dielectric constant tensor:
#      x y z
#    x 4.211360 0.081030 -0.264070 
#    y 0.081030 4.133300 -0.700990 
#    z -0.264070 -0.700990 4.401510 
# 
# 
# High freq. dielectric constant tensor:
#      x y z
#    x 1.946840 -0.001830 -0.016490 
#    y -0.001830 1.929570 -0.043900 
#    z -0.016490 -0.043900 1.947110 
# 
# From -- ./inp_files/65250.got.cif
#   From: 2010.06.25/outbox.cif.g09.slc.cpg/sg2_33_cif.got.tgz:65250.got - 2010.06.27 13:26:56.
