data_PCOD8004928
_publ_section_title
;
Structure prediction by ZEFSAII (Michael W. Deem and Ramdas Pophale) SiO2 
 PCOD8004928
Probable space group: P -1
;
_chemical_formula_sum "Si O2"
_cell_formula_units_Z 10
_cell_length_a 12.410741
_cell_length_b 8.919999
_cell_length_c 6.435118
_cell_angle_alpha 57.395130
_cell_angle_beta 51.572751
_cell_angle_gamma 83.991399
_cell_volume 440.600080
_symmetry_space_group_name_H-M "P -1"
_symmetry_group_IT_number 2
_symmetry_cell_setting 'triclinic'
loop_
_space_group_symop_operation_xyz
x,y,z
-x,-y,-z
loop_
_atom_site_type_symbol
_atom_site_label
_atom_site_fract_x
_atom_site_fract_y
_atom_site_fract_z
Si Si1 0.254723 0.330496 0.614639
Si Si2 0.553462 0.915908 0.302459
Si Si3 0.677180 0.278168 0.600354
Si Si4 0.042800 0.781741 0.686655
Si Si5 0.915614 0.869121 0.387537
O O1 0.336202 0.189901 0.690368
O O2 0.353805 0.550858 0.368241
O O3 0.219154 0.297509 0.434340
O O4 0.108868 0.293219 0.952368
O O5 0.413735 0.763320 0.472194
O O6 0.500000 0.000000 0.500000
O O7 0.636865 0.090549 0.925634
O O8 0.852835 0.339793 0.297095
O O9 0.014185 0.777338 0.474429
O O10 0.134477 0.999400 0.489633
O O11 0.000000 0.000000 0.000000
#
# Coordination Sequence:
#
# PCOD8004928 Si02
#       5
#     2   2   2   2   2
#     4  11  23  40  65  93 120 157 204 251 301 359
#     4  11  25  43  62  86 124 166 202 246 300 359
#     4  11  24  41  63  92 122 158 204 250 301 359
#     4  10  20  38  63  91 124 156 196 253 306 355
#     4   9  18  33  58  88 122 157 192 238 298 355
#
# _framework density 22.696321000000001
#
# number of rings (size 3 to 8) (size 9 to 14) (size 15 to 20)
#    0.000    1.600    0.000    6.000    0.000    6.400 
#    0.000    0.000    0.000    0.000    0.000    0.000 
#    0.000    0.000    0.000    0.000    0.000    0.000 
#
# Total GULP energy -123951.481617 kJ/mol
# GULP energy per Si atom -12395.148162 kJ/mol
# Density = 2.264466 g / cm^3
# Si number density = 22.696321 Si / 1000 Ang^3
#
#
#
# Elastic Constant Matrix: (Units=GPa)
#
#
# Indices 1 2 3 4 5 6 
#
# 1 174.7900 89.4031 42.1987 10.8964 9.4489 31.3170
# 2 89.4031 166.8505 18.2865 -4.8736 2.4395 19.0385
# 3 42.1987 18.2865 40.7688 13.4809 1.4465 -3.9700
# 4 10.8964 -4.8736 13.4809 26.5403 0.4944 -1.2577
# 5 9.4489 2.4395 1.4465 0.4944 28.8435 15.2547
# 6 31.3170 19.0385 -3.9700 -1.2577 15.2547 45.9167
#
#
#
# Elastic Compliance Matrix: (Units=1/GPa)
#
#
# Indices 1 2 3 4 5 6 
#
# 1 0.011966 -0.004352 -0.011062 -0.000477 0.001075 -0.007683
# 2 -0.004352 0.008599 -0.000693 0.003651 0.001171 -0.000946
# 3 -0.011062 -0.000693 0.043288 -0.016876 -0.004945 0.012756
# 4 -0.000477 0.003651 -0.016876 0.047028 0.000736 -0.001604
# 5 0.001075 0.001171 -0.004945 0.000736 0.042842 -0.015859
# 6 -0.007683 -0.000946 0.012756 -0.001604 -0.015859 0.033739
#
#
# Mechanical properties :
#
#
# Convention : Reuss Voigt Hill
#
# Bulk Modulus (GPa) = 31.60777 75.79842 53.70310
# Shear Modulus (GPa) = 21.71812 35.76149 28.73980
#
# Velocity S-wave (km/s) = 3.09674 3.97375 3.56234
# Velocity P-wave (km/s) = 5.17136 7.38401 6.37442
#
# Compressibility (1/GPa) = 0.03163779
#
# Stress axis : x y z
#
# Youngs Moduli (GPa) = 83.56718 116.29352 23.10117
#
# Poissons Ratio (x) = 0.50616 0.25555
# Poissons Ratio (y) = 0.36372 0.01601
# Poissons Ratio (z) = 0.92445 0.08058
#
# Static dielectric constant tensor:
#      x y z
#    x 4.596610 0.495940 0.048440 
#    y 0.495940 4.758900 -0.022570 
#    z 0.048440 -0.022570 3.736240 
# 
# 
# High freq. dielectric constant tensor:
#      x y z
#    x 1.910340 0.009510 0.005870 
#    y 0.009510 1.909190 -0.000380 
#    z 0.005870 -0.000380 1.866040 
# 
# From -- ./inp_files/17970.got.cif
#   From: 2010.06.25/outbox.cif.g09.slc.cpg/sg2_9_cif.got.tgz:17970.got - 2010.06.27 13:26:56.
