data_PCOD8004415
_publ_section_title
;
Structure prediction by ZEFSAII (Michael W. Deem and Ramdas Pophale) SiO2 
 PCOD8004415
Probable space group: P -1
;
_chemical_formula_sum "Si O2"
_cell_formula_units_Z 10
_cell_length_a 9.230846
_cell_length_b 16.754386
_cell_length_c 5.190493
_cell_angle_alpha 99.659351
_cell_angle_beta 55.977340
_cell_angle_gamma 128.454078
_cell_volume 500.548190
_symmetry_space_group_name_H-M "P -1"
_symmetry_group_IT_number 2
_symmetry_cell_setting 'triclinic'
loop_
_space_group_symop_operation_xyz
x,y,z
-x,-y,-z
loop_
_atom_site_type_symbol
_atom_site_label
_atom_site_fract_x
_atom_site_fract_y
_atom_site_fract_z
Si Si1 0.289615 0.808388 0.670894
Si Si2 0.338589 0.245320 0.303297
Si Si3 0.160585 0.621321 0.979867
Si Si4 0.041275 0.745718 0.376843
Si Si5 0.758111 0.885034 0.175199
O O1 0.231177 0.694157 0.694727
O O2 0.159656 0.808157 0.558203
O O3 0.563974 0.896515 0.415565
O O4 0.202683 0.827565 0.027142
O O5 0.610242 0.343710 0.091833
O O6 0.250900 0.183342 0.626413
O O7 0.211604 0.292554 0.407766
O O8 0.280817 0.166156 0.091343
O O9 0.025635 0.642874 0.317773
O O10 0.000000 0.500000 0.000000
O O11 0.000000 0.000000 0.000000
#
# Coordination Sequence:
#
# PCOD8004415 Si02
#       5
#     2   2   2   2   2
#     4   9  19  39  56  81 122 144 190 240 277 336
#     4  11  22  39  61  86 118 151 189 242 283 337
#     4   9  21  38  61  84 118 155 188 233 286 338
#     4  10  20  38  58  84 122 146 190 236 285 333
#     4  11  21  40  63  84 113 156 193 234 292 342
#
# _framework density 19.978097000000002
#
# number of rings (size 3 to 8) (size 9 to 14) (size 15 to 20)
#    1.200    0.800    2.000    1.800    0.000    1.600 
#    0.000    7.000    0.000    0.000    0.000    0.000 
#    0.000    0.000    0.000    0.000    0.000    0.000 
#
# Total GULP energy -123921.908011 kJ/mol
# GULP energy per Si atom -12392.190801 kJ/mol
# Density = 1.993263 g / cm^3
# Si number density = 19.978097 Si / 1000 Ang^3
#
#
#
# Elastic Constant Matrix: (Units=GPa)
#
#
# Indices 1 2 3 4 5 6 
#
# 1 144.6637 29.1715 50.2159 0.4280 -23.4078 26.4348
# 2 29.1715 75.5705 31.1679 -19.4614 -10.7921 30.4024
# 3 50.2159 31.1679 77.8673 3.8572 -15.6714 13.8070
# 4 0.4280 -19.4614 3.8572 27.7705 6.8062 -3.0770
# 5 -23.4078 -10.7921 -15.6714 6.8062 54.9352 5.9056
# 6 26.4348 30.4024 13.8070 -3.0770 5.9056 26.0911
#
#
#
# Elastic Compliance Matrix: (Units=1/GPa)
#
#
# Indices 1 2 3 4 5 6 
#
# 1 0.011865 0.005952 -0.005807 0.001367 0.006241 -0.017135
# 2 0.005952 0.043391 -0.011464 0.023864 0.010211 -0.050021
# 3 -0.005807 -0.011464 0.020920 -0.010584 0.001853 0.006504
# 4 0.001367 0.023864 -0.010584 0.052936 -0.002503 -0.016781
# 5 0.006241 0.010211 0.001853 -0.002503 0.026447 -0.025483
# 6 -0.017135 -0.050021 0.006504 -0.016781 -0.025483 0.114322
#
#
# Mechanical properties :
#
#
# Convention : Reuss Voigt Hill
#
# Bulk Modulus (GPa) = 18.67862 57.69024 38.18443
# Shear Modulus (GPa) = 16.10997 34.26243 25.18620
#
# Velocity S-wave (km/s) = 2.84277 4.14575 3.55447
# Velocity P-wave (km/s) = 4.48831 7.20109 6.00003
#
# Compressibility (1/GPa) = 0.05353715
#
# Stress axis : x y z
#
# Youngs Moduli (GPa) = 84.27999 23.04624 47.80071
#
# Poissons Ratio (x) = -0.13716 0.27760
# Poissons Ratio (y) = -0.50160 0.54798
# Poissons Ratio (z) = 0.48945 0.26420
#
# Static dielectric constant tensor:
#      x y z
#    x 3.870880 0.256320 -0.074830 
#    y 0.256320 3.149020 0.100370 
#    z -0.074830 0.100370 3.747050 
# 
# 
# High freq. dielectric constant tensor:
#      x y z
#    x 1.794270 0.019340 -0.006820 
#    y 0.019340 1.734030 0.012870 
#    z -0.006820 0.012870 1.787090 
# 
# From -- ./inp_files/437.got.cif
#   From: 2010.06.25/outbox.cif.g09.slc.cpg/sg2_1_cif.got.tgz:437.got - 2010.06.27 13:26:56.
