data_PCOD8004146
_publ_section_title
;
Structure prediction by ZEFSAII (Michael W. Deem and Ramdas Pophale) SiO2 
 PCOD8004146
Probable space group: P -1
;
_chemical_formula_sum "Si O2"
_cell_formula_units_Z 16
_cell_length_a 8.196885
_cell_length_b 18.137704
_cell_length_c 9.332156
_cell_angle_alpha 72.559362
_cell_angle_beta 148.574908
_cell_angle_gamma 108.356116
_cell_volume 685.231258
_symmetry_space_group_name_H-M "P -1"
_symmetry_group_IT_number 2
_symmetry_cell_setting 'triclinic'
loop_
_space_group_symop_operation_xyz
x,y,z
-x,-y,-z
loop_
_atom_site_type_symbol
_atom_site_label
_atom_site_fract_x
_atom_site_fract_y
_atom_site_fract_z
Si Si1 0.798688 0.848368 0.763910
Si Si2 0.468094 0.501220 0.644938
Si Si3 0.220687 0.995098 0.906856
Si Si4 0.637705 0.087765 0.381940
Si Si5 0.925284 0.590979 0.150291
Si Si6 0.248394 0.750335 0.323207
Si Si7 0.129649 0.744611 0.566815
Si Si8 0.452261 0.351562 0.901010
O O1 0.523182 0.895152 0.596990
O O2 0.604998 0.791810 0.531991
O O3 0.066919 0.905928 0.853620
O O4 0.971066 0.801755 0.041231
O O5 0.500000 0.500000 0.500000
O O6 0.522896 0.417895 0.797402
O O7 0.117158 0.523576 0.397263
O O8 0.726005 0.564153 0.875725
O O9 0.954001 0.048521 0.642120
O O10 0.368677 0.028195 0.145253
O O11 0.500000 0.000000 0.000000
O O12 0.749000 0.168937 0.334553
O O13 0.706589 0.613687 0.100773
O O14 0.171732 0.665566 0.242558
O O15 0.271317 0.738155 0.518253
O O16 0.754690 0.723134 0.281805
O O17 0.231901 0.679771 0.789239
#
# Coordination Sequence:
#
# PCOD8004146 Si02
#       8
#     2   2   2   2   2   2   2   2
#     4  11  21  39  65  94 123 160 211 268 321 376
#     4  12  25  40  59  90 130 168 205 252 308 377
#     4  12  25  40  59  90 129 169 209 256 310 380
#     4  11  21  40  64  89 120 164 210 262 317 373
#     4  11  21  40  64  90 121 163 208 258 314 372
#     4  10  20  37  64  96 122 153 209 276 321 367
#     4  10  20  37  64  94 119 150 207 270 315 365
#     4  11  21  39  65  93 120 159 209 262 315 374
#
# _framework density 23.349781
#
# number of rings (size 3 to 8) (size 9 to 14) (size 15 to 20)
#    0.000    1.000    0.000   11.250    0.000    0.000 
#    0.000    5.000    0.000    1.500    0.000    0.000 
#    0.000    0.000    0.000    0.000    0.000    0.000 
#
# Total GULP energy -198292.560192 kJ/mol
# GULP energy per Si atom -12393.285012 kJ/mol
# Density = 2.329664 g / cm^3
# Si number density = 23.349781 Si / 1000 Ang^3
#
#
#
# Elastic Constant Matrix: (Units=GPa)
#
#
# Indices 1 2 3 4 5 6 
#
# 1 57.2157 30.5838 31.0641 -1.5588 1.7540 17.5876
# 2 30.5838 115.6563 45.2599 13.7741 -18.8998 20.0958
# 3 31.0641 45.2599 161.0916 1.1540 4.5509 3.6325
# 4 -1.5588 13.7741 1.1540 62.6628 -6.6399 5.5274
# 5 1.7540 -18.8998 4.5509 -6.6399 28.5123 0.1787
# 6 17.5876 20.0958 3.6325 5.5274 0.1787 20.6094
#
#
#
# Elastic Compliance Matrix: (Units=1/GPa)
#
#
# Indices 1 2 3 4 5 6 
#
# 1 0.027804 -0.002802 -0.004062 0.003020 -0.002084 -0.021072
# 2 -0.002802 0.014456 -0.003554 -0.001152 0.010122 -0.010857
# 3 -0.004062 -0.003554 0.007963 -0.000335 -0.003490 0.005648
# 4 0.003020 -0.001152 -0.000335 0.017157 0.003137 -0.006024
# 5 -0.002084 0.010122 -0.003490 0.003137 0.043252 -0.008692
# 6 -0.021072 -0.010857 0.005648 -0.006024 -0.008692 0.077785
#
#
# Mechanical properties :
#
#
# Convention : Reuss Voigt Hill
#
# Bulk Modulus (GPa) = 34.02847 60.86437 47.44642
# Shear Modulus (GPa) = 22.82598 37.49394 30.15996
#
# Velocity S-wave (km/s) = 3.13000 4.01153 3.59786
# Velocity P-wave (km/s) = 5.25999 6.89778 6.13380
#
# Compressibility (1/GPa) = 0.02938715
#
# Stress axis : x y z
#
# Youngs Moduli (GPa) = 35.96584 69.17743 125.57916
#
# Poissons Ratio (x) = 0.19382 0.51011
# Poissons Ratio (y) = 0.10077 0.44631
# Poissons Ratio (z) = 0.14609 0.24586
#
# Static dielectric constant tensor:
#      x y z
#    x 3.637100 -0.027770 0.139270 
#    y -0.027770 5.072780 0.360330 
#    z 0.139270 0.360330 4.531530 
# 
# 
# High freq. dielectric constant tensor:
#      x y z
#    x 1.870420 0.002130 0.011990 
#    y 0.002130 1.946290 0.012290 
#    z 0.011990 0.012290 1.946530 
# 
# From -- ./inp_files/223542.got.cif
#   From: 2010.06.25/outbox.cif.g09.slc.cpg/sg2_112_cif.got.tgz:223542.got - 2010.06.27 13:26:56.
