data_PCOD8004530
_publ_section_title
;
Structure prediction by ZEFSAII (Michael W. Deem and Ramdas Pophale) SiO2 
 PCOD8004530
Probable space group: P -1
;
_chemical_formula_sum "Si O2"
_cell_formula_units_Z 16
_cell_length_a 18.052484
_cell_length_b 30.653371
_cell_length_c 14.034678
_cell_angle_alpha 158.199342
_cell_angle_beta 157.678828
_cell_angle_gamma 20.454544
_cell_volume 912.491618
_symmetry_space_group_name_H-M "P -1"
_symmetry_group_IT_number 2
_symmetry_cell_setting 'triclinic'
loop_
_space_group_symop_operation_xyz
x,y,z
-x,-y,-z
loop_
_atom_site_type_symbol
_atom_site_label
_atom_site_fract_x
_atom_site_fract_y
_atom_site_fract_z
Si Si1 0.901334 0.470663 0.731189
Si Si2 0.528360 0.511068 0.668877
Si Si3 0.837296 0.065044 0.030994
Si Si4 0.354442 0.232824 0.069963
Si Si5 0.044375 0.790535 0.381622
Si Si6 0.627335 0.735403 0.219686
Si Si7 0.320297 0.030621 0.186534
Si Si8 0.856621 0.067754 0.372107
O O1 0.721472 0.428216 0.457484
O O2 0.116261 0.335972 0.663431
O O3 0.779631 0.606349 0.794412
O O4 0.000000 0.500000 0.000000
O O5 0.500000 0.500000 0.500000
O O6 0.716666 0.361452 0.634604
O O7 0.606884 0.616431 0.006001
O O8 0.965409 0.114723 0.351506
O O9 0.579805 0.197268 0.967155
O O10 0.792182 0.959269 0.822327
O O11 0.000000 0.000000 0.000000
O O12 0.182266 0.215166 0.895056
O O13 0.445688 0.128084 0.873412
O O14 0.583921 0.188893 0.317150
O O15 0.033937 0.860118 0.409512
O O16 0.605175 0.857644 0.508835
O O17 0.136916 0.053467 0.931379
O O18 0.000000 0.000000 0.500000
#
# Coordination Sequence:
#
# PCOD8004530 Si02
#       8
#     2   2   2   2   2   2   2   2
#     4  12  21  34  56  81 119 160 193 225 274 345
#     4  12  21  34  52  82 118 158 193 224 274 347
#     4  11  22  34  54  80 124 163 188 225 283 343
#     4  10  20  38  60  82 117 145 197 242 287 338
#     4  11  19  37  57  88 116 150 198 235 277 350
#     4  12  23  34  54  81 120 155 189 228 281 344
#     4   9  22  39  53  83 117 149 195 241 291 330
#     4   9  21  41  65  82 110 148 201 252 293 333
#
# _framework density 17.534407999999999
#
# number of rings (size 3 to 8) (size 9 to 14) (size 15 to 20)
#    0.750    0.500    5.000    1.875    1.750    0.500 
#    0.000    0.000    0.000    1.500    0.000    0.000 
#    0.000    0.000    0.000    0.000    0.000    0.000 
#
# Total GULP energy -198266.808555 kJ/mol
# GULP energy per Si atom -12391.675535 kJ/mol
# Density = 1.749450 g / cm^3
# Si number density = 17.534408 Si / 1000 Ang^3
#
#
#
# Elastic Constant Matrix: (Units=GPa)
#
#
# Indices 1 2 3 4 5 6 
#
# 1 94.5602 50.2898 36.0747 -12.7298 24.3043 0.9932
# 2 50.2898 98.3702 20.2805 -11.3476 1.8559 5.2575
# 3 36.0747 20.2805 63.0606 3.7272 23.0685 6.4644
# 4 -12.7298 -11.3476 3.7272 31.4675 -6.0106 2.4680
# 5 24.3043 1.8559 23.0685 -6.0106 31.1379 -6.1485
# 6 0.9932 5.2575 6.4644 2.4680 -6.1485 36.0058
#
#
#
# Elastic Compliance Matrix: (Units=1/GPa)
#
#
# Indices 1 2 3 4 5 6 
#
# 1 0.020539 -0.008820 -0.004954 0.003610 -0.011249 -0.000557
# 2 -0.008820 0.015789 -0.003802 0.004413 0.009604 -0.000042
# 3 -0.004954 -0.003802 0.028826 -0.010164 -0.020669 -0.007317
# 4 0.003610 0.004413 -0.010164 0.038275 0.011935 0.000495
# 5 -0.011249 0.009604 -0.020669 0.011935 0.060329 0.012103
# 6 -0.000557 -0.000042 -0.007317 0.000495 0.012103 0.031141
#
#
# Mechanical properties :
#
#
# Convention : Reuss Voigt Hill
#
# Bulk Modulus (GPa) = 33.33139 52.14231 42.73685
# Shear Modulus (GPa) = 20.82865 29.67864 25.25365
#
# Velocity S-wave (km/s) = 3.45029 4.11858 3.79916
# Velocity P-wave (km/s) = 5.90958 7.24007 6.60839
#
# Compressibility (1/GPa) = 0.03000174
#
# Stress axis : x y z
#
# Youngs Moduli (GPa) = 48.68676 63.33566 34.69051
#
# Poissons Ratio (x) = 0.55865 0.17187
# Poissons Ratio (y) = 0.42944 0.13188
# Poissons Ratio (z) = 0.24122 0.24077
#
# Static dielectric constant tensor:
#      x y z
#    x 2.828510 0.274320 0.347180 
#    y 0.274320 2.445240 0.065870 
#    z 0.347180 0.065870 3.314400 
# 
# 
# High freq. dielectric constant tensor:
#      x y z
#    x 1.654200 -0.017250 0.037180 
#    y -0.017250 1.672200 0.006780 
#    z 0.037180 0.006780 1.675130 
# 
# From -- ./inp_files/457996.got.cif
#   From: 2010.06.25/outbox.cif.g09.slc.cpg/sg2_229_cif.got.tgz:457996.got - 2010.06.27 13:26:56.
