data_PCOD8004338
_publ_section_title
;
Structure prediction by ZEFSAII (Michael W. Deem and Ramdas Pophale) SiO2 
 PCOD8004338
Probable space group: P -1
;
_chemical_formula_sum "Si O2"
_cell_formula_units_Z 12
_cell_length_a 15.483004
_cell_length_b 14.400841
_cell_length_c 9.605388
_cell_angle_alpha 141.501889
_cell_angle_beta 28.360046
_cell_angle_gamma 151.324655
_cell_volume 487.635450
_symmetry_space_group_name_H-M "P -1"
_symmetry_group_IT_number 2
_symmetry_cell_setting 'triclinic'
loop_
_space_group_symop_operation_xyz
x,y,z
-x,-y,-z
loop_
_atom_site_type_symbol
_atom_site_label
_atom_site_fract_x
_atom_site_fract_y
_atom_site_fract_z
Si Si1 0.055160 0.862500 0.216673
Si Si2 0.423426 0.523502 0.489516
Si Si3 0.704213 0.992995 0.235082
Si Si4 0.223015 0.715599 0.981294
Si Si5 0.358846 0.595489 0.148406
Si Si6 0.850918 0.266803 0.581497
O O1 0.850661 0.659742 0.338804
O O2 0.275252 0.884835 0.001417
O O3 0.000000 0.000000 0.500000
O O4 0.084776 0.875291 0.023054
O O5 0.500000 0.500000 0.500000
O O6 0.444910 0.714910 0.667606
O O7 0.569460 0.525222 0.159822
O O8 0.580353 0.765534 0.130736
O O9 0.500000 0.000000 0.500000
O O10 0.814897 0.090704 0.343237
O O11 0.203564 0.781913 0.237611
O O12 0.000000 0.500000 0.000000
O O13 0.315839 0.691482 0.197609
O O14 0.124809 0.459616 0.412301
#
# Coordination Sequence:
#
# PCOD8004338 Si02
#       6
#     2   2   2   2   2   2
#     4  11  23  44  66  94 137 173 219 284 331 390
#     4  11  20  39  66  98 128 173 226 267 337 401
#     4  10  22  39  66  97 128 179 223 269 339 397
#     4  10  24  40  68  98 134 176 223 278 333 398
#     4  10  20  37  70  96 129 179 221 269 339 401
#     4  10  21  41  65  98 136 174 220 279 334 395
#
# _framework density 24.608547999999999
#
# number of rings (size 3 to 8) (size 9 to 14) (size 15 to 20)
#    0.000    1.667    3.333    1.000   11.667    0.000 
#    0.000   13.333    0.000    0.000    0.000    1.167 
#    0.000    0.000    0.000    0.000    0.000    0.000 
#
# Total GULP energy -148663.493202 kJ/mol
# GULP energy per Si atom -12388.624433 kJ/mol
# Density = 2.455254 g / cm^3
# Si number density = 24.608548 Si / 1000 Ang^3
#
#
#
# Elastic Constant Matrix: (Units=GPa)
#
#
# Indices 1 2 3 4 5 6 
#
# 1 101.4550 40.5167 51.2533 39.7514 4.8999 1.8253
# 2 40.5167 74.5239 32.3231 25.1369 5.2108 4.2597
# 3 51.2533 32.3231 150.2273 43.4066 11.1034 -7.3742
# 4 39.7514 25.1369 43.4066 38.5627 -0.6566 -2.3813
# 5 4.8999 5.2108 11.1034 -0.6566 47.5071 18.2111
# 6 1.8253 4.2597 -7.3742 -2.3813 18.2111 25.8473
#
#
#
# Elastic Compliance Matrix: (Units=1/GPa)
#
#
# Indices 1 2 3 4 5 6 
#
# 1 0.017833 -0.004173 -0.000976 -0.014681 -0.000701 -0.001709
# 2 -0.004173 0.018661 -0.000604 -0.007399 -0.000252 -0.003457
# 3 -0.000976 -0.000604 0.010745 -0.010432 -0.004603 0.005516
# 4 -0.014681 -0.007399 -0.010432 0.057777 0.005203 0.000937
# 5 -0.000701 -0.000252 -0.004603 0.005203 0.030938 -0.022540
# 6 -0.001709 -0.003457 0.005516 0.000937 -0.022540 0.056920
#
#
# Mechanical properties :
#
#
# Convention : Reuss Voigt Hill
#
# Bulk Modulus (GPa) = 27.98717 63.82139 45.90428
# Shear Modulus (GPa) = 23.11687 35.85765 29.48726
#
# Velocity S-wave (km/s) = 3.06826 3.82137 3.46533
# Velocity P-wave (km/s) = 4.89387 6.74251 5.89115
#
# Compressibility (1/GPa) = 0.03573066
#
# Stress axis : x y z
#
# Youngs Moduli (GPa) = 56.07474 53.58884 93.06761
#
# Poissons Ratio (x) = 0.22365 0.09087
# Poissons Ratio (y) = 0.23402 0.05624
# Poissons Ratio (z) = 0.05475 0.03238
#
# Static dielectric constant tensor:
#      x y z
#    x 4.586180 1.850980 -0.601100 
#    y 1.850980 2.559890 -0.452000 
#    z -0.601100 -0.452000 5.241550 
# 
# 
# High freq. dielectric constant tensor:
#      x y z
#    x 1.960440 0.007960 -0.002000 
#    y 0.007960 1.965220 0.010930 
#    z -0.002000 0.010930 1.994230 
# 
# From -- ./inp_files/145264.got.cif
#   From: 2010.06.25/outbox.cif.g09.slc.cpg/sg2_73_cif.got.tgz:145264.got - 2010.06.27 13:26:56.
