data_PCOD8004544
_publ_section_title
;
Structure prediction by ZEFSAII (Michael W. Deem and Ramdas Pophale) SiO2 
 PCOD8004544
Probable space group: P -1
;
_chemical_formula_sum "Si O2"
_cell_formula_units_Z 14
_cell_length_a 8.367493
_cell_length_b 6.959237
_cell_length_c 18.888251
_cell_angle_alpha 121.624919
_cell_angle_beta 130.924650
_cell_angle_gamma 57.360257
_cell_volume 674.043471
_symmetry_space_group_name_H-M "P -1"
_symmetry_group_IT_number 2
_symmetry_cell_setting 'triclinic'
loop_
_space_group_symop_operation_xyz
x,y,z
-x,-y,-z
loop_
_atom_site_type_symbol
_atom_site_label
_atom_site_fract_x
_atom_site_fract_y
_atom_site_fract_z
Si Si1 0.496497 0.463417 0.834357
Si Si2 0.170366 0.358113 0.964948
Si Si3 0.245683 0.794924 0.348512
Si Si4 0.939008 0.863209 0.520469
Si Si5 0.311223 0.505406 0.638540
Si Si6 0.888569 0.040127 0.810877
Si Si7 0.923202 0.488437 0.188465
O O1 0.406161 0.569632 0.752273
O O2 0.695324 0.217377 0.836350
O O3 0.303124 0.414927 0.814734
O O4 0.584496 0.661195 0.938204
O O5 0.131185 0.502949 0.908482
O O6 0.119899 0.107923 0.892849
O O7 0.000000 0.500000 0.000000
O O8 0.490865 0.610786 0.380799
O O9 0.194860 0.950394 0.292235
O O10 0.069810 0.654761 0.283178
O O11 0.240087 0.962602 0.446289
O O12 0.835635 0.668054 0.421904
O O13 0.162106 0.747479 0.607562
O O14 0.000000 0.000000 0.500000
O O15 0.936768 0.778352 0.803449
#
# Coordination Sequence:
#
# PCOD8004544 Si02
#       7
#     2   2   2   2   2   2   2
#     4  10  20  38  60  84 115 150 194 237 278 337
#     4   9  20  38  56  85 121 150 190 236 278 335
#     4  10  22  39  59  86 119 149 187 235 283 340
#     4  11  23  40  62  87 113 146 192 238 285 343
#     4  10  23  41  60  84 116 151 186 236 292 336
#     4   9  21  39  59  84 118 154 188 233 284 334
#     4  11  21  36  60  87 115 154 193 229 280 335
#
# _framework density 20.770174999999998
#
# number of rings (size 3 to 8) (size 9 to 14) (size 15 to 20)
#    0.000    2.000    0.000    3.429    0.000    8.000 
#    0.000   10.000    0.000    0.000    0.000    0.000 
#    0.000    0.000    0.000    0.000    0.000    0.000 
#
# Total GULP energy -173628.564388 kJ/mol
# GULP energy per Si atom -12402.040313 kJ/mol
# Density = 2.072290 g / cm^3
# Si number density = 20.770175 Si / 1000 Ang^3
#
#
#
# Elastic Constant Matrix: (Units=GPa)
#
#
# Indices 1 2 3 4 5 6 
#
# 1 120.7930 36.9358 9.1414 -15.3018 -6.6421 -1.8992
# 2 36.9358 86.4283 20.1322 -13.2264 -0.8864 10.4969
# 3 9.1414 20.1322 55.0135 -10.6561 -0.2307 3.1541
# 4 -15.3018 -13.2264 -10.6561 17.1139 -2.1502 -0.9465
# 5 -6.6421 -0.8864 -0.2307 -2.1502 40.1587 -0.9699
# 6 -1.8992 10.4969 3.1541 -0.9465 -0.9699 25.7885
#
#
#
# Elastic Compliance Matrix: (Units=1/GPa)
#
#
# Indices 1 2 3 4 5 6 
#
# 1 0.010480 -0.003864 0.000966 0.007394 0.002112 0.002577
# 2 -0.003864 0.015722 -0.003582 0.006116 -0.000131 -0.006027
# 3 0.000966 -0.003582 0.021620 0.011623 0.000811 -0.000658
# 4 0.007394 0.006116 0.011623 0.077691 0.005577 -0.000305
# 5 0.002112 -0.000131 0.000811 0.005577 0.025582 0.001276
# 6 0.002577 -0.006027 -0.000658 -0.000305 0.001276 0.041537
#
#
# Mechanical properties :
#
#
# Convention : Reuss Voigt Hill
#
# Bulk Modulus (GPa) = 28.68358 43.85041 36.26699
# Shear Modulus (GPa) = 23.01889 29.68058 26.34973
#
# Velocity S-wave (km/s) = 3.33268 3.78431 3.56565
# Velocity P-wave (km/s) = 5.35247 6.34450 5.86948
#
# Compressibility (1/GPa) = 0.03486315
#
# Stress axis : x y z
#
# Youngs Moduli (GPa) = 95.41788 63.60361 46.25322
#
# Poissons Ratio (x) = 0.24574 -0.04467
# Poissons Ratio (y) = 0.36866 0.16567
# Poissons Ratio (z) = -0.09214 0.22782
#
# Static dielectric constant tensor:
#      x y z
#    x 3.915010 -0.007550 0.142920 
#    y -0.007550 3.501770 0.066910 
#    z 0.142920 0.066910 4.704000 
# 
# 
# High freq. dielectric constant tensor:
#      x y z
#    x 1.825640 0.000080 0.001430 
#    y 0.000080 1.794550 -0.000560 
#    z 0.001430 -0.000560 1.825080 
# 
# From -- ./inp_files/37090.got.cif
#   From: 2010.06.25/outbox.cif.g09.slc.cpg/sg2_19_cif.got.tgz:37090.got - 2010.06.27 13:26:56.
