data_PCOD8004635
_publ_section_title
;
Structure prediction by ZEFSAII (Michael W. Deem and Ramdas Pophale) SiO2 
 PCOD8004635
Probable space group: P -1
;
_chemical_formula_sum "Si O2"
_cell_formula_units_Z 14
_cell_length_a 18.495337
_cell_length_b 9.627825
_cell_length_c 14.144676
_cell_angle_alpha 128.534546
_cell_angle_beta 160.640011
_cell_angle_gamma 52.173395
_cell_volume 649.970323
_symmetry_space_group_name_H-M "P -1"
_symmetry_group_IT_number 2
_symmetry_cell_setting 'triclinic'
loop_
_space_group_symop_operation_xyz
x,y,z
-x,-y,-z
loop_
_atom_site_type_symbol
_atom_site_label
_atom_site_fract_x
_atom_site_fract_y
_atom_site_fract_z
Si Si1 0.797672 0.748160 0.341159
Si Si2 0.741716 0.341835 0.634018
Si Si3 0.059678 0.032356 0.861323
Si Si4 0.926129 0.499925 0.561230
Si Si5 0.310041 0.712012 0.145324
Si Si6 0.374390 0.279915 0.287494
Si Si7 0.397352 0.591085 0.715270
O O1 0.795486 0.644639 0.394051
O O2 0.978751 0.662878 0.455717
O O3 0.553924 0.746853 0.998220
O O4 0.868720 0.945396 0.531784
O O5 0.505806 0.287753 0.355268
O O6 0.779030 0.534483 0.805889
O O7 0.738362 0.350799 0.520552
O O8 0.938972 0.193715 0.844514
O O9 0.223331 0.118107 0.026795
O O10 0.204347 0.896020 0.048561
O O11 0.768374 0.425799 0.411289
O O12 0.119704 0.591663 0.892342
O O13 0.450897 0.755204 0.427328
O O14 0.457380 0.599144 0.200714
#
# Coordination Sequence:
#
# PCOD8004635 Si02
#       7
#     2   2   2   2   2   2   2
#     4   9  20  35  56  90 115 141 190 231 277 339
#     4  10  24  39  57  82 111 153 196 225 279 344
#     4  11  22  37  58  86 116 145 186 238 284 327
#     4   9  18  36  61  85 115 148 183 233 280 329
#     4   9  21  37  59  90 111 142 196 233 274 336
#     4  10  22  42  59  78 116 152 187 237 279 331
#     4  10  20  38  61  83 115 154 185 225 281 336
#
# _framework density 21.539444
#
# number of rings (size 3 to 8) (size 9 to 14) (size 15 to 20)
#    0.000    2.286    0.000    2.143    0.000   11.429 
#    0.000    1.429    0.000    0.000    0.000    0.000 
#    0.000    0.000    0.000    0.000    0.000    0.000 
#
# Total GULP energy -173586.372103 kJ/mol
# GULP energy per Si atom -12399.026579 kJ/mol
# Density = 2.149042 g / cm^3
# Si number density = 21.539444 Si / 1000 Ang^3
#
#
#
# Elastic Constant Matrix: (Units=GPa)
#
#
# Indices 1 2 3 4 5 6 
#
# 1 109.6690 23.6589 29.8935 9.5674 16.5643 6.1294
# 2 23.6589 119.7086 31.9792 -1.7068 6.4728 5.0283
# 3 29.8935 31.9792 73.3892 19.8185 10.5841 5.3936
# 4 9.5674 -1.7068 19.8185 39.6877 4.7921 6.1181
# 5 16.5643 6.4728 10.5841 4.7921 21.7665 3.1281
# 6 6.1294 5.0283 5.3936 6.1181 3.1281 13.7455
#
#
#
# Elastic Compliance Matrix: (Units=1/GPa)
#
#
# Indices 1 2 3 4 5 6 
#
# 1 0.011260 -0.000985 -0.003037 -0.000161 -0.006488 -0.001921
# 2 -0.000985 0.009969 -0.004619 0.003452 -0.000318 -0.002859
# 3 -0.003037 -0.004619 0.019854 -0.008916 -0.004026 0.000138
# 4 -0.000161 0.003452 -0.008916 0.031830 -0.001935 -0.011420
# 5 -0.006488 -0.000318 -0.004026 -0.001935 0.054352 -0.006918
# 6 -0.001921 -0.002859 0.000138 -0.011420 -0.006918 0.081257
#
#
# Mechanical properties :
#
#
# Convention : Reuss Voigt Hill
#
# Bulk Modulus (GPa) = 42.01504 52.64778 47.33141
# Shear Modulus (GPa) = 21.39157 29.52227 25.45692
#
# Velocity S-wave (km/s) = 3.15482 3.70620 3.44157
# Velocity P-wave (km/s) = 5.72879 6.54294 6.14935
#
# Compressibility (1/GPa) = 0.02380100
#
# Stress axis : x y z
#
# Youngs Moduli (GPa) = 88.81043 100.31448 50.36780
#
# Poissons Ratio (x) = 0.09879 0.15297
# Poissons Ratio (y) = 0.08746 0.23264
# Poissons Ratio (z) = 0.26973 0.46333
#
# Static dielectric constant tensor:
#      x y z
#    x 3.679410 -0.012300 0.051640 
#    y -0.012300 3.872890 0.039850 
#    z 0.051640 0.039850 3.961270 
# 
# 
# High freq. dielectric constant tensor:
#      x y z
#    x 1.831240 0.002820 0.007870 
#    y 0.002820 1.837890 0.001630 
#    z 0.007870 0.001630 1.854490 
# 
# From -- ./inp_files/27797.got.cif
#   From: 2010.06.25/outbox.cif.g09.slc.cpg/sg2_14_cif.got.tgz:27797.got - 2010.06.27 13:26:56.
