data_PCOD8004243
_publ_section_title
;
Structure prediction by ZEFSAII (Michael W. Deem and Ramdas Pophale) SiO2 
 PCOD8004243
Probable space group: P -1
;
_chemical_formula_sum "Si O2"
_cell_formula_units_Z 10
_cell_length_a 12.048452
_cell_length_b 9.718748
_cell_length_c 14.878086
_cell_angle_alpha 124.087476
_cell_angle_beta 18.581027
_cell_angle_gamma 125.744652
_cell_volume 450.408260
_symmetry_space_group_name_H-M "P -1"
_symmetry_group_IT_number 2
_symmetry_cell_setting 'triclinic'
loop_
_space_group_symop_operation_xyz
x,y,z
-x,-y,-z
loop_
_atom_site_type_symbol
_atom_site_label
_atom_site_fract_x
_atom_site_fract_y
_atom_site_fract_z
Si Si1 0.417323 0.055671 0.471294
Si Si2 0.721727 0.429385 0.110183
Si Si3 0.210068 0.133292 0.016774
Si Si4 0.310352 0.944298 0.032779
Si Si5 0.886985 0.401320 0.296053
O O1 0.670486 0.237599 0.350812
O O2 0.116294 0.083032 0.639581
O O3 0.200790 0.979694 0.701096
O O4 0.623445 0.917386 0.221674
O O5 0.373928 0.511425 0.412516
O O6 0.590155 0.227587 0.144685
O O7 0.000000 0.500000 0.000000
O O8 0.908279 0.467168 0.884597
O O9 0.175014 0.330988 0.111989
O O10 0.432661 0.094232 0.919003
O O11 0.500000 0.000000 0.000000
#
# Coordination Sequence:
#
# PCOD8004243 Si02
#       5
#     2   2   2   2   2
#     4  10  20  37  66  89 124 157 212 244 307 360
#     4  12  24  40  64  96 127 157 202 263 309 355
#     4  10  22  39  62  93 123 165 203 253 304 371
#     4  10  25  43  64  89 126 170 207 244 305 377
#     4  12  22  39  65  96 125 155 206 262 312 351
#
# _framework density 22.202078
#
# number of rings (size 3 to 8) (size 9 to 14) (size 15 to 20)
#    1.200    0.000    2.000    5.400    2.800    0.800 
#    0.000    2.000    0.000    0.000    0.000    0.000 
#    0.000    0.000    0.000    0.000    0.000    0.000 
#
# Total GULP energy -123947.324888 kJ/mol
# GULP energy per Si atom -12394.732489 kJ/mol
# Density = 2.215154 g / cm^3
# Si number density = 22.202078 Si / 1000 Ang^3
#
#
#
# Elastic Constant Matrix: (Units=GPa)
#
#
# Indices 1 2 3 4 5 6 
#
# 1 82.1942 44.2031 18.4408 7.4353 6.0986 -8.4770
# 2 44.2031 89.3623 32.5901 34.7776 -9.4253 -16.6965
# 3 18.4408 32.5901 124.6109 33.4212 22.5549 -7.0112
# 4 7.4353 34.7776 33.4212 41.6711 -6.7279 4.8336
# 5 6.0986 -9.4253 22.5549 -6.7279 27.7959 0.2489
# 6 -8.4770 -16.6965 -7.0112 4.8336 0.2489 35.7435
#
#
#
# Elastic Compliance Matrix: (Units=1/GPa)
#
#
# Indices 1 2 3 4 5 6 
#
# 1 0.018917 -0.013233 -0.000115 0.006960 -0.006837 -0.002611
# 2 -0.013233 0.030224 -0.000465 -0.022833 0.007878 0.013921
# 3 -0.000115 -0.000465 0.015523 -0.015278 -0.016471 0.004981
# 4 0.006960 -0.022833 -0.015278 0.059251 0.017650 -0.020147
# 5 -0.006837 0.007878 -0.016471 0.017650 0.057821 -0.003962
# 6 -0.002611 0.013921 0.004981 -0.020147 -0.003962 0.037590
#
#
# Mechanical properties :
#
#
# Convention : Reuss Voigt Hill
#
# Bulk Modulus (GPa) = 26.99928 54.07060 40.53494
# Shear Modulus (GPa) = 19.28294 34.43765 26.86029
#
# Velocity S-wave (km/s) = 2.95026 3.94267 3.48201
# Velocity P-wave (km/s) = 4.87776 6.71811 5.87050
#
# Compressibility (1/GPa) = 0.03703802
#
# Stress axis : x y z
#
# Youngs Moduli (GPa) = 52.86257 33.08677 64.42140
#
# Poissons Ratio (x) = 0.43783 0.00738
# Poissons Ratio (y) = 0.69953 0.02996
# Poissons Ratio (z) = 0.00606 0.01539
#
# Static dielectric constant tensor:
#      x y z
#    x 3.885530 -0.265670 -0.039050 
#    y -0.265670 4.433180 0.626540 
#    z -0.039050 0.626540 4.330640 
# 
# 
# High freq. dielectric constant tensor:
#      x y z
#    x 1.857530 -0.037790 0.001250 
#    y -0.037790 1.859090 0.024320 
#    z 0.001250 0.024320 1.885480 
# 
# From -- ./inp_files/16264.got.cif
#   From: 2010.06.25/outbox.cif.g09.slc.cpg/sg2_9_cif.got.tgz:16264.got - 2010.06.27 13:26:56.
