data_PCOD8004755
_publ_section_title
;
Structure prediction by ZEFSAII (Michael W. Deem and Ramdas Pophale) SiO2 
 PCOD8004755
Probable space group: P -1
;
_chemical_formula_sum "Si O2"
_cell_formula_units_Z 16
_cell_length_a 9.331453
_cell_length_b 11.399992
_cell_length_c 12.904490
_cell_angle_alpha 129.741885
_cell_angle_beta 126.909885
_cell_angle_gamma 74.953573
_cell_volume 826.561834
_symmetry_space_group_name_H-M "P -1"
_symmetry_group_IT_number 2
_symmetry_cell_setting 'triclinic'
loop_
_space_group_symop_operation_xyz
x,y,z
-x,-y,-z
loop_
_atom_site_type_symbol
_atom_site_label
_atom_site_fract_x
_atom_site_fract_y
_atom_site_fract_z
Si Si1 0.114475 0.171948 0.167251
Si Si2 0.973791 0.462114 0.347854
Si Si3 0.355637 0.380153 0.236784
Si Si4 0.809223 0.519206 0.977307
Si Si5 0.472067 0.784946 0.286638
Si Si6 0.535515 0.892350 0.607922
Si Si7 0.676085 0.340534 0.476473
Si Si8 0.696872 0.586196 0.173039
O O1 0.189356 0.248876 0.134157
O O2 0.283180 0.164524 0.310777
O O3 0.999138 0.286747 0.236859
O O4 0.000000 0.000000 0.000000
O O5 0.775664 0.478803 0.229916
O O6 0.000000 0.500000 0.500000
O O7 0.114149 0.600104 0.428038
O O8 0.314976 0.404781 0.112861
O O9 0.550342 0.329255 0.311127
O O10 0.379103 0.543044 0.397562
O O11 0.705962 0.351011 0.876945
O O12 0.831534 0.623774 0.151562
O O13 0.000000 0.500000 0.000000
O O14 0.489025 0.832258 0.439259
O O15 0.661479 0.739663 0.303730
O O16 0.433513 0.921522 0.272450
O O17 0.368145 0.825499 0.576904
O O18 0.500000 0.500000 0.000000
#
# Coordination Sequence:
#
# PCOD8004755 Si02
#       8
#     2   2   2   2   2   2   2   2
#     4  10  22  36  60  91 121 148 206 260 307 356
#     4  11  23  39  65  88 120 164 212 253 306 375
#     4   9  18  33  58  83 111 153 198 254 290 355
#     4  11  21  35  62  88 119 156 209 250 308 366
#     4  10  22  38  61  87 123 162 202 246 315 369
#     4  10  20  38  62  85 121 162 201 254 306 375
#     4   9  18  35  59  84 112 152 213 249 287 362
#     4  10  24  38  58  90 126 156 197 255 312 364
#
# _framework density 19.357292999999999
#
# number of rings (size 3 to 8) (size 9 to 14) (size 15 to 20)
#    0.000    2.000    1.250    3.000    8.750    0.000 
#    0.000    1.875    0.000    3.000    0.000    0.000 
#    0.000    0.000    0.000    0.000    0.000    0.000 
#
# Total GULP energy -198299.239507 kJ/mol
# GULP energy per Si atom -12393.702469 kJ/mol
# Density = 1.931324 g / cm^3
# Si number density = 19.357293 Si / 1000 Ang^3
#
#
#
# Elastic Constant Matrix: (Units=GPa)
#
#
# Indices 1 2 3 4 5 6 
#
# 1 91.4654 44.7242 28.5885 4.9809 -4.9987 -5.1336
# 2 44.7242 140.3483 43.9520 -2.4937 -0.5183 3.5883
# 3 28.5885 43.9520 68.2783 -6.4404 1.0285 3.1408
# 4 4.9809 -2.4937 -6.4404 39.3915 5.4467 4.5209
# 5 -4.9987 -0.5183 1.0285 5.4467 29.1511 2.3941
# 6 -5.1336 3.5883 3.1408 4.5209 2.3941 33.8889
#
#
#
# Elastic Compliance Matrix: (Units=1/GPa)
#
#
# Indices 1 2 3 4 5 6 
#
# 1 0.014503 -0.003368 -0.004433 -0.003555 0.002983 0.003228
# 2 -0.003368 0.009723 -0.004752 0.000426 -0.000223 -0.001140
# 3 -0.004433 -0.004752 0.020094 0.004117 -0.002123 -0.002430
# 4 -0.003555 0.000426 0.004117 0.027800 -0.005590 -0.004279
# 5 0.002983 -0.000223 -0.002123 -0.005590 0.036023 -0.001127
# 6 0.003228 -0.001140 -0.002430 -0.004279 -0.001127 0.030994
#
#
# Mechanical properties :
#
#
# Convention : Reuss Voigt Hill
#
# Bulk Modulus (GPa) = 52.05069 59.40236 55.72652
# Shear Modulus (GPa) = 29.30007 32.67478 30.98743
#
# Velocity S-wave (km/s) = 3.89478 4.11296 4.00536
# Velocity P-wave (km/s) = 6.86830 7.30132 7.08812
#
# Compressibility (1/GPa) = 0.01921204
#
# Stress axis : x y z
#
# Youngs Moduli (GPa) = 68.94910 102.85320 49.76723
#
# Poissons Ratio (x) = 0.34642 0.22063
# Poissons Ratio (y) = 0.23223 0.23651
# Poissons Ratio (z) = 0.30567 0.48880
#
# Static dielectric constant tensor:
#      x y z
#    x 3.856390 0.015830 -0.119270 
#    y 0.015830 3.889180 -0.003270 
#    z -0.119270 -0.003270 3.634210 
# 
# 
# High freq. dielectric constant tensor:
#      x y z
#    x 1.743800 0.005970 0.003960 
#    y 0.005970 1.757490 -0.019030 
#    z 0.003960 -0.019030 1.743860 
# 
# From -- ./inp_files/282546.got.cif
#   From: 2010.06.25/outbox.cif.g09.slc.cpg/sg2_142_cif.got.tgz:282546.got - 2010.06.27 13:26:56.
