data_PCOD8004830
_publ_section_title
;
Structure prediction by ZEFSAII (Michael W. Deem and Ramdas Pophale) SiO2 
 PCOD8004830
Probable space group: P -1
;
_chemical_formula_sum "Si O2"
_cell_formula_units_Z 16
_cell_length_a 12.162013
_cell_length_b 8.900866
_cell_length_c 14.685885
_cell_angle_alpha 104.609061
_cell_angle_beta 127.854403
_cell_angle_gamma 117.357998
_cell_volume 722.201934
_symmetry_space_group_name_H-M "P -1"
_symmetry_group_IT_number 2
_symmetry_cell_setting 'triclinic'
loop_
_space_group_symop_operation_xyz
x,y,z
-x,-y,-z
loop_
_atom_site_type_symbol
_atom_site_label
_atom_site_fract_x
_atom_site_fract_y
_atom_site_fract_z
Si Si1 0.694192 0.217022 0.061032
Si Si2 0.187115 0.931535 0.039543
Si Si3 0.014567 0.167006 0.479118
Si Si4 0.546553 0.961110 0.653637
Si Si5 0.654123 0.374106 0.674383
Si Si6 0.527187 0.673997 0.102103
Si Si7 0.503004 0.501403 0.743081
Si Si8 0.076607 0.613411 0.453555
O O1 0.939580 0.416718 0.269048
O O2 0.681066 0.080032 0.954175
O O3 0.656785 0.356785 0.022995
O O4 0.500000 0.000000 0.000000
O O5 0.245803 0.945484 0.176551
O O6 0.275926 0.184233 0.099140
O O7 0.912434 0.675505 0.843516
O O8 0.268254 0.397853 0.593915
O O9 0.987558 0.263910 0.562456
O O10 0.000000 0.000000 0.500000
O O11 0.792112 0.980557 0.268956
O O12 0.451733 0.759440 0.498001
O O13 0.347726 0.822433 0.606113
O O14 0.653840 0.215538 0.707835
O O15 0.500612 0.371901 0.642045
O O16 0.486444 0.585133 0.171256
O O17 0.500000 0.500000 0.000000
O O18 0.000000 0.500000 0.500000
#
# Coordination Sequence:
#
# PCOD8004830 Si02
#       8
#     2   2   2   2   2   2   2   2
#     4  12  23  39  67 102 137 176 228 289 347 409
#     4  12  24  45  68 102 136 178 237 284 346 410
#     4  10  20  38  62  91 131 173 219 267 335 403
#     4  11  24  45  73  99 136 180 236 286 346 410
#     4  11  25  47  68  99 139 186 236 282 339 416
#     4  11  23  41  64 103 139 178 231 282 353 411
#     4  11  24  44  67  96 142 183 226 286 343 415
#     4  12  23  41  68 100 135 172 221 289 346 405
#
# _framework density 22.154467
#
# number of rings (size 3 to 8) (size 9 to 14) (size 15 to 20)
#    0.000    0.750    1.250    9.000    0.000    0.500 
#    4.500    0.000    0.000    0.000    0.000    0.000 
#    0.000    0.000    0.000    0.000    0.000    0.000 
#
# Total GULP energy -198356.317415 kJ/mol
# GULP energy per Si atom -12397.269838 kJ/mol
# Density = 2.210404 g / cm^3
# Si number density = 22.154467 Si / 1000 Ang^3
#
#
#
# Elastic Constant Matrix: (Units=GPa)
#
#
# Indices 1 2 3 4 5 6 
#
# 1 122.3462 21.3948 24.4432 4.2961 -27.4878 0.3536
# 2 21.3948 92.6370 30.5076 0.7500 -15.4894 -2.0362
# 3 24.4432 30.5076 120.7095 6.9351 -10.8781 5.9889
# 4 4.2961 0.7500 6.9351 38.2572 0.5953 -0.7946
# 5 -27.4878 -15.4894 -10.8781 0.5953 32.3047 6.4024
# 6 0.3536 -2.0362 5.9889 -0.7946 6.4024 33.7733
#
#
#
# Elastic Compliance Matrix: (Units=1/GPa)
#
#
# Indices 1 2 3 4 5 6 
#
# 1 0.010470 -0.000670 -0.001031 -0.001143 0.008583 -0.001621
# 2 -0.000670 0.012587 -0.002676 0.000252 0.004481 0.000397
# 3 -0.001031 -0.002676 0.009505 -0.001623 0.001498 -0.002158
# 4 -0.001143 0.000252 -0.001623 0.026618 -0.002156 0.001350
# 5 0.008583 0.004481 0.001498 -0.002156 0.042577 -0.008207
# 6 -0.001621 0.000397 -0.002158 0.001350 -0.008207 0.031620
#
#
# Mechanical properties :
#
#
# Convention : Reuss Voigt Hill
#
# Bulk Modulus (GPa) = 42.00374 54.26489 48.13432
# Shear Modulus (GPa) = 33.31864 38.15686 35.73775
#
# Velocity S-wave (km/s) = 3.88225 4.15457 4.02072
# Velocity P-wave (km/s) = 6.25272 6.89645 6.58246
#
# Compressibility (1/GPa) = 0.02380740
#
# Stress axis : x y z
#
# Youngs Moduli (GPa) = 95.51314 79.44950 105.21069
#
# Poissons Ratio (x) = 0.05321 0.10850
# Poissons Ratio (y) = 0.06397 0.28153
# Poissons Ratio (z) = 0.09850 0.21259
#
# Static dielectric constant tensor:
#      x y z
#    x 3.766290 -0.120060 -0.096190 
#    y -0.120060 4.044260 0.261880 
#    z -0.096190 0.261880 3.446060 
# 
# 
# High freq. dielectric constant tensor:
#      x y z
#    x 1.877900 -0.008560 -0.008300 
#    y -0.008560 1.873470 0.007590 
#    z -0.008300 0.007590 1.884420 
# 
# From -- ./inp_files/273847.got.cif
#   From: 2010.06.25/outbox.cif.g09.slc.cpg/sg2_137_cif.got.tgz:273847.got - 2010.06.27 13:26:56.
