data_PCOD8004321
_publ_section_title
;
Structure prediction by ZEFSAII (Michael W. Deem and Ramdas Pophale) SiO2 
 PCOD8004321
Probable space group: P -1
;
_chemical_formula_sum "Si O2"
_cell_formula_units_Z 16
_cell_length_a 24.860899
_cell_length_b 30.219159
_cell_length_c 11.976861
_cell_angle_alpha 29.017211
_cell_angle_beta 29.909187
_cell_angle_gamma 9.755635
_cell_volume 738.209950
_symmetry_space_group_name_H-M "P -1"
_symmetry_group_IT_number 2
_symmetry_cell_setting 'triclinic'
loop_
_space_group_symop_operation_xyz
x,y,z
-x,-y,-z
loop_
_atom_site_type_symbol
_atom_site_label
_atom_site_fract_x
_atom_site_fract_y
_atom_site_fract_z
Si Si1 0.344843 0.398427 0.974146
Si Si2 0.495337 0.761273 0.717214
Si Si3 0.725620 0.147816 0.639097
Si Si4 0.303742 0.241995 0.947338
Si Si5 0.842466 0.951628 0.647140
Si Si6 0.590674 0.300194 0.187566
Si Si7 0.783673 0.346303 0.707439
Si Si8 0.196073 0.302963 0.751276
O O1 0.625909 0.173080 0.874633
O O2 0.129445 0.655700 0.759534
O O3 0.494861 0.292326 0.060295
O O4 0.145204 0.463368 0.189563
O O5 0.568845 0.625393 0.793319
O O6 0.759037 0.630796 0.521470
O O7 0.149710 0.081562 0.611029
O O8 0.426443 0.437029 0.485109
O O9 0.860332 0.965761 0.713115
O O10 0.000000 0.000000 0.500000
O O11 0.187064 0.308338 0.888816
O O12 0.503997 0.175707 0.731890
O O13 0.000000 0.500000 0.000000
O O14 0.524213 0.984795 0.165171
O O15 0.862932 0.023030 0.371141
O O16 0.312438 0.546472 0.231879
O O17 0.759844 0.256307 0.935208
#
# Coordination Sequence:
#
# PCOD8004321 Si02
#       8
#     2   2   2   2   2   2   2   2
#     4  11  26  42  63  95 136 168 211 266 325 382
#     4  12  24  40  69  94 130 173 211 264 322 381
#     4  11  26  44  67  93 131 170 212 268 324 380
#     4  10  20  37  68  94 123 165 212 266 317 377
#     4  10  22  42  66  94 125 167 219 259 322 385
#     4  10  22  43  64  92 127 165 218 266 312 382
#     4  10  25  42  67  93 128 166 223 262 318 382
#     4  10  23  40  62  96 131 164 215 260 320 382
#
# _framework density 21.674050000000001
#
# number of rings (size 3 to 8) (size 9 to 14) (size 15 to 20)
#    0.000    1.500    1.250    2.250   14.000    0.500 
#    0.000    0.000    0.000    6.000    0.000    0.000 
#    0.000    0.000    0.000    0.000    0.000    0.000 
#
# Total GULP energy -198484.280185 kJ/mol
# GULP energy per Si atom -12405.267512 kJ/mol
# Density = 2.162472 g / cm^3
# Si number density = 21.674050 Si / 1000 Ang^3
#
#
#
# Elastic Constant Matrix: (Units=GPa)
#
#
# Indices 1 2 3 4 5 6 
#
# 1 141.7987 24.4787 31.7251 11.5408 0.0821 -3.8324
# 2 24.4787 67.0658 4.7600 17.8151 -1.4084 -6.0961
# 3 31.7251 4.7600 86.2492 12.8741 -1.4394 -0.6954
# 4 11.5408 17.8151 12.8741 23.7748 -1.4950 3.1035
# 5 0.0821 -1.4084 -1.4394 -1.4950 39.3509 0.9925
# 6 -3.8324 -6.0961 -0.6954 3.1035 0.9925 25.9543
#
#
#
# Elastic Compliance Matrix: (Units=1/GPa)
#
#
# Indices 1 2 3 4 5 6 
#
# 1 0.008185 -0.002569 -0.002772 -0.000643 -0.000250 0.000617
# 2 -0.002569 0.020595 0.002289 -0.016266 0.000045 0.006463
# 3 -0.002772 0.002289 0.013691 -0.007955 0.000250 0.001437
# 4 -0.000643 -0.016266 -0.007955 0.060469 0.001714 -0.011425
# 5 -0.000250 0.000045 0.000250 0.001714 0.025519 -0.001200
# 6 0.000617 0.006463 0.001437 -0.011425 -0.001200 0.041589
#
#
# Mechanical properties :
#
#
# Convention : Reuss Voigt Hill
#
# Bulk Modulus (GPa) = 27.49737 46.33794 36.91766
# Shear Modulus (GPa) = 26.55697 33.42598 29.99148
#
# Velocity S-wave (km/s) = 3.50421 3.93136 3.72392
# Velocity P-wave (km/s) = 5.39323 6.48331 5.96323
#
# Compressibility (1/GPa) = 0.03636711
#
# Stress axis : x y z
#
# Youngs Moduli (GPa) = 122.17237 48.55528 73.04149
#
# Poissons Ratio (x) = 0.12474 0.20248
# Poissons Ratio (y) = 0.31386 -0.16720
# Poissons Ratio (z) = 0.33868 -0.11115
#
# Static dielectric constant tensor:
#      x y z
#    x 4.134520 0.046930 -0.132250 
#    y 0.046930 3.719000 0.094890 
#    z -0.132250 0.094890 3.935640 
# 
# 
# High freq. dielectric constant tensor:
#      x y z
#    x 1.869620 0.004580 -0.002670 
#    y 0.004580 1.834670 0.006290 
#    z -0.002670 0.006290 1.851390 
# 
# From -- ./inp_files/273821.got.cif
#   From: 2010.06.25/outbox.cif.g09.slc.cpg/sg2_137_cif.got.tgz:273821.got - 2010.06.27 13:26:56.
