data_PCOD8004880
_publ_section_title
;
Structure prediction by ZEFSAII (Michael W. Deem and Ramdas Pophale) SiO2 
 PCOD8004880
Probable space group: P -1
;
_chemical_formula_sum "Si O2"
_cell_formula_units_Z 12
_cell_length_a 8.450700
_cell_length_b 17.155112
_cell_length_c 11.012918
_cell_angle_alpha 34.347302
_cell_angle_beta 44.125891
_cell_angle_gamma 63.745532
_cell_volume 579.453255
_symmetry_space_group_name_H-M "P -1"
_symmetry_group_IT_number 2
_symmetry_cell_setting 'triclinic'
loop_
_space_group_symop_operation_xyz
x,y,z
-x,-y,-z
loop_
_atom_site_type_symbol
_atom_site_label
_atom_site_fract_x
_atom_site_fract_y
_atom_site_fract_z
Si Si1 0.317574 0.235828 0.848707
Si Si2 0.867639 0.350339 0.338677
Si Si3 0.778685 0.552010 0.534098
Si Si4 0.025227 0.094924 0.603024
Si Si5 0.481392 0.238850 0.025265
Si Si6 0.016830 0.737802 0.371189
O O1 0.575591 0.297925 0.555364
O O2 0.183159 0.345798 0.739123
O O3 0.347247 0.236881 0.974524
O O4 0.165443 0.070000 0.100827
O O5 0.939048 0.213855 0.425384
O O6 0.950164 0.379013 0.398363
O O7 0.000000 0.500000 0.000000
O O8 0.000000 0.500000 0.500000
O O9 0.784226 0.653469 0.519494
O O10 0.535990 0.401458 0.847562
O O11 0.030733 0.129484 0.701044
O O12 0.293472 0.115616 0.376850
O O13 0.724364 0.199615 0.926966
#
# Coordination Sequence:
#
# PCOD8004880 Si02
#       6
#     2   2   2   2   2   2
#     4  11  21  37  62  86 119 154 193 241 292 339
#     4   9  19  37  59  88 112 147 195 234 284 344
#     4  10  21  39  59  84 119 158 193 242 284 341
#     4  10  21  37  62  89 118 148 195 240 293 342
#     4  10  20  38  63  84 116 156 195 236 288 343
#     4   8  21  38  60  84 123 144 197 240 286 339
#
# _framework density 20.709175999999999
#
# number of rings (size 3 to 8) (size 9 to 14) (size 15 to 20)
#    1.000    1.333    0.000    2.500    0.000    4.000 
#    0.000    3.333    0.000    0.000    0.000    0.000 
#    0.000    0.000    0.000    0.000    0.000    0.000 
#
# Total GULP energy -148674.617378 kJ/mol
# GULP energy per Si atom -12389.551448 kJ/mol
# Density = 2.066204 g / cm^3
# Si number density = 20.709176 Si / 1000 Ang^3
#
#
#
# Elastic Constant Matrix: (Units=GPa)
#
#
# Indices 1 2 3 4 5 6 
#
# 1 39.7605 36.7255 13.1300 1.7493 -12.2698 29.3828
# 2 36.7255 86.3149 45.5541 6.1269 -25.6340 24.7784
# 3 13.1300 45.5541 118.0330 0.8400 -34.2735 6.7854
# 4 1.7493 6.1269 0.8400 37.6050 -1.0520 -6.3910
# 5 -12.2698 -25.6340 -34.2735 -1.0520 23.7330 -10.8272
# 6 29.3828 24.7784 6.7854 -6.3910 -10.8272 44.6237
#
#
#
# Elastic Compliance Matrix: (Units=1/GPa)
#
#
# Indices 1 2 3 4 5 6 
#
# 1 0.069986 -0.019840 0.002458 -0.006137 0.001643 -0.035920
# 2 -0.019840 0.025334 -0.004226 -0.002407 0.011891 0.002179
# 3 0.002458 -0.004226 0.015772 0.001442 0.021229 0.003687
# 4 -0.006137 -0.002407 0.001442 0.028962 0.002069 0.009808
# 5 0.001643 0.011891 0.021229 0.002069 0.091908 0.011683
# 6 -0.035920 0.002179 0.003687 0.009808 0.011683 0.048530
#
#
# Mechanical properties :
#
#
# Convention : Reuss Voigt Hill
#
# Bulk Modulus (GPa) = 14.73274 48.32531 31.52903
# Shear Modulus (GPa) = 14.43695 31.10559 22.77127
#
# Velocity S-wave (km/s) = 2.64318 3.87979 3.31958
# Velocity P-wave (km/s) = 4.05522 6.59214 5.47271
#
# Compressibility (1/GPa) = 0.06787602
#
# Stress axis : x y z
#
# Youngs Moduli (GPa) = 14.28851 39.47281 63.40428
#
# Poissons Ratio (x) = 0.78313 -0.15582
# Poissons Ratio (y) = 0.28348 0.26794
# Poissons Ratio (z) = -0.03512 0.16681
#
# Static dielectric constant tensor:
#      x y z
#    x 3.996130 0.345900 -0.138830 
#    y 0.345900 3.880990 -0.033740 
#    z -0.138830 -0.033740 3.495040 
# 
# 
# High freq. dielectric constant tensor:
#      x y z
#    x 1.805010 0.012930 -0.009080 
#    y 0.012930 1.804510 -0.002820 
#    z -0.009080 -0.002820 1.794380 
# 
# From -- ./inp_files/164105.got.cif
#   From: 2010.06.25/outbox.cif.g09.slc.cpg/sg2_83_cif.got.tgz:164105.got - 2010.06.27 13:26:56.
