data_PCOD8004543
_publ_section_title
;
Structure prediction by ZEFSAII (Michael W. Deem and Ramdas Pophale) SiO2 
 PCOD8004543
Probable space group: P -1
;
_chemical_formula_sum "Si O2"
_cell_formula_units_Z 16
_cell_length_a 8.971528
_cell_length_b 14.920039
_cell_length_c 20.207685
_cell_angle_alpha 18.694472
_cell_angle_beta 66.733762
_cell_angle_gamma 73.690832
_cell_volume 755.399601
_symmetry_space_group_name_H-M "P -1"
_symmetry_group_IT_number 2
_symmetry_cell_setting 'triclinic'
loop_
_space_group_symop_operation_xyz
x,y,z
-x,-y,-z
loop_
_atom_site_type_symbol
_atom_site_label
_atom_site_fract_x
_atom_site_fract_y
_atom_site_fract_z
Si Si1 0.067394 0.699183 0.766837
Si Si2 0.165179 0.908529 0.741914
Si Si3 0.625486 0.816377 0.123940
Si Si4 0.506240 0.857236 0.393886
Si Si5 0.174262 0.924378 0.451729
Si Si6 0.303531 0.040982 0.842058
Si Si7 0.009761 0.752878 0.268660
Si Si8 0.073112 0.463635 0.333345
O O1 0.189761 0.809311 0.731917
O O2 0.182168 0.835887 0.588431
O O3 0.899421 0.803947 0.730677
O O4 0.994951 0.345912 0.020258
O O5 0.334863 0.956585 0.720436
O O6 0.118084 0.207118 0.543429
O O7 0.555584 0.489385 0.333534
O O8 0.629465 0.775475 0.231280
O O9 0.500000 0.000000 0.000000
O O10 0.810051 0.985610 0.941378
O O11 0.361684 0.008780 0.328498
O O12 0.546200 0.895724 0.282024
O O13 0.054062 0.644207 0.629630
O O14 0.145791 0.120440 0.780210
O O15 0.245836 0.695017 0.112607
O O16 0.985654 0.624348 0.288457
O O17 0.000000 0.500000 0.500000
#
# Coordination Sequence:
#
# PCOD8004543 Si02
#       8
#     2   2   2   2   2   2   2   2
#     4   9  21  43  62  82 112 152 191 248 304 359
#     4  10  21  39  62  86 116 147 194 245 301 359
#     4  11  23  39  58  89 127 158 198 246 289 333
#     4  12  23  36  59  90 117 152 195 245 294 347
#     4  10  21  38  63  86 112 147 197 245 301 357
#     4  11  22  39  58  83 126 163 196 236 287 348
#     4  11  22  38  62  87 122 166 201 235 285 347
#     4  10  20  38  60  84 112 160 203 231 280 358
#
# _framework density 21.180841999999998
#
# number of rings (size 3 to 8) (size 9 to 14) (size 15 to 20)
#    0.000    1.500    0.000    7.125    0.000    3.000 
#    0.000    6.250    0.000    0.000    0.000    0.000 
#    0.000    0.000    0.000    0.000    0.000    0.000 
#
# Total GULP energy -198450.451162 kJ/mol
# GULP energy per Si atom -12403.153198 kJ/mol
# Density = 2.113263 g / cm^3
# Si number density = 21.180842 Si / 1000 Ang^3
#
#
#
# Elastic Constant Matrix: (Units=GPa)
#
#
# Indices 1 2 3 4 5 6 
#
# 1 69.0484 26.5326 10.4782 7.2324 -1.4542 -1.1485
# 2 26.5326 80.7439 35.8351 19.6278 -8.2047 -6.9508
# 3 10.4782 35.8351 102.3770 1.6803 8.8544 -1.0258
# 4 7.2324 19.6278 1.6803 38.4034 4.2090 -2.9566
# 5 -1.4542 -8.2047 8.8544 4.2090 31.4307 -3.9858
# 6 -1.1485 -6.9508 -1.0258 -2.9566 -3.9858 42.5643
#
#
#
# Elastic Compliance Matrix: (Units=1/GPa)
#
#
# Indices 1 2 3 4 5 6 
#
# 1 0.016615 -0.005725 0.000377 -0.000167 -0.000882 -0.000572
# 2 -0.005725 0.021274 -0.007453 -0.010221 0.009174 0.003289
# 3 0.000377 -0.007453 0.012800 0.003763 -0.006192 -0.001217
# 4 -0.000167 -0.010221 0.003763 0.032002 -0.008036 -0.000112
# 5 -0.000882 0.009174 -0.006192 -0.008036 0.037534 0.004282
# 6 -0.000572 0.003289 -0.001217 -0.000112 0.004282 0.024379
#
#
# Mechanical properties :
#
#
# Convention : Reuss Voigt Hill
#
# Bulk Modulus (GPa) = 39.86443 44.20679 42.03561
# Shear Modulus (GPa) = 28.00048 34.43457 31.21752
#
# Velocity S-wave (km/s) = 3.63984 4.03642 3.84325
# Velocity P-wave (km/s) = 6.04371 6.52993 6.29152
#
# Compressibility (1/GPa) = 0.02508502
#
# Stress axis : x y z
#
# Youngs Moduli (GPa) = 60.18749 47.00590 78.12659
#
# Poissons Ratio (x) = 0.26912 -0.02944
# Poissons Ratio (y) = 0.34458 0.58230
# Poissons Ratio (z) = -0.02268 0.35035
#
# Static dielectric constant tensor:
#      x y z
#    x 3.784530 0.138920 0.038600 
#    y 0.138920 3.827780 -0.025980 
#    z 0.038600 -0.025980 3.890530 
# 
# 
# High freq. dielectric constant tensor:
#      x y z
#    x 1.823090 0.014660 0.006310 
#    y 0.014660 1.828120 -0.003970 
#    z 0.006310 -0.003970 1.838880 
# 
# From -- ./inp_files/187284.got.cif
#   From: 2010.06.25/outbox.cif.g09.slc.cpg/sg2_94_cif.got.tgz:187284.got - 2010.06.27 13:26:56.
