data_PCOD8004469
_publ_section_title
;
Structure prediction by ZEFSAII (Michael W. Deem and Ramdas Pophale) SiO2 
 PCOD8004469
Probable space group: P -1
;
_chemical_formula_sum "Si O2"
_cell_formula_units_Z 16
_cell_length_a 14.829780
_cell_length_b 9.564213
_cell_length_c 12.567434
_cell_angle_alpha 71.363636
_cell_angle_beta 151.611510
_cell_angle_gamma 98.617756
_cell_volume 768.193576
_symmetry_space_group_name_H-M "P -1"
_symmetry_group_IT_number 2
_symmetry_cell_setting 'triclinic'
loop_
_space_group_symop_operation_xyz
x,y,z
-x,-y,-z
loop_
_atom_site_type_symbol
_atom_site_label
_atom_site_fract_x
_atom_site_fract_y
_atom_site_fract_z
Si Si1 0.304258 0.718671 0.985777
Si Si2 0.497542 0.402103 0.372527
Si Si3 0.899269 0.874234 0.471995
Si Si4 0.364314 0.672843 0.817915
Si Si5 0.557679 0.810445 0.811218
Si Si6 0.773651 0.565591 0.716321
Si Si7 0.395332 0.127714 0.653235
Si Si8 0.058784 0.321837 0.638650
O O1 0.383813 0.545245 0.148544
O O2 0.402097 0.836445 0.114169
O O3 0.342280 0.735542 0.897807
O O4 0.069021 0.765255 0.750254
O O5 0.527189 0.251532 0.366327
O O6 0.705431 0.430341 0.617547
O O7 0.369082 0.380766 0.344328
O O8 0.709029 0.929786 0.339442
O O9 0.844536 0.781299 0.338441
O O10 0.000000 0.000000 0.500000
O O11 0.470782 0.772779 0.839304
O O12 0.148666 0.700825 0.534502
O O13 0.500000 0.500000 0.000000
O O14 0.474416 0.996499 0.676744
O O15 0.795227 0.731229 0.094681
O O16 0.753528 0.716411 0.587129
O O17 0.000000 0.500000 0.000000
O O18 0.000000 0.500000 0.500000
#
# Coordination Sequence:
#
# PCOD8004469 Si02
#       8
#     2   2   2   2   2   2   2   2
#     4  10  20  38  59  84 120 162 199 241 289 349
#     4  10  22  41  64  87 114 151 194 257 302 351
#     4  11  22  37  54  85 126 163 197 232 289 350
#     4  11  20  35  56  87 125 161 198 238 282 343
#     4  12  23  38  57  91 125 153 199 241 299 350
#     4  10  23  45  67  87 109 151 205 249 308 364
#     4  11  24  38  62  87 119 162 196 249 301 355
#     4  11  22  34  57  86 119 162 200 238 277 343
#
# _framework density 20.828084
#
# number of rings (size 3 to 8) (size 9 to 14) (size 15 to 20)
#    0.000    1.250    2.500    4.500    0.000    3.000 
#    0.000    0.625    0.000    0.000    0.000    0.000 
#    0.000    0.000    0.000    0.000    0.000    0.000 
#
# Total GULP energy -198284.857578 kJ/mol
# GULP energy per Si atom -12392.803599 kJ/mol
# Density = 2.078068 g / cm^3
# Si number density = 20.828084 Si / 1000 Ang^3
#
#
#
# Elastic Constant Matrix: (Units=GPa)
#
#
# Indices 1 2 3 4 5 6 
#
# 1 62.5825 29.9194 13.3324 1.8145 -4.5121 -3.0349
# 2 29.9194 129.0052 31.5899 13.1148 -3.7294 -26.8952
# 3 13.3324 31.5899 112.5240 17.6698 7.3129 -11.0987
# 4 1.8145 13.1148 17.6698 21.4674 -5.5371 -3.6316
# 5 -4.5121 -3.7294 7.3129 -5.5371 24.7060 -1.4846
# 6 -3.0349 -26.8952 -11.0987 -3.6316 -1.4846 38.2546
#
#
#
# Elastic Compliance Matrix: (Units=1/GPa)
#
#
# Indices 1 2 3 4 5 6 
#
# 1 0.018616 -0.004441 -0.001931 0.003462 0.003973 -0.001723
# 2 -0.004441 0.010894 -0.001322 -0.003885 0.000750 0.006584
# 3 -0.001931 -0.001322 0.011553 -0.009937 -0.006133 0.001088
# 4 0.003462 -0.003885 -0.009937 0.061370 0.016810 0.001139
# 5 0.003973 0.000750 -0.006133 0.016810 0.047047 0.002484
# 6 -0.001723 0.006584 0.001088 0.001139 0.002484 0.031153
#
#
# Mechanical properties :
#
#
# Convention : Reuss Voigt Hill
#
# Bulk Modulus (GPa) = 38.94526 50.42168 44.68347
# Shear Modulus (GPa) = 24.44038 32.17028 28.30533
#
# Velocity S-wave (km/s) = 3.42926 3.93436 3.69046
# Velocity P-wave (km/s) = 5.86675 6.70074 6.29757
#
# Compressibility (1/GPa) = 0.02567707
#
# Stress axis : x y z
#
# Youngs Moduli (GPa) = 53.71751 91.78969 86.55692
#
# Poissons Ratio (x) = 0.40763 0.16712
# Poissons Ratio (y) = 0.23855 0.11439
# Poissons Ratio (z) = 0.10372 0.12130
#
# Static dielectric constant tensor:
#      x y z
#    x 3.641020 0.018570 0.015830 
#    y 0.018570 3.937260 0.091990 
#    z 0.015830 0.091990 3.734470 
# 
# 
# High freq. dielectric constant tensor:
#      x y z
#    x 1.798890 0.000550 0.011620 
#    y 0.000550 1.826480 0.006740 
#    z 0.011620 0.006740 1.818980 
# 
# From -- ./inp_files/307371.got.cif
#   From: 2010.06.25/outbox.cif.g09.slc.cpg/sg2_154_cif.got.tgz:307371.got - 2010.06.27 13:26:56.
