data_PCOD8004185
_publ_section_title
;
Structure prediction by ZEFSAII (Michael W. Deem and Ramdas Pophale) SiO2 
 PCOD8004185
Probable space group: P -1
;
_chemical_formula_sum "Si O2"
_cell_formula_units_Z 16
_cell_length_a 15.562094
_cell_length_b 8.587436
_cell_length_c 9.951479
_cell_angle_alpha 99.206136
_cell_angle_beta 53.186682
_cell_angle_gamma 65.305497
_cell_volume 798.727195
_symmetry_space_group_name_H-M "P -1"
_symmetry_group_IT_number 2
_symmetry_cell_setting 'triclinic'
loop_
_space_group_symop_operation_xyz
x,y,z
-x,-y,-z
loop_
_atom_site_type_symbol
_atom_site_label
_atom_site_fract_x
_atom_site_fract_y
_atom_site_fract_z
Si Si1 0.198225 0.215815 0.124931
Si Si2 0.464258 0.762686 0.797748
Si Si3 0.046056 0.756720 0.546256
Si Si4 0.420222 0.240685 0.588349
Si Si5 0.599016 0.519573 0.114572
Si Si6 0.659645 0.647665 0.822268
Si Si7 0.114052 0.482053 0.976649
Si Si8 0.070904 0.811075 0.228721
O O1 0.272690 0.260272 0.166704
O O2 0.046018 0.304578 0.330040
O O3 0.175333 0.327345 0.023158
O O4 0.300659 0.968817 0.975859
O O5 0.524128 0.719306 0.586722
O O6 0.484348 0.565009 0.805099
O O7 0.552026 0.790894 0.822087
O O8 0.211181 0.574312 0.393508
O O9 0.014815 0.804118 0.423794
O O10 0.003912 0.951344 0.699191
O O11 0.453714 0.312627 0.697478
O O12 0.251715 0.383038 0.743297
O O13 0.500000 0.000000 0.500000
O O14 0.572536 0.629545 0.011839
O O15 0.762791 0.323011 0.945580
O O16 0.035901 0.715831 0.133601
O O17 0.000000 0.500000 0.000000
#
# Coordination Sequence:
#
# PCOD8004185 Si02
#       8
#     2   2   2   2   2   2   2   2
#     4  12  22  40  63  89 125 162 200 256 318 362
#     4  12  24  38  64  94 122 168 207 248 307 375
#     4  10  20  37  65  88 119 159 201 248 316 360
#     4  11  22  43  63  86 125 165 207 255 307 363
#     4  10  20  43  62  86 128 166 202 252 313 364
#     4  11  23  40  62  96 126 157 208 262 299 369
#     4  11  24  42  64  87 122 164 209 255 309 370
#     4   9  19  40  63  85 123 161 195 255 308 362
#
# _framework density 20.031870999999999
#
# number of rings (size 3 to 8) (size 9 to 14) (size 15 to 20)
#    0.000    1.250    6.250    1.500    1.750    0.000 
#    2.250    0.625    0.000    0.000    0.000    0.000 
#    0.000    0.000    0.000    0.000    0.000    0.000 
#
# Total GULP energy -198412.884434 kJ/mol
# GULP energy per Si atom -12400.805277 kJ/mol
# Density = 1.998628 g / cm^3
# Si number density = 20.031871 Si / 1000 Ang^3
#
#
#
# Elastic Constant Matrix: (Units=GPa)
#
#
# Indices 1 2 3 4 5 6 
#
# 1 95.5146 20.1163 33.3247 5.0015 10.0326 4.2464
# 2 20.1163 65.4699 40.5756 1.3659 4.8945 15.5677
# 3 33.3247 40.5756 111.3208 -3.0780 10.4113 5.6645
# 4 5.0015 1.3659 -3.0780 34.7127 11.7582 -1.1080
# 5 10.0326 4.8945 10.4113 11.7582 24.2835 -0.5179
# 6 4.2464 15.5677 5.6645 -1.1080 -0.5179 30.9474
#
#
#
# Elastic Compliance Matrix: (Units=1/GPa)
#
#
# Indices 1 2 3 4 5 6 
#
# 1 0.012172 -0.001697 -0.002741 -0.000898 -0.003085 -0.000399
# 2 -0.001697 0.022722 -0.007291 -0.001538 -0.000219 -0.009921
# 3 -0.002741 -0.007291 0.012893 0.003420 -0.004544 0.001730
# 4 -0.000898 -0.001538 0.003420 0.035404 -0.017902 0.001239
# 5 -0.003085 -0.000219 -0.004544 -0.017902 0.053150 0.001614
# 6 -0.000399 -0.009921 0.001730 0.001239 0.001614 0.037113
#
#
# Mechanical properties :
#
#
# Convention : Reuss Voigt Hill
#
# Bulk Modulus (GPa) = 41.10462 51.14873 46.12667
# Shear Modulus (GPa) = 24.38754 29.87463 27.13108
#
# Velocity S-wave (km/s) = 3.49296 3.86600 3.68420
# Velocity P-wave (km/s) = 6.06893 6.74663 6.41673
#
# Compressibility (1/GPa) = 0.02432816
#
# Stress axis : x y z
#
# Youngs Moduli (GPa) = 82.15416 44.01013 77.56278
#
# Poissons Ratio (x) = 0.07468 0.21262
# Poissons Ratio (y) = 0.13941 0.56553
# Poissons Ratio (z) = 0.22521 0.32089
#
# Static dielectric constant tensor:
#      x y z
#    x 3.592080 0.186430 0.019810 
#    y 0.186430 3.635500 0.095050 
#    z 0.019810 0.095050 3.946980 
# 
# 
# High freq. dielectric constant tensor:
#      x y z
#    x 1.767990 0.017960 0.000370 
#    y 0.017960 1.777170 0.003100 
#    z 0.000370 0.003100 1.796880 
# 
# From -- ./inp_files/187777.got.cif
#   From: 2010.06.25/outbox.cif.g09.slc.cpg/sg2_94_cif.got.tgz:187777.got - 2010.06.27 13:26:56.
