data_PCOD8004791
_publ_section_title
;
Structure prediction by ZEFSAII (Michael W. Deem and Ramdas Pophale) SiO2 
 PCOD8004791
Probable space group: P -1
;
_chemical_formula_sum "Si O2"
_cell_formula_units_Z 16
_cell_length_a 7.991596
_cell_length_b 26.361452
_cell_length_c 26.485690
_cell_angle_alpha 10.925424
_cell_angle_beta 48.570423
_cell_angle_gamma 48.406024
_cell_volume 788.971328
_symmetry_space_group_name_H-M "P -1"
_symmetry_group_IT_number 2
_symmetry_cell_setting 'triclinic'
loop_
_space_group_symop_operation_xyz
x,y,z
-x,-y,-z
loop_
_atom_site_type_symbol
_atom_site_label
_atom_site_fract_x
_atom_site_fract_y
_atom_site_fract_z
Si Si1 0.919065 0.120859 0.845545
Si Si2 0.610491 0.255365 0.248449
Si Si3 0.621663 0.239378 0.379089
Si Si4 0.620582 0.781445 0.363958
Si Si5 0.033583 0.175365 0.975022
Si Si6 0.493858 0.275746 0.834826
Si Si7 0.744978 0.731057 0.495599
Si Si8 0.907806 0.683221 0.885639
O O1 0.671614 0.271414 0.757054
O O2 0.109385 0.314027 0.601965
O O3 0.905173 0.892205 0.029361
O O4 0.000000 0.000000 0.000000
O O5 0.557256 0.300986 0.273665
O O6 0.879832 0.238821 0.200267
O O7 0.500000 0.000000 0.500000
O O8 0.500000 0.500000 0.000000
O O9 0.393529 0.214381 0.479024
O O10 0.777141 0.959669 0.622900
O O11 0.743128 0.488249 0.136612
O O12 0.471774 0.570291 0.575463
O O13 0.575962 0.805644 0.409167
O O14 0.565654 0.067157 0.068835
O O15 0.254373 0.236365 0.899846
O O16 0.844272 0.422611 0.773989
O O17 0.945281 0.921784 0.268799
O O18 0.000000 0.500000 0.000000
#
# Coordination Sequence:
#
# PCOD8004791 Si02
#       8
#     2   2   2   2   2   2   2   2
#     4   9  19  36  59  84 110 149 197 241 293 351
#     4  11  21  37  60  92 123 145 178 238 291 324
#     4  11  22  40  63  84 116 161 196 226 274 349
#     4  10  21  38  58  81 113 151 193 242 286 348
#     4  11  23  38  58  85 119 151 190 247 294 339
#     4  11  21  37  58  86 113 146 190 251 306 339
#     4  11  23  42  59  81 114 161 199 226 279 350
#     4  10  20  38  62  89 114 148 191 231 273 330
#
# _framework density 20.279571000000001
#
# number of rings (size 3 to 8) (size 9 to 14) (size 15 to 20)
#    0.000    1.500    0.000    8.250    0.000    3.000 
#    0.000   13.750    0.000    0.000    0.000    0.000 
#    0.000    0.000    0.000    0.000    0.000    0.000 
#
# Total GULP energy -198341.782555 kJ/mol
# GULP energy per Si atom -12396.361410 kJ/mol
# Density = 2.023341 g / cm^3
# Si number density = 20.279571 Si / 1000 Ang^3
#
#
#
# Elastic Constant Matrix: (Units=GPa)
#
#
# Indices 1 2 3 4 5 6 
#
# 1 117.0626 38.6155 36.1003 1.9084 -18.1976 4.0352
# 2 38.6155 86.3702 20.1285 11.0294 3.3492 11.0057
# 3 36.1003 20.1285 112.4465 -1.2874 -7.9336 7.1017
# 4 1.9084 11.0294 -1.2874 25.2700 -2.4752 0.2424
# 5 -18.1976 3.3492 -7.9336 -2.4752 48.4378 0.3440
# 6 4.0352 11.0057 7.1017 0.2424 0.3440 18.4394
#
#
#
# Elastic Compliance Matrix: (Units=1/GPa)
#
#
# Indices 1 2 3 4 5 6 
#
# 1 0.011648 -0.005172 -0.002575 0.001662 0.004387 0.001426
# 2 -0.005172 0.016183 -0.001063 -0.006997 -0.003537 -0.007960
# 3 -0.002575 -0.001063 0.010159 0.001286 0.000855 -0.002747
# 4 0.001662 -0.006997 0.001286 0.042883 0.003491 0.002688
# 5 0.004387 -0.003537 0.000855 0.003491 0.022854 0.000350
# 6 0.001426 -0.007960 -0.002747 0.002688 0.000350 0.059687
#
#
# Mechanical properties :
#
#
# Convention : Reuss Voigt Hill
#
# Bulk Modulus (GPa) = 49.09403 56.17422 52.63413
# Shear Modulus (GPa) = 26.62060 33.16509 29.89285
#
# Velocity S-wave (km/s) = 3.62702 4.04839 3.84348
# Velocity P-wave (km/s) = 6.46541 7.04362 6.76070
#
# Compressibility (1/GPa) = 0.02036907
#
# Stress axis : x y z
#
# Youngs Moduli (GPa) = 85.84911 61.79272 98.43642
#
# Poissons Ratio (x) = 0.31958 0.25351
# Poissons Ratio (y) = 0.44399 0.10468
# Poissons Ratio (z) = 0.22109 0.06571
#
# Static dielectric constant tensor:
#      x y z
#    x 3.848950 -0.157710 -0.247520 
#    y -0.157710 3.809670 0.261780 
#    z -0.247520 0.261780 3.979220 
# 
# 
# High freq. dielectric constant tensor:
#      x y z
#    x 1.793100 -0.001780 -0.010900 
#    y -0.001780 1.773630 0.005800 
#    z -0.010900 0.005800 1.808070 
# 
# From -- ./inp_files/617673.got.cif
#   From: 2010.06.25/outbox.cif.g09.slc.cpg/sg2_309_cif.got.tgz:617673.got - 2010.06.27 13:26:56.
