data_PCOD8004478
_publ_section_title
;
Structure prediction by ZEFSAII (Michael W. Deem and Ramdas Pophale) SiO2 
 PCOD8004478
Probable space group: P -1
;
_chemical_formula_sum "Si O2"
_cell_formula_units_Z 16
_cell_length_a 14.731421
_cell_length_b 6.625639
_cell_length_c 11.890004
_cell_angle_alpha 46.607091
_cell_angle_beta 68.983948
_cell_angle_gamma 89.274327
_cell_volume 739.008804
_symmetry_space_group_name_H-M "P -1"
_symmetry_group_IT_number 2
_symmetry_cell_setting 'triclinic'
loop_
_space_group_symop_operation_xyz
x,y,z
-x,-y,-z
loop_
_atom_site_type_symbol
_atom_site_label
_atom_site_fract_x
_atom_site_fract_y
_atom_site_fract_z
Si Si1 0.158560 0.727666 0.271873
Si Si2 0.538659 0.936709 0.177016
Si Si3 0.009534 0.865816 0.427304
Si Si4 0.967971 0.159728 0.117317
Si Si5 0.620777 0.450415 0.337044
Si Si6 0.637890 0.358686 0.779263
Si Si7 0.162949 0.111012 0.923549
Si Si8 0.476151 0.215157 0.286214
O O1 0.048256 0.479775 0.391686
O O2 0.241669 0.574463 0.329099
O O3 0.129213 0.919411 0.312472
O O4 0.200157 0.903091 0.070383
O O5 0.590376 0.722398 0.300523
O O6 0.422042 0.727909 0.278359
O O7 0.534943 0.219414 0.141285
O O8 0.602258 0.073279 0.984857
O O9 0.952183 0.984687 0.309293
O O10 0.000000 0.000000 0.500000
O O11 0.863377 0.029450 0.137026
O O12 0.000000 0.500000 0.000000
O O13 0.060849 0.133951 0.013195
O O14 0.745956 0.566359 0.240547
O O15 0.568955 0.397873 0.256704
O O16 0.575937 0.137382 0.537321
O O17 0.613941 0.641006 0.733527
#
# Coordination Sequence:
#
# PCOD8004478 Si02
#       8
#     2   2   2   2   2   2   2   2
#     4  10  21  40  62  87 120 164 207 254 314 377
#     4  10  20  38  59  85 127 161 202 260 309 365
#     4  10  22  40  62  90 124 156 203 261 313 374
#     4  10  22  39  62  91 123 157 204 264 311 377
#     4  10  21  39  61  86 123 168 209 253 313 376
#     4  10  21  37  59  89 119 161 210 254 309 370
#     4  10  21  40  62  87 121 165 211 251 316 379
#     4  10  22  37  58  93 127 159 211 262 305 370
#
# _framework density 21.650621999999998
#
# number of rings (size 3 to 8) (size 9 to 14) (size 15 to 20)
#    0.000    2.000    1.250    1.500    0.000    5.000 
#    4.500    0.000    0.000    0.000    0.000    0.000 
#    0.000    0.000    0.000    0.000    0.000    0.000 
#
# Total GULP energy -198221.316416 kJ/mol
# GULP energy per Si atom -12388.832276 kJ/mol
# Density = 2.160134 g / cm^3
# Si number density = 21.650622 Si / 1000 Ang^3
#
#
#
# Elastic Constant Matrix: (Units=GPa)
#
#
# Indices 1 2 3 4 5 6 
#
# 1 100.5322 41.9038 30.4525 5.1579 -4.2380 -2.6652
# 2 41.9038 122.5238 27.9733 7.7437 6.6486 -1.7737
# 3 30.4525 27.9733 62.0951 -4.3717 1.6730 11.9551
# 4 5.1579 7.7437 -4.3717 38.6527 1.3945 2.9483
# 5 -4.2380 6.6486 1.6730 1.3945 26.9533 -8.8967
# 6 -2.6652 -1.7737 11.9551 2.9483 -8.8967 33.3869
#
#
#
# Elastic Compliance Matrix: (Units=1/GPa)
#
#
# Indices 1 2 3 4 5 6 
#
# 1 0.013751 -0.003266 -0.006514 -0.002470 0.005095 0.004833
# 2 -0.003266 0.010306 -0.003309 -0.001993 -0.002416 0.001004
# 3 -0.006514 -0.003309 0.023432 0.005225 -0.005574 -0.011033
# 4 -0.002470 -0.001993 0.005225 0.027741 -0.003489 -0.005554
# 5 0.005095 -0.002416 -0.005574 -0.003489 0.043723 0.014234
# 6 0.004833 0.001004 -0.011033 -0.005554 0.014234 0.038625
#
#
# Mechanical properties :
#
#
# Convention : Reuss Voigt Hill
#
# Bulk Modulus (GPa) = 46.92653 53.97896 50.45274
# Shear Modulus (GPa) = 26.19716 32.12001 29.15858
#
# Velocity S-wave (km/s) = 3.48227 3.85588 3.67383
# Velocity P-wave (km/s) = 6.15547 6.69400 6.43038
#
# Compressibility (1/GPa) = 0.02130991
#
# Stress axis : x y z
#
# Youngs Moduli (GPa) = 72.72049 97.03210 42.67662
#
# Poissons Ratio (x) = 0.31693 0.27800
# Poissons Ratio (y) = 0.23752 0.14123
# Poissons Ratio (z) = 0.47370 0.32112
#
# Static dielectric constant tensor:
#      x y z
#    x 3.651040 0.373770 0.138510 
#    y 0.373770 3.620040 0.009150 
#    z 0.138510 0.009150 3.795250 
# 
# 
# High freq. dielectric constant tensor:
#      x y z
#    x 1.843650 -0.008870 0.005490 
#    y -0.008870 1.850620 -0.001310 
#    z 0.005490 -0.001310 1.845790 
# 
# From -- ./inp_files/441620.got.cif
#   From: 2010.06.25/outbox.cif.g09.slc.cpg/sg2_221_cif.got.tgz:441620.got - 2010.06.27 13:26:56.
