data_PCOD8004074
_publ_section_title
;
Structure prediction by ZEFSAII (Michael W. Deem and Ramdas Pophale) SiO2 
 PCOD8004074
Probable space group: P -1
;
_chemical_formula_sum "Si O2"
_cell_formula_units_Z 16
_cell_length_a 11.281295
_cell_length_b 9.523067
_cell_length_c 14.813966
_cell_angle_alpha 112.411970
_cell_angle_beta 71.425611
_cell_angle_gamma 51.683151
_cell_volume 743.361884
_symmetry_space_group_name_H-M "P -1"
_symmetry_group_IT_number 2
_symmetry_cell_setting 'triclinic'
loop_
_space_group_symop_operation_xyz
x,y,z
-x,-y,-z
loop_
_atom_site_type_symbol
_atom_site_label
_atom_site_fract_x
_atom_site_fract_y
_atom_site_fract_z
Si Si1 0.647679 0.421735 0.725035
Si Si2 0.798712 0.775142 0.675518
Si Si3 0.650126 0.034643 0.439721
Si Si4 0.921047 0.464063 0.164984
Si Si5 0.451807 0.946267 0.911733
Si Si6 0.859150 0.390451 0.339470
Si Si7 0.506589 0.744870 0.269081
Si Si8 0.889156 0.104102 0.406788
O O1 0.508304 0.713478 0.861034
O O2 0.471499 0.459726 0.781114
O O3 0.743794 0.337851 0.578633
O O4 0.852346 0.190198 0.691115
O O5 0.617467 0.831903 0.762923
O O6 0.000000 0.500000 0.500000
O O7 0.934184 0.705221 0.709876
O O8 0.665201 0.043632 0.719874
O O9 0.408350 0.275258 0.499389
O O10 0.602986 0.073897 0.567849
O O11 0.777745 0.060522 0.392012
O O12 0.814416 0.725781 0.298849
O O13 0.903512 0.338129 0.208205
O O14 0.759036 0.567988 0.147428
O O15 0.183388 0.231378 0.012825
O O16 0.500000 0.000000 0.000000
O O17 0.894714 0.198318 0.337812
#
# Coordination Sequence:
#
# PCOD8004074 Si02
#       8
#     2   2   2   2   2   2   2   2
#     4  10  22  39  61  92 128 167 210 267 316 371
#     4  12  23  39  67  96 124 164 219 259 305 384
#     4  10  21  38  65  95 130 165 207 265 318 370
#     4  11  23  42  61  91 134 169 204 258 327 377
#     4  12  26  42  63  94 133 170 206 262 329 375
#     4  11  20  37  61  95 124 164 214 257 309 377
#     4  10  22  41  65  94 124 169 217 261 311 373
#     4  10  20  37  63  93 126 159 218 264 311 368
#
# _framework density 21.523837
#
# number of rings (size 3 to 8) (size 9 to 14) (size 15 to 20)
#    0.000    1.250    2.500    4.875    3.500    1.000 
#    0.000    3.750    0.000    0.000    0.000    0.000 
#    0.000    0.000    0.000    0.000    0.000    0.000 
#
# Total GULP energy -198334.834400 kJ/mol
# GULP energy per Si atom -12395.927150 kJ/mol
# Density = 2.147485 g / cm^3
# Si number density = 21.523837 Si / 1000 Ang^3
#
#
#
# Elastic Constant Matrix: (Units=GPa)
#
#
# Indices 1 2 3 4 5 6 
#
# 1 143.9691 39.2074 64.1744 25.0501 -21.3017 3.9529
# 2 39.2074 99.4949 30.3857 9.2556 -5.0369 6.8346
# 3 64.1744 30.3857 93.0301 18.4662 -15.1823 8.3584
# 4 25.0501 9.2556 18.4662 25.8544 4.3779 -4.4338
# 5 -21.3017 -5.0369 -15.1823 4.3779 42.0584 5.4999
# 6 3.9529 6.8346 8.3584 -4.4338 5.4999 37.1133
#
#
#
# Elastic Compliance Matrix: (Units=1/GPa)
#
#
# Indices 1 2 3 4 5 6 
#
# 1 0.011984 -0.002060 -0.004932 -0.008488 0.005130 -0.001561
# 2 -0.002060 0.011690 -0.002082 -0.000955 -0.000091 -0.001565
# 3 -0.004932 -0.002082 0.017948 -0.009056 0.005329 -0.005005
# 4 -0.008488 -0.000955 -0.009056 0.058440 -0.015384 0.012381
# 5 0.005130 -0.000091 0.005329 -0.015384 0.030955 -0.008155
# 6 -0.001561 -0.001565 -0.005005 0.012381 -0.008155 0.031214
#
#
# Mechanical properties :
#
#
# Convention : Reuss Voigt Hill
#
# Bulk Modulus (GPa) = 42.59788 67.11436 54.85612
# Shear Modulus (GPa) = 26.56690 34.52034 30.54362
#
# Velocity S-wave (km/s) = 3.51707 4.00912 3.77113
# Velocity P-wave (km/s) = 6.02719 7.25808 6.67109
#
# Compressibility (1/GPa) = 0.02347535
#
# Stress axis : x y z
#
# Youngs Moduli (GPa) = 83.44471 85.54273 55.71542
#
# Poissons Ratio (x) = 0.17620 0.27478
# Poissons Ratio (y) = 0.17188 0.11599
# Poissons Ratio (z) = 0.41154 0.17809
#
# Static dielectric constant tensor:
#      x y z
#    x 4.493090 -0.046780 -0.287920 
#    y -0.046780 3.872950 0.099160 
#    z -0.287920 0.099160 3.593450 
# 
# 
# High freq. dielectric constant tensor:
#      x y z
#    x 1.867440 -0.001280 -0.020390 
#    y -0.001280 1.849720 0.011170 
#    z -0.020390 0.011170 1.808950 
# 
# From -- ./inp_files/209293.got.cif
#   From: 2010.06.25/outbox.cif.g09.slc.cpg/sg2_105_cif.got.tgz:209293.got - 2010.06.27 13:26:56.
