data_PCOD8004479
_publ_section_title
;
Structure prediction by ZEFSAII (Michael W. Deem and Ramdas Pophale) SiO2 
 PCOD8004479
Probable space group: P -1
;
_chemical_formula_sum "Si O2"
_cell_formula_units_Z 16
_cell_length_a 15.204605
_cell_length_b 8.198218
_cell_length_c 14.788605
_cell_angle_alpha 106.119687
_cell_angle_beta 137.742669
_cell_angle_gamma 105.865830
_cell_volume 799.325997
_symmetry_space_group_name_H-M "P -1"
_symmetry_group_IT_number 2
_symmetry_cell_setting 'triclinic'
loop_
_space_group_symop_operation_xyz
x,y,z
-x,-y,-z
loop_
_atom_site_type_symbol
_atom_site_label
_atom_site_fract_x
_atom_site_fract_y
_atom_site_fract_z
Si Si1 0.165905 0.560930 0.952392
Si Si2 0.873575 0.544590 0.678570
Si Si3 0.960703 0.710489 0.568142
Si Si4 0.702367 0.173152 0.228954
Si Si5 0.623832 0.004816 0.348278
Si Si6 0.968164 0.820135 0.075010
Si Si7 0.728447 0.704817 0.719084
Si Si8 0.930611 0.044634 0.634602
O O1 0.090512 0.426080 0.974151
O O2 0.082196 0.667174 0.886330
O O3 0.395807 0.783387 0.157060
O O4 0.083657 0.347996 0.780421
O O5 0.887974 0.629352 0.602373
O O6 0.813330 0.628805 0.716342
O O7 0.711737 0.240338 0.512147
O O8 0.813456 0.461097 0.355021
O O9 0.958040 0.908089 0.569081
O O10 0.177817 0.848860 0.741356
O O11 0.677025 0.079829 0.295913
O O12 0.500000 0.000000 0.000000
O O13 0.713331 0.911407 0.435563
O O14 0.781626 0.725450 0.868161
O O15 0.158685 0.014932 0.184456
O O16 0.028342 0.983693 0.236070
O O17 0.500000 0.500000 0.500000
#
# Coordination Sequence:
#
# PCOD8004479 Si02
#       8
#     2   2   2   2   2   2   2   2
#     4   9  20  37  59  81 119 152 193 232 284 348
#     4  10  20  38  59  86 113 158 194 232 299 343
#     4  10  20  39  62  80 121 156 186 248 288 340
#     4  10  22  38  58  92 117 149 200 240 286 343
#     4  10  21  37  61  88 116 157 195 235 287 354
#     4   9  22  39  58  85 116 151 192 240 289 343
#     4  11  23  39  61  87 118 147 201 247 283 343
#     4   9  20  39  60  83 115 156 196 228 298 342
#
# _framework density 20.016864999999999
#
# number of rings (size 3 to 8) (size 9 to 14) (size 15 to 20)
#    0.750    1.500    1.250    0.750    1.750    5.000 
#    4.500    2.500    0.000    0.000    0.000    0.000 
#    0.000    0.000    0.000    0.000    0.000    0.000 
#
# Total GULP energy -198248.314703 kJ/mol
# GULP energy per Si atom -12390.519669 kJ/mol
# Density = 1.997131 g / cm^3
# Si number density = 20.016865 Si / 1000 Ang^3
#
#
#
# Elastic Constant Matrix: (Units=GPa)
#
#
# Indices 1 2 3 4 5 6 
#
# 1 86.6473 32.0228 44.8667 -2.6463 12.2516 -20.7422
# 2 32.0228 47.9370 25.7715 3.7115 3.6470 -12.2101
# 3 44.8667 25.7715 164.1379 -1.9714 25.6638 -12.3014
# 4 -2.6463 3.7115 -1.9714 24.5426 8.7858 5.2395
# 5 12.2516 3.6470 25.6638 8.7858 27.6665 -7.5133
# 6 -20.7422 -12.2101 -12.3014 5.2395 -7.5133 24.3505
#
#
#
# Elastic Compliance Matrix: (Units=1/GPa)
#
#
# Indices 1 2 3 4 5 6 
#
# 1 0.018759 -0.008880 -0.002555 0.002428 -0.003165 0.008737
# 2 -0.008880 0.032017 -0.003406 -0.012430 0.010241 0.012604
# 3 -0.002555 -0.003406 0.008496 0.004741 -0.008701 -0.003297
# 4 0.002428 -0.012430 0.004741 0.058506 -0.028719 -0.023219
# 5 -0.003165 0.010241 -0.008701 -0.028719 0.059522 0.022588
# 6 0.008737 0.012604 -0.003297 -0.023219 0.022588 0.065130
#
#
# Mechanical properties :
#
#
# Convention : Reuss Voigt Hill
#
# Bulk Modulus (GPa) = 33.79306 56.00491 44.89899
# Shear Modulus (GPa) = 17.73219 28.38267 23.05743
#
# Velocity S-wave (km/s) = 2.97957 3.76964 3.39765
# Velocity P-wave (km/s) = 5.36247 6.85467 6.15396
#
# Compressibility (1/GPa) = 0.02959187
#
# Stress axis : x y z
#
# Youngs Moduli (GPa) = 53.30843 31.23324 117.70473
#
# Poissons Ratio (x) = 0.27734 0.30069
# Poissons Ratio (y) = 0.47336 0.40087
# Poissons Ratio (z) = 0.13618 0.10637
#
# Static dielectric constant tensor:
#      x y z
#    x 3.350450 0.005940 -0.032070 
#    y 0.005940 3.698080 -0.035400 
#    z -0.032070 -0.035400 3.617230 
# 
# 
# High freq. dielectric constant tensor:
#      x y z
#    x 1.758900 -0.002820 -0.007850 
#    y -0.002820 1.783080 -0.001490 
#    z -0.007850 -0.001490 1.786350 
# 
# From -- ./inp_files/528741.got.cif
#   From: 2010.06.25/outbox.cif.g09.slc.cpg/sg2_265_cif.got.tgz:528741.got - 2010.06.27 13:26:56.
