data_PCOD8004073
_publ_section_title
;
Structure prediction by ZEFSAII (Michael W. Deem and Ramdas Pophale) SiO2 
 PCOD8004073
Probable space group: P -1
;
_chemical_formula_sum "Si O2"
_cell_formula_units_Z 16
_cell_length_a 11.006100
_cell_length_b 15.120921
_cell_length_c 14.220189
_cell_angle_alpha 28.359507
_cell_angle_beta 134.774545
_cell_angle_gamma 117.424501
_cell_volume 703.443213
_symmetry_space_group_name_H-M "P -1"
_symmetry_group_IT_number 2
_symmetry_cell_setting 'triclinic'
loop_
_space_group_symop_operation_xyz
x,y,z
-x,-y,-z
loop_
_atom_site_type_symbol
_atom_site_label
_atom_site_fract_x
_atom_site_fract_y
_atom_site_fract_z
Si Si1 0.465101 0.737407 0.461132
Si Si2 0.522421 0.679585 0.174514
Si Si3 0.310900 0.920788 0.560495
Si Si4 0.266567 0.792713 0.106793
Si Si5 0.233229 0.122662 0.514719
Si Si6 0.976852 0.229984 0.447886
Si Si7 0.078499 0.536918 0.325928
Si Si8 0.702099 0.904712 0.814210
O O1 0.487185 0.508262 0.713697
O O2 0.680256 0.713541 0.590306
O O3 0.347147 0.898595 0.329165
O O4 0.348546 0.825385 0.219098
O O5 0.747250 0.627578 0.358768
O O6 0.441130 0.678820 0.234966
O O7 0.407101 0.898852 0.854038
O O8 0.242612 0.739523 0.694640
O O9 0.270816 0.034598 0.332933
O O10 0.177703 0.093439 0.405491
O O11 0.536205 0.830143 0.796941
O O12 0.159649 0.651789 0.192419
O O13 0.117036 0.021704 0.775131
O O14 0.043170 0.209050 0.394694
O O15 0.981283 0.428582 0.310840
O O16 0.907461 0.707444 0.139597
#
# Coordination Sequence:
#
# PCOD8004073 Si02
#       8
#     2   2   2   2   2   2   2   2
#     4  10  20  39  61  88 121 161 188 242 302 346
#     4  10  21  37  63  97 121 147 194 246 308 357
#     4  10  22  45  59  81 120 165 202 250 281 342
#     4  10  20  37  63  93 126 148 188 251 302 362
#     4  10  21  40  63  92 120 150 198 250 295 358
#     4  11  21  38  65  90 119 157 193 247 310 338
#     4  11  21  38  60  92 119 156 196 242 295 360
#     4  10  23  43  62  80 123 163 207 239 282 354
#
# _framework density 22.745262
#
# number of rings (size 3 to 8) (size 9 to 14) (size 15 to 20)
#    0.000    1.750    1.250    4.125    0.000    4.500 
#   11.250    3.750    0.000    0.000    0.000    0.000 
#    0.000    0.000    0.000    0.000    0.000    0.000 
#
# Total GULP energy -198399.295461 kJ/mol
# GULP energy per Si atom -12399.955966 kJ/mol
# Density = 2.269349 g / cm^3
# Si number density = 22.745262 Si / 1000 Ang^3
#
#
#
# Elastic Constant Matrix: (Units=GPa)
#
#
# Indices 1 2 3 4 5 6 
#
# 1 93.4587 48.2763 6.9216 0.4005 12.7434 7.3288
# 2 48.2763 140.1236 8.9845 -5.9158 2.1521 10.2852
# 3 6.9216 8.9845 40.0176 -8.5471 22.2911 -5.7471
# 4 0.4005 -5.9158 -8.5471 24.6151 -0.2295 1.3305
# 5 12.7434 2.1521 22.2911 -0.2295 30.7889 6.4184
# 6 7.3288 10.2852 -5.7471 1.3305 6.4184 38.9444
#
#
#
# Elastic Compliance Matrix: (Units=1/GPa)
#
#
# Indices 1 2 3 4 5 6 
#
# 1 0.014065 -0.004961 0.002879 -0.000512 -0.007639 0.000365
# 2 -0.004961 0.009313 -0.004347 0.001023 0.005195 -0.003058
# 3 0.002879 -0.004347 0.056403 0.017224 -0.044876 0.015737
# 4 -0.000512 0.001023 0.017224 0.046589 -0.012577 0.002849
# 5 -0.007639 0.005195 -0.044876 -0.012577 0.071405 -0.017896
# 6 0.000365 -0.003058 0.015737 0.002849 -0.017896 0.031591
#
#
# Mechanical properties :
#
#
# Convention : Reuss Voigt Hill
#
# Bulk Modulus (GPa) = 14.94273 44.66274 29.80274
# Shear Modulus (GPa) = 18.90133 32.83084 25.86608
#
# Velocity S-wave (km/s) = 2.88584 3.80335 3.37591
# Velocity P-wave (km/s) = 4.20570 6.24228 5.32231
#
# Compressibility (1/GPa) = 0.06692217
#
# Stress axis : x y z
#
# Youngs Moduli (GPa) = 71.10010 107.38233 17.72945
#
# Poissons Ratio (x) = 0.53276 -0.05105
# Poissons Ratio (y) = 0.35275 0.07707
# Poissons Ratio (z) = -0.20473 0.46682
#
# Static dielectric constant tensor:
#      x y z
#    x 4.366850 0.118690 0.108110 
#    y 0.118690 4.209940 0.051400 
#    z 0.108110 0.051400 3.869040 
# 
# 
# High freq. dielectric constant tensor:
#      x y z
#    x 1.905770 0.006350 0.003430 
#    y 0.006350 1.906060 0.002190 
#    z 0.003430 0.002190 1.876960 
# 
# From -- ./inp_files/521510.got.cif
#   From: 2010.06.25/outbox.cif.g09.slc.cpg/sg2_261_cif.got.tgz:521510.got - 2010.06.27 13:26:56.
