data_PCOD8004281
_publ_section_title
;
Structure prediction by ZEFSAII (Michael W. Deem and Ramdas Pophale) SiO2 
 PCOD8004281
Probable space group: P -1
;
_chemical_formula_sum "Si O2"
_cell_formula_units_Z 16
_cell_length_a 16.995952
_cell_length_b 11.825399
_cell_length_c 8.885390
_cell_angle_alpha 50.138403
_cell_angle_beta 66.034581
_cell_angle_gamma 32.276116
_cell_volume 690.712559
_symmetry_space_group_name_H-M "P -1"
_symmetry_group_IT_number 2
_symmetry_cell_setting 'triclinic'
loop_
_space_group_symop_operation_xyz
x,y,z
-x,-y,-z
loop_
_atom_site_type_symbol
_atom_site_label
_atom_site_fract_x
_atom_site_fract_y
_atom_site_fract_z
Si Si1 0.937278 0.945454 0.767701
Si Si2 0.075981 0.518874 0.830838
Si Si3 0.529268 0.843404 0.884285
Si Si4 0.798369 0.237055 0.173573
Si Si5 0.325293 0.758728 0.463072
Si Si6 0.946030 0.805441 0.204067
Si Si7 0.378621 0.010298 0.160271
Si Si8 0.804580 0.705400 0.386720
O O1 0.984139 0.798612 0.699283
O O2 0.046427 0.930472 0.715259
O O3 0.756568 0.223857 0.622066
O O4 0.950142 0.822387 0.007599
O O5 0.078306 0.483530 0.683362
O O6 0.251762 0.297314 0.937134
O O7 0.000000 0.500000 0.000000
O O8 0.556909 0.981437 0.759143
O O9 0.379784 0.044480 0.717609
O O10 0.680377 0.539339 0.960560
O O11 0.503646 0.806548 0.101720
O O12 0.706279 0.253518 0.334386
O O13 0.866785 0.063208 0.118896
O O14 0.500000 0.500000 0.500000
O O15 0.292918 0.981902 0.301785
O O16 0.835368 0.826756 0.317333
O O17 0.126878 0.514207 0.361988
#
# Coordination Sequence:
#
# PCOD8004281 Si02
#       8
#     2   2   2   2   2   2   2   2
#     4  12  24  44  68  98 137 183 224 285 336 404
#     4  11  18  36  73  94 122 167 233 276 334 382
#     4  10  21  41  67 100 138 170 224 284 346 397
#     4  12  26  43  70 106 139 181 225 284 345 412
#     4  12  25  42  69 104 135 173 231 284 345 402
#     4  11  25  44  68  94 144 186 233 268 344 416
#     4  10  20  37  66  99 134 169 216 285 345 397
#     4  10  23  42  68 102 130 184 232 283 333 413
#
# _framework density 23.164484000000002
#
# number of rings (size 3 to 8) (size 9 to 14) (size 15 to 20)
#    0.000    1.000    5.000    2.250    0.000    1.500 
#    0.000    0.625    0.000    0.000    0.000    0.000 
#    0.000    0.000    0.000    0.000    0.000    0.000 
#
# Total GULP energy -198242.412514 kJ/mol
# GULP energy per Si atom -12390.150782 kJ/mol
# Density = 2.311176 g / cm^3
# Si number density = 23.164484 Si / 1000 Ang^3
#
#
#
# Elastic Constant Matrix: (Units=GPa)
#
#
# Indices 1 2 3 4 5 6 
#
# 1 130.7339 42.6473 16.0513 -15.9684 8.9757 -7.7655
# 2 42.6473 85.3908 23.2831 -19.9368 2.6432 1.9416
# 3 16.0513 23.2831 70.5932 -4.2350 7.6534 -8.7644
# 4 -15.9684 -19.9368 -4.2350 30.7523 -10.2649 -0.1759
# 5 8.9757 2.6432 7.6534 -10.2649 33.8427 -5.6538
# 6 -7.7655 1.9416 -8.7644 -0.1759 -5.6538 40.9331
#
#
#
# Elastic Compliance Matrix: (Units=1/GPa)
#
#
# Indices 1 2 3 4 5 6 
#
# 1 0.009475 -0.004258 -0.000288 0.001694 -0.001307 0.001765
# 2 -0.004258 0.017299 -0.004803 0.009457 0.003373 -0.002150
# 3 -0.000288 -0.004803 0.016454 -0.002103 -0.003369 0.003222
# 4 0.001694 0.009457 -0.002103 0.043487 0.012706 0.001364
# 5 -0.001307 0.003373 -0.003369 0.012706 0.034873 0.003742
# 6 0.001765 -0.002150 0.003222 0.001364 0.003742 0.026079
#
#
# Mechanical properties :
#
#
# Convention : Reuss Voigt Hill
#
# Bulk Modulus (GPa) = 40.76369 50.07570 45.41969
# Shear Modulus (GPa) = 28.64642 34.75472 31.70057
#
# Velocity S-wave (km/s) = 3.52042 3.87763 3.70334
# Velocity P-wave (km/s) = 5.84467 6.45851 6.15924
#
# Compressibility (1/GPa) = 0.02453164
#
# Stress axis : x y z
#
# Youngs Moduli (GPa) = 105.54267 57.80572 60.77443
#
# Poissons Ratio (x) = 0.24613 0.01748
# Poissons Ratio (y) = 0.44939 0.29189
# Poissons Ratio (z) = 0.03036 0.27763
#
# Static dielectric constant tensor:
#      x y z
#    x 1.811670 -1.424290 1.995450 
#    y -1.424290 4.090490 0.283220 
#    z 1.995450 0.283220 3.250310 
# 
# 
# High freq. dielectric constant tensor:
#      x y z
#    x 1.924300 -0.010760 -0.000750 
#    y -0.010760 1.914520 -0.010580 
#    z -0.000750 -0.010580 1.900300 
# 
# From -- ./inp_files/332864.got.cif
#   From: 2010.06.25/outbox.cif.g09.slc.cpg/sg2_167_cif.got.tgz:332864.got - 2010.06.27 13:26:56.
