data_PCOD8004820
_publ_section_title
;
Structure prediction by ZEFSAII (Michael W. Deem and Ramdas Pophale) SiO2 
 PCOD8004820
Probable space group: P -1
;
_chemical_formula_sum "Si O2"
_cell_formula_units_Z 16
_cell_length_a 7.896775
_cell_length_b 14.225734
_cell_length_c 18.758868
_cell_angle_alpha 30.114552
_cell_angle_beta 108.002510
_cell_angle_gamma 125.885151
_cell_volume 748.152590
_symmetry_space_group_name_H-M "P -1"
_symmetry_group_IT_number 2
_symmetry_cell_setting 'triclinic'
loop_
_space_group_symop_operation_xyz
x,y,z
-x,-y,-z
loop_
_atom_site_type_symbol
_atom_site_label
_atom_site_fract_x
_atom_site_fract_y
_atom_site_fract_z
Si Si1 0.640071 0.496080 0.194560
Si Si2 0.104364 0.662892 0.737342
Si Si3 0.813357 0.023450 0.893042
Si Si4 0.110313 0.022003 0.424578
Si Si5 0.690125 0.159026 0.071421
Si Si6 0.660613 0.521732 0.343380
Si Si7 0.261072 0.989171 0.678931
Si Si8 0.655442 0.927043 0.086430
O O1 0.794465 0.466966 0.185001
O O2 0.367698 0.292337 0.265805
O O3 0.644229 0.438813 0.314878
O O4 0.744881 0.776368 0.012422
O O5 0.257810 0.861008 0.691345
O O6 0.115597 0.798601 0.577791
O O7 0.831754 0.443281 0.875120
O O8 0.063341 0.270458 0.730223
O O9 0.595230 0.008661 0.855628
O O10 0.853283 0.045239 0.970968
O O11 0.937062 0.983992 0.366319
O O12 0.000000 0.000000 0.500000
O O13 0.783858 0.172864 0.152590
O O14 0.757776 0.035626 0.107309
O O15 0.528684 0.633333 0.261684
O O16 0.520188 0.270435 0.536837
O O17 0.500000 0.000000 0.000000
#
# Coordination Sequence:
#
# PCOD8004820 Si02
#       8
#     2   2   2   2   2   2   2   2
#     4  11  20  39  66  94 119 151 211 261 293 353
#     4  11  22  39  66  90 120 162 210 246 300 366
#     4  10  21  38  64  91 116 162 204 258 297 357
#     4  10  20  38  62  91 119 157 199 249 304 357
#     4  11  23  42  62  87 125 164 206 250 304 361
#     4  11  21  38  60  91 126 154 204 253 308 353
#     4  11  25  40  59  91 130 162 195 255 310 363
#     4   9  20  37  62  88 112 157 208 247 295 358
#
# _framework density 21.386012000000001
#
# number of rings (size 3 to 8) (size 9 to 14) (size 15 to 20)
#    0.000    1.500    2.500    5.250    3.500    1.000 
#    0.000    3.750    0.000    0.000    0.000    0.000 
#    0.000    0.000    0.000    0.000    0.000    0.000 
#
# Total GULP energy -198282.749342 kJ/mol
# GULP energy per Si atom -12392.671834 kJ/mol
# Density = 2.133734 g / cm^3
# Si number density = 21.386012 Si / 1000 Ang^3
#
#
#
# Elastic Constant Matrix: (Units=GPa)
#
#
# Indices 1 2 3 4 5 6 
#
# 1 112.1609 41.2821 45.6201 -15.3622 1.7408 -1.8104
# 2 41.2821 83.5625 45.3567 -1.3951 9.9163 3.7219
# 3 45.6201 45.3567 108.7390 -25.9451 -6.4526 9.7758
# 4 -15.3622 -1.3951 -25.9451 29.3391 9.5941 1.0453
# 5 1.7408 9.9163 -6.4526 9.5941 30.3652 -15.6599
# 6 -1.8104 3.7219 9.7758 1.0453 -15.6599 33.8886
#
#
#
# Elastic Compliance Matrix: (Units=1/GPa)
#
#
# Indices 1 2 3 4 5 6 
#
# 1 0.012198 -0.004776 -0.002310 0.004071 -0.000041 0.001698
# 2 -0.004776 0.019428 -0.007571 -0.005598 -0.007782 -0.003628
# 3 -0.002310 -0.007571 0.017051 0.013930 -0.000743 -0.004983
# 4 0.004071 -0.005598 0.013930 0.055423 -0.020325 -0.014288
# 5 -0.000041 -0.007782 -0.000743 -0.020325 0.055946 0.027546
# 6 0.001698 -0.003628 -0.004983 -0.014288 0.027546 0.044605
#
#
# Mechanical properties :
#
#
# Convention : Reuss Voigt Hill
#
# Bulk Modulus (GPa) = 51.64220 63.22004 57.43112
# Shear Modulus (GPa) = 20.79703 30.19880 25.49792
#
# Velocity S-wave (km/s) = 3.12181 3.76184 3.45667
# Velocity P-wave (km/s) = 6.09872 6.96378 6.54555
#
# Compressibility (1/GPa) = 0.01936401
#
# Stress axis : x y z
#
# Youngs Moduli (GPa) = 81.97775 51.47325 58.64770
#
# Poissons Ratio (x) = 0.24581 0.13545
# Poissons Ratio (y) = 0.39149 0.44404
# Poissons Ratio (z) = 0.18933 0.38972
#
# Static dielectric constant tensor:
#      x y z
#    x 4.086850 -0.059150 0.202570 
#    y -0.059150 3.786950 -0.190310 
#    z 0.202570 -0.190310 4.137670 
# 
# 
# High freq. dielectric constant tensor:
#      x y z
#    x 1.842880 -0.000480 0.001340 
#    y -0.000480 1.810560 -0.028670 
#    z 0.001340 -0.028670 1.833980 
# 
# From -- ./inp_files/590237.got.cif
#   From: 2010.06.25/outbox.cif.g09.slc.cpg/sg2_296_cif.got.tgz:590237.got - 2010.06.27 13:26:56.
