data_PCOD8004497
_publ_section_title
;
Structure prediction by ZEFSAII (Michael W. Deem and Ramdas Pophale) SiO2 
 PCOD8004497
Probable space group: P -1
;
_chemical_formula_sum "Si O2"
_cell_formula_units_Z 16
_cell_length_a 8.557527
_cell_length_b 11.282806
_cell_length_c 16.070963
_cell_angle_alpha 120.597521
_cell_angle_beta 142.831888
_cell_angle_gamma 77.268251
_cell_volume 754.019914
_symmetry_space_group_name_H-M "P -1"
_symmetry_group_IT_number 2
_symmetry_cell_setting 'triclinic'
loop_
_space_group_symop_operation_xyz
x,y,z
-x,-y,-z
loop_
_atom_site_type_symbol
_atom_site_label
_atom_site_fract_x
_atom_site_fract_y
_atom_site_fract_z
Si Si1 0.082651 0.694707 0.444687
Si Si2 0.644682 0.579852 0.347802
Si Si3 0.464299 0.724119 0.897153
Si Si4 0.130644 0.653991 0.153075
Si Si5 0.141314 0.400111 0.376612
Si Si6 0.293361 0.185910 0.253596
Si Si7 0.060244 0.126001 0.953811
Si Si8 0.741728 0.651673 0.133108
O O1 0.085564 0.535927 0.358134
O O2 0.394493 0.810833 0.626377
O O3 0.937703 0.680088 0.467893
O O4 0.892922 0.737883 0.311323
O O5 0.514093 0.428971 0.185295
O O6 0.455711 0.680317 0.308234
O O7 0.689842 0.535757 0.444912
O O8 0.155011 0.724460 0.769838
O O9 0.653404 0.856332 0.966131
O O10 0.593946 0.746718 0.053270
O O11 0.099666 0.783148 0.129278
O O12 0.990841 0.638992 0.178459
O O13 0.000000 0.500000 0.000000
O O14 0.308690 0.333001 0.361999
O O15 0.131571 0.183318 0.098603
O O16 0.133696 0.044185 0.190748
O O17 0.500000 0.500000 0.000000
#
# Coordination Sequence:
#
# PCOD8004497 Si02
#       8
#     2   2   2   2   2   2   2   2
#     4  11  22  36  60  87 128 149 198 252 292 345
#     4  11  20  37  58  92 117 152 197 250 300 344
#     4  10  20  38  59  88 121 154 194 248 299 345
#     4  11  21  35  63  87 114 154 199 243 295 355
#     4  11  22  34  61  88 117 155 201 247 295 347
#     4  11  24  40  59  88 120 162 199 241 292 357
#     4  10  23  42  61  83 123 159 197 241 299 351
#     4  11  19  35  56  94 120 149 193 249 301 336
#
# _framework density 21.219597
#
# number of rings (size 3 to 8) (size 9 to 14) (size 15 to 20)
#    0.000    1.250    5.000    4.125    1.750    1.500 
#    0.000    6.250    0.000    0.000    0.000    0.000 
#    0.000    0.000    0.000    0.000    0.000    0.000 
#
# Total GULP energy -198374.408495 kJ/mol
# GULP energy per Si atom -12398.400531 kJ/mol
# Density = 2.117130 g / cm^3
# Si number density = 21.219597 Si / 1000 Ang^3
#
#
#
# Elastic Constant Matrix: (Units=GPa)
#
#
# Indices 1 2 3 4 5 6 
#
# 1 81.4968 16.4353 14.1185 -1.7273 18.2786 13.6650
# 2 16.4353 63.4530 16.3280 -7.4757 3.2075 19.0155
# 3 14.1185 16.3280 73.6785 -12.9562 8.4699 5.6729
# 4 -1.7273 -7.4757 -12.9562 31.6080 9.3258 5.9728
# 5 18.2786 3.2075 8.4699 9.3258 47.8768 -0.8793
# 6 13.6650 19.0155 5.6729 5.9728 -0.8793 32.2556
#
#
#
# Elastic Compliance Matrix: (Units=1/GPa)
#
#
# Indices 1 2 3 4 5 6 
#
# 1 0.015211 -0.001074 -0.000869 0.003311 -0.006345 -0.006444
# 2 -0.001074 0.021540 -0.001954 0.007461 -0.002386 -0.013346
# 3 -0.000869 -0.001954 0.016240 0.007875 -0.003998 -0.002903
# 4 0.003311 0.007461 0.007875 0.043244 -0.011865 -0.015517
# 5 -0.006345 -0.002386 -0.003998 -0.011865 0.026629 0.007721
# 6 -0.006444 -0.013346 -0.002903 -0.015517 0.007721 0.045194
#
#
# Mechanical properties :
#
#
# Convention : Reuss Voigt Hill
#
# Bulk Modulus (GPa) = 22.12557 34.71023 28.41790
# Shear Modulus (GPa) = 26.18906 33.79785 29.99345
#
# Velocity S-wave (km/s) = 3.51692 3.99528 3.76370
# Velocity P-wave (km/s) = 5.19049 6.13809 5.68407
#
# Compressibility (1/GPa) = 0.04519657
#
# Stress axis : x y z
#
# Youngs Moduli (GPa) = 65.74008 46.42570 61.57637
#
# Poissons Ratio (x) = 0.04988 0.05351
# Poissons Ratio (y) = 0.07064 0.12031
# Poissons Ratio (z) = 0.05713 0.09071
#
# Static dielectric constant tensor:
#      x y z
#    x 4.284400 -0.041500 0.464000 
#    y -0.041500 3.740400 -0.409100 
#    z 0.464000 -0.409100 3.944310 
# 
# 
# High freq. dielectric constant tensor:
#      x y z
#    x 1.842230 0.027460 0.020070 
#    y 0.027460 1.797580 -0.027540 
#    z 0.020070 -0.027540 1.831020 
# 
# From -- ./inp_files/399067.got.cif
#   From: 2010.06.25/outbox.cif.g09.slc.cpg/sg2_200_cif.got.tgz:399067.got - 2010.06.27 13:26:56.
