data_PCOD8004009
_publ_section_title
;
Structure prediction by ZEFSAII (Michael W. Deem and Ramdas Pophale) SiO2 
 PCOD8004009
Probable space group: P -1
;
_chemical_formula_sum "Si O2"
_cell_formula_units_Z 16
_cell_length_a 9.526605
_cell_length_b 14.476735
_cell_length_c 11.380025
_cell_angle_alpha 78.988903
_cell_angle_beta 107.775440
_cell_angle_gamma 148.174055
_cell_volume 780.788789
_symmetry_space_group_name_H-M "P -1"
_symmetry_group_IT_number 2
_symmetry_cell_setting 'triclinic'
loop_
_space_group_symop_operation_xyz
x,y,z
-x,-y,-z
loop_
_atom_site_type_symbol
_atom_site_label
_atom_site_fract_x
_atom_site_fract_y
_atom_site_fract_z
Si Si1 0.991479 0.537210 0.662333
Si Si2 0.407806 0.057117 0.948332
Si Si3 0.455207 0.191404 0.160291
Si Si4 0.787627 0.740487 0.913437
Si Si5 0.374238 0.365906 0.842449
Si Si6 0.815044 0.088046 0.665939
Si Si7 0.253225 0.606923 0.122242
Si Si8 0.704640 0.226214 0.525822
O O1 0.845019 0.493482 0.754949
O O2 0.773042 0.359607 0.575422
O O3 0.258565 0.620958 0.751558
O O4 0.115475 0.685570 0.571877
O O5 0.565510 0.199426 0.849122
O O6 0.511104 0.183392 0.046902
O O7 0.079979 0.878252 0.893570
O O8 0.500000 0.000000 0.000000
O O9 0.251530 0.169045 0.123632
O O10 0.314461 0.025328 0.223305
O O11 0.564185 0.560838 0.824923
O O12 0.785441 0.706996 0.056637
O O13 0.559641 0.372552 0.895619
O O14 0.142055 0.236598 0.710500
O O15 0.787866 0.185978 0.641640
O O16 0.628235 0.952321 0.540442
O O17 0.000000 0.500000 0.000000
#
# Coordination Sequence:
#
# PCOD8004009 Si02
#       8
#     2   2   2   2   2   2   2   2
#     4  10  21  39  63  87 121 157 208 252 307 348
#     4  12  24  35  54  92 132 161 189 239 305 374
#     4  11  20  37  62  88 126 159 197 249 300 375
#     4  11  22  38  57  89 128 165 203 237 303 385
#     4  11  22  37  62  87 121 168 204 247 303 366
#     4  10  20  37  63  87 112 151 216 252 297 343
#     4  12  23  39  60  94 129 158 194 249 314 372
#     4   9  21  40  62  88 111 162 211 264 287 354
#
# _framework density 20.492096
#
# number of rings (size 3 to 8) (size 9 to 14) (size 15 to 20)
#    0.000    1.250    3.750    2.625    1.750    2.000 
#    0.000    1.250    0.000    0.000    0.000    0.000 
#    0.000    0.000    0.000    0.000    0.000    0.000 
#
# Total GULP energy -198255.755678 kJ/mol
# GULP energy per Si atom -12390.984730 kJ/mol
# Density = 2.044546 g / cm^3
# Si number density = 20.492096 Si / 1000 Ang^3
#
#
#
# Elastic Constant Matrix: (Units=GPa)
#
#
# Indices 1 2 3 4 5 6 
#
# 1 93.9942 39.2658 25.1030 8.2738 19.4522 -3.3033
# 2 39.2658 131.0620 43.7895 14.3761 10.8068 -0.9497
# 3 25.1030 43.7895 70.2203 15.7438 11.9947 1.7155
# 4 8.2738 14.3761 15.7438 45.4973 3.6253 6.7058
# 5 19.4522 10.8068 11.9947 3.6253 27.8414 -0.7197
# 6 -3.3033 -0.9497 1.7155 6.7058 -0.7197 34.5666
#
#
#
# Elastic Compliance Matrix: (Units=1/GPa)
#
#
# Indices 1 2 3 4 5 6 
#
# 1 0.014036 -0.002892 -0.001779 -0.000593 -0.007807 0.001303
# 2 -0.002892 0.010337 -0.005267 -0.001022 0.000423 0.000476
# 3 -0.001779 -0.005267 0.019989 -0.004471 -0.004756 -0.000539
# 4 -0.000593 -0.001022 -0.004471 0.024692 -0.000599 -0.004666
# 5 -0.007807 0.000423 -0.004756 -0.000599 0.043348 0.000520
# 6 0.001303 0.000476 -0.000539 -0.004666 0.000520 0.030010
#
#
# Mechanical properties :
#
#
# Convention : Reuss Voigt Hill
#
# Bulk Modulus (GPa) = 40.84182 56.84370 48.84276
# Shear Modulus (GPa) = 29.33371 34.05560 31.69465
#
# Velocity S-wave (km/s) = 3.78757 4.08105 3.93705
# Velocity P-wave (km/s) = 6.25311 7.07150 6.67486
#
# Compressibility (1/GPa) = 0.02448471
#
# Stress axis : x y z
#
# Youngs Moduli (GPa) = 71.24520 96.74055 50.02633
#
# Poissons Ratio (x) = 0.27982 0.08902
# Poissons Ratio (y) = 0.20607 0.26349
# Poissons Ratio (z) = 0.12678 0.50953
#
# Static dielectric constant tensor:
#      x y z
#    x 3.328610 -0.021080 0.123330 
#    y -0.021080 4.167720 0.005260 
#    z 0.123330 0.005260 3.748660 
# 
# 
# High freq. dielectric constant tensor:
#      x y z
#    x 1.765030 -0.008810 0.016600 
#    y -0.008810 1.834270 0.006780 
#    z 0.016600 0.006780 1.786480 
# 
# From -- ./inp_files/214563.got.cif
#   From: 2010.06.25/outbox.cif.g09.slc.cpg/sg2_108_cif.got.tgz:214563.got - 2010.06.27 13:26:56.
