data_PCOD8004974
_publ_section_title
;
Structure prediction by ZEFSAII (Michael W. Deem and Ramdas Pophale) SiO2 
 PCOD8004974
Probable space group: P -1
;
_chemical_formula_sum "Si O2"
_cell_formula_units_Z 14
_cell_length_a 7.171142
_cell_length_b 14.874130
_cell_length_c 12.634112
_cell_angle_alpha 33.699244
_cell_angle_beta 113.386402
_cell_angle_gamma 117.913173
_cell_volume 660.634394
_symmetry_space_group_name_H-M "P -1"
_symmetry_group_IT_number 2
_symmetry_cell_setting 'triclinic'
loop_
_space_group_symop_operation_xyz
x,y,z
-x,-y,-z
loop_
_atom_site_type_symbol
_atom_site_label
_atom_site_fract_x
_atom_site_fract_y
_atom_site_fract_z
Si Si1 0.938877 0.149564 0.228184
Si Si2 0.503759 0.744107 0.197919
Si Si3 0.749041 0.052676 0.492194
Si Si4 0.966212 0.388458 0.820184
Si Si5 0.815598 0.233916 0.540759
Si Si6 0.445944 0.067876 0.759435
Si Si7 0.914783 0.666685 0.309863
O O1 0.817033 0.171118 0.288080
O O2 0.793559 0.004211 0.263241
O O3 0.994240 0.324816 0.006210
O O4 0.158879 0.108198 0.345882
O O5 0.276028 0.612503 0.255898
O O6 0.537351 0.796404 0.276968
O O7 0.667239 0.639908 0.301289
O O8 0.533587 0.911882 0.969668
O O9 0.858204 0.143043 0.533770
O O10 0.500000 0.000000 0.500000
O O11 0.129024 0.569993 0.667646
O O12 0.028281 0.267302 0.862378
O O13 0.574824 0.162427 0.594727
O O14 0.960058 0.201206 0.703339
O O15 0.000000 0.500000 0.500000
#
# Coordination Sequence:
#
# PCOD8004974 Si02
#       7
#     2   2   2   2   2   2   2
#     4  10  23  42  64  89 117 160 207 253 304 366
#     4  10  21  38  62  90 129 166 199 251 297 374
#     4  11  23  42  66  86 117 159 208 259 303 358
#     4  10  23  41  59  93 127 157 204 245 312 366
#     4  11  22  39  60  91 125 157 203 253 303 362
#     4  10  20  38  63  95 121 160 210 246 311 359
#     4  10  22  38  58  92 130 164 198 242 306 366
#
# _framework density 21.191752999999999
#
# number of rings (size 3 to 8) (size 9 to 14) (size 15 to 20)
#    0.000    1.714    2.857    0.857    2.000    3.429 
#    5.143    0.714    0.000    0.000    0.000    0.000 
#    0.000    0.000    0.000    0.000    0.000    0.000 
#
# Total GULP energy -173536.562263 kJ/mol
# GULP energy per Si atom -12395.468733 kJ/mol
# Density = 2.114352 g / cm^3
# Si number density = 21.191753 Si / 1000 Ang^3
#
#
#
# Elastic Constant Matrix: (Units=GPa)
#
#
# Indices 1 2 3 4 5 6 
#
# 1 131.6509 23.3029 52.6308 5.1739 -4.5216 -12.5929
# 2 23.3029 65.8227 22.2158 13.5640 -9.8581 -14.0897
# 3 52.6308 22.2158 99.0370 8.4664 -28.2352 -10.6127
# 4 5.1739 13.5640 8.4664 35.4831 -2.4200 -13.5495
# 5 -4.5216 -9.8581 -28.2352 -2.4200 34.1150 4.6973
# 6 -12.5929 -14.0897 -10.6127 -13.5495 4.6973 31.3295
#
#
#
# Elastic Compliance Matrix: (Units=1/GPa)
#
#
# Indices 1 2 3 4 5 6 
#
# 1 0.010498 -0.002044 -0.006302 0.001376 -0.004656 0.002459
# 2 -0.002044 0.018783 -0.001359 -0.004538 0.003057 0.004745
# 3 -0.006302 -0.001359 0.017704 -0.001858 0.013285 0.000057
# 4 0.001376 -0.004538 -0.001858 0.035131 -0.002016 0.013379
# 5 -0.004656 0.003057 0.013285 -0.002016 0.040843 -0.002993
# 6 0.002459 0.004745 0.000057 0.013379 -0.002993 0.041295
#
#
# Mechanical properties :
#
#
# Convention : Reuss Voigt Hill
#
# Bulk Modulus (GPa) = 36.26613 54.75661 45.51137
# Shear Modulus (GPa) = 25.92600 33.40958 29.66779
#
# Velocity S-wave (km/s) = 3.50151 3.97487 3.74567
# Velocity P-wave (km/s) = 5.78774 6.85280 6.34266
#
# Compressibility (1/GPa) = 0.02757394
#
# Stress axis : x y z
#
# Youngs Moduli (GPa) = 95.25337 53.23896 56.48551
#
# Poissons Ratio (x) = 0.10883 0.35598
# Poissons Ratio (y) = 0.19471 0.07678
# Poissons Ratio (z) = 0.60030 0.07237
#
# Static dielectric constant tensor:
#      x y z
#    x 3.820480 -0.150680 -0.342670 
#    y -0.150680 4.041020 0.483010 
#    z -0.342670 0.483010 3.878760 
# 
# 
# High freq. dielectric constant tensor:
#      x y z
#    x 1.833120 0.000770 -0.023430 
#    y 0.000770 1.819560 0.023380 
#    z -0.023430 0.023380 1.822620 
# 
# From -- ./inp_files/119246.got.cif
#   From: 2010.06.25/outbox.cif.g09.slc.cpg/sg2_60_cif.got.tgz:119246.got - 2010.06.27 13:26:56.
