data_PCOD8004291
_publ_section_title
;
Structure prediction by ZEFSAII (Michael W. Deem and Ramdas Pophale) SiO2 
 PCOD8004291
Probable space group: P -1
;
_chemical_formula_sum "Si O2"
_cell_formula_units_Z 16
_cell_length_a 12.212308
_cell_length_b 9.254296
_cell_length_c 14.939476
_cell_angle_alpha 36.589473
_cell_angle_beta 72.416522
_cell_angle_gamma 55.603523
_cell_volume 790.073891
_symmetry_space_group_name_H-M "P -1"
_symmetry_group_IT_number 2
_symmetry_cell_setting 'triclinic'
loop_
_space_group_symop_operation_xyz
x,y,z
-x,-y,-z
loop_
_atom_site_type_symbol
_atom_site_label
_atom_site_fract_x
_atom_site_fract_y
_atom_site_fract_z
Si Si1 0.577266 0.038072 0.242418
Si Si2 0.404093 0.488051 0.799139
Si Si3 0.650731 0.904578 0.474548
Si Si4 0.875144 0.336737 0.804729
Si Si5 0.522907 0.276699 0.683273
Si Si6 0.362837 0.653601 0.058635
Si Si7 0.780152 0.707273 0.972644
Si Si8 0.989217 0.265938 0.997283
O O1 0.434675 0.312136 0.185177
O O2 0.663258 0.806087 0.416565
O O3 0.545493 0.890344 0.246471
O O4 0.661400 0.160982 0.117230
O O5 0.440791 0.454390 0.702725
O O6 0.544643 0.305882 0.913610
O O7 0.326864 0.833948 0.662877
O O8 0.309335 0.372939 0.905891
O O9 0.779524 0.641363 0.626302
O O10 0.500000 0.000000 0.500000
O O11 0.785755 0.222454 0.924654
O O12 0.952218 0.381331 0.845604
O O13 0.975271 0.067057 0.845984
O O14 0.500000 0.500000 0.500000
O O15 0.684885 0.029400 0.789529
O O16 0.857551 0.465039 0.995792
O O17 0.885519 0.713956 0.010448
#
# Coordination Sequence:
#
# PCOD8004291 Si02
#       8
#     2   2   2   2   2   2   2   2
#     4  10  21  34  56 104 121 157 187 252 352 353
#     4  11  23  39  65 101 124 169 197 269 336 369
#     4  11  22  38  65 100 128 154 200 277 333 362
#     4  11  22  43  69  89 127 160 235 245 311 381
#     4  12  25  36  67 102 131 157 197 272 340 369
#     4  10  20  37  67  92 126 156 204 270 316 379
#     4  11  24  46  64  88 138 163 227 242 314 396
#     4  10  26  42  68  86 119 194 211 257 291 371
#
# _framework density 20.251272
#
# number of rings (size 3 to 8) (size 9 to 14) (size 15 to 20)
#    0.000    1.250    3.750    2.625    8.750    0.000 
#    0.000    1.250    0.000    0.000    0.000    0.000 
#    0.000    0.000    0.000    0.000    0.000    0.000 
#
# Total GULP energy -198330.060693 kJ/mol
# GULP energy per Si atom -12395.628793 kJ/mol
# Density = 2.020518 g / cm^3
# Si number density = 20.251272 Si / 1000 Ang^3
#
#
#
# Elastic Constant Matrix: (Units=GPa)
#
#
# Indices 1 2 3 4 5 6 
#
# 1 85.7799 29.6586 44.4929 1.0934 11.6584 9.0555
# 2 29.6586 93.1294 27.0125 12.1596 9.1924 10.5138
# 3 44.4929 27.0125 142.4936 13.6512 20.7146 -4.4659
# 4 1.0934 12.1596 13.6512 25.2767 -0.3206 1.9495
# 5 11.6584 9.1924 20.7146 -0.3206 31.8968 4.8937
# 6 9.0555 10.5138 -4.4659 1.9495 4.8937 31.6651
#
#
#
# Elastic Compliance Matrix: (Units=1/GPa)
#
#
# Indices 1 2 3 4 5 6 
#
# 1 0.015822 -0.003648 -0.004583 0.003842 -0.001099 -0.004027
# 2 -0.003648 0.013331 -0.000690 -0.005683 -0.001677 -0.002871
# 3 -0.004583 -0.000690 0.009978 -0.005241 -0.005286 0.004087
# 4 0.003842 -0.005683 -0.005241 0.045285 0.004622 -0.003454
# 5 -0.001099 -0.001677 -0.005286 0.004622 0.036608 -0.005817
# 6 -0.004027 -0.002871 0.004087 -0.003454 -0.005817 0.035373
#
#
# Mechanical properties :
#
#
# Convention : Reuss Voigt Hill
#
# Bulk Modulus (GPa) = 46.97266 58.19234 52.58250
# Shear Modulus (GPa) = 27.57307 32.45030 30.01169
#
# Velocity S-wave (km/s) = 3.69392 4.00732 3.85381
# Velocity P-wave (km/s) = 6.43729 7.08583 6.76933
#
# Compressibility (1/GPa) = 0.02128898
#
# Stress axis : x y z
#
# Youngs Moduli (GPa) = 63.20414 75.01154 100.21674
#
# Poissons Ratio (x) = 0.27364 0.45932
# Poissons Ratio (y) = 0.23057 0.06914
# Poissons Ratio (z) = 0.28968 0.05175
#
# Static dielectric constant tensor:
#      x y z
#    x 3.618170 0.204190 0.165870 
#    y 0.204190 3.950830 0.014080 
#    z 0.165870 0.014080 3.796670 
# 
# 
# High freq. dielectric constant tensor:
#      x y z
#    x 1.781170 0.021490 0.007120 
#    y 0.021490 1.800220 0.007390 
#    z 0.007120 0.007390 1.790060 
# 
# From -- ./inp_files/216549.got.cif
#   From: 2010.06.25/outbox.cif.g09.slc.cpg/sg2_109_cif.got.tgz:216549.got - 2010.06.27 13:26:56.
