data_PCOD8004645
_publ_section_title
;
Structure prediction by ZEFSAII (Michael W. Deem and Ramdas Pophale) SiO2 
 PCOD8004645
Probable space group: P -1
;
_chemical_formula_sum "Si O2"
_cell_formula_units_Z 16
_cell_length_a 14.391188
_cell_length_b 9.046728
_cell_length_c 14.244941
_cell_angle_alpha 117.067804
_cell_angle_beta 133.016659
_cell_angle_gamma 99.628380
_cell_volume 820.439852
_symmetry_space_group_name_H-M "P -1"
_symmetry_group_IT_number 2
_symmetry_cell_setting 'triclinic'
loop_
_space_group_symop_operation_xyz
x,y,z
-x,-y,-z
loop_
_atom_site_type_symbol
_atom_site_label
_atom_site_fract_x
_atom_site_fract_y
_atom_site_fract_z
Si Si1 0.314166 0.498406 0.619198
Si Si2 0.002899 0.957743 0.250376
Si Si3 0.954270 0.602583 0.236448
Si Si4 0.266117 0.642676 0.436886
Si Si5 0.722095 0.963776 0.025312
Si Si6 0.294863 0.914626 0.149648
Si Si7 0.007747 0.176543 0.999731
Si Si8 0.170333 0.595304 0.702964
O O1 0.244318 0.533376 0.490639
O O2 0.534143 0.676319 0.816880
O O3 0.281223 0.565967 0.712013
O O4 0.217510 0.225348 0.474628
O O5 0.967285 0.803026 0.267983
O O6 0.945794 0.811499 0.073076
O O7 0.884045 0.012199 0.199587
O O8 0.903906 0.561987 0.299266
O O9 0.155500 0.709514 0.388206
O O10 0.789378 0.351048 0.992842
O O11 0.482014 0.880977 0.626556
O O12 0.175920 0.446734 0.235989
O O13 0.774585 0.048382 0.978120
O O14 0.696262 0.118633 0.101205
O O15 0.191553 0.915975 0.162344
O O16 0.000000 0.000000 0.000000
O O17 0.000000 0.500000 0.500000
#
# Coordination Sequence:
#
# PCOD8004645 Si02
#       8
#     2   2   2   2   2   2   2   2
#     4  11  21  37  62  86 112 148 193 235 279 335
#     4  12  23  38  56  86 123 148 181 239 291 329
#     4  10  23  39  57  85 120 148 184 237 285 335
#     4  10  20  38  61  85 111 152 197 231 271 334
#     4  10  21  37  59  88 113 146 191 236 278 336
#     4   9  20  38  60  83 113 152 196 230 270 335
#     4  11  20  36  59  86 115 150 192 231 278 332
#     4  11  19  40  65  82 108 151 195 230 278 341
#
# _framework density 19.501733000000002
#
# number of rings (size 3 to 8) (size 9 to 14) (size 15 to 20)
#    0.000    1.500    5.000    1.125    0.000    5.000 
#    0.000    1.875    0.000    0.000    0.000    0.000 
#    0.000    0.000    0.000    0.000    0.000    0.000 
#
# Total GULP energy -198411.123915 kJ/mol
# GULP energy per Si atom -12400.695245 kJ/mol
# Density = 1.945735 g / cm^3
# Si number density = 19.501733 Si / 1000 Ang^3
#
#
#
# Elastic Constant Matrix: (Units=GPa)
#
#
# Indices 1 2 3 4 5 6 
#
# 1 70.5206 20.0069 24.1170 -0.0497 -8.3249 4.0804
# 2 20.0069 112.6327 38.6903 9.1865 2.1713 0.3678
# 3 24.1170 38.6903 93.2494 17.3644 5.2666 5.3556
# 4 -0.0497 9.1865 17.3644 24.9308 7.6234 -2.1274
# 5 -8.3249 2.1713 5.2666 7.6234 33.4901 -3.0715
# 6 4.0804 0.3678 5.3556 -2.1274 -3.0715 17.7718
#
#
#
# Elastic Compliance Matrix: (Units=1/GPa)
#
#
# Indices 1 2 3 4 5 6 
#
# 1 0.016698 -0.001802 -0.004119 0.002121 0.004289 -0.001560
# 2 -0.001802 0.010586 -0.003774 -0.001121 -0.000178 0.001167
# 3 -0.004119 -0.003774 0.015472 -0.009350 -0.001545 -0.005025
# 4 0.002121 -0.001121 -0.009350 0.050302 -0.008751 0.006863
# 5 0.004289 -0.000178 -0.001545 -0.008751 0.033561 0.004237
# 6 -0.001560 0.001167 -0.005025 0.006863 0.004237 0.059671
#
#
# Mechanical properties :
#
#
# Convention : Reuss Voigt Hill
#
# Bulk Modulus (GPa) = 42.79625 49.11457 45.95541
# Shear Modulus (GPa) = 23.42253 28.14443 25.78348
#
# Velocity S-wave (km/s) = 3.46937 3.80304 3.64003
# Velocity P-wave (km/s) = 6.16776 6.67259 6.42514
#
# Compressibility (1/GPa) = 0.02336653
#
# Stress axis : x y z
#
# Youngs Moduli (GPa) = 59.88710 94.46325 64.63216
#
# Poissons Ratio (x) = 0.17021 0.26619
# Poissons Ratio (y) = 0.10791 0.24395
# Poissons Ratio (z) = 0.24665 0.35655
#
# Static dielectric constant tensor:
#      x y z
#    x 4.034240 0.169850 -0.281840 
#    y 0.169850 3.439410 0.118570 
#    z -0.281840 0.118570 3.747940 
# 
# 
# High freq. dielectric constant tensor:
#      x y z
#    x 1.759950 0.005070 -0.003470 
#    y 0.005070 1.741370 0.012630 
#    z -0.003470 0.012630 1.763160 
# 
# From -- ./inp_files/256041.got.cif
#   From: 2010.06.25/outbox.cif.g09.slc.cpg/sg2_129_cif.got.tgz:256041.got - 2010.06.27 13:26:56.
