data_PCOD8004568
_publ_section_title
;
Structure prediction by ZEFSAII (Michael W. Deem and Ramdas Pophale) SiO2 
 PCOD8004568
Probable space group: P -1
;
_chemical_formula_sum "Si O2"
_cell_formula_units_Z 16
_cell_length_a 12.019736
_cell_length_b 8.707642
_cell_length_c 14.897799
_cell_angle_alpha 108.031084
_cell_angle_beta 61.215579
_cell_angle_gamma 144.739426
_cell_volume 778.073061
_symmetry_space_group_name_H-M "P -1"
_symmetry_group_IT_number 2
_symmetry_cell_setting 'triclinic'
loop_
_space_group_symop_operation_xyz
x,y,z
-x,-y,-z
loop_
_atom_site_type_symbol
_atom_site_label
_atom_site_fract_x
_atom_site_fract_y
_atom_site_fract_z
Si Si1 0.124228 0.367711 0.700750
Si Si2 0.385904 0.126812 0.387769
Si Si3 0.197463 0.178470 0.352667
Si Si4 0.907712 0.925459 0.202685
Si Si5 0.836530 0.336224 0.736059
Si Si6 0.676349 0.485348 0.914468
Si Si7 0.537529 0.517877 0.136095
Si Si8 0.049446 0.791460 0.604065
O O1 0.372617 0.642621 0.634407
O O2 0.088731 0.254480 0.793221
O O3 0.010589 0.425337 0.746838
O O4 0.021683 0.147518 0.624285
O O5 0.333385 0.258876 0.400736
O O6 0.337807 0.964251 0.290795
O O7 0.242065 0.930119 0.492255
O O8 0.321081 0.263779 0.227698
O O9 0.133107 0.302344 0.401444
O O10 0.717885 0.754008 0.176861
O O11 0.862052 0.997124 0.316827
O O12 0.122594 0.191507 0.117271
O O13 0.724009 0.349319 0.847552
O O14 0.948936 0.533027 0.642574
O O15 0.491992 0.360916 0.897651
O O16 0.600876 0.423747 0.036168
#
# Coordination Sequence:
#
# PCOD8004568 Si02
#       8
#     2   2   2   2   2   2   2   2
#     4  10  21  37  56  80 122 153 188 235 281 337
#     4  11  22  38  61  82 118 163 189 225 295 341
#     4  10  20  39  61  86 117 144 200 246 278 332
#     4  10  20  38  60  87 118 145 193 244 279 338
#     4  10  22  40  55  84 122 150 190 240 279 344
#     4  10  22  39  64  89 113 144 197 241 287 342
#     4  11  19  38  68  87 108 152 189 244 297 327
#     4  10  21  40  58  88 118 149 195 244 276 336
#
# _framework density 20.56362
#
# number of rings (size 3 to 8) (size 9 to 14) (size 15 to 20)
#    0.000    1.750    5.000    1.125    0.000    4.500 
#    4.500    3.125    0.000    0.000    0.000    0.000 
#    0.000    0.000    0.000    0.000    0.000    0.000 
#
# Total GULP energy -198368.426164 kJ/mol
# GULP energy per Si atom -12398.026635 kJ/mol
# Density = 2.051682 g / cm^3
# Si number density = 20.563620 Si / 1000 Ang^3
#
#
#
# Elastic Constant Matrix: (Units=GPa)
#
#
# Indices 1 2 3 4 5 6 
#
# 1 121.8432 43.1624 5.5682 3.3089 -8.0103 4.6667
# 2 43.1624 53.4257 8.4279 -5.3025 -6.3219 4.5445
# 3 5.5682 8.4279 72.4085 -5.3724 -18.5860 -1.3945
# 4 3.3089 -5.3025 -5.3724 20.6851 3.8180 4.0565
# 5 -8.0103 -6.3219 -18.5860 3.8180 28.4773 -2.2061
# 6 4.6667 4.5445 -1.3945 4.0565 -2.2061 32.7598
#
#
#
# Elastic Compliance Matrix: (Units=1/GPa)
#
#
# Indices 1 2 3 4 5 6 
#
# 1 0.011993 -0.010027 0.000437 -0.004854 0.002118 0.000445
# 2 -0.010027 0.028394 -0.001711 0.008989 0.000879 -0.003637
# 3 0.000437 -0.001711 0.016853 0.001630 0.010633 0.001407
# 4 -0.004854 0.008989 0.001630 0.054494 -0.006204 -0.007652
# 5 0.002118 0.000879 0.010633 -0.006204 0.043969 0.003758
# 6 0.000445 -0.003637 0.001407 -0.007652 0.003758 0.032227
#
#
# Mechanical properties :
#
#
# Convention : Reuss Voigt Hill
#
# Bulk Modulus (GPa) = 28.87026 40.22161 34.54593
# Shear Modulus (GPa) = 22.51438 29.08571 25.80005
#
# Velocity S-wave (km/s) = 3.31246 3.76496 3.54594
# Velocity P-wave (km/s) = 5.35722 6.20500 5.79663
#
# Compressibility (1/GPa) = 0.03463772
#
# Stress axis : x y z
#
# Youngs Moduli (GPa) = 83.37889 35.21854 59.33502
#
# Poissons Ratio (x) = 0.35315 -0.02592
# Poissons Ratio (y) = 0.83607 0.10154
# Poissons Ratio (z) = -0.03643 0.06027
#
# Static dielectric constant tensor:
#      x y z
#    x 3.962780 0.013390 0.060900 
#    y 0.013390 3.503170 -0.107800 
#    z 0.060900 -0.107800 3.699960 
# 
# 
# High freq. dielectric constant tensor:
#      x y z
#    x 1.812740 0.009380 0.004980 
#    y 0.009380 1.781680 -0.008580 
#    z 0.004980 -0.008580 1.798540 
# 
# From -- ./inp_files/281896.got.cif
#   From: 2010.06.25/outbox.cif.g09.slc.cpg/sg2_141_cif.got.tgz:281896.got - 2010.06.27 13:26:56.
