data_PCOD8004766
_publ_section_title
;
Structure prediction by ZEFSAII (Michael W. Deem and Ramdas Pophale) SiO2 
 PCOD8004766
Probable space group: P -1
;
_chemical_formula_sum "Si O2"
_cell_formula_units_Z 14
_cell_length_a 7.908821
_cell_length_b 13.464610
_cell_length_c 11.359718
_cell_angle_alpha 36.584125
_cell_angle_beta 60.131113
_cell_angle_gamma 69.854934
_cell_volume 621.591913
_symmetry_space_group_name_H-M "P -1"
_symmetry_group_IT_number 2
_symmetry_cell_setting 'triclinic'
loop_
_space_group_symop_operation_xyz
x,y,z
-x,-y,-z
loop_
_atom_site_type_symbol
_atom_site_label
_atom_site_fract_x
_atom_site_fract_y
_atom_site_fract_z
Si Si1 0.778589 0.918661 0.651024
Si Si2 0.861391 0.445621 0.424750
Si Si3 0.415344 0.051194 0.739875
Si Si4 0.184988 0.332236 0.558824
Si Si5 0.071375 0.372106 0.005352
Si Si6 0.844747 0.094826 0.833898
Si Si7 0.844304 0.069646 0.255389
O O1 0.643396 0.026791 0.675045
O O2 0.729980 0.932035 0.515899
O O3 0.769622 0.730592 0.885017
O O4 0.000000 0.000000 0.500000
O O5 0.763921 0.559000 0.446535
O O6 0.825491 0.521115 0.238624
O O7 0.759618 0.253759 0.646929
O O8 0.095216 0.443107 0.381050
O O9 0.377134 0.243584 0.538004
O O10 0.301413 0.918371 0.814822
O O11 0.335663 0.010411 0.938110
O O12 0.016011 0.173187 0.792418
O O13 0.000000 0.500000 0.000000
O O14 0.888786 0.249061 0.133500
O O15 0.944107 0.984188 0.807420
#
# Coordination Sequence:
#
# PCOD8004766 Si02
#       7
#     2   2   2   2   2   2   2
#     4  10  24  42  57  82 123 168 201 243 302 367
#     4   9  17  33  56  92 127 156 186 247 313 354
#     4  11  19  36  65  94 114 153 213 255 286 351
#     4   8  17  31  60  90 127 143 200 252 306 336
#     4  11  22  38  59  80 124 171 196 234 310 367
#     4   9  17  31  60  93 115 145 199 255 298 341
#     4  10  20  38  62  87 118 161 207 246 293 352
#
# _framework density 22.522815000000001
#
# number of rings (size 3 to 8) (size 9 to 14) (size 15 to 20)
#    0.857    1.429    0.000    4.714    0.000    0.000 
#    0.000   10.714    0.000    0.000    0.000    0.000 
#    0.000    0.000    0.000    0.571    0.000    0.000 
#
# Total GULP energy -173442.568604 kJ/mol
# GULP energy per Si atom -12388.754900 kJ/mol
# Density = 2.247155 g / cm^3
# Si number density = 22.522815 Si / 1000 Ang^3
#
#
#
# Elastic Constant Matrix: (Units=GPa)
#
#
# Indices 1 2 3 4 5 6 
#
# 1 40.8825 36.2438 22.7123 -1.0890 8.0081 -19.1312
# 2 36.2438 168.3141 40.0578 -1.7399 1.2668 -19.6140
# 3 22.7123 40.0578 102.7380 15.6726 23.6828 -15.1670
# 4 -1.0890 -1.7399 15.6726 33.9153 -0.6200 -4.9022
# 5 8.0081 1.2668 23.6828 -0.6200 27.1210 1.8256
# 6 -19.1312 -19.6140 -15.1670 -4.9022 1.8256 43.8873
#
#
#
# Elastic Compliance Matrix: (Units=1/GPa)
#
#
# Indices 1 2 3 4 5 6 
#
# 1 0.040537 -0.006263 -0.002570 0.004129 -0.010340 0.014875
# 2 -0.006263 0.007952 -0.002930 0.001609 0.004085 -0.000179
# 3 -0.002570 -0.002930 0.016143 -0.007526 -0.013567 0.002873
# 4 0.004129 0.001609 -0.007526 0.033783 0.005817 0.003450
# 5 -0.010340 0.004085 -0.013567 0.005817 0.052312 -0.008896
# 6 0.014875 -0.000179 0.002873 0.003450 -0.008896 0.030938
#
#
# Mechanical properties :
#
#
# Convention : Reuss Voigt Hill
#
# Bulk Modulus (GPa) = 24.32690 56.66247 40.49469
# Shear Modulus (GPa) = 22.84212 35.17944 29.01078
#
# Velocity S-wave (km/s) = 3.18807 3.95643 3.59285
# Velocity P-wave (km/s) = 4.93722 6.78849 5.93548
#
# Compressibility (1/GPa) = 0.04110675
#
# Stress axis : x y z
#
# Youngs Moduli (GPa) = 24.66897 125.75038 61.94507
#
# Poissons Ratio (x) = 0.78763 0.15919
# Poissons Ratio (y) = 0.15451 0.18147
# Poissons Ratio (z) = 0.06339 0.36839
#
# Static dielectric constant tensor:
#      x y z
#    x 3.859500 -0.056010 0.664550 
#    y -0.056010 4.176280 0.003170 
#    z 0.664550 0.003170 4.317760 
# 
# 
# High freq. dielectric constant tensor:
#      x y z
#    x 1.854160 -0.000650 0.036250 
#    y -0.000650 1.896690 -0.003090 
#    z 0.036250 -0.003090 1.864450 
# 
# From -- ./inp_files/395196.got.cif
#   From: 2010.06.25/outbox.cif.g09.slc.cpg/sg2_198_cif.got.tgz:395196.got - 2010.06.27 13:26:56.
