data_PCOD8004510
_publ_section_title
;
Structure prediction by ZEFSAII (Michael W. Deem and Ramdas Pophale) SiO2 
 PCOD8004510
Probable space group: P -1
;
_chemical_formula_sum "Si O2"
_cell_formula_units_Z 16
_cell_length_a 8.953074
_cell_length_b 17.150090
_cell_length_c 8.650822
_cell_angle_alpha 145.697021
_cell_angle_beta 92.442215
_cell_angle_gamma 92.523978
_cell_volume 740.465451
_symmetry_space_group_name_H-M "P -1"
_symmetry_group_IT_number 2
_symmetry_cell_setting 'triclinic'
loop_
_space_group_symop_operation_xyz
x,y,z
-x,-y,-z
loop_
_atom_site_type_symbol
_atom_site_label
_atom_site_fract_x
_atom_site_fract_y
_atom_site_fract_z
Si Si1 0.101520 0.984098 0.126950
Si Si2 0.318894 0.629353 0.284716
Si Si3 0.483701 0.558796 0.885557
Si Si4 0.336300 0.939969 0.842385
Si Si5 0.214127 0.471245 0.544418
Si Si6 0.923168 0.517802 0.767145
Si Si7 0.777540 0.778529 0.251331
Si Si8 0.184141 0.148330 0.960472
O O1 0.174118 0.130324 0.446176
O O2 0.997796 0.890067 0.091384
O O3 0.239110 0.910505 0.947698
O O4 0.000000 0.000000 0.000000
O O5 0.432463 0.579571 0.337080
O O6 0.341435 0.793140 0.518454
O O7 0.147182 0.580642 0.255918
O O8 0.360282 0.550209 0.003104
O O9 0.381149 0.554746 0.720804
O O10 0.609051 0.695323 0.127523
O O11 0.271710 0.046293 0.897698
O O12 0.500000 0.000000 0.000000
O O13 0.164168 0.526821 0.469659
O O14 0.098114 0.502453 0.726312
O O15 0.229381 0.307445 0.275361
O O16 0.903959 0.676769 0.067105
O O17 0.776708 0.873474 0.253168
#
# Coordination Sequence:
#
# PCOD8004510 Si02
#       8
#     2   2   2   2   2   2   2   2
#     4  10  22  39  61  85 117 157 197 242 290 352
#     4  10  21  38  55  85 115 153 195 237 296 339
#     4  10  22  38  63  86 120 151 187 250 293 351
#     4  11  22  37  58  85 119 157 199 241 286 351
#     4  10  20  38  59  93 118 150 195 236 301 344
#     4   9  21  37  62  87 119 151 193 248 284 353
#     4  10  21  41  60  88 119 154 199 241 301 348
#     4  10  22  38  61  85 120 161 194 241 290 352
#
# _framework density 21.608032999999999
#
# number of rings (size 3 to 8) (size 9 to 14) (size 15 to 20)
#    0.000    2.000    0.000    2.625    0.000   13.000 
#    0.000    5.000    0.000    0.000    0.000    0.000 
#    0.000    0.000    0.000    0.000    0.000    0.000 
#
# Total GULP energy -198327.357998 kJ/mol
# GULP energy per Si atom -12395.459875 kJ/mol
# Density = 2.155885 g / cm^3
# Si number density = 21.608033 Si / 1000 Ang^3
#
#
#
# Elastic Constant Matrix: (Units=GPa)
#
#
# Indices 1 2 3 4 5 6 
#
# 1 116.4370 34.7844 41.8492 -6.8182 10.6314 5.4996
# 2 34.7844 85.4613 17.4481 5.2002 2.0593 12.3902
# 3 41.8492 17.4481 95.2063 0.1670 7.2212 -2.0676
# 4 -6.8182 5.2002 0.1670 27.1693 2.5455 -2.5359
# 5 10.6314 2.0593 7.2212 2.5455 42.1319 -4.4977
# 6 5.4996 12.3902 -2.0676 -2.5359 -4.4977 32.2646
#
#
#
# Elastic Compliance Matrix: (Units=1/GPa)
#
#
# Indices 1 2 3 4 5 6 
#
# 1 0.011810 -0.003996 -0.004303 0.003904 -0.002366 -0.000777
# 2 -0.003996 0.014563 -0.001032 -0.004293 0.000168 -0.005291
# 3 -0.004303 -0.001032 0.012685 -0.000719 -0.000805 0.001774
# 4 0.003904 -0.004293 -0.000719 0.039199 -0.002631 0.003651
# 5 -0.002366 0.000168 -0.000805 -0.002631 0.025001 0.003566
# 6 -0.000777 -0.005291 0.001774 0.003651 0.003566 0.034056
#
#
# Mechanical properties :
#
#
# Convention : Reuss Voigt Hill
#
# Bulk Modulus (GPa) = 49.03308 53.91867 51.47588
# Shear Modulus (GPa) = 30.71691 33.84804 32.28248
#
# Velocity S-wave (km/s) = 3.77444 3.96214 3.86943
# Velocity P-wave (km/s) = 6.46038 6.77781 6.62099
#
# Compressibility (1/GPa) = 0.02039439
#
# Stress axis : x y z
#
# Youngs Moduli (GPa) = 84.67255 68.66766 78.83273
#
# Poissons Ratio (x) = 0.27442 0.33923
# Poissons Ratio (y) = 0.33838 0.08139
# Poissons Ratio (z) = 0.36436 0.07089
#
# Static dielectric constant tensor:
#      x y z
#    x 4.230300 0.275690 -0.172760 
#    y 0.275690 3.907190 -0.132150 
#    z -0.172760 -0.132150 3.709510 
# 
# 
# High freq. dielectric constant tensor:
#      x y z
#    x 1.859930 0.013580 -0.007200 
#    y 0.013580 1.839540 -0.009950 
#    z -0.007200 -0.009950 1.839800 
# 
# From -- ./inp_files/184158.got.cif
#   From: 2010.06.25/outbox.cif.g09.slc.cpg/sg2_93_cif.got.tgz:184158.got - 2010.06.27 13:26:56.
