data_PCOD8004717
_publ_section_title
;
Structure prediction by ZEFSAII (Michael W. Deem and Ramdas Pophale) SiO2 
 PCOD8004717
Probable space group: P -1
;
_chemical_formula_sum "Si O2"
_cell_formula_units_Z 16
_cell_length_a 9.209446
_cell_length_b 11.920125
_cell_length_c 15.116956
_cell_angle_alpha 126.369675
_cell_angle_beta 140.668920
_cell_angle_gamma 77.751779
_cell_volume 741.542242
_symmetry_space_group_name_H-M "P -1"
_symmetry_group_IT_number 2
_symmetry_cell_setting 'triclinic'
loop_
_space_group_symop_operation_xyz
x,y,z
-x,-y,-z
loop_
_atom_site_type_symbol
_atom_site_label
_atom_site_fract_x
_atom_site_fract_y
_atom_site_fract_z
Si Si1 0.303305 0.828689 0.367087
Si Si2 0.086104 0.813293 0.960268
Si Si3 0.086074 0.868706 0.705753
Si Si4 0.242628 0.330249 0.896901
Si Si5 0.272993 0.661338 0.102823
Si Si6 0.168566 0.170245 0.612944
Si Si7 0.416875 0.810119 0.955269
Si Si8 0.745595 0.870985 0.704130
O O1 0.224643 0.686610 0.193350
O O2 0.437312 0.793873 0.499982
O O3 0.028532 0.816555 0.261879
O O4 0.500000 0.000000 0.500000
O O5 0.054577 0.665739 0.936833
O O6 0.318898 0.859832 0.020849
O O7 0.151623 0.955470 0.125385
O O8 0.815488 0.768298 0.759033
O O9 0.968317 0.800234 0.522495
O O10 0.877694 0.883210 0.677072
O O11 0.325450 0.042360 0.890089
O O12 0.190724 0.755966 0.748300
O O13 0.225967 0.312354 0.774704
O O14 0.500951 0.325082 0.050653
O O15 0.270487 0.496141 0.016354
O O16 0.552355 0.810541 0.275999
O O17 0.000000 0.000000 0.500000
#
# Coordination Sequence:
#
# PCOD8004717 Si02
#       8
#     2   2   2   2   2   2   2   2
#     4  12  23  41  66  92 120 162 216 255 294 366
#     4  10  21  37  62  89 123 159 202 254 313 359
#     4  10  20  38  61  92 119 158 207 262 295 357
#     4  12  26  40  61  94 130 164 199 254 322 367
#     4  12  24  42  61  92 131 163 199 254 320 368
#     4  12  22  39  65  94 120 160 218 254 292 363
#     4  10  21  37  60  90 127 156 202 252 315 359
#     4  10  21  38  61  92 117 159 210 259 297 354
#
# _framework density 21.576651999999999
#
# number of rings (size 3 to 8) (size 9 to 14) (size 15 to 20)
#    0.000    1.000    5.000    2.250    1.750    0.000 
#    0.000    2.500    0.000    0.000    0.000    0.000 
#    0.000    0.000    0.000    0.000    0.000    0.000 
#
# Total GULP energy -198320.530927 kJ/mol
# GULP energy per Si atom -12395.033183 kJ/mol
# Density = 2.152754 g / cm^3
# Si number density = 21.576652 Si / 1000 Ang^3
#
#
#
# Elastic Constant Matrix: (Units=GPa)
#
#
# Indices 1 2 3 4 5 6 
#
# 1 77.3345 25.0051 28.0937 -21.4187 -15.3165 -9.6395
# 2 25.0051 134.8262 57.1287 -38.4300 -18.8860 -12.0591
# 3 28.0937 57.1287 80.8226 -39.4800 -23.4279 1.4962
# 4 -21.4187 -38.4300 -39.4800 40.8715 6.2439 -1.8689
# 5 -15.3165 -18.8860 -23.4279 6.2439 41.9449 -3.6317
# 6 -9.6395 -12.0591 1.4962 -1.8689 -3.6317 28.2230
#
#
#
# Elastic Compliance Matrix: (Units=1/GPa)
#
#
# Indices 1 2 3 4 5 6 
#
# 1 0.017463 0.001236 -0.001256 0.008599 0.005632 0.007853
# 2 0.001236 0.012374 -0.004823 0.007508 0.002802 0.006823
# 3 -0.001256 -0.004823 0.030326 0.022385 0.010871 -0.001216
# 4 0.008599 0.007508 0.022385 0.056361 0.011514 0.010172
# 5 0.005632 0.002802 0.010871 0.011514 0.032161 0.007445
# 6 0.007853 0.006823 -0.001216 0.010172 0.007445 0.042726
#
#
# Mechanical properties :
#
#
# Convention : Reuss Voigt Hill
#
# Bulk Modulus (GPa) = 19.81088 57.04872 38.42980
# Shear Modulus (GPa) = 22.94378 34.39160 28.66769
#
# Velocity S-wave (km/s) = 3.26446 3.99673 3.64901
# Velocity P-wave (km/s) = 4.83844 6.91346 5.96684
#
# Compressibility (1/GPa) = 0.05047732
#
# Stress axis : x y z
#
# Youngs Moduli (GPa) = 57.26234 80.81511 32.97468
#
# Poissons Ratio (x) = -0.09987 0.04143
# Poissons Ratio (y) = -0.07076 0.15902
# Poissons Ratio (z) = 0.07194 0.38974
#
# Static dielectric constant tensor:
#      x y z
#    x 4.211640 -0.076150 -0.058360 
#    y -0.076150 4.094800 -0.784620 
#    z -0.058360 -0.784620 4.101280 
# 
# 
# High freq. dielectric constant tensor:
#      x y z
#    x 1.862400 -0.010140 -0.013060 
#    y -0.010140 1.839000 -0.037970 
#    z -0.013060 -0.037970 1.830250 
# 
# From -- ./inp_files/226636.got.cif
#   From: 2010.06.25/outbox.cif.g09.slc.cpg/sg2_114_cif.got.tgz:226636.got - 2010.06.27 13:26:56.
