data_PCOD8004910
_publ_section_title
;
Structure prediction by ZEFSAII (Michael W. Deem and Ramdas Pophale) SiO2 
 PCOD8004910
Probable space group: P -1
;
_chemical_formula_sum "Si O2"
_cell_formula_units_Z 16
_cell_length_a 7.013966
_cell_length_b 20.510193
_cell_length_c 9.339688
_cell_angle_alpha 130.744550
_cell_angle_beta 126.982059
_cell_angle_gamma 63.797711
_cell_volume 810.493624
_symmetry_space_group_name_H-M "P -1"
_symmetry_group_IT_number 2
_symmetry_cell_setting 'triclinic'
loop_
_space_group_symop_operation_xyz
x,y,z
-x,-y,-z
loop_
_atom_site_type_symbol
_atom_site_label
_atom_site_fract_x
_atom_site_fract_y
_atom_site_fract_z
Si Si1 0.496015 0.016438 0.271001
Si Si2 0.240107 0.284558 0.299386
Si Si3 0.334836 0.890013 0.254164
Si Si4 0.780693 0.911199 0.009653
Si Si5 0.460135 0.374015 0.766578
Si Si6 0.879190 0.476308 0.055851
Si Si7 0.673264 0.304534 0.053887
Si Si8 0.371588 0.411569 0.305200
O O1 0.586383 0.090970 0.520152
O O2 0.276493 0.057782 0.134961
O O3 0.448281 0.941417 0.252010
O O4 0.682056 0.978061 0.181496
O O5 0.301292 0.185156 0.136921
O O6 0.357170 0.294657 0.522973
O O7 0.379786 0.350855 0.361594
O O8 0.955586 0.308166 0.213461
O O9 0.408619 0.791241 0.111617
O O10 0.057652 0.913273 0.154627
O O11 0.229762 0.439716 0.788226
O O12 0.661419 0.419495 0.832594
O O13 0.607954 0.342525 0.925605
O O14 0.087681 0.427544 0.174008
O O15 0.000000 0.500000 0.000000
O O16 0.513018 0.359496 0.171481
O O17 0.500000 0.500000 0.500000
#
# Coordination Sequence:
#
# PCOD8004910 Si02
#       8
#     2   2   2   2   2   2   2   2
#     4  10  20  38  63  89 117 156 190 238 294 357
#     4  11  24  40  59  91 119 157 199 248 295 351
#     4  10  21  37  62  89 119 152 197 237 293 352
#     4  10  21  38  61  87 123 151 193 241 294 350
#     4  11  23  39  62  82 118 155 202 243 296 345
#     4  11  22  39  59  84 113 155 201 249 289 343
#     4  11  23  41  60  88 122 158 195 251 294 349
#     4  12  24  39  62  86 122 159 204 246 299 346
#
# _framework density 19.741056
#
# number of rings (size 3 to 8) (size 9 to 14) (size 15 to 20)
#    0.000    1.250    2.500    3.750    1.750    1.000 
#    0.000    0.000    2.750    0.000    0.000    0.000 
#    0.000    0.000    0.000    0.000    0.000    0.000 
#
# Total GULP energy -198316.376829 kJ/mol
# GULP energy per Si atom -12394.773552 kJ/mol
# Density = 1.969612 g / cm^3
# Si number density = 19.741056 Si / 1000 Ang^3
#
#
#
# Elastic Constant Matrix: (Units=GPa)
#
#
# Indices 1 2 3 4 5 6 
#
# 1 101.0178 32.4495 56.0205 22.1162 -13.3798 -10.3230
# 2 32.4495 68.2497 32.8831 7.1717 -11.4054 -11.5136
# 3 56.0205 32.8831 138.6375 15.4906 -14.7366 -14.2955
# 4 22.1162 7.1717 15.4906 50.6554 1.2367 -14.1592
# 5 -13.3798 -11.4054 -14.7366 1.2367 21.8838 8.4479
# 6 -10.3230 -11.5136 -14.2955 -14.1592 8.4479 50.6000
#
#
#
# Elastic Compliance Matrix: (Units=1/GPa)
#
#
# Indices 1 2 3 4 5 6 
#
# 1 0.015229 -0.004020 -0.004193 -0.005301 0.005212 -0.001346
# 2 -0.004020 0.018750 -0.002090 0.000190 0.005102 0.002057
# 3 -0.004193 -0.002090 0.009856 -0.000732 0.002719 0.000795
# 4 -0.005301 0.000190 -0.000732 0.024354 -0.007655 0.006848
# 5 0.005212 0.005102 0.002719 -0.007655 0.057161 -0.008693
# 6 -0.001346 0.002057 0.000795 0.006848 -0.008693 0.023548
#
#
# Mechanical properties :
#
#
# Convention : Reuss Voigt Hill
#
# Bulk Modulus (GPa) = 43.04734 61.17901 52.11317
# Shear Modulus (GPa) = 28.20962 37.06463 32.63712
#
# Velocity S-wave (km/s) = 3.78429 4.33776 4.07044
# Velocity P-wave (km/s) = 6.39905 7.49308 6.96757
#
# Compressibility (1/GPa) = 0.02323024
#
# Stress axis : x y z
#
# Youngs Moduli (GPa) = 65.66436 53.33392 101.46490
#
# Poissons Ratio (x) = 0.21438 0.42542
# Poissons Ratio (y) = 0.26394 0.21203
# Poissons Ratio (z) = 0.27532 0.11145
#
# Static dielectric constant tensor:
#      x y z
#    x 3.625960 0.071360 0.064820 
#    y 0.071360 2.842740 0.404900 
#    z 0.064820 0.404900 3.655620 
# 
# 
# High freq. dielectric constant tensor:
#      x y z
#    x 1.772440 0.000070 0.000290 
#    y 0.000070 1.782240 -0.003480 
#    z 0.000290 -0.003480 1.779590 
# 
# From -- ./inp_files/48512.got.cif
#   From: 2010.06.25/outbox.cif.g09.slc.cpg/sg2_25_cif.got.tgz:48512.got - 2010.06.27 13:26:56.
