data_PCOD8004672
_publ_section_title
;
Structure prediction by ZEFSAII (Michael W. Deem and Ramdas Pophale) SiO2 
 PCOD8004672
Probable space group: P -1
;
_chemical_formula_sum "Si O2"
_cell_formula_units_Z 12
_cell_length_a 10.839001
_cell_length_b 12.327939
_cell_length_c 6.832713
_cell_angle_alpha 78.273314
_cell_angle_beta 71.290383
_cell_angle_gamma 130.668320
_cell_volume 537.153732
_symmetry_space_group_name_H-M "P -1"
_symmetry_group_IT_number 2
_symmetry_cell_setting 'triclinic'
loop_
_space_group_symop_operation_xyz
x,y,z
-x,-y,-z
loop_
_atom_site_type_symbol
_atom_site_label
_atom_site_fract_x
_atom_site_fract_y
_atom_site_fract_z
Si Si1 0.811182 0.507860 0.574960
Si Si2 0.568088 0.140502 0.770393
Si Si3 0.920127 0.722257 0.111695
Si Si4 0.802501 0.977874 0.871377
Si Si5 0.419231 0.386635 0.891945
Si Si6 0.138459 0.815286 0.576350
O O1 0.751992 0.339787 0.688014
O O2 0.929892 0.614357 0.272398
O O3 0.940033 0.623473 0.658029
O O4 0.611282 0.453976 0.671606
O O5 0.667957 0.143881 0.530079
O O6 0.369587 0.087206 0.863542
O O7 0.500000 0.000000 0.000000
O O8 0.690147 0.595372 0.198637
O O9 0.986304 0.866144 0.173055
O O10 0.085389 0.819067 0.818708
O O11 0.758991 0.821821 0.896188
O O12 0.803060 0.041490 0.640635
O O13 0.500000 0.500000 0.000000
#
# Coordination Sequence:
#
# PCOD8004672 Si02
#       6
#     2   2   2   2   2   2
#     4  10  21  39  59  87 121 151 196 241 291 343
#     4   9  19  39  62  85 118 158 188 241 292 344
#     4  11  22  38  59  89 120 153 194 241 291 343
#     4   9  22  40  59  86 120 152 197 240 289 341
#     4  11  21  41  61  85 117 160 195 239 292 345
#     4  10  20  38  61  88 115 156 194 238 291 349
#
# _framework density 22.339973000000001
#
# number of rings (size 3 to 8) (size 9 to 14) (size 15 to 20)
#    0.000    2.000    1.667    1.500    0.000    2.000 
#    9.000    0.000    0.000    0.000    0.000    0.000 
#    0.000    0.000    0.000    0.000    0.000    0.000 
#
# Total GULP energy -148671.654975 kJ/mol
# GULP energy per Si atom -12389.304581 kJ/mol
# Density = 2.228913 g / cm^3
# Si number density = 22.339973 Si / 1000 Ang^3
#
#
#
# Elastic Constant Matrix: (Units=GPa)
#
#
# Indices 1 2 3 4 5 6 
#
# 1 41.1858 26.4827 12.2797 3.6492 1.2412 -5.1050
# 2 26.4827 139.9855 42.0972 -11.0319 29.9885 -0.6697
# 3 12.2797 42.0972 102.7341 3.9826 4.4115 -8.4109
# 4 3.6492 -11.0319 3.9826 32.5671 -3.8135 0.3304
# 5 1.2412 29.9885 4.4115 -3.8135 31.1223 1.2581
# 6 -5.1050 -0.6697 -8.4109 0.3304 1.2581 30.8839
#
#
#
# Elastic Compliance Matrix: (Units=1/GPa)
#
#
# Indices 1 2 3 4 5 6 
#
# 1 0.029696 -0.006901 -0.000355 -0.005117 0.004706 0.004525
# 2 -0.006901 0.012194 -0.004022 0.004203 -0.010325 -0.001596
# 3 -0.000355 -0.004022 0.011692 -0.002573 0.001796 0.002993
# 4 -0.005117 0.004203 -0.002573 0.033112 0.000650 -0.001836
# 5 0.004706 -0.010325 0.001796 0.000650 0.041744 -0.000664
# 6 0.004525 -0.001596 0.002993 -0.001836 -0.000664 0.033954
#
#
# Mechanical properties :
#
#
# Convention : Reuss Voigt Hill
#
# Bulk Modulus (GPa) = 32.23093 49.51385 40.87239
# Shear Modulus (GPa) = 25.60280 32.45104 29.02692
#
# Velocity S-wave (km/s) = 3.38901 3.81543 3.60853
# Velocity P-wave (km/s) = 5.45643 6.45151 5.97472
#
# Compressibility (1/GPa) = 0.03102609
#
# Stress axis : x y z
#
# Youngs Moduli (GPa) = 33.67484 82.00654 85.52806
#
# Poissons Ratio (x) = 0.56591 0.03036
# Poissons Ratio (y) = 0.23238 0.34401
# Poissons Ratio (z) = 0.01196 0.32984
#
# Static dielectric constant tensor:
#      x y z
#    x 4.301430 -0.089010 -0.419980 
#    y -0.089010 4.073750 -0.289650 
#    z -0.419980 -0.289650 4.014680 
# 
# 
# High freq. dielectric constant tensor:
#      x y z
#    x 1.875170 -0.000840 -0.015840 
#    y -0.000840 1.880610 -0.019300 
#    z -0.015840 -0.019300 1.869000 
# 
# From -- ./inp_files/19664.got.cif
#   From: 2010.06.25/outbox.cif.g09.slc.cpg/sg2_10_cif.got.tgz:19664.got - 2010.06.27 13:26:56.
