data_PCOD8004782
_publ_section_title
;
Structure prediction by ZEFSAII (Michael W. Deem and Ramdas Pophale) SiO2 
 PCOD8004782
Probable space group: P -1
;
_chemical_formula_sum "Si O2"
_cell_formula_units_Z 16
_cell_length_a 8.868235
_cell_length_b 7.859671
_cell_length_c 18.382758
_cell_angle_alpha 100.384603
_cell_angle_beta 136.245247
_cell_angle_gamma 107.412201
_cell_volume 675.955314
_symmetry_space_group_name_H-M "P -1"
_symmetry_group_IT_number 2
_symmetry_cell_setting 'triclinic'
loop_
_space_group_symop_operation_xyz
x,y,z
-x,-y,-z
loop_
_atom_site_type_symbol
_atom_site_label
_atom_site_fract_x
_atom_site_fract_y
_atom_site_fract_z
Si Si1 0.785641 0.187274 0.155053
Si Si2 0.242247 0.672009 0.536076
Si Si3 0.380402 0.370855 0.146123
Si Si4 0.084980 0.394677 0.716637
Si Si5 0.356784 0.851570 0.741312
Si Si6 0.885112 0.282193 0.899243
Si Si7 0.656683 0.169819 0.660654
Si Si8 0.637604 0.548140 0.691577
O O1 0.818665 0.410868 0.177622
O O2 0.784506 0.129704 0.235906
O O3 0.058245 0.238488 0.216172
O O4 0.500000 0.000000 0.000000
O O5 0.149234 0.684686 0.587838
O O6 0.417327 0.582137 0.590493
O O7 0.985686 0.533696 0.378259
O O8 0.416353 0.918064 0.580664
O O9 0.647335 0.589866 0.210709
O O10 0.439838 0.199707 0.165243
O O11 0.348091 0.457559 0.216678
O O12 0.097437 0.232892 0.989188
O O13 0.818117 0.169055 0.645112
O O14 0.563818 0.092708 0.795606
O O15 0.888569 0.307697 0.815790
O O16 0.000000 0.500000 0.000000
O O17 0.545299 0.309528 0.613311
#
# Coordination Sequence:
#
# PCOD8004782 Si02
#       8
#     2   2   2   2   2   2   2   2
#     4  10  21  36  60  92 125 155 202 259 307 360
#     4  10  22  43  66  88 124 169 212 248 314 366
#     4  10  20  38  62  88 121 166 205 248 316 368
#     4  10  23  41  62  90 127 162 205 267 300 364
#     4   9  21  37  62  90 120 161 207 254 305 368
#     4  11  20  35  61  86 125 161 196 251 310 369
#     4  10  22  40  62  93 123 163 208 261 305 362
#     4  10  21  40  66  91 124 166 207 254 311 368
#
# _framework density 23.670204999999999
#
# number of rings (size 3 to 8) (size 9 to 14) (size 15 to 20)
#    0.000    2.000    1.250    1.500    1.750   12.000 
#    2.250    0.625    2.750    0.000    0.000    0.000 
#    0.000    0.000    0.000    0.000    0.000    0.000 
#
# Total GULP energy -198277.740558 kJ/mol
# GULP energy per Si atom -12392.358785 kJ/mol
# Density = 2.361633 g / cm^3
# Si number density = 23.670205 Si / 1000 Ang^3
#
#
#
# Elastic Constant Matrix: (Units=GPa)
#
#
# Indices 1 2 3 4 5 6 
#
# 1 152.5973 24.1975 30.3199 -4.4484 -1.9572 32.0188
# 2 24.1975 75.3925 11.9114 -4.6272 -5.0222 5.2748
# 3 30.3199 11.9114 105.2200 -7.5529 -7.4373 -9.8087
# 4 -4.4484 -4.6272 -7.5529 25.2004 1.3069 -3.9749
# 5 -1.9572 -5.0222 -7.4373 1.3069 34.7254 -5.9092
# 6 32.0188 5.2748 -9.8087 -3.9749 -5.9092 40.2340
#
#
#
# Elastic Compliance Matrix: (Units=1/GPa)
#
#
# Indices 1 2 3 4 5 6 
#
# 1 0.009239 -0.002032 -0.003408 -0.000974 -0.001877 -0.008289
# 2 -0.002032 0.014271 -0.000769 0.001943 0.001712 0.000002
# 3 -0.003408 -0.000769 0.011659 0.003609 0.003160 0.006476
# 4 -0.000974 0.001943 0.003609 0.041810 0.000376 0.005586
# 5 -0.001877 0.001712 0.003160 0.000376 0.030723 0.006589
# 6 -0.008289 0.000002 0.006476 0.005586 0.006589 0.034549
#
#
# Mechanical properties :
#
#
# Convention : Reuss Voigt Hill
#
# Bulk Modulus (GPa) = 43.95354 51.78526 47.86940
# Shear Modulus (GPa) = 30.81620 37.81736 34.31678
#
# Velocity S-wave (km/s) = 3.61210 4.00143 3.81174
# Velocity P-wave (km/s) = 6.00048 6.57829 6.29602
#
# Compressibility (1/GPa) = 0.02275130
#
# Stress axis : x y z
#
# Youngs Moduli (GPa) = 108.23445 70.07352 85.77077
#
# Poissons Ratio (x) = 0.14238 0.29227
# Poissons Ratio (y) = 0.21991 0.06599
# Poissons Ratio (z) = 0.36882 0.05392
#
# Static dielectric constant tensor:
#      x y z
#    x 4.751880 0.474760 0.068830 
#    y 0.474760 4.265250 -0.107930 
#    z 0.068830 -0.107930 4.876250 
# 
# 
# High freq. dielectric constant tensor:
#      x y z
#    x 1.944730 0.035530 -0.008530 
#    y 0.035530 1.934460 0.010560 
#    z -0.008530 0.010560 1.941630 
# 
# From -- ./inp_files/313657.got.cif
#   From: 2010.06.25/outbox.cif.g09.slc.cpg/sg2_157_cif.got.tgz:313657.got - 2010.06.27 13:26:56.
