data_PCOD8004461
_publ_section_title
;
Structure prediction by ZEFSAII (Michael W. Deem and Ramdas Pophale) SiO2 
 PCOD8004461
Probable space group: P -1
;
_chemical_formula_sum "Si O2"
_cell_formula_units_Z 14
_cell_length_a 12.984557
_cell_length_b 12.315172
_cell_length_c 9.818636
_cell_angle_alpha 51.798171
_cell_angle_beta 46.640740
_cell_angle_gamma 84.205360
_cell_volume 739.275439
_symmetry_space_group_name_H-M "P -1"
_symmetry_group_IT_number 2
_symmetry_cell_setting 'triclinic'
loop_
_space_group_symop_operation_xyz
x,y,z
-x,-y,-z
loop_
_atom_site_type_symbol
_atom_site_label
_atom_site_fract_x
_atom_site_fract_y
_atom_site_fract_z
Si Si1 0.861944 0.831821 0.178378
Si Si2 0.949603 0.132848 0.283448
Si Si3 0.345305 0.775924 0.891525
Si Si4 0.376453 0.905880 0.484273
Si Si5 0.935529 0.809840 0.578106
Si Si6 0.728572 0.018883 0.029231
Si Si7 0.305917 0.443237 0.227616
O O1 0.780156 0.675120 0.472970
O O2 0.943913 0.791303 0.010812
O O3 0.724006 0.865600 0.222399
O O4 0.000000 0.000000 0.000000
O O5 0.784769 0.141848 0.423552
O O6 0.067702 0.239667 0.222786
O O7 0.881887 0.939618 0.512488
O O8 0.322697 0.762962 0.758309
O O9 0.545786 0.919381 0.637123
O O10 0.225229 0.831233 0.022645
O O11 0.294715 0.601077 0.136004
O O12 0.530337 0.932049 0.226529
O O13 0.796734 0.646793 0.747372
O O14 0.132092 0.898758 0.280570
O O15 0.500000 0.500000 0.000000
#
# Coordination Sequence:
#
# PCOD8004461 Si02
#       7
#     2   2   2   2   2   2   2
#     4  11  20  37  64  87 112 155 203 234 288 346
#     4  10  20  38  59  83 117 162 189 240 287 357
#     4   9  20  32  58  87 117 144 192 250 277 337
#     4   9  18  35  59  83 119 153 191 233 302 339
#     4  10  22  36  57  86 120 150 202 236 292 345
#     4   9  18  35  57  85 115 150 193 238 286 348
#     4  12  23  36  62  92 116 149 201 247 286 342
#
# _framework density 18.937462
#
# number of rings (size 3 to 8) (size 9 to 14) (size 15 to 20)
#    0.857    1.143    2.857    2.571    0.000    1.143 
#    0.000    1.429    0.000    0.000    0.000    0.000 
#    0.000    0.000    0.000    0.000    0.000    0.000 
#
# Total GULP energy -173491.603878 kJ/mol
# GULP energy per Si atom -12392.257420 kJ/mol
# Density = 1.889436 g / cm^3
# Si number density = 18.937462 Si / 1000 Ang^3
#
#
#
# Elastic Constant Matrix: (Units=GPa)
#
#
# Indices 1 2 3 4 5 6 
#
# 1 114.0592 36.8407 54.6470 9.7816 -3.8393 -3.9793
# 2 36.8407 64.4441 39.1325 0.5164 2.2792 -9.2242
# 3 54.6470 39.1325 111.7945 1.6170 11.9871 -3.0671
# 4 9.7816 0.5164 1.6170 34.0552 -7.8412 2.9960
# 5 -3.8393 2.2792 11.9871 -7.8412 25.1819 9.7009
# 6 -3.9793 -9.2242 -3.0671 2.9960 9.7009 31.9787
#
#
#
# Elastic Compliance Matrix: (Units=1/GPa)
#
#
# Indices 1 2 3 4 5 6 
#
# 1 0.013109 -0.004632 -0.005313 -0.002201 0.004829 -0.001473
# 2 -0.004632 0.022209 -0.005059 0.000084 -0.002647 0.006140
# 3 -0.005313 -0.005059 0.014259 -0.001124 -0.008198 0.001839
# 4 -0.002201 0.000084 -0.001124 0.033880 0.013703 -0.007688
# 5 0.004829 -0.002647 -0.008198 0.013703 0.056295 -0.019310
# 6 -0.001473 0.006140 0.001839 -0.007688 -0.019310 0.039613
#
#
# Mechanical properties :
#
#
# Convention : Reuss Voigt Hill
#
# Bulk Modulus (GPa) = 51.10044 61.28202 56.19123
# Shear Modulus (GPa) = 23.15949 28.88833 26.02391
#
# Velocity S-wave (km/s) = 3.50086 3.90995 3.71105
# Velocity P-wave (km/s) = 6.58663 7.26733 6.93534
#
# Compressibility (1/GPa) = 0.01956930
#
# Stress axis : x y z
#
# Youngs Moduli (GPa) = 76.28471 45.02725 70.13348
#
# Poissons Ratio (x) = 0.20855 0.37261
# Poissons Ratio (y) = 0.35333 0.35479
# Poissons Ratio (z) = 0.40529 0.22778
#
# Static dielectric constant tensor:
#      x y z
#    x 3.344440 -0.105480 -0.194990 
#    y -0.105480 3.296200 0.214100 
#    z -0.194990 0.214100 2.686990 
# 
# 
# High freq. dielectric constant tensor:
#      x y z
#    x 1.733600 -0.020630 0.005210 
#    y -0.020630 1.713470 0.014810 
#    z 0.005210 0.014810 1.724260 
# 
# From -- ./inp_files/256213.got.cif
#   From: 2010.06.25/outbox.cif.g09.slc.cpg/sg2_129_cif.got.tgz:256213.got - 2010.06.27 13:26:56.
