data_PCOD8004895
_publ_section_title
;
Structure prediction by ZEFSAII (Michael W. Deem and Ramdas Pophale) SiO2 
 PCOD8004895
Probable space group: P -1
;
_chemical_formula_sum "Si O2"
_cell_formula_units_Z 16
_cell_length_a 8.569356
_cell_length_b 16.208354
_cell_length_c 8.736150
_cell_angle_alpha 47.675933
_cell_angle_beta 65.898999
_cell_angle_gamma 86.758702
_cell_volume 774.858402
_symmetry_space_group_name_H-M "P -1"
_symmetry_group_IT_number 2
_symmetry_cell_setting 'triclinic'
loop_
_space_group_symop_operation_xyz
x,y,z
-x,-y,-z
loop_
_atom_site_type_symbol
_atom_site_label
_atom_site_fract_x
_atom_site_fract_y
_atom_site_fract_z
Si Si1 0.456210 0.690499 0.947718
Si Si2 0.482808 0.936435 0.743464
Si Si3 0.073541 0.566391 0.188992
Si Si4 0.680814 0.328146 0.297531
Si Si5 0.900125 0.096263 0.902135
Si Si6 0.329043 0.916514 0.262888
Si Si7 0.486499 0.515316 0.666705
Si Si8 0.881773 0.643740 0.418655
O O1 0.247631 0.623498 0.158579
O O2 0.571782 0.611791 0.066468
O O3 0.513514 0.812183 0.863851
O O4 0.470816 0.702954 0.739997
O O5 0.500000 0.000000 0.500000
O O6 0.659177 0.014559 0.668994
O O7 0.289178 0.930228 0.899377
O O8 0.034847 0.425594 0.402142
O O9 0.920534 0.612045 0.267025
O O10 0.121774 0.614451 0.935649
O O11 0.659902 0.212671 0.548446
O O12 0.665356 0.425833 0.303138
O O13 0.855496 0.099190 0.735548
O O14 0.038996 0.218470 0.751292
O O15 0.000000 0.000000 0.000000
O O16 0.500000 0.000000 0.000000
O O17 0.500000 0.500000 0.500000
O O18 0.666101 0.604617 0.560591
#
# Coordination Sequence:
#
# PCOD8004895 Si02
#       8
#     2   2   2   2   2   2   2   2
#     4   9  19  37  64  87 123 160 211 248 313 373
#     4  11  20  41  70  90 122 173 215 261 316 377
#     4   8  18  37  65  86 112 171 202 252 313 386
#     4  10  20  41  65  88 127 160 219 257 311 387
#     4  11  25  41  61  92 128 167 212 265 321 376
#     4  10  24  38  65  94 123 166 220 259 318 380
#     4  11  25  36  63  99 127 162 209 271 313 374
#     4  10  20  38  63  86 129 162 208 255 329 364
#
# _framework density 20.648935000000002
#
# number of rings (size 3 to 8) (size 9 to 14) (size 15 to 20)
#    0.750    1.250    2.500    0.375    7.000    0.000 
#    0.000    3.125    0.000    0.000    0.000    0.000 
#    0.000    0.000    0.000    0.000    0.000    0.000 
#
# Total GULP energy -198220.194739 kJ/mol
# GULP energy per Si atom -12388.762171 kJ/mol
# Density = 2.060194 g / cm^3
# Si number density = 20.648935 Si / 1000 Ang^3
#
#
#
# Elastic Constant Matrix: (Units=GPa)
#
#
# Indices 1 2 3 4 5 6 
#
# 1 63.2307 41.5430 37.0250 -9.6700 22.9519 1.5279
# 2 41.5430 144.6858 57.0751 -17.3265 18.1883 -8.5221
# 3 37.0250 57.0751 127.9680 -12.0636 26.4160 -14.2204
# 4 -9.6700 -17.3265 -12.0636 42.9479 -3.4614 8.6750
# 5 22.9519 18.1883 26.4160 -3.4614 36.7305 -0.1169
# 6 1.5279 -8.5221 -14.2204 8.6750 -0.1169 28.3173
#
#
#
# Elastic Compliance Matrix: (Units=1/GPa)
#
#
# Indices 1 2 3 4 5 6 
#
# 1 0.025318 -0.004514 -0.003372 0.003152 -0.010880 -0.005428
# 2 -0.004514 0.009531 -0.002680 0.001850 0.000206 0.001200
# 3 -0.003372 -0.002680 0.011562 -0.000029 -0.004867 0.005171
# 4 0.003152 0.001850 -0.000029 0.026248 -0.000415 -0.007671
# 5 -0.010880 0.000206 -0.004867 -0.000415 0.037378 -0.001513
# 6 -0.005428 0.001200 0.005171 -0.007671 -0.001513 0.040908
#
#
# Mechanical properties :
#
#
# Convention : Reuss Voigt Hill
#
# Bulk Modulus (GPa) = 39.55786 67.46340 53.51063
# Shear Modulus (GPa) = 27.70036 34.94856 31.32446
#
# Velocity S-wave (km/s) = 3.66661 4.11848 3.89910
# Velocity P-wave (km/s) = 6.09297 7.44032 6.80010
#
# Compressibility (1/GPa) = 0.02527943
#
# Stress axis : x y z
#
# Youngs Moduli (GPa) = 39.49787 104.92125 86.49133
#
# Poissons Ratio (x) = 0.47358 0.29166
# Poissons Ratio (y) = 0.17828 0.23178
# Poissons Ratio (z) = 0.13319 0.28116
#
# Static dielectric constant tensor:
#      x y z
#    x 3.538960 0.103510 0.168070 
#    y 0.103510 3.677280 0.033350 
#    z 0.168070 0.033350 3.803030 
# 
# 
# High freq. dielectric constant tensor:
#      x y z
#    x 1.774700 0.005410 0.009630 
#    y 0.005410 1.813550 -0.006690 
#    z 0.009630 -0.006690 1.813950 
# 
# From -- ./inp_files/199451.got.cif
#   From: 2010.06.25/outbox.cif.g09.slc.cpg/sg2_100_cif.got.tgz:199451.got - 2010.06.27 13:26:56.
