data_PCOD8004726
_publ_section_title
;
Structure prediction by ZEFSAII (Michael W. Deem and Ramdas Pophale) SiO2 
 PCOD8004726
Probable space group: P -1
;
_chemical_formula_sum "Si O2"
_cell_formula_units_Z 16
_cell_length_a 19.685158
_cell_length_b 10.565700
_cell_length_c 16.423835
_cell_angle_alpha 23.668455
_cell_angle_beta 146.535533
_cell_angle_gamma 135.411938
_cell_volume 735.105276
_symmetry_space_group_name_H-M "P -1"
_symmetry_group_IT_number 2
_symmetry_cell_setting 'triclinic'
loop_
_space_group_symop_operation_xyz
x,y,z
-x,-y,-z
loop_
_atom_site_type_symbol
_atom_site_label
_atom_site_fract_x
_atom_site_fract_y
_atom_site_fract_z
Si Si1 0.960886 0.841815 0.303641
Si Si2 0.029416 0.333884 0.305165
Si Si3 0.154423 0.050956 0.281150
Si Si4 0.772605 0.483900 0.701732
Si Si5 0.481489 0.446064 0.676485
Si Si6 0.848477 0.499891 0.516737
Si Si7 0.558335 0.782226 0.064222
Si Si8 0.389463 0.117669 0.557122
O O1 0.924935 0.762096 0.405709
O O2 0.000000 0.500000 0.500000
O O3 0.082159 0.996098 0.324880
O O4 0.838714 0.101040 0.993694
O O5 0.123002 0.302444 0.338783
O O6 0.108578 0.517096 0.337337
O O7 0.000000 0.000000 0.500000
O O8 0.892135 0.570634 0.012262
O O9 0.303583 0.957598 0.505319
O O10 0.113666 0.845913 0.287170
O O11 0.666613 0.537318 0.494358
O O12 0.703243 0.599336 0.650252
O O13 0.500333 0.433192 0.801492
O O14 0.518702 0.745675 0.492008
O O15 0.565845 0.120821 0.913345
O O16 0.700199 0.611418 0.283731
O O17 0.471727 0.843758 0.860095
#
# Coordination Sequence:
#
# PCOD8004726 Si02
#       8
#     2   2   2   2   2   2   2   2
#     4   9  20  37  61  88 118 169 206 248 319 378
#     4  11  25  38  67  96 122 164 210 266 314 373
#     4  10  25  41  59  92 133 166 203 260 314 384
#     4  10  20  39  63  92 128 160 211 266 318 367
#     4  10  20  38  61  95 123 164 209 266 315 369
#     4  11  21  43  65  88 128 166 208 256 323 375
#     4  10  21  37  66  91 123 165 212 259 317 375
#     4  11  23  38  62  94 130 163 212 261 315 368
#
# _framework density 21.765588999999999
#
# number of rings (size 3 to 8) (size 9 to 14) (size 15 to 20)
#    0.000    1.750    1.250    3.375    5.250    1.500 
#    0.000    0.625    0.000    0.000    0.000    0.000 
#    0.000    0.000    0.000    0.000    0.000    0.000 
#
# Total GULP energy -198243.824621 kJ/mol
# GULP energy per Si atom -12390.239039 kJ/mol
# Density = 2.171605 g / cm^3
# Si number density = 21.765589 Si / 1000 Ang^3
#
#
#
# Elastic Constant Matrix: (Units=GPa)
#
#
# Indices 1 2 3 4 5 6 
#
# 1 81.8808 22.6127 21.4048 -5.4141 -12.5757 16.6878
# 2 22.6127 74.8452 21.1436 7.4538 -11.5321 4.1175
# 3 21.4048 21.1436 90.0689 -2.7675 -4.1967 6.7344
# 4 -5.4141 7.4538 -2.7675 30.5290 3.9837 -6.4688
# 5 -12.5757 -11.5321 -4.1967 3.9837 36.9444 1.1571
# 6 16.6878 4.1175 6.7344 -6.4688 1.1571 30.8942
#
#
#
# Elastic Compliance Matrix: (Units=1/GPa)
#
#
# Indices 1 2 3 4 5 6 
#
# 1 0.015984 -0.003246 -0.002229 0.001254 0.004277 -0.007613
# 2 -0.003246 0.016484 -0.002984 -0.005681 0.004350 -0.001145
# 3 -0.002229 -0.002984 0.012416 0.001339 -0.000399 -0.000809
# 4 0.001254 -0.005681 0.001339 0.036824 -0.005406 0.007701
# 5 0.004277 0.004350 -0.000399 -0.005406 0.030578 -0.005080
# 6 -0.007613 -0.001145 -0.000809 0.007701 -0.005080 0.038612
#
#
# Mechanical properties :
#
#
# Convention : Reuss Voigt Hill
#
# Bulk Modulus (GPa) = 35.76106 41.90192 38.83149
# Shear Modulus (GPa) = 28.22647 31.78244 30.00445
#
# Velocity S-wave (km/s) = 3.60507 3.82542 3.71688
# Velocity P-wave (km/s) = 5.81330 6.22937 6.02493
#
# Compressibility (1/GPa) = 0.02796338
#
# Stress axis : x y z
#
# Youngs Moduli (GPa) = 62.56430 60.66575 80.54095
#
# Poissons Ratio (x) = 0.19694 0.17956
# Poissons Ratio (y) = 0.20310 0.24036
# Poissons Ratio (z) = 0.13948 0.18105
#
# Static dielectric constant tensor:
#      x y z
#    x 4.219630 0.207300 -0.161660 
#    y 0.207300 3.579210 0.050730 
#    z -0.161660 0.050730 3.982560 
# 
# 
# High freq. dielectric constant tensor:
#      x y z
#    x 1.869120 0.014150 -0.003800 
#    y 0.014150 1.822260 0.007650 
#    z -0.003800 0.007650 1.860630 
# 
# From -- ./inp_files/474082.got.cif
#   From: 2010.06.25/outbox.cif.g09.slc.cpg/sg2_238_cif.got.tgz:474082.got - 2010.06.27 13:26:56.
