data_PCOD8004129
_publ_section_title
;
Structure prediction by ZEFSAII (Michael W. Deem and Ramdas Pophale) SiO2 
 PCOD8004129
Probable space group: P -1
;
_chemical_formula_sum "Si O2"
_cell_formula_units_Z 16
_cell_length_a 8.431354
_cell_length_b 19.625917
_cell_length_c 8.243379
_cell_angle_alpha 41.487175
_cell_angle_beta 124.011700
_cell_angle_gamma 123.532214
_cell_volume 726.600356
_symmetry_space_group_name_H-M "P -1"
_symmetry_group_IT_number 2
_symmetry_cell_setting 'triclinic'
loop_
_space_group_symop_operation_xyz
x,y,z
-x,-y,-z
loop_
_atom_site_type_symbol
_atom_site_label
_atom_site_fract_x
_atom_site_fract_y
_atom_site_fract_z
Si Si1 0.040728 0.362885 0.963257
Si Si2 0.675969 0.278284 0.116954
Si Si3 0.789518 0.821901 0.546253
Si Si4 0.558635 0.114267 0.910080
Si Si5 0.230395 0.918158 0.577920
Si Si6 0.051588 0.740940 0.244057
Si Si7 0.277851 0.152733 0.168558
Si Si8 0.118245 0.569297 0.802055
O O1 0.031832 0.331091 0.829470
O O2 0.151943 0.487390 0.828578
O O3 0.814910 0.339118 0.943430
O O4 0.171201 0.294317 0.253517
O O5 0.747635 0.168857 0.390397
O O6 0.444143 0.240736 0.011777
O O7 0.685969 0.356296 0.138460
O O8 0.641147 0.842524 0.284314
O O9 0.694757 0.834960 0.643727
O O10 0.001623 0.906593 0.513741
O O11 0.720557 0.197878 0.749092
O O12 0.645562 0.107055 0.151277
O O13 0.500000 0.000000 0.000000
O O14 0.307282 0.036932 0.341898
O O15 0.008273 0.655408 0.516047
O O16 0.930386 0.830231 0.041410
O O17 0.000000 0.500000 0.000000
#
# Coordination Sequence:
#
# PCOD8004129 Si02
#       8
#     2   2   2   2   2   2   2   2
#     4   9  20  43  65  86 124 164 211 273 309 365
#     4  10  21  40  60  87 131 168 199 258 318 370
#     4  10  20  37  64  91 126 167 214 257 307 369
#     4  12  21  35  67  98 128 168 209 251 309 374
#     4  11  21  41  59  92 138 169 204 256 307 379
#     4  11  22  41  65  96 123 163 220 258 309 381
#     4  11  20  37  61  90 131 168 200 259 316 372
#     4  10  22  42  65  88 124 165 212 270 323 362
#
# _framework density 22.020356
#
# number of rings (size 3 to 8) (size 9 to 14) (size 15 to 20)
#    0.000    1.500    5.000    2.625    0.000    0.000 
#    6.750   10.000    0.000    0.000    0.000    0.000 
#    0.000    0.000    0.000    0.000    0.000    0.000 
#
# Total GULP energy -198237.961694 kJ/mol
# GULP energy per Si atom -12389.872606 kJ/mol
# Density = 2.197024 g / cm^3
# Si number density = 22.020356 Si / 1000 Ang^3
#
#
#
# Elastic Constant Matrix: (Units=GPa)
#
#
# Indices 1 2 3 4 5 6 
#
# 1 52.0206 23.6692 15.2766 6.7549 7.7100 18.7513
# 2 23.6692 124.9928 37.0618 -22.8721 4.5265 11.8347
# 3 15.2766 37.0618 126.0143 1.6757 2.5161 25.9207
# 4 6.7549 -22.8721 1.6757 34.7212 10.7769 8.4987
# 5 7.7100 4.5265 2.5161 10.7769 26.3078 3.1730
# 6 18.7513 11.8347 25.9207 8.4987 3.1730 24.4398
#
#
#
# Elastic Compliance Matrix: (Units=1/GPa)
#
#
# Indices 1 2 3 4 5 6 
#
# 1 0.029206 -0.004376 0.002267 -0.002002 -0.004623 -0.021397
# 2 -0.004376 0.012063 -0.002415 0.011171 -0.004754 -0.003191
# 3 0.002267 -0.002415 0.010890 0.000445 0.000008 -0.012275
# 4 -0.002002 0.011171 0.000445 0.046661 -0.018298 -0.018196
# 5 -0.004623 -0.004754 0.000008 -0.018298 0.046942 0.006109
# 6 -0.021397 -0.003191 -0.012275 -0.018196 0.006109 0.077432
#
#
# Mechanical properties :
#
#
# Convention : Reuss Voigt Hill
#
# Bulk Modulus (GPa) = 23.19542 50.56031 36.87786
# Shear Modulus (GPa) = 20.27466 32.22843 26.25155
#
# Velocity S-wave (km/s) = 3.03763 3.82982 3.45650
# Velocity P-wave (km/s) = 4.78116 6.52436 5.71956
#
# Compressibility (1/GPa) = 0.04311197
#
# Stress axis : x y z
#
# Youngs Moduli (GPa) = 34.23912 82.89509 91.82784
#
# Poissons Ratio (x) = 0.36271 -0.20813
# Poissons Ratio (y) = 0.14982 0.22175
# Poissons Ratio (z) = -0.07760 0.20018
#
# Static dielectric constant tensor:
#      x y z
#    x 3.870810 -0.050770 0.135740 
#    y -0.050770 4.571470 -0.262320 
#    z 0.135740 -0.262320 4.001640 
# 
# 
# High freq. dielectric constant tensor:
#      x y z
#    x 1.850180 0.003570 0.004600 
#    y 0.003570 1.877850 -0.014940 
#    z 0.004600 -0.014940 1.848730 
# 
# From -- ./inp_files/221734.got.cif
#   From: 2010.06.25/outbox.cif.g09.slc.cpg/sg2_111_cif.got.tgz:221734.got - 2010.06.27 13:26:56.
