data_PCOD8004858
_publ_section_title
;
Structure prediction by ZEFSAII (Michael W. Deem and Ramdas Pophale) SiO2 
 PCOD8004858
Probable space group: P -1
;
_chemical_formula_sum "Si O2"
_cell_formula_units_Z 14
_cell_length_a 14.572408
_cell_length_b 11.367578
_cell_length_c 10.735968
_cell_angle_alpha 44.184619
_cell_angle_beta 33.203525
_cell_angle_gamma 58.905996
_cell_volume 662.310889
_symmetry_space_group_name_H-M "P -1"
_symmetry_group_IT_number 2
_symmetry_cell_setting 'triclinic'
loop_
_space_group_symop_operation_xyz
x,y,z
-x,-y,-z
loop_
_atom_site_type_symbol
_atom_site_label
_atom_site_fract_x
_atom_site_fract_y
_atom_site_fract_z
Si Si1 0.255318 0.837865 0.037824
Si Si2 0.109728 0.344161 0.306316
Si Si3 0.697319 0.855332 0.928858
Si Si4 0.416114 0.572370 0.921720
Si Si5 0.936072 0.533763 0.181216
Si Si6 0.293841 0.221050 0.735795
Si Si7 0.355902 0.792097 0.220890
O O1 0.382341 0.843397 0.007178
O O2 0.056721 0.749250 0.356828
O O3 0.326041 0.731465 0.931649
O O4 0.267856 0.037384 0.833260
O O5 0.144408 0.205944 0.268907
O O6 0.073902 0.510991 0.146491
O O7 0.271209 0.410096 0.162026
O O8 0.730572 0.063895 0.723485
O O9 0.664470 0.790375 0.156819
O O10 0.529537 0.773453 0.102644
O O11 0.555859 0.638103 0.606651
O O12 0.500000 0.500000 0.000000
O O13 0.887696 0.719250 0.113119
O O14 0.762379 0.394283 0.501675
O O15 0.000000 0.500000 0.000000
#
# Coordination Sequence:
#
# PCOD8004858 Si02
#       7
#     2   2   2   2   2   2   2
#     4  10  23  43  63  92 125 169 210 250 307 364
#     4  11  23  40  67  89 127 162 204 257 318 366
#     4  10  20  38  62  96 121 163 201 258 318 370
#     4  12  25  45  66  87 125 170 215 253 303 368
#     4  11  22  36  58  95 128 155 197 252 314 370
#     4  11  24  40  65  92 127 164 208 261 304 372
#     4   9  21  37  61  89 129 159 203 249 316 371
#
# _framework density 21.138112
#
# number of rings (size 3 to 8) (size 9 to 14) (size 15 to 20)
#    0.000    1.429    1.429    4.286    4.000    2.857 
#    0.000    4.286    0.000    0.000    0.000    0.000 
#    0.000    0.000    0.000    0.000    0.000    0.000 
#
# Total GULP energy -173575.040321 kJ/mol
# GULP energy per Si atom -12398.217166 kJ/mol
# Density = 2.109000 g / cm^3
# Si number density = 21.138112 Si / 1000 Ang^3
#
#
#
# Elastic Constant Matrix: (Units=GPa)
#
#
# Indices 1 2 3 4 5 6 
#
# 1 85.6206 19.5556 32.6305 -0.2361 -9.9393 -8.2406
# 2 19.5556 144.8473 27.4973 13.7285 3.4963 -0.1571
# 3 32.6305 27.4973 60.2953 9.1345 5.1892 -8.5067
# 4 -0.2361 13.7285 9.1345 33.5029 3.8460 3.3911
# 5 -9.9393 3.4963 5.1892 3.8460 24.4520 -0.6989
# 6 -8.2406 -0.1571 -8.5067 3.3911 -0.6989 32.5999
#
#
#
# Elastic Compliance Matrix: (Units=1/GPa)
#
#
# Indices 1 2 3 4 5 6 
#
# 1 0.016625 -0.000844 -0.009391 0.001857 0.008629 0.001740
# 2 -0.000844 0.007778 -0.002792 -0.002304 -0.000520 -0.000676
# 3 -0.009391 -0.002792 0.025055 -0.005321 -0.007769 0.004538
# 4 0.001857 -0.002304 -0.005321 0.033062 -0.003114 -0.004436
# 5 0.008629 -0.000520 -0.007769 -0.003114 0.046659 0.001476
# 6 0.001740 -0.000676 0.004538 -0.004436 0.001476 0.032789
#
#
# Mechanical properties :
#
#
# Convention : Reuss Voigt Hill
#
# Bulk Modulus (GPa) = 42.72610 50.01445 46.37027
# Shear Modulus (GPa) = 25.53312 32.18294 28.85803
#
# Velocity S-wave (km/s) = 3.47928 3.90617 3.69889
# Velocity P-wave (km/s) = 6.03301 6.63749 6.34246
#
# Compressibility (1/GPa) = 0.02340490
#
# Stress axis : x y z
#
# Youngs Moduli (GPa) = 60.14871 128.56831 39.91188
#
# Poissons Ratio (x) = 0.10854 0.37480
# Poissons Ratio (y) = 0.05078 0.11143
# Poissons Ratio (z) = 0.56484 0.35894
#
# Static dielectric constant tensor:
#      x y z
#    x 3.785980 -0.098360 -0.015820 
#    y -0.098360 4.217200 0.048640 
#    z -0.015820 0.048640 3.543230 
# 
# 
# High freq. dielectric constant tensor:
#      x y z
#    x 1.821560 -0.004710 -0.000340 
#    y -0.004710 1.855930 0.004670 
#    z -0.000340 0.004670 1.812520 
# 
# From -- ./inp_files/200757.got.cif
#   From: 2010.06.25/outbox.cif.g09.slc.cpg/sg2_101_cif.got.tgz:200757.got - 2010.06.27 13:26:56.
