data_PCOD8004906
_publ_section_title
;
Structure prediction by ZEFSAII (Michael W. Deem and Ramdas Pophale) SiO2 
 PCOD8004906
Probable space group: P -1
;
_chemical_formula_sum "Si O2"
_cell_formula_units_Z 12
_cell_length_a 12.737844
_cell_length_b 8.693136
_cell_length_c 14.409246
_cell_angle_alpha 79.799446
_cell_angle_beta 30.931298
_cell_angle_gamma 59.519956
_cell_volume 574.537315
_symmetry_space_group_name_H-M "P -1"
_symmetry_group_IT_number 2
_symmetry_cell_setting 'triclinic'
loop_
_space_group_symop_operation_xyz
x,y,z
-x,-y,-z
loop_
_atom_site_type_symbol
_atom_site_label
_atom_site_fract_x
_atom_site_fract_y
_atom_site_fract_z
Si Si1 0.301783 0.404660 0.008455
Si Si2 0.658302 0.512526 0.716231
Si Si3 0.250694 0.272580 0.240421
Si Si4 0.596396 0.903240 0.170500
Si Si5 0.091952 0.977628 0.036260
Si Si6 0.259603 0.088242 0.597760
O O1 0.370259 0.231538 0.050169
O O2 0.990169 0.648099 0.235575
O O3 0.557754 0.391254 0.825708
O O4 0.308983 0.321451 0.909371
O O5 0.756430 0.546136 0.732835
O O6 0.937605 0.363182 0.455288
O O7 0.411686 0.738779 0.826346
O O8 0.438817 0.063412 0.185328
O O9 0.389750 0.008522 0.404988
O O10 0.884177 0.849708 0.979561
O O11 0.874282 0.010194 0.268202
O O12 0.000000 0.000000 0.000000
O O13 0.500000 0.000000 0.500000
#
# Coordination Sequence:
#
# PCOD8004906 Si02
#       6
#     2   2   2   2   2   2
#     4  11  23  39  63  93 123 157 204 250 299 359
#     4   9  20  36  61  91 120 161 203 240 307 356
#     4  10  20  38  63  88 127 159 197 247 301 365
#     4  11  24  40  62  95 121 159 203 248 304 357
#     4  10  20  39  62  85 122 161 202 248 298 356
#     4  11  23  41  63  84 124 163 198 251 301 352
#
# _framework density 20.886374
#
# number of rings (size 3 to 8) (size 9 to 14) (size 15 to 20)
#    0.000    1.667    1.667    4.000    0.000    5.333 
#    0.000    0.833    0.000    0.000    0.000    0.000 
#    0.000    0.000    0.000    0.000    0.000    0.000 
#
# Total GULP energy -148762.803898 kJ/mol
# GULP energy per Si atom -12396.900325 kJ/mol
# Density = 2.083884 g / cm^3
# Si number density = 20.886374 Si / 1000 Ang^3
#
#
#
# Elastic Constant Matrix: (Units=GPa)
#
#
# Indices 1 2 3 4 5 6 
#
# 1 116.0703 46.8823 78.0754 -7.3362 6.8568 3.2769
# 2 46.8823 64.7961 58.0285 -21.5424 14.9357 5.7458
# 3 78.0754 58.0285 126.5490 -26.9873 -1.0270 17.8205
# 4 -7.3362 -21.5424 -26.9873 29.6901 3.6384 0.2729
# 5 6.8568 14.9357 -1.0270 3.6384 43.3670 3.8074
# 6 3.2769 5.7458 17.8205 0.2729 3.8074 33.3006
#
#
#
# Elastic Compliance Matrix: (Units=1/GPa)
#
#
# Indices 1 2 3 4 5 6 
#
# 1 0.018040 -0.007430 -0.010776 -0.010764 -0.000117 0.005375
# 2 -0.007430 0.038776 -0.009168 0.019688 -0.014083 0.000396
# 3 -0.010776 -0.009168 0.022465 0.010537 0.005395 -0.010083
# 4 -0.010764 0.019688 0.010537 0.056041 -0.008879 -0.007421
# 5 -0.000117 -0.014083 0.005395 -0.008879 0.029126 -0.003703
# 6 0.005375 0.000396 -0.010083 -0.007421 -0.003703 0.035312
#
#
# Mechanical properties :
#
#
# Convention : Reuss Voigt Hill
#
# Bulk Modulus (GPa) = 40.76198 74.82087 57.79142
# Shear Modulus (GPa) = 19.03409 29.56683 24.30046
#
# Velocity S-wave (km/s) = 3.02208 3.76653 3.41465
# Velocity P-wave (km/s) = 5.63344 7.40380 6.57845
#
# Compressibility (1/GPa) = 0.02453267
#
# Stress axis : x y z
#
# Youngs Moduli (GPa) = 55.43172 25.78903 44.51316
#
# Poissons Ratio (x) = 0.19162 0.47969
# Poissons Ratio (y) = 0.41186 0.40810
# Poissons Ratio (z) = 0.59735 0.23643
#
# Static dielectric constant tensor:
#      x y z
#    x 3.936400 0.211170 -0.127200 
#    y 0.211170 3.864440 -0.335600 
#    z -0.127200 -0.335600 3.979360 
# 
# 
# High freq. dielectric constant tensor:
#      x y z
#    x 1.822880 0.000220 -0.007450 
#    y 0.000220 1.810940 -0.020940 
#    z -0.007450 -0.020940 1.819300 
# 
# From -- ./inp_files/161958.got.cif
#   From: 2010.06.25/outbox.cif.g09.slc.cpg/sg2_81_cif.got.tgz:161958.got - 2010.06.27 13:26:56.
