data_PCOD8004980
_publ_section_title
;
Structure prediction by ZEFSAII (Michael W. Deem and Ramdas Pophale) SiO2 
 PCOD8004980
Probable space group: P -1
;
_chemical_formula_sum "Si O2"
_cell_formula_units_Z 14
_cell_length_a 8.689602
_cell_length_b 12.299112
_cell_length_c 11.951154
_cell_angle_alpha 59.687518
_cell_angle_beta 140.656472
_cell_angle_gamma 128.553242
_cell_volume 632.582993
_symmetry_space_group_name_H-M "P -1"
_symmetry_group_IT_number 2
_symmetry_cell_setting 'triclinic'
loop_
_space_group_symop_operation_xyz
x,y,z
-x,-y,-z
loop_
_atom_site_type_symbol
_atom_site_label
_atom_site_fract_x
_atom_site_fract_y
_atom_site_fract_z
Si Si1 0.385892 0.397879 0.383551
Si Si2 0.040756 0.832992 0.042638
Si Si3 0.977282 0.849221 0.439154
Si Si4 0.809853 0.288728 0.201374
Si Si5 0.595483 0.860528 0.406858
Si Si6 0.222667 0.124620 0.915291
Si Si7 0.816510 0.535450 0.963040
O O1 0.500000 0.500000 0.500000
O O2 0.505873 0.283889 0.504585
O O3 0.439705 0.479604 0.251486
O O4 0.062674 0.308357 0.256393
O O5 0.339064 0.889687 0.228969
O O6 0.828331 0.808711 0.034619
O O7 0.964088 0.691560 0.007549
O O8 0.050273 0.957337 0.902714
O O9 0.113883 0.748532 0.612625
O O10 0.722963 0.834461 0.377949
O O11 0.868653 0.807824 0.274251
O O12 0.192616 0.008866 0.475436
O O13 0.541185 0.162672 0.069184
O O14 0.752381 0.428161 0.087922
O O15 0.000000 0.500000 0.000000
#
# Coordination Sequence:
#
# PCOD8004980 Si02
#       7
#     2   2   2   2   2   2   2
#     4  10  21  37  64  98 127 164 215 268 328 377
#     4  11  24  44  63  97 131 175 217 260 328 387
#     4  10  22  39  64  98 126 166 219 271 318 371
#     4  10  22  41  65  94 127 171 214 263 319 389
#     4  10  20  38  63  95 127 163 223 267 311 383
#     4  11  25  43  67  92 137 174 213 266 320 393
#     4  10  22  40  66  93 130 168 210 275 317 375
#
# _framework density 22.131481000000001
#
# number of rings (size 3 to 8) (size 9 to 14) (size 15 to 20)
#    0.000    1.714    1.429    2.571    8.000    2.857 
#    2.571    0.714    0.000    0.000    0.000    0.000 
#    0.000    0.000    0.000    0.000    0.000    0.000 
#
# Total GULP energy -173459.739080 kJ/mol
# GULP energy per Si atom -12389.981363 kJ/mol
# Density = 2.208111 g / cm^3
# Si number density = 22.131481 Si / 1000 Ang^3
#
#
#
# Elastic Constant Matrix: (Units=GPa)
#
#
# Indices 1 2 3 4 5 6 
#
# 1 47.2515 33.5821 31.7657 4.3268 -2.3341 -1.5123
# 2 33.5821 109.7267 36.2545 -18.5757 -8.5167 -5.2003
# 3 31.7657 36.2545 150.2337 -23.9235 -17.8712 13.2666
# 4 4.3268 -18.5757 -23.9235 42.3080 5.5353 -1.5202
# 5 -2.3341 -8.5167 -17.8712 5.5353 20.3651 -2.6320
# 6 -1.5123 -5.2003 13.2666 -1.5202 -2.6320 23.4562
#
#
#
# Elastic Compliance Matrix: (Units=1/GPa)
#
#
# Indices 1 2 3 4 5 6 
#
# 1 0.034257 -0.010141 -0.007275 -0.011548 -0.003176 0.002970
# 2 -0.010141 0.013763 -0.000003 0.006779 0.003160 0.003193
# 3 -0.007275 -0.000003 0.010256 0.005572 0.005973 -0.005239
# 4 -0.011548 0.006779 0.005572 0.031205 -0.002160 -0.000613
# 5 -0.003176 0.003160 0.005973 -0.002160 0.056316 0.003297
# 6 0.002970 0.003193 -0.005239 -0.000613 0.003297 0.046825
#
#
# Mechanical properties :
#
#
# Convention : Reuss Voigt Hill
#
# Bulk Modulus (GPa) = 42.66941 56.71294 49.69117
# Shear Modulus (GPa) = 21.25177 30.93317 26.09247
#
# Velocity S-wave (km/s) = 3.10215 3.74264 3.43735
# Velocity P-wave (km/s) = 5.67036 6.66015 6.18508
#
# Compressibility (1/GPa) = 0.02343600
#
# Stress axis : x y z
#
# Youngs Moduli (GPa) = 29.19073 72.65964 97.50511
#
# Poissons Ratio (x) = 0.73688 0.70936
# Poissons Ratio (y) = 0.29604 0.00033
# Poissons Ratio (z) = 0.21237 0.00025
#
# Static dielectric constant tensor:
#      x y z
#    x 3.704020 0.498280 -0.227120 
#    y 0.498280 4.474350 -0.764590 
#    z -0.227120 -0.764590 4.712910 
# 
# 
# High freq. dielectric constant tensor:
#      x y z
#    x 1.814530 0.013960 -0.000810 
#    y 0.013960 1.880820 -0.020880 
#    z -0.000810 -0.020880 1.890100 
# 
# From -- ./inp_files/243455.got.cif
#   From: 2010.06.25/outbox.cif.g09.slc.cpg/sg2_122_cif.got.tgz:243455.got - 2010.06.27 13:26:56.
