data_PCOD8004147
_publ_section_title
;
Structure prediction by ZEFSAII (Michael W. Deem and Ramdas Pophale) SiO2 
 PCOD8004147
Probable space group: P -1
;
_chemical_formula_sum "Si O2"
_cell_formula_units_Z 16
_cell_length_a 8.856606
_cell_length_b 14.213335
_cell_length_c 11.649058
_cell_angle_alpha 31.993312
_cell_angle_beta 91.932907
_cell_angle_gamma 84.311088
_cell_volume 753.559003
_symmetry_space_group_name_H-M "P -1"
_symmetry_group_IT_number 2
_symmetry_cell_setting 'triclinic'
loop_
_space_group_symop_operation_xyz
x,y,z
-x,-y,-z
loop_
_atom_site_type_symbol
_atom_site_label
_atom_site_fract_x
_atom_site_fract_y
_atom_site_fract_z
Si Si1 0.752715 0.419459 0.891548
Si Si2 0.745665 0.073511 0.120068
Si Si3 0.652001 0.045193 0.904243
Si Si4 0.615296 0.781654 0.001498
Si Si5 0.113355 0.269142 0.375457
Si Si6 0.582295 0.396437 0.381143
Si Si7 0.224683 0.739423 0.698973
Si Si8 0.325043 0.097040 0.363118
O O1 0.886712 0.532062 0.777389
O O2 0.600923 0.554640 0.695063
O O3 0.810802 0.241146 0.997383
O O4 0.710062 0.361657 0.077255
O O5 0.565085 0.103684 0.120825
O O6 0.850009 0.886365 0.366283
O O7 0.768277 0.057440 0.999201
O O8 0.620622 0.236608 0.639852
O O9 0.716629 0.879144 0.988176
O O10 0.500000 0.000000 0.000000
O O11 0.680551 0.781433 0.875724
O O12 0.631785 0.571857 0.255750
O O13 0.248478 0.233786 0.319871
O O14 0.948657 0.280330 0.302983
O O15 0.667447 0.342125 0.319717
O O16 0.221257 0.951977 0.492378
O O17 0.500000 0.000000 0.500000
#
# Coordination Sequence:
#
# PCOD8004147 Si02
#       8
#     2   2   2   2   2   2   2   2
#     4  11  22  39  63  90 125 162 206 252 307 368
#     4  10  22  39  61  92 119 161 211 251 307 360
#     4  10  21  38  63  93 122 156 211 264 306 348
#     4  10  20  37  64  94 119 159 202 260 309 355
#     4  12  24  40  62  91 131 164 198 252 309 372
#     4  11  22  40  63  92 124 159 208 258 303 365
#     4  12  24  40  61  94 129 163 200 250 314 375
#     4  12  20  38  66  91 125 159 202 248 308 367
#
# _framework density 21.232578
#
# number of rings (size 3 to 8) (size 9 to 14) (size 15 to 20)
#    0.000    1.000    3.750    4.875    0.000    5.500 
#    0.000    0.625    0.000    1.500    0.000    0.000 
#    0.000    0.000    0.000    0.000    0.000    0.000 
#
# Total GULP energy -198421.472681 kJ/mol
# GULP energy per Si atom -12401.342043 kJ/mol
# Density = 2.118425 g / cm^3
# Si number density = 21.232578 Si / 1000 Ang^3
#
#
#
# Elastic Constant Matrix: (Units=GPa)
#
#
# Indices 1 2 3 4 5 6 
#
# 1 53.2213 25.0960 14.7534 -4.4545 -15.7209 24.2951
# 2 25.0960 128.5414 69.6470 7.4692 -12.0415 30.5073
# 3 14.7534 69.6470 109.2081 -1.0753 -22.4801 20.5599
# 4 -4.4545 7.4692 -1.0753 37.8371 8.4552 -7.5039
# 5 -15.7209 -12.0415 -22.4801 8.4552 20.8997 -6.2991
# 6 24.2951 30.5073 20.5599 -7.5039 -6.2991 23.6880
#
#
#
# Elastic Compliance Matrix: (Units=1/GPa)
#
#
# Indices 1 2 3 4 5 6 
#
# 1 0.053872 0.003362 0.010813 -0.015769 0.041504 -0.062926
# 2 0.003362 0.016147 -0.006684 -0.007353 0.001476 -0.020380
# 3 0.010813 -0.006684 0.019348 -0.004841 0.022591 -0.014801
# 4 -0.015769 -0.007353 -0.004841 0.038747 -0.026403 0.035098
# 5 0.041504 0.001476 0.022591 -0.026403 0.101174 -0.045536
# 6 -0.062926 -0.020380 -0.014801 0.035098 -0.045536 0.144857
#
#
# Mechanical properties :
#
#
# Convention : Reuss Voigt Hill
#
# Bulk Modulus (GPa) = 9.58320 56.66261 33.12291
# Shear Modulus (GPa) = 12.69214 28.58324 20.63769
#
# Velocity S-wave (km/s) = 2.44758 3.67304 3.12105
# Velocity P-wave (km/s) = 3.53706 6.68826 5.34994
#
# Compressibility (1/GPa) = 0.10434927
#
# Stress axis : x y z
#
# Youngs Moduli (GPa) = 18.56260 61.93184 51.68565
#
# Poissons Ratio (x) = -0.20825 -0.55886
# Poissons Ratio (y) = -0.06242 0.34545
# Poissons Ratio (z) = -0.20071 0.41393
#
# Static dielectric constant tensor:
#      x y z
#    x 3.560220 0.277790 -0.162890 
#    y 0.277790 4.490760 -0.015650 
#    z -0.162890 -0.015650 3.907640 
# 
# 
# High freq. dielectric constant tensor:
#      x y z
#    x 1.799390 0.019170 -0.016880 
#    y 0.019170 1.847680 -0.005210 
#    z -0.016880 -0.005210 1.839750 
# 
# From -- ./inp_files/255813.got.cif
#   From: 2010.06.25/outbox.cif.g09.slc.cpg/sg2_128_cif.got.tgz:255813.got - 2010.06.27 13:26:56.
