data_PCOD8004044
_publ_section_title
;
Structure prediction by ZEFSAII (Michael W. Deem and Ramdas Pophale) SiO2 
 PCOD8004044
Probable space group: P -1
;
_chemical_formula_sum "Si O2"
_cell_formula_units_Z 14
_cell_length_a 11.774439
_cell_length_b 19.745536
_cell_length_c 25.761858
_cell_angle_alpha 20.308437
_cell_angle_beta 19.527530
_cell_angle_gamma 22.880869
_cell_volume 657.711577
_symmetry_space_group_name_H-M "P -1"
_symmetry_group_IT_number 2
_symmetry_cell_setting 'triclinic'
loop_
_space_group_symop_operation_xyz
x,y,z
-x,-y,-z
loop_
_atom_site_type_symbol
_atom_site_label
_atom_site_fract_x
_atom_site_fract_y
_atom_site_fract_z
Si Si1 0.095318 0.957507 0.075907
Si Si2 0.061862 0.373503 0.276614
Si Si3 0.238421 0.872508 0.694212
Si Si4 0.658044 0.845426 0.787812
Si Si5 0.140778 0.778948 0.917267
Si Si6 0.613937 0.552984 0.102317
Si Si7 0.299380 0.896368 0.326170
O O1 0.292707 0.108298 0.855607
O O2 0.324238 0.715087 0.147416
O O3 0.724370 0.995486 0.178549
O O4 0.025502 0.014657 0.125532
O O5 0.093244 0.238403 0.308344
O O6 0.431362 0.309850 0.195286
O O7 0.755059 0.324365 0.479329
O O8 0.950650 0.614039 0.137129
O O9 0.060238 0.829674 0.855197
O O10 0.464775 0.661226 0.719056
O O11 0.500000 0.000000 0.500000
O O12 0.913148 0.003905 0.704973
O O13 0.852526 0.956902 0.663780
O O14 0.599882 0.649753 0.981809
O O15 0.000000 0.500000 0.000000
#
# Coordination Sequence:
#
# PCOD8004044 Si02
#       7
#     2   2   2   2   2   2   2
#     4  10  23  40  65  93 128 161 212 266 313 366
#     4  10  20  37  63  91 125 166 212 253 313 379
#     4  12  23  39  65  92 127 163 213 258 311 378
#     4  10  20  39  66  93 124 164 215 263 311 366
#     4  10  22  40  60  91 128 168 200 260 324 370
#     4  11  20  40  65  89 121 173 213 243 315 386
#     4  11  21  37  62  96 121 167 212 258 305 383
#
# _framework density 21.285926
#
# number of rings (size 3 to 8) (size 9 to 14) (size 15 to 20)
#    0.000    1.429    5.714    2.143    0.000    1.143 
#    0.000    2.143    0.000    0.000    0.000    1.000 
#    0.000    0.000    0.000    0.000    0.000    0.000 
#
# Total GULP energy -173541.499755 kJ/mol
# GULP energy per Si atom -12395.821411 kJ/mol
# Density = 2.123748 g / cm^3
# Si number density = 21.285926 Si / 1000 Ang^3
#
#
#
# Elastic Constant Matrix: (Units=GPa)
#
#
# Indices 1 2 3 4 5 6 
#
# 1 136.4419 43.8141 27.5760 -10.3527 3.6276 1.8569
# 2 43.8141 97.3721 24.7505 -11.1919 5.2377 10.6986
# 3 27.5760 24.7505 95.0024 -26.9492 -3.3726 18.1119
# 4 -10.3527 -11.1919 -26.9492 22.0142 0.9079 1.9740
# 5 3.6276 5.2377 -3.3726 0.9079 27.8482 -3.2778
# 6 1.8569 10.6986 18.1119 1.9740 -3.2778 21.1451
#
#
#
# Elastic Compliance Matrix: (Units=1/GPa)
#
#
# Indices 1 2 3 4 5 6 
#
# 1 0.008972 -0.003884 -0.002637 -0.001285 -0.000303 0.003509
# 2 -0.003884 0.013724 0.001340 0.007729 -0.003221 -0.008972
# 3 -0.002637 0.001340 0.024658 0.031876 -0.000866 -0.024678
# 4 -0.001285 0.007729 0.031876 0.091613 -0.005175 -0.040456
# 5 -0.000303 -0.003221 -0.000866 -0.005175 0.037644 0.008717
# 6 0.003509 -0.008972 -0.024678 -0.040456 0.008717 0.077789
#
#
# Mechanical properties :
#
#
# Convention : Reuss Voigt Hill
#
# Bulk Modulus (GPa) = 27.03088 57.89973 42.46530
# Shear Modulus (GPa) = 18.04450 29.71322 23.87886
#
# Velocity S-wave (km/s) = 2.91472 3.74024 3.35298
# Velocity P-wave (km/s) = 4.90449 6.77588 5.91466
#
# Compressibility (1/GPa) = 0.03699472
#
# Stress axis : x y z
#
# Youngs Moduli (GPa) = 111.45825 72.86423 40.55410
#
# Poissons Ratio (x) = 0.28299 0.10692
# Poissons Ratio (y) = 0.43288 -0.05436
# Poissons Ratio (z) = 0.29387 -0.09767
#
# Static dielectric constant tensor:
#      x y z
#    x 4.186740 0.119430 -0.079630 
#    y 0.119430 3.703930 -0.221890 
#    z -0.079630 -0.221890 3.880560 
# 
# 
# High freq. dielectric constant tensor:
#      x y z
#    x 1.855220 0.008610 -0.004710 
#    y 0.008610 1.809860 -0.013760 
#    z -0.004710 -0.013760 1.822850 
# 
# From -- ./inp_files/396641.got.cif
#   From: 2010.06.25/outbox.cif.g09.slc.cpg/sg2_199_cif.got.tgz:396641.got - 2010.06.27 13:26:56.
