data_PCOD8004743
_publ_section_title
;
Structure prediction by ZEFSAII (Michael W. Deem and Ramdas Pophale) SiO2 
 PCOD8004743
Probable space group: P -1
;
_chemical_formula_sum "Si O2"
_cell_formula_units_Z 14
_cell_length_a 8.879249
_cell_length_b 12.103205
_cell_length_c 12.089453
_cell_angle_alpha 120.009912
_cell_angle_beta 142.544809
_cell_angle_gamma 69.575429
_cell_volume 681.331595
_symmetry_space_group_name_H-M "P -1"
_symmetry_group_IT_number 2
_symmetry_cell_setting 'triclinic'
loop_
_space_group_symop_operation_xyz
x,y,z
-x,-y,-z
loop_
_atom_site_type_symbol
_atom_site_label
_atom_site_fract_x
_atom_site_fract_y
_atom_site_fract_z
Si Si1 0.923779 0.617653 0.196386
Si Si2 0.038147 0.021420 0.755250
Si Si3 0.071967 0.755771 0.565696
Si Si4 0.952591 0.325299 0.051669
Si Si5 0.684697 0.228690 0.639002
Si Si6 0.891946 0.804346 0.711147
Si Si7 0.634032 0.729096 0.898223
O O1 0.905447 0.689009 0.338435
O O2 0.906046 0.467207 0.132483
O O3 0.182051 0.661294 0.306320
O O4 0.690927 0.652511 0.004487
O O5 0.804264 0.095746 0.617137
O O6 0.085364 0.911266 0.637824
O O7 0.282182 0.119977 0.960171
O O8 0.974921 0.952896 0.803310
O O9 0.344887 0.707556 0.692812
O O10 0.947304 0.717093 0.592505
O O11 0.948227 0.237158 0.113490
O O12 0.216369 0.326387 0.143640
O O13 0.731588 0.266882 0.813733
O O14 0.397019 0.213827 0.435319
#
# Coordination Sequence:
#
# PCOD8004743 Si02
#       7
#     2   2   2   2   2   2   2
#     4  10  22  39  59  82 109 149 194 229 269 327
#     4   8  20  38  58  84 114 144 186 226 278 334
#     4  10  22  37  56  88 115 146 180 228 287 330
#     4  10  22  39  59  82 109 149 194 229 269 327
#     4  10  20  38  62  83 109 147 189 232 273 325
#     4  10  22  37  56  88 115 146 180 228 287 330
#     4  10  20  38  62  83 109 147 189 232 273 325
#
# _framework density 20.547996999999999
#
# number of rings (size 3 to 8) (size 9 to 14) (size 15 to 20)
#    0.857    1.714    0.000    3.429    0.000    9.714 
#    0.000    7.143    0.000    0.000    0.000    0.000 
#    0.000    0.000    0.000    0.000    0.000    0.000 
#
# Total GULP energy -173544.299227 kJ/mol
# GULP energy per Si atom -12396.021373 kJ/mol
# Density = 2.050123 g / cm^3
# Si number density = 20.547997 Si / 1000 Ang^3
#
#
#
# Elastic Constant Matrix: (Units=GPa)
#
#
# Indices 1 2 3 4 5 6 
#
# 1 36.2586 1.0114 8.7155 -7.4338 -15.7037 -6.0104
# 2 1.0114 93.6360 23.6888 4.3570 -4.4606 -7.8361
# 3 8.7155 23.6888 42.1328 -6.5408 -17.5354 -7.0816
# 4 -7.4338 4.3570 -6.5408 19.5742 -2.8728 -12.5099
# 5 -15.7037 -4.4606 -17.5354 -2.8728 38.2605 1.7621
# 6 -6.0104 -7.8361 -7.0816 -12.5099 1.7621 23.5481
#
#
#
# Elastic Compliance Matrix: (Units=1/GPa)
#
#
# Indices 1 2 3 4 5 6 
#
# 1 0.072653 -0.005853 0.036480 0.096315 0.049634 0.075020
# 2 -0.005853 0.014039 -0.014655 -0.017953 -0.008363 -0.010141
# 3 0.036480 -0.014655 0.072488 0.095506 0.050287 0.073208
# 4 0.096315 -0.017953 0.095506 0.246656 0.091833 0.171494
# 5 0.049634 -0.008363 0.050287 0.091833 0.072327 0.068382
# 6 0.075020 -0.010141 0.073208 0.171494 0.068382 0.166245
#
#
# Mechanical properties :
#
#
# Convention : Reuss Voigt Hill
#
# Bulk Modulus (GPa) = 5.23217 26.53988 15.88602
# Shear Modulus (GPa) = 7.39460 25.51732 16.45596
#
# Velocity S-wave (km/s) = 1.89908 3.52780 2.83301
# Velocity P-wave (km/s) = 2.71303 5.43488 4.29525
#
# Compressibility (1/GPa) = 0.19112539
#
# Stress axis : x y z
#
# Youngs Moduli (GPa) = 13.76406 71.23211 13.79542
#
# Poissons Ratio (x) = 0.41691 -0.50326
# Poissons Ratio (y) = 0.08056 0.20217
# Poissons Ratio (z) = -0.50212 1.04387
#
# Static dielectric constant tensor:
#      x y z
#    x 3.527640 -0.000050 -0.141740 
#    y -0.000050 3.676320 -0.047160 
#    z -0.141740 -0.047160 3.429250 
# 
# 
# High freq. dielectric constant tensor:
#      x y z
#    x 1.789660 -0.002950 -0.010910 
#    y -0.002950 1.806970 -0.005630 
#    z -0.010910 -0.005630 1.787360 
# 
# From -- ./inp_files/171961.got.cif
#   From: 2010.06.25/outbox.cif.g09.slc.cpg/sg2_86_cif.got.tgz:171961.got - 2010.06.27 13:26:56.
