data_PCOD8004663
_publ_section_title
;
Structure prediction by ZEFSAII (Michael W. Deem and Ramdas Pophale) SiO2 
 PCOD8004663
Probable space group: P -1
;
_chemical_formula_sum "Si O2"
_cell_formula_units_Z 16
_cell_length_a 11.587436
_cell_length_b 8.780206
_cell_length_c 16.409055
_cell_angle_alpha 134.852410
_cell_angle_beta 98.787392
_cell_angle_gamma 53.973967
_cell_volume 851.350201
_symmetry_space_group_name_H-M "P -1"
_symmetry_group_IT_number 2
_symmetry_cell_setting 'triclinic'
loop_
_space_group_symop_operation_xyz
x,y,z
-x,-y,-z
loop_
_atom_site_type_symbol
_atom_site_label
_atom_site_fract_x
_atom_site_fract_y
_atom_site_fract_z
Si Si1 0.733697 0.223463 0.290259
Si Si2 0.299829 0.707389 0.288974
Si Si3 0.843181 0.245993 0.024287
Si Si4 0.081888 0.899382 0.203992
Si Si5 0.429133 0.882469 0.491777
Si Si6 0.196831 0.224321 0.743584
Si Si7 0.850711 0.519950 0.824088
Si Si8 0.655697 0.180299 0.086960
O O1 0.577126 0.559671 0.420211
O O2 0.733774 0.129098 0.163631
O O3 0.731200 0.035667 0.283848
O O4 0.890526 0.177079 0.297639
O O5 0.181951 0.933281 0.287542
O O6 0.322701 0.872913 0.415652
O O7 0.219262 0.594849 0.279372
O O8 0.465294 0.412101 0.157795
O O9 0.812954 0.536360 0.122139
O O10 0.694713 0.320533 0.080700
O O11 0.861985 0.127348 0.891360
O O12 0.000000 0.000000 0.000000
O O13 0.118952 0.606393 0.127540
O O14 0.500000 0.000000 0.500000
O O15 0.314024 0.102276 0.633919
O O16 0.019718 0.382416 0.752211
O O17 0.723668 0.871987 0.943406
#
# Coordination Sequence:
#
# PCOD8004663 Si02
#       8
#     2   2   2   2   2   2   2   2
#     4  10  20  38  61  87 116 157 200 242 284 351
#     4   9  22  39  58  84 120 158 193 245 293 348
#     4  12  21  33  62  94 121 152 196 242 292 351
#     4   9  20  37  58  84 123 148 196 238 301 338
#     4  11  24  41  65  84 117 154 203 246 291 351
#     4  11  21  37  62  89 116 158 201 238 291 347
#     4   9  19  36  58  84 119 157 191 238 297 345
#     4  11  19  34  61  89 123 154 196 238 296 345
#
# _framework density 18.793676000000001
#
# number of rings (size 3 to 8) (size 9 to 14) (size 15 to 20)
#    0.750    1.000    2.500    3.000    0.000    3.000 
#    0.000    0.625    2.750    0.000    0.000    0.000 
#    0.000    0.000    0.000    0.000    0.000    0.000 
#
# Total GULP energy -198319.529998 kJ/mol
# GULP energy per Si atom -12394.970625 kJ/mol
# Density = 1.875090 g / cm^3
# Si number density = 18.793676 Si / 1000 Ang^3
#
#
#
# Elastic Constant Matrix: (Units=GPa)
#
#
# Indices 1 2 3 4 5 6 
#
# 1 87.0808 23.1990 12.1568 -9.6334 -3.7763 -3.4382
# 2 23.1990 70.4183 19.5573 -7.9701 -0.4697 -12.6520
# 3 12.1568 19.5573 53.9235 -4.4931 -5.7791 -3.5743
# 4 -9.6334 -7.9701 -4.4931 22.6022 5.1939 1.2977
# 5 -3.7763 -0.4697 -5.7791 5.1939 33.8379 -3.5872
# 6 -3.4382 -12.6520 -3.5743 1.2977 -3.5872 37.8199
#
#
#
# Elastic Compliance Matrix: (Units=1/GPa)
#
#
# Indices 1 2 3 4 5 6 
#
# 1 0.013057 -0.003529 -0.001288 0.003947 0.000561 -0.000197
# 2 -0.003529 0.018149 -0.005253 0.003814 -0.001092 0.005020
# 3 -0.001288 -0.005253 0.021206 0.001035 0.003289 0.000406
# 4 0.003947 0.003814 0.001035 0.049104 -0.006932 -0.000610
# 5 0.000561 -0.001092 0.003289 -0.006932 0.031568 0.003229
# 6 -0.000197 0.005020 0.000406 -0.000610 0.003229 0.028468
#
#
# Mechanical properties :
#
#
# Convention : Reuss Voigt Hill
#
# Bulk Modulus (GPa) = 30.98685 35.69432 33.34059
# Shear Modulus (GPa) = 25.98097 29.28597 27.63347
#
# Velocity S-wave (km/s) = 3.72214 3.95180 3.83869
# Velocity P-wave (km/s) = 5.91575 6.31318 6.11770
#
# Compressibility (1/GPa) = 0.03227175
#
# Stress axis : x y z
#
# Youngs Moduli (GPa) = 76.58929 55.10046 47.15630
#
# Poissons Ratio (x) = 0.19444 0.06073
# Poissons Ratio (y) = 0.27027 0.24772
# Poissons Ratio (z) = 0.09863 0.28946
#
# Static dielectric constant tensor:
#      x y z
#    x 3.659930 -0.039180 -0.071450 
#    y -0.039180 3.434630 0.082070 
#    z -0.071450 0.082070 3.290160 
# 
# 
# High freq. dielectric constant tensor:
#      x y z
#    x 1.741310 -0.004220 -0.011610 
#    y -0.004220 1.725360 0.009560 
#    z -0.011610 0.009560 1.709940 
# 
# From -- ./inp_files/225297.got.cif
#   From: 2010.06.25/outbox.cif.g09.slc.cpg/sg2_113_cif.got.tgz:225297.got - 2010.06.27 13:26:56.
