data_PCOD8004513
_publ_section_title
;
Structure prediction by ZEFSAII (Michael W. Deem and Ramdas Pophale) SiO2 
 PCOD8004513
Probable space group: P -1
;
_chemical_formula_sum "Si O2"
_cell_formula_units_Z 14
_cell_length_a 5.263582
_cell_length_b 14.536882
_cell_length_c 13.934363
_cell_angle_alpha 132.556551
_cell_angle_beta 69.956462
_cell_angle_gamma 88.483024
_cell_volume 684.494047
_symmetry_space_group_name_H-M "P -1"
_symmetry_group_IT_number 2
_symmetry_cell_setting 'triclinic'
loop_
_space_group_symop_operation_xyz
x,y,z
-x,-y,-z
loop_
_atom_site_type_symbol
_atom_site_label
_atom_site_fract_x
_atom_site_fract_y
_atom_site_fract_z
Si Si1 0.571387 0.910928 0.146238
Si Si2 0.756492 0.224324 0.043723
Si Si3 0.912858 0.666435 0.364434
Si Si4 0.715565 0.970752 0.540301
Si Si5 0.502363 0.461266 0.722442
Si Si6 0.522983 0.879872 0.842176
Si Si7 0.998696 0.370000 0.462560
O O1 0.364324 0.856055 0.072615
O O2 0.902581 0.807264 0.033655
O O3 0.451351 0.932107 0.283798
O O4 0.568588 0.052599 0.202921
O O5 0.592427 0.380203 0.155025
O O6 0.693734 0.189012 0.136343
O O7 0.806763 0.817814 0.450975
O O8 0.767356 0.585253 0.259418
O O9 0.818575 0.653478 0.477804
O O10 0.265817 0.596508 0.261013
O O11 0.500000 0.000000 0.500000
O O12 0.000000 0.000000 0.500000
O O13 0.665187 0.395995 0.554401
O O14 0.850595 0.764786 0.715853
O O15 0.500000 0.000000 0.000000
O O16 0.000000 0.500000 0.500000
#
# Coordination Sequence:
#
# PCOD8004513 Si02
#       7
#     2   2   2   2   2   2   2
#     4  11  23  41  62  92 133 162 215 275 317 384
#     4  11  22  38  62  95 132 176 204 246 332 400
#     4  10  22  40  62  92 124 161 211 276 314 375
#     4  12  25  44  72  95 120 166 224 282 336 372
#     4  10  21  38  62  89 128 173 209 257 317 387
#     4  10  20  38  59  95 133 177 210 259 322 392
#     4  10  20  38  60  95 133 175 216 256 313 392
#
# _framework density 20.453061999999999
#
# number of rings (size 3 to 8) (size 9 to 14) (size 15 to 20)
#    0.857    0.571    2.857    3.000    0.000    2.857 
#    5.143    0.000    0.000   17.143    0.000    0.000 
#    0.000    0.000    0.000    0.000    0.000    0.000 
#
# Total GULP energy -173483.703812 kJ/mol
# GULP energy per Si atom -12391.693129 kJ/mol
# Density = 2.040651 g / cm^3
# Si number density = 20.453062 Si / 1000 Ang^3
#
#
#
# Elastic Constant Matrix: (Units=GPa)
#
#
# Indices 1 2 3 4 5 6 
#
# 1 125.1159 44.8482 20.9429 0.5090 0.0381 -4.8267
# 2 44.8482 114.9611 42.5115 10.5806 -3.7279 -12.8113
# 3 20.9429 42.5115 97.8873 9.8669 -14.2599 -9.5267
# 4 0.5090 10.5806 9.8669 43.0126 -0.2828 -5.2225
# 5 0.0381 -3.7279 -14.2599 -0.2828 29.5890 6.3888
# 6 -4.8267 -12.8113 -9.5267 -5.2225 6.3888 27.3721
#
#
#
# Elastic Compliance Matrix: (Units=1/GPa)
#
#
# Indices 1 2 3 4 5 6 
#
# 1 0.009361 -0.003495 -0.000681 0.000917 -0.000802 0.000140
# 2 -0.003495 0.012115 -0.004194 -0.001548 -0.001282 0.003598
# 3 -0.000681 -0.004194 0.013280 -0.001865 0.005669 0.000860
# 4 0.000917 -0.001548 -0.001865 0.024504 -0.001694 0.003859
# 5 -0.000802 -0.001282 0.005669 -0.001694 0.038075 -0.007978
# 6 0.000140 0.003598 0.000860 0.003859 -0.007978 0.041140
#
#
# Mechanical properties :
#
#
# Convention : Reuss Voigt Hill
#
# Bulk Modulus (GPa) = 55.50289 61.61883 58.56086
# Shear Modulus (GPa) = 31.01337 35.30552 33.15944
#
# Velocity S-wave (km/s) = 3.89822 4.15923 4.03084
# Velocity P-wave (km/s) = 6.88891 7.29780 7.09630
#
# Compressibility (1/GPa) = 0.01801708
#
# Stress axis : x y z
#
# Youngs Moduli (GPa) = 106.82333 82.54269 75.29843
#
# Poissons Ratio (x) = 0.28849 0.05124
# Poissons Ratio (y) = 0.37336 0.31581
# Poissons Ratio (z) = 0.07270 0.34620
#
# Static dielectric constant tensor:
#      x y z
#    x 3.720250 -0.032800 -0.128930 
#    y -0.032800 3.929120 0.018610 
#    z -0.128930 0.018610 3.719400 
# 
# 
# High freq. dielectric constant tensor:
#      x y z
#    x 1.794500 -0.002680 -0.013370 
#    y -0.002680 1.798270 0.019740 
#    z -0.013370 0.019740 1.793610 
# 
# From -- ./inp_files/484442.got.cif
#   From: 2010.06.25/outbox.cif.g09.slc.cpg/sg2_243_cif.got.tgz:484442.got - 2010.06.27 13:26:56.
