data_PCOD8004690
_publ_section_title
;
Structure prediction by ZEFSAII (Michael W. Deem and Ramdas Pophale) SiO2 
 PCOD8004690
Probable space group: P -1
;
_chemical_formula_sum "Si O2"
_cell_formula_units_Z 14
_cell_length_a 31.348442
_cell_length_b 6.823347
_cell_length_c 9.770849
_cell_angle_alpha 122.896263
_cell_angle_beta 154.704603
_cell_angle_gamma 49.249705
_cell_volume 669.335179
_symmetry_space_group_name_H-M "P -1"
_symmetry_group_IT_number 2
_symmetry_cell_setting 'triclinic'
loop_
_space_group_symop_operation_xyz
x,y,z
-x,-y,-z
loop_
_atom_site_type_symbol
_atom_site_label
_atom_site_fract_x
_atom_site_fract_y
_atom_site_fract_z
Si Si1 0.769104 0.661004 0.741072
Si Si2 0.285817 0.183920 0.661938
Si Si3 0.595420 0.481590 0.868968
Si Si4 0.000651 0.636387 0.829424
Si Si5 0.189610 0.011539 0.784493
Si Si6 0.607223 0.406333 0.180665
Si Si7 0.925129 0.322208 0.660577
O O1 0.725574 0.826228 0.538838
O O2 0.688376 0.535267 0.505410
O O3 0.895232 0.434012 0.997653
O O4 0.767631 0.852212 0.928626
O O5 0.171524 0.388117 0.476818
O O6 0.319561 0.903731 0.717598
O O7 0.381221 0.273674 0.005943
O O8 0.500000 0.500000 0.500000
O O9 0.556128 0.496679 0.916420
O O10 0.705893 0.209838 0.073019
O O11 0.885662 0.787997 0.472748
O O12 0.003259 0.364222 0.790403
O O13 0.010914 0.795453 0.053243
O O14 0.119653 0.875963 0.602519
O O15 0.500000 0.500000 0.000000
#
# Coordination Sequence:
#
# PCOD8004690 Si02
#       7
#     2   2   2   2   2   2   2
#     4  10  24  39  61  94 127 166 200 259 312 366
#     4   9  21  42  61  87 125 159 209 252 310 373
#     4  10  24  42  65  91 123 161 210 263 309 356
#     4  10  20  38  61  89 128 162 205 244 311 375
#     4  11  22  38  62  92 129 158 205 257 309 365
#     4  11  25  43  66  89 121 171 212 253 314 371
#     4   9  20  37  62  91 118 166 202 252 306 369
#
# _framework density 20.916276
#
# number of rings (size 3 to 8) (size 9 to 14) (size 15 to 20)
#    0.000    2.000    0.000    2.571    4.000    6.857 
#    2.571    0.000    0.000    0.000    0.000    0.000 
#    0.000    0.000    0.000    0.000    0.000    0.000 
#
# Total GULP energy -173594.302843 kJ/mol
# GULP energy per Si atom -12399.593060 kJ/mol
# Density = 2.086867 g / cm^3
# Si number density = 20.916276 Si / 1000 Ang^3
#
#
#
# Elastic Constant Matrix: (Units=GPa)
#
#
# Indices 1 2 3 4 5 6 
#
# 1 94.0877 29.2143 40.3017 20.6218 17.5070 6.6009
# 2 29.2143 92.1697 45.2902 26.2564 -3.6047 11.1748
# 3 40.3017 45.2902 132.0233 29.9963 -1.2070 11.6710
# 4 20.6218 26.2564 29.9963 38.9920 -1.8342 0.0192
# 5 17.5070 -3.6047 -1.2070 -1.8342 27.5860 5.3230
# 6 6.6009 11.1748 11.6710 0.0192 5.3230 21.9325
#
#
#
# Elastic Compliance Matrix: (Units=1/GPa)
#
#
# Indices 1 2 3 4 5 6 
#
# 1 0.015769 -0.002723 -0.002986 -0.004726 -0.010982 0.000900
# 2 -0.002723 0.015991 -0.002309 -0.007331 0.004622 -0.007215
# 3 -0.002986 -0.002309 0.010836 -0.005080 0.002561 -0.004309
# 4 -0.004726 -0.007331 -0.005080 0.037124 0.002914 0.007121
# 5 -0.010982 0.004622 0.002561 0.002914 0.046382 -0.011672
# 6 0.000900 -0.007215 -0.004309 0.007121 -0.011672 0.054119
#
#
# Mechanical properties :
#
#
# Convention : Reuss Voigt Hill
#
# Bulk Modulus (GPa) = 37.64931 60.87700 49.26316
# Shear Modulus (GPa) = 24.37725 31.26706 27.82215
#
# Velocity S-wave (km/s) = 3.41760 3.87055 3.65110
# Velocity P-wave (km/s) = 5.79762 7.01021 6.43255
#
# Compressibility (1/GPa) = 0.02656091
#
# Stress axis : x y z
#
# Youngs Moduli (GPa) = 63.41556 62.53531 92.28236
#
# Poissons Ratio (x) = 0.17031 0.27552
# Poissons Ratio (y) = 0.17271 0.21305
# Poissons Ratio (z) = 0.18933 0.14438
#
# Static dielectric constant tensor:
#      x y z
#    x 3.742580 0.145260 0.137220 
#    y 0.145260 3.682220 0.142880 
#    z 0.137220 0.142880 3.938340 
# 
# 
# High freq. dielectric constant tensor:
#      x y z
#    x 1.815790 0.012040 0.009010 
#    y 0.012040 1.812610 0.007180 
#    z 0.009010 0.007180 1.828590 
# 
# From -- ./inp_files/77714.got.cif
#   From: 2010.06.25/outbox.cif.g09.slc.cpg/sg2_39_cif.got.tgz:77714.got - 2010.06.27 13:26:56.
