data_PCOD8004092
_publ_section_title
;
Structure prediction by ZEFSAII (Michael W. Deem and Ramdas Pophale) SiO2 
 PCOD8004092
Probable space group: P -1
;
_chemical_formula_sum "Si O2"
_cell_formula_units_Z 16
_cell_length_a 18.968335
_cell_length_b 6.953537
_cell_length_c 5.252380
_cell_angle_alpha 76.423220
_cell_angle_beta 90.351851
_cell_angle_gamma 74.709220
_cell_volume 647.862708
_symmetry_space_group_name_H-M "P -1"
_symmetry_group_IT_number 2
_symmetry_cell_setting 'triclinic'
loop_
_space_group_symop_operation_xyz
x,y,z
-x,-y,-z
loop_
_atom_site_type_symbol
_atom_site_label
_atom_site_fract_x
_atom_site_fract_y
_atom_site_fract_z
Si Si1 0.273522 0.661808 0.683145
Si Si2 0.846356 0.098588 0.080785
Si Si3 0.836419 0.453481 0.597675
Si Si4 0.581870 0.853347 0.550009
Si Si5 0.582141 0.019685 0.995496
Si Si6 0.046744 0.710528 0.727229
Si Si7 0.106491 0.283785 0.148066
Si Si8 0.365484 0.602071 0.205628
O O1 0.214726 0.876426 0.703372
O O2 0.223874 0.508156 0.643785
O O3 0.317627 0.700574 0.421754
O O4 0.322722 0.568947 0.958452
O O5 0.924122 0.109670 0.196242
O O6 0.813735 0.297029 0.839684
O O7 0.853112 0.886370 0.000764
O O8 0.918927 0.339299 0.537430
O O9 0.836669 0.673237 0.653761
O O10 0.582412 0.615987 0.633497
O O11 0.500000 0.000000 0.500000
O O12 0.623072 0.902760 0.283218
O O13 0.623736 0.906179 0.781983
O O14 0.582723 0.256167 0.918461
O O15 0.500000 0.000000 0.000000
O O16 0.958454 0.789604 0.689704
O O17 0.072765 0.500769 0.948830
#
# Coordination Sequence:
#
# PCOD8004092 Si02
#       8
#     2   2   2   2   2   2   2   2
#     4  11  24  45  68  94 138 196 242 273 359 425
#     4  10  21  40  62  93 133 182 235 297 347 423
#     4  10  21  40  61  91 135 178 236 297 344 426
#     4  10  23  43  72 111 142 179 233 278 354 428
#     4  10  23  43  70 111 143 176 235 277 348 433
#     4   9  20  36  60  95 136 167 233 294 373 429
#     4  10  20  37  63  96 129 178 230 298 367 413
#     4  12  24  46  74  98 149 195 223 302 353 413
#
# _framework density 24.696591999999999
#
# number of rings (size 3 to 8) (size 9 to 14) (size 15 to 20)
#    0.000    1.750    1.250    2.250    0.000    6.500 
#    2.250    6.250    0.000    0.000    0.000    0.000 
#    0.000    0.000    0.000    0.000    0.000    0.000 
#
# Total GULP energy -198252.946015 kJ/mol
# GULP energy per Si atom -12390.809126 kJ/mol
# Density = 2.464038 g / cm^3
# Si number density = 24.696592 Si / 1000 Ang^3
#
#
#
# Elastic Constant Matrix: (Units=GPa)
#
#
# Indices 1 2 3 4 5 6 
#
# 1 93.8401 59.5793 38.2551 10.4132 -4.0708 9.1658
# 2 59.5793 175.9448 66.9400 24.9189 5.7694 22.9577
# 3 38.2551 66.9400 169.0548 25.5647 -6.6680 16.2088
# 4 10.4132 24.9189 25.5647 49.6113 5.4609 1.5236
# 5 -4.0708 5.7694 -6.6680 5.4609 16.6896 2.2618
# 6 9.1658 22.9577 16.2088 1.5236 2.2618 14.5507
#
#
#
# Elastic Compliance Matrix: (Units=1/GPa)
#
#
# Indices 1 2 3 4 5 6 
#
# 1 0.014266 -0.004243 -0.001051 -0.000821 0.005042 -0.001820
# 2 -0.004243 0.009430 -0.001584 -0.002421 -0.002814 -0.009751
# 3 -0.001051 -0.001584 0.008163 -0.003610 0.005605 -0.006426
# 4 -0.000821 -0.002421 -0.003610 0.024251 -0.009735 0.007332
# 5 0.005042 -0.002814 0.005605 -0.009735 0.069546 -0.014771
# 6 -0.001820 -0.009751 -0.006426 0.007332 -0.014771 0.093943
#
#
# Mechanical properties :
#
#
# Convention : Reuss Voigt Hill
#
# Bulk Modulus (GPa) = 55.23437 85.37650 70.30543
# Shear Modulus (GPa) = 20.88638 34.44133 27.66385
#
# Velocity S-wave (km/s) = 2.91128 3.73846 3.35049
# Velocity P-wave (km/s) = 5.80642 7.29931 6.59524
#
# Compressibility (1/GPa) = 0.01810467
#
# Stress axis : x y z
#
# Youngs Moduli (GPa) = 70.09666 106.03995 122.49914
#
# Poissons Ratio (x) = 0.44989 0.12872
# Poissons Ratio (y) = 0.29740 0.19405
# Poissons Ratio (z) = 0.07366 0.16797
#
# Static dielectric constant tensor:
#      x y z
#    x 4.303140 0.210240 -0.118870 
#    y 0.210240 4.039040 -0.367240 
#    z -0.118870 -0.367240 2.235350 
# 
# 
# High freq. dielectric constant tensor:
#      x y z
#    x 1.958060 0.013490 -0.008270 
#    y 0.013490 1.967850 0.023250 
#    z -0.008270 0.023250 2.004770 
# 
# From -- ./inp_files/114529.got.cif
#   From: 2010.06.25/outbox.cif.g09.slc.cpg/sg2_58_cif.got.tgz:114529.got - 2010.06.27 13:26:56.
