data_PCOD8004221
_publ_section_title
;
Structure prediction by ZEFSAII (Michael W. Deem and Ramdas Pophale) SiO2 
 PCOD8004221
Probable space group: P -1
;
_chemical_formula_sum "Si O2"
_cell_formula_units_Z 14
_cell_length_a 7.623732
_cell_length_b 27.059440
_cell_length_c 13.985818
_cell_angle_alpha 160.880126
_cell_angle_beta 126.305795
_cell_angle_gamma 47.527070
_cell_volume 684.357388
_symmetry_space_group_name_H-M "P -1"
_symmetry_group_IT_number 2
_symmetry_cell_setting 'triclinic'
loop_
_space_group_symop_operation_xyz
x,y,z
-x,-y,-z
loop_
_atom_site_type_symbol
_atom_site_label
_atom_site_fract_x
_atom_site_fract_y
_atom_site_fract_z
Si Si1 0.736105 0.256135 0.287120
Si Si2 0.850880 0.325833 0.652287
Si Si3 0.936847 0.022171 0.230375
Si Si4 0.778282 0.664367 0.694211
Si Si5 0.159483 0.008323 0.653324
Si Si6 0.347643 0.301410 0.700595
Si Si7 0.188767 0.251805 0.354486
O O1 0.795142 0.234840 0.379124
O O2 0.447764 0.354334 0.364413
O O3 0.893574 0.344885 0.451325
O O4 0.822373 0.072076 0.929827
O O5 0.828553 0.221682 0.545857
O O6 0.122150 0.306062 0.695650
O O7 0.654034 0.517673 0.953021
O O8 0.003649 0.979003 0.283635
O O9 0.744336 0.946943 0.001837
O O10 0.757364 0.670884 0.583284
O O11 0.000000 0.500000 0.500000
O O12 0.792384 0.828262 0.040379
O O13 0.411404 0.841285 0.437139
O O14 0.000000 0.000000 0.500000
O O15 0.334570 0.273178 0.530815
#
# Coordination Sequence:
#
# PCOD8004221 Si02
#       7
#     2   2   2   2   2   2   2
#     4   9  20  39  64  93 129 154 208 265 294 378
#     4  10  20  37  65  99 119 161 205 259 324 358
#     4   9  20  39  63  89 123 160 203 256 316 358
#     4  11  24  40  66  90 123 173 214 248 311 374
#     4  11  26  43  57  90 134 166 207 259 312 372
#     4  10  22  39  63  92 131 158 206 263 311 374
#     4   8  21  40  61  97 117 161 207 259 313 352
#
# _framework density 20.457149000000001
#
# number of rings (size 3 to 8) (size 9 to 14) (size 15 to 20)
#    0.857    1.429    0.000    1.286    6.000    3.429 
#    0.000    2.857    0.000    0.000    0.000    0.000 
#    0.000    0.000    0.000    0.000    0.000    0.000 
#
# Total GULP energy -173455.690608 kJ/mol
# GULP energy per Si atom -12389.692186 kJ/mol
# Density = 2.041059 g / cm^3
# Si number density = 20.457149 Si / 1000 Ang^3
#
#
#
# Elastic Constant Matrix: (Units=GPa)
#
#
# Indices 1 2 3 4 5 6 
#
# 1 72.4313 41.5705 48.1827 1.7060 -0.5359 -7.5811
# 2 41.5705 124.2036 72.6262 -0.6823 -7.8306 -7.1036
# 3 48.1827 72.6262 119.5177 13.6067 -8.5315 7.4400
# 4 1.7060 -0.6823 13.6067 38.1696 5.2303 -9.1846
# 5 -0.5359 -7.8306 -8.5315 5.2303 17.8099 5.6565
# 6 -7.5811 -7.1036 7.4400 -9.1846 5.6565 31.5952
#
#
#
# Elastic Compliance Matrix: (Units=1/GPa)
#
#
# Indices 1 2 3 4 5 6 
#
# 1 0.022563 -0.001366 -0.010537 0.006958 -0.010672 0.011521
# 2 -0.001366 0.014298 -0.009384 0.005679 -0.002185 0.007139
# 3 -0.010537 -0.009384 0.021990 -0.013612 0.015335 -0.016519
# 4 0.006958 0.005679 -0.013612 0.039031 -0.022090 0.021453
# 5 -0.010672 -0.002185 0.015335 -0.022090 0.077248 -0.026914
# 6 0.011521 0.007139 -0.016519 0.021453 -0.026914 0.050964
#
#
# Mechanical properties :
#
#
# Convention : Reuss Voigt Hill
#
# Bulk Modulus (GPa) = 61.44202 71.21237 66.32720
# Shear Modulus (GPa) = 18.24197 27.76647 23.00422
#
# Velocity S-wave (km/s) = 2.98940 3.68815 3.35701
# Velocity P-wave (km/s) = 6.48190 7.28167 6.89339
#
# Compressibility (1/GPa) = 0.01627551
#
# Stress axis : x y z
#
# Youngs Moduli (GPa) = 44.32113 69.94223 45.47521
#
# Poissons Ratio (x) = 0.09553 0.47918
# Poissons Ratio (y) = 0.06054 0.42675
# Poissons Ratio (z) = 0.46702 0.65636
#
# Static dielectric constant tensor:
#      x y z
#    x 3.822690 0.018910 -0.128450 
#    y 0.018910 3.356600 -0.105050 
#    z -0.128450 -0.105050 3.766010 
# 
# 
# High freq. dielectric constant tensor:
#      x y z
#    x 1.807760 0.000860 -0.009390 
#    y 0.000860 1.770230 -0.006660 
#    z -0.009390 -0.006660 1.797310 
# 
# From -- ./inp_files/294970.got.cif
#   From: 2010.06.25/outbox.cif.g09.slc.cpg/sg2_148_cif.got.tgz:294970.got - 2010.06.27 13:26:56.
