data_PCOD8004322
_publ_section_title
;
Structure prediction by ZEFSAII (Michael W. Deem and Ramdas Pophale) SiO2 
 PCOD8004322
Probable space group: P -1
;
_chemical_formula_sum "Si O2"
_cell_formula_units_Z 16
_cell_length_a 29.407015
_cell_length_b 5.307350
_cell_length_c 9.049143
_cell_angle_alpha 66.849207
_cell_angle_beta 34.282426
_cell_angle_gamma 77.970945
_cell_volume 712.738591
_symmetry_space_group_name_H-M "P -1"
_symmetry_group_IT_number 2
_symmetry_cell_setting 'triclinic'
loop_
_space_group_symop_operation_xyz
x,y,z
-x,-y,-z
loop_
_atom_site_type_symbol
_atom_site_label
_atom_site_fract_x
_atom_site_fract_y
_atom_site_fract_z
Si Si1 0.433142 0.824813 0.530536
Si Si2 0.755606 0.648665 0.327618
Si Si3 0.312870 0.791798 0.616661
Si Si4 0.812287 0.379699 0.773998
Si Si5 0.771146 0.220996 0.615135
Si Si6 0.087455 0.056609 0.675408
Si Si7 0.393864 0.170595 0.831948
Si Si8 0.088060 0.037057 0.330424
O O1 0.402880 0.877739 0.433130
O O2 0.395293 0.500550 0.750581
O O3 0.532779 0.882574 0.246067
O O4 0.405327 0.040938 0.669557
O O5 0.689768 0.398009 0.478544
O O6 0.769770 0.522441 0.478591
O O7 0.720202 0.924953 0.385431
O O8 0.842846 0.716706 0.988596
O O9 0.253943 0.576933 0.937622
O O10 0.760622 0.187416 0.828952
O O11 0.856562 0.645795 0.496958
O O12 0.881241 0.250611 0.701708
O O13 0.862675 0.168726 0.347265
O O14 0.692988 0.982263 0.823185
O O15 0.077934 0.090264 0.517960
O O16 0.000000 0.000000 0.000000
O O17 0.000000 0.000000 0.500000
#
# Coordination Sequence:
#
# PCOD8004322 Si02
#       8
#     2   2   2   2   2   2   2   2
#     4  10  20  37  68  97 130 161 221 259 317 378
#     4  11  26  40  64  94 127 177 206 261 331 381
#     4  11  21  43  63  93 127 170 214 257 318 386
#     4  10  22  40  64  85 121 168 213 261 317 376
#     4  11  25  41  62  93 132 163 218 268 321 384
#     4  11  25  40  65  90 121 171 217 272 318 377
#     4  10  21  37  65 102 124 170 208 272 313 376
#     4  10  24  41  58  86 124 163 213 263 320 382
#
# _framework density 22.448622
#
# number of rings (size 3 to 8) (size 9 to 14) (size 15 to 20)
#    0.000    1.500    2.500    1.500    7.000    2.500 
#    0.000    1.250    0.000    0.000    0.000    0.000 
#    0.000    0.000    0.000    0.000    0.000    0.000 
#
# Total GULP energy -198269.426418 kJ/mol
# GULP energy per Si atom -12391.839151 kJ/mol
# Density = 2.239753 g / cm^3
# Si number density = 22.448622 Si / 1000 Ang^3
#
#
#
# Elastic Constant Matrix: (Units=GPa)
#
#
# Indices 1 2 3 4 5 6 
#
# 1 127.1776 22.0823 28.6524 -6.1400 -20.5459 -23.3421
# 2 22.0823 77.5552 5.9341 -14.2636 -2.4059 0.8574
# 3 28.6524 5.9341 63.5880 -8.2128 -6.7684 -13.4082
# 4 -6.1400 -14.2636 -8.2128 28.7808 -2.5812 -0.1740
# 5 -20.5459 -2.4059 -6.7684 -2.5812 31.2029 -1.7326
# 6 -23.3421 0.8574 -13.4082 -0.1740 -1.7326 32.4400
#
#
#
# Elastic Compliance Matrix: (Units=1/GPa)
#
#
# Indices 1 2 3 4 5 6 
#
# 1 0.011563 -0.002759 -0.002369 0.001136 0.007415 0.007816
# 2 -0.002759 0.014942 0.000241 0.006856 -0.000170 -0.002252
# 3 -0.002369 0.000241 0.019196 0.005438 0.003430 0.006436
# 4 0.001136 0.006856 0.005438 0.040496 0.005996 0.003422
# 5 0.007415 -0.000170 0.003430 0.005996 0.038650 0.008854
# 6 0.007816 -0.002252 0.006436 0.003422 0.008854 0.039661
#
#
# Mechanical properties :
#
#
# Convention : Reuss Voigt Hill
#
# Bulk Modulus (GPa) = 27.83340 42.40651 35.11995
# Shear Modulus (GPa) = 26.84491 32.59486 29.71989
#
# Velocity S-wave (km/s) = 3.46184 3.81461 3.64250
# Velocity P-wave (km/s) = 5.32961 6.19138 5.77659
#
# Compressibility (1/GPa) = 0.03592806
#
# Stress axis : x y z
#
# Youngs Moduli (GPa) = 86.48255 66.92690 52.09550
#
# Poissons Ratio (x) = 0.18462 0.12340
# Poissons Ratio (y) = 0.23857 -0.01256
# Poissons Ratio (z) = 0.20485 -0.01614
#
# Static dielectric constant tensor:
#      x y z
#    x 4.230090 -0.024590 -0.233070 
#    y -0.024590 4.180110 -0.140520 
#    z -0.233070 -0.140520 3.856520 
# 
# 
# High freq. dielectric constant tensor:
#      x y z
#    x 1.898160 -0.005240 -0.016930 
#    y -0.005240 1.885120 -0.006640 
#    z -0.016930 -0.006640 1.862180 
# 
# From -- ./inp_files/53272.got.cif
#   From: 2010.06.25/outbox.cif.g09.slc.cpg/sg2_27_cif.got.tgz:53272.got - 2010.06.27 13:26:56.
