data_PCOD8004580
_publ_section_title
;
Structure prediction by ZEFSAII (Michael W. Deem and Ramdas Pophale) SiO2 
 PCOD8004580
Probable space group: P -1
;
_chemical_formula_sum "Si O2"
_cell_formula_units_Z 14
_cell_length_a 12.379935
_cell_length_b 5.201108
_cell_length_c 18.839018
_cell_angle_alpha 79.271570
_cell_angle_beta 34.688180
_cell_angle_gamma 79.761993
_cell_volume 677.621505
_symmetry_space_group_name_H-M "P -1"
_symmetry_group_IT_number 2
_symmetry_cell_setting 'triclinic'
loop_
_space_group_symop_operation_xyz
x,y,z
-x,-y,-z
loop_
_atom_site_type_symbol
_atom_site_label
_atom_site_fract_x
_atom_site_fract_y
_atom_site_fract_z
Si Si1 0.733641 0.207912 0.353602
Si Si2 0.808985 0.007456 0.647402
Si Si3 0.301572 0.589769 0.070409
Si Si4 0.478142 0.287814 0.746808
Si Si5 0.106982 0.065503 0.232243
Si Si6 0.560562 0.252959 0.160940
Si Si7 0.379486 0.246384 0.643353
O O1 0.530490 0.238869 0.498999
O O2 0.774029 0.506261 0.292995
O O3 0.885021 0.070639 0.332559
O O4 0.728932 0.023739 0.294955
O O5 0.863559 0.032893 0.698702
O O6 0.669962 0.761049 0.726423
O O7 0.689122 0.261513 0.669204
O O8 0.000000 0.000000 0.500000
O O9 0.160171 0.362745 0.174632
O O10 0.229338 0.866862 0.127183
O O11 0.500000 0.500000 0.000000
O O12 0.329093 0.627854 0.970129
O O13 0.392404 0.565492 0.806320
O O14 0.488780 0.271078 0.657262
O O15 0.356764 0.042753 0.852286
#
# Coordination Sequence:
#
# PCOD8004580 Si02
#       7
#     2   2   2   2   2   2   2
#     4  10  22  38  60  95 114 169 197 255 301 354
#     4  10  23  38  58  95 126 153 193 253 312 373
#     4  12  22  41  62  86 126 169 207 248 295 365
#     4  10  20  38  60  88 114 162 192 250 296 372
#     4  12  24  39  65  92 129 155 207 256 302 361
#     4  10  22  37  59  89 114 162 203 233 311 353
#     4  10  20  40  64  83 130 154 209 241 308 374
#
# _framework density 20.660502999999999
#
# number of rings (size 3 to 8) (size 9 to 14) (size 15 to 20)
#    0.857    0.571    1.429    4.714    0.000    0.571 
#    2.571    0.000    0.000   17.143    0.000    0.000 
#    0.000    0.000    0.000    0.000    0.000    0.000 
#
# Total GULP energy -173453.357514 kJ/mol
# GULP energy per Si atom -12389.525537 kJ/mol
# Density = 2.061348 g / cm^3
# Si number density = 20.660503 Si / 1000 Ang^3
#
#
#
# Elastic Constant Matrix: (Units=GPa)
#
#
# Indices 1 2 3 4 5 6 
#
# 1 115.6431 44.8227 20.1157 17.3361 12.8454 4.5012
# 2 44.8227 129.6623 19.3599 17.7940 7.3806 13.6988
# 3 20.1157 19.3599 60.7483 3.8947 17.4499 7.8613
# 4 17.3361 17.7940 3.8947 22.3054 -0.0664 3.7464
# 5 12.8454 7.3806 17.4499 -0.0664 32.0728 7.8081
# 6 4.5012 13.6988 7.8613 3.7464 7.8081 35.3947
#
#
#
# Elastic Compliance Matrix: (Units=1/GPa)
#
#
# Indices 1 2 3 4 5 6 
#
# 1 0.011291 -0.002711 -0.001676 -0.006568 -0.003345 0.001419
# 2 -0.002711 0.009846 -0.001683 -0.005009 0.000369 -0.002643
# 3 -0.001676 -0.001683 0.020604 -0.000734 -0.009794 -0.001473
# 4 -0.006568 -0.005009 -0.000734 0.054752 0.005275 -0.004022
# 5 -0.003345 0.000369 -0.009794 0.005275 0.039429 -0.006798
# 6 0.001419 -0.002643 -0.001473 -0.004022 -0.006798 0.031348
#
#
# Mechanical properties :
#
#
# Convention : Reuss Voigt Hill
#
# Bulk Modulus (GPa) = 33.78320 52.73891 43.26106
# Shear Modulus (GPa) = 26.41624 32.73826 29.57725
#
# Velocity S-wave (km/s) = 3.57961 3.98500 3.78773
# Velocity P-wave (km/s) = 5.78549 6.83780 6.33354
#
# Compressibility (1/GPa) = 0.02960051
#
# Stress axis : x y z
#
# Youngs Moduli (GPa) = 88.56937 101.55949 48.53447
#
# Poissons Ratio (x) = 0.27531 0.08136
# Poissons Ratio (y) = 0.24010 0.08168
# Poissons Ratio (z) = 0.14848 0.17092
#
# Static dielectric constant tensor:
#      x y z
#    x 3.713770 0.100610 0.066950 
#    y 0.100610 4.321470 -0.062940 
#    z 0.066950 -0.062940 3.454870 
# 
# 
# High freq. dielectric constant tensor:
#      x y z
#    x 1.805940 0.002810 0.013700 
#    y 0.002810 1.824680 0.003790 
#    z 0.013700 0.003790 1.778160 
# 
# From -- ./inp_files/564154.got.cif
#   From: 2010.06.25/outbox.cif.g09.slc.cpg/sg2_283_cif.got.tgz:564154.got - 2010.06.27 13:26:56.
