data_PCOD8004975
_publ_section_title
;
Structure prediction by ZEFSAII (Michael W. Deem and Ramdas Pophale) SiO2 
 PCOD8004975
Probable space group: P -1
;
_chemical_formula_sum "Si O2"
_cell_formula_units_Z 12
_cell_length_a 15.768794
_cell_length_b 9.345273
_cell_length_c 8.153828
_cell_angle_alpha 110.491615
_cell_angle_beta 42.368707
_cell_angle_gamma 133.694018
_cell_volume 552.879039
_symmetry_space_group_name_H-M "P -1"
_symmetry_group_IT_number 2
_symmetry_cell_setting 'triclinic'
loop_
_space_group_symop_operation_xyz
x,y,z
-x,-y,-z
loop_
_atom_site_type_symbol
_atom_site_label
_atom_site_fract_x
_atom_site_fract_y
_atom_site_fract_z
Si Si1 0.690468 0.166153 0.227667
Si Si2 0.215410 0.268958 0.884586
Si Si3 0.966775 0.166247 0.932476
Si Si4 0.291502 0.540499 0.486644
Si Si5 0.535744 0.900149 0.039262
Si Si6 0.446664 0.368632 0.304848
O O1 0.736310 0.382963 0.274026
O O2 0.500000 0.000000 0.500000
O O3 0.683978 0.093212 0.023557
O O4 0.824202 0.179816 0.150201
O O5 0.323882 0.257726 0.593804
O O6 0.351160 0.486441 0.878214
O O7 0.072032 0.250562 0.988733
O O8 0.123745 0.073453 0.060598
O O9 0.100423 0.306983 0.645306
O O10 0.358445 0.704266 0.309659
O O11 0.431020 0.522241 0.304266
O O12 0.611123 0.813220 0.807928
O O13 0.500000 0.000000 0.000000
#
# Coordination Sequence:
#
# PCOD8004975 Si02
#       6
#     2   2   2   2   2   2
#     4  10  22  40  65  87 124 165 207 250 312 373
#     4   9  20  36  67  97 120 163 209 260 300 369
#     4  10  20  38  63  95 125 160 210 256 311 368
#     4  10  22  41  65  93 124 168 206 253 312 370
#     4  11  25  39  63  95 126 162 213 257 305 366
#     4  10  21  40  67  90 127 162 214 248 307 370
#
# _framework density 21.704566
#
# number of rings (size 3 to 8) (size 9 to 14) (size 15 to 20)
#    0.000    2.000    0.000    3.000   11.667    0.000 
#    0.000   10.000    0.000    0.000    0.000    0.000 
#    0.000    0.000    0.000    0.000    0.000    0.000 
#
# Total GULP energy -148675.046322 kJ/mol
# GULP energy per Si atom -12389.587193 kJ/mol
# Density = 2.165517 g / cm^3
# Si number density = 21.704566 Si / 1000 Ang^3
#
#
#
# Elastic Constant Matrix: (Units=GPa)
#
#
# Indices 1 2 3 4 5 6 
#
# 1 117.7834 58.0514 49.0514 7.2594 -22.9136 -10.7819
# 2 58.0514 117.2732 49.0173 14.6591 8.3785 -6.0172
# 3 49.0514 49.0173 79.0923 -6.5724 -8.0728 0.5718
# 4 7.2594 14.6591 -6.5724 54.6681 -5.5668 8.7436
# 5 -22.9136 8.3785 -8.0728 -5.5668 45.9937 -5.8784
# 6 -10.7819 -6.0172 0.5718 8.7436 -5.8784 39.1097
#
#
#
# Elastic Compliance Matrix: (Units=1/GPa)
#
#
# Indices 1 2 3 4 5 6 
#
# 1 0.015779 -0.005690 -0.005534 -0.001190 0.008433 0.005089
# 2 -0.005690 0.015682 -0.007400 -0.005263 -0.007499 0.001002
# 3 -0.005534 -0.007400 0.021471 0.006201 0.002602 -0.003973
# 4 -0.001190 -0.005263 0.006201 0.021848 0.003382 -0.005605
# 5 0.008433 -0.007499 0.002602 0.003382 0.028776 0.004702
# 6 0.005089 0.001002 -0.003973 -0.005605 0.004702 0.029144
#
#
# Mechanical properties :
#
#
# Convention : Reuss Voigt Hill
#
# Bulk Modulus (GPa) = 63.76127 69.59880 66.68003
# Shear Modulus (GPa) = 28.54253 38.48954 33.51604
#
# Velocity S-wave (km/s) = 3.63029 4.21567 3.93389
# Velocity P-wave (km/s) = 6.85658 7.47207 7.17093
#
# Compressibility (1/GPa) = 0.01568350
#
# Stress axis : x y z
#
# Youngs Moduli (GPa) = 63.37466 63.76841 46.57349
#
# Poissons Ratio (x) = 0.36285 0.25776
# Poissons Ratio (y) = 0.36061 0.34464
# Poissons Ratio (z) = 0.35074 0.47187
#
# Static dielectric constant tensor:
#      x y z
#    x 3.904300 0.110110 -0.002640 
#    y 0.110110 5.647890 0.068380 
#    z -0.002640 0.068380 3.856110 
# 
# 
# High freq. dielectric constant tensor:
#      x y z
#    x 1.837780 -0.013190 -0.011660 
#    y -0.013190 1.865250 -0.015560 
#    z -0.011660 -0.015560 1.830610 
# 
# From -- ./inp_files/146895.got.cif
#   From: 2010.06.25/outbox.cif.g09.slc.cpg/sg2_74_cif.got.tgz:146895.got - 2010.06.27 13:26:56.
