data_PCOD8004990
_publ_section_title
;
Structure prediction by ZEFSAII (Michael W. Deem and Ramdas Pophale) SiO2 
 PCOD8004990
Probable space group: P -1
;
_chemical_formula_sum "Si O2"
_cell_formula_units_Z 14
_cell_length_a 10.365468
_cell_length_b 10.326836
_cell_length_c 10.976545
_cell_angle_alpha 67.364091
_cell_angle_beta 44.829593
_cell_angle_gamma 98.012119
_cell_volume 591.436496
_symmetry_space_group_name_H-M "P -1"
_symmetry_group_IT_number 2
_symmetry_cell_setting 'triclinic'
loop_
_space_group_symop_operation_xyz
x,y,z
-x,-y,-z
loop_
_atom_site_type_symbol
_atom_site_label
_atom_site_fract_x
_atom_site_fract_y
_atom_site_fract_z
Si Si1 0.122907 0.123157 0.740250
Si Si2 0.203812 0.502774 0.208337
Si Si3 0.269819 0.777719 0.483172
Si Si4 0.251067 0.834960 0.993521
Si Si5 0.493243 0.477015 0.214146
Si Si6 0.593026 0.675167 0.300890
Si Si7 0.219884 0.860540 0.736621
O O1 0.346287 0.298531 0.459267
O O2 0.186023 0.147831 0.836841
O O3 0.100463 0.955241 0.765241
O O4 0.888931 0.101156 0.876362
O O5 0.316231 0.495448 0.256798
O O6 0.939630 0.310924 0.443078
O O7 0.200196 0.669787 0.163253
O O8 0.353406 0.537323 0.976423
O O9 0.378498 0.677866 0.432973
O O10 0.148199 0.731459 0.715545
O O11 0.468446 0.994276 0.251260
O O12 0.146826 0.760576 0.953016
O O13 0.660633 0.652473 0.128124
O O14 0.500000 0.500000 0.500000
O O15 0.500000 0.000000 0.500000
#
# Coordination Sequence:
#
# PCOD8004990 Si02
#       7
#     2   2   2   2   2   2   2
#     4  11  21  41  67  99 135 171 212 278 330 384
#     4  11  25  46  66  95 131 180 221 269 325 389
#     4  11  24  41  66 100 132 175 218 268 330 391
#     4  11  24  40  68  98 136 171 216 270 328 393
#     4  10  24  44  67  92 135 173 225 273 321 395
#     4  10  21  37  64  98 127 168 214 266 330 382
#     4  10  20  38  63  97 136 164 215 270 321 388
#
# _framework density 23.67118
#
# number of rings (size 3 to 8) (size 9 to 14) (size 15 to 20)
#    0.000    1.429    2.857    3.857    4.000    2.857 
#    0.000    9.286    0.000    0.000    0.000    0.000 
#    0.000    0.000    0.000    0.000    0.000    0.000 
#
# Total GULP energy -173584.634785 kJ/mol
# GULP energy per Si atom -12398.902485 kJ/mol
# Density = 2.361730 g / cm^3
# Si number density = 23.671180 Si / 1000 Ang^3
#
#
#
# Elastic Constant Matrix: (Units=GPa)
#
#
# Indices 1 2 3 4 5 6 
#
# 1 88.3249 29.5006 8.6656 -9.3018 -11.0566 -0.3246
# 2 29.5006 87.3413 11.0239 5.2472 0.4210 -3.3842
# 3 8.6656 11.0239 54.8557 0.5290 -18.2727 8.6119
# 4 -9.3018 5.2472 0.5290 41.0957 2.1336 -8.8756
# 5 -11.0566 0.4210 -18.2727 2.1336 30.1317 1.8625
# 6 -0.3246 -3.3842 8.6119 -8.8756 1.8625 40.2722
#
#
#
# Elastic Compliance Matrix: (Units=1/GPa)
#
#
# Indices 1 2 3 4 5 6 
#
# 1 0.013980 -0.005018 0.000490 0.003554 0.005238 0.000127
# 2 -0.005018 0.013816 -0.003590 -0.002299 -0.004146 0.001573
# 3 0.000490 -0.003590 0.025378 -0.002096 0.016197 -0.006936
# 4 0.003554 -0.002299 -0.002096 0.026940 -0.002233 0.006324
# 5 0.005238 -0.004146 0.016197 -0.002233 0.045542 -0.006368
# 6 0.000127 0.001573 -0.006936 0.006324 -0.006368 0.028136
#
#
# Mechanical properties :
#
#
# Convention : Reuss Voigt Hill
#
# Bulk Modulus (GPa) = 27.07057 36.54464 31.80761
# Shear Modulus (GPa) = 27.42143 34.38871 30.90507
#
# Velocity S-wave (km/s) = 3.40727 3.81565 3.61723
# Velocity P-wave (km/s) = 5.19039 5.90629 5.55988
#
# Compressibility (1/GPa) = 0.03694049
#
# Stress axis : x y z
#
# Youngs Moduli (GPa) = 71.53027 72.37865 39.40435
#
# Poissons Ratio (x) = 0.36317 -0.01933
# Poissons Ratio (y) = 0.35892 0.14145
# Poissons Ratio (z) = -0.03508 0.25981
#
# Static dielectric constant tensor:
#      x y z
#    x 4.304700 0.283250 -0.019730 
#    y 0.283250 4.826860 0.281640 
#    z -0.019730 0.281640 4.350550 
# 
# 
# High freq. dielectric constant tensor:
#      x y z
#    x 1.926050 -0.006690 -0.013090 
#    y -0.006690 1.944030 0.010460 
#    z -0.013090 0.010460 1.945060 
# 
# From -- ./inp_files/425592.got.cif
#   From: 2010.06.25/outbox.cif.g09.slc.cpg/sg2_213_cif.got.tgz:425592.got - 2010.06.27 13:26:56.
