data_PCOD8004853
_publ_section_title
;
Structure prediction by ZEFSAII (Michael W. Deem and Ramdas Pophale) SiO2 
 PCOD8004853
Probable space group: P -1
;
_chemical_formula_sum "Si O2"
_cell_formula_units_Z 14
_cell_length_a 20.418915
_cell_length_b 11.804654
_cell_length_c 4.993217
_cell_angle_alpha 83.441079
_cell_angle_beta 104.476166
_cell_angle_gamma 146.681839
_cell_volume 629.888644
_symmetry_space_group_name_H-M "P -1"
_symmetry_group_IT_number 2
_symmetry_cell_setting 'triclinic'
loop_
_space_group_symop_operation_xyz
x,y,z
-x,-y,-z
loop_
_atom_site_type_symbol
_atom_site_label
_atom_site_fract_x
_atom_site_fract_y
_atom_site_fract_z
Si Si1 0.411092 0.972952 0.318030
Si Si2 0.504288 0.356990 0.325354
Si Si3 0.062244 0.973978 0.969710
Si Si4 0.075357 0.650320 0.784240
Si Si5 0.985173 0.742876 0.466638
Si Si6 0.353587 0.359751 0.107308
Si Si7 0.742750 0.257874 0.261558
O O1 0.306897 0.848611 0.470994
O O2 0.500000 0.000000 0.500000
O O3 0.477219 0.187226 0.274225
O O4 0.361527 0.846902 0.023455
O O5 0.380459 0.262208 0.209307
O O6 0.564175 0.449145 0.655855
O O7 0.606707 0.550039 0.174429
O O8 0.209975 0.190272 0.031638
O O9 0.009293 0.143244 0.355974
O O10 0.035852 0.837995 0.197112
O O11 0.000000 0.000000 0.000000
O O12 0.210769 0.786996 0.850922
O O13 0.000000 0.500000 0.500000
O O14 0.078202 0.790294 0.716475
O O15 0.000000 0.500000 0.000000
O O16 0.846109 0.499777 0.354317
#
# Coordination Sequence:
#
# PCOD8004853 Si02
#       7
#     2   2   2   2   2   2   2
#     4  12  26  42  66 101 134 177 226 275 342 408
#     4  10  23  44  68  93 126 173 231 282 325 379
#     4  12  26  42  66 101 134 177 226 275 342 408
#     4  10  20  38  62  94 126 164 216 256 320 400
#     4  11  24  42  66  97 137 174 212 268 338 406
#     4  10  23  44  68  93 126 173 231 282 325 379
#     4  11  24  42  66  97 137 174 212 268 338 406
#
# _framework density 22.226150000000001
#
# number of rings (size 3 to 8) (size 9 to 14) (size 15 to 20)
#    0.000    1.143    0.000    6.857    4.000    3.429 
#    0.000    0.000    0.000    0.000    0.000    0.000 
#    0.000    0.000    0.000    0.000    0.000    0.000 
#
# Total GULP energy -173541.397020 kJ/mol
# GULP energy per Si atom -12395.814073 kJ/mol
# Density = 2.217556 g / cm^3
# Si number density = 22.226150 Si / 1000 Ang^3
#
#
#
# Elastic Constant Matrix: (Units=GPa)
#
#
# Indices 1 2 3 4 5 6 
#
# 1 103.8395 45.3679 13.7100 6.0794 9.0463 2.3440
# 2 45.3679 94.2764 27.0539 5.7171 9.4654 1.3263
# 3 13.7100 27.0539 99.6896 2.1223 -11.9270 -0.6677
# 4 6.0794 5.7171 2.1223 44.2186 1.7330 -11.1473
# 5 9.0463 9.4654 -11.9270 1.7330 44.1263 -0.4924
# 6 2.3440 1.3263 -0.6677 -11.1473 -0.4924 29.5218
#
#
#
# Elastic Compliance Matrix: (Units=1/GPa)
#
#
# Indices 1 2 3 4 5 6 
#
# 1 0.012346 -0.005621 -0.000320 -0.001207 -0.001378 -0.001214
# 2 -0.005621 0.014697 -0.003549 -0.001027 -0.002927 -0.000731
# 3 -0.000320 -0.003549 0.011516 -0.000084 0.003948 0.000479
# 4 -0.001207 -0.001027 -0.000084 0.025385 -0.000443 0.009718
# 5 -0.001378 -0.002927 0.003948 -0.000443 0.024664 0.000574
# 6 -0.001214 -0.000731 0.000479 0.009718 0.000574 0.037692
#
#
# Mechanical properties :
#
#
# Convention : Reuss Voigt Hill
#
# Bulk Modulus (GPa) = 51.07299 52.22992 51.65145
# Shear Modulus (GPa) = 32.93702 37.68493 35.31098
#
# Velocity S-wave (km/s) = 3.85373 4.12214 3.99019
# Velocity P-wave (km/s) = 6.54448 6.79753 6.67221
#
# Compressibility (1/GPa) = 0.01957982
#
# Stress axis : x y z
#
# Youngs Moduli (GPa) = 80.99514 68.04204 86.83941
#
# Poissons Ratio (x) = 0.38246 0.02777
# Poissons Ratio (y) = 0.45527 0.30816
# Poissons Ratio (z) = 0.02590 0.24146
#
# Static dielectric constant tensor:
#      x y z
#    x 3.891010 0.045040 -0.309360 
#    y 0.045040 3.811200 -0.033420 
#    z -0.309360 -0.033420 4.431480 
# 
# 
# High freq. dielectric constant tensor:
#      x y z
#    x 1.881260 0.000610 -0.011570 
#    y 0.000610 1.863990 0.003030 
#    z -0.011570 0.003030 1.899730 
# 
# From -- ./inp_files/118573.got.cif
#   From: 2010.06.25/outbox.cif.g09.slc.cpg/sg2_60_cif.got.tgz:118573.got - 2010.06.27 13:26:56.
