data_PCOD8004416
_publ_section_title
;
Structure prediction by ZEFSAII (Michael W. Deem and Ramdas Pophale) SiO2 
 PCOD8004416
Probable space group: P -1
;
_chemical_formula_sum "Si O2"
_cell_formula_units_Z 12
_cell_length_a 11.000991
_cell_length_b 9.582503
_cell_length_c 19.795450
_cell_angle_alpha 138.022297
_cell_angle_beta 29.036692
_cell_angle_gamma 122.034305
_cell_volume 629.842229
_symmetry_space_group_name_H-M "P -1"
_symmetry_group_IT_number 2
_symmetry_cell_setting 'triclinic'
loop_
_space_group_symop_operation_xyz
x,y,z
-x,-y,-z
loop_
_atom_site_type_symbol
_atom_site_label
_atom_site_fract_x
_atom_site_fract_y
_atom_site_fract_z
Si Si1 0.384831 0.857214 0.957575
Si Si2 0.311778 0.042688 0.509322
Si Si3 0.790553 0.609236 0.560364
Si Si4 0.641451 0.413907 0.736770
Si Si5 0.798008 0.124052 0.359068
Si Si6 0.008899 0.234969 0.601252
O O1 0.556075 0.791045 0.782336
O O2 0.394493 0.636277 0.915422
O O3 0.078520 0.007001 0.141077
O O4 0.500000 0.000000 0.000000
O O5 0.422514 0.802959 0.331407
O O6 0.559533 0.125044 0.426148
O O7 0.186068 0.026503 0.636638
O O8 0.079854 0.229579 0.644201
O O9 0.765118 0.710224 0.532718
O O10 0.090391 0.581797 0.432983
O O11 0.745890 0.375912 0.497145
O O12 0.714550 0.411219 0.781248
O O13 0.000000 0.000000 0.500000
#
# Coordination Sequence:
#
# PCOD8004416 Si02
#       6
#     2   2   2   2   2   2
#     4  12  20  33  61  88 109 144 196 232 268 335
#     4  10  20  40  55  84 117 149 185 228 286 328
#     4  10  20  38  58  85 108 149 190 226 281 325
#     4   9  18  35  59  79 108 146 184 232 271 324
#     4  11  23  35  61  84 114 150 185 233 277 332
#     4   8  18  34  63  77 110 155 179 228 285 324
#
# _framework density 19.052389000000002
#
# number of rings (size 3 to 8) (size 9 to 14) (size 15 to 20)
#    1.000    1.000    3.333    1.500    0.000    1.333 
#    0.000    1.667    7.333    0.000    0.000    0.000 
#    0.000    0.000    0.000    0.000    0.000    0.000 
#
# Total GULP energy -148656.834998 kJ/mol
# GULP energy per Si atom -12388.069583 kJ/mol
# Density = 1.900902 g / cm^3
# Si number density = 19.052389 Si / 1000 Ang^3
#
#
#
# Elastic Constant Matrix: (Units=GPa)
#
#
# Indices 1 2 3 4 5 6 
#
# 1 81.1582 17.1679 3.9592 -0.6484 10.0290 7.2015
# 2 17.1679 81.4829 16.0908 4.1817 4.9985 17.3412
# 3 3.9592 16.0908 65.6864 1.3009 3.8848 9.9126
# 4 -0.6484 4.1817 1.3009 21.0415 2.5653 1.1337
# 5 10.0290 4.9985 3.8848 2.5653 14.5175 0.2174
# 6 7.2015 17.3412 9.9126 1.1337 0.2174 37.2551
#
#
#
# Elastic Compliance Matrix: (Units=1/GPa)
#
#
# Indices 1 2 3 4 5 6 
#
# 1 0.014114 -0.002205 0.000485 0.002096 -0.009464 -0.001839
# 2 -0.002205 0.014687 -0.002421 -0.002238 -0.002405 -0.005684
# 3 0.000485 -0.002421 0.016520 0.000130 -0.003895 -0.003344
# 4 0.002096 -0.002238 0.000130 0.049217 -0.009397 -0.000841
# 5 -0.009464 -0.002405 -0.003895 -0.009397 0.078894 0.003811
# 6 -0.001839 -0.005684 -0.003344 -0.000841 0.003811 0.030736
#
#
# Mechanical properties :
#
#
# Convention : Reuss Voigt Hill
#
# Bulk Modulus (GPa) = 26.99773 33.64036 30.31904
# Shear Modulus (GPa) = 22.24235 27.30345 24.77290
#
# Velocity S-wave (km/s) = 3.42048 3.78970 3.60981
# Velocity P-wave (km/s) = 5.45899 6.06994 5.77255
#
# Compressibility (1/GPa) = 0.03704016
#
# Stress axis : x y z
#
# Youngs Moduli (GPa) = 70.85261 68.08665 60.53281
#
# Poissons Ratio (x) = 0.15013 -0.02937
# Poissons Ratio (y) = 0.15623 0.14652
# Poissons Ratio (z) = -0.03438 0.16481
#
# Static dielectric constant tensor:
#      x y z
#    x 3.874750 -0.280020 -0.063080 
#    y -0.280020 3.699910 -0.030280 
#    z -0.063080 -0.030280 3.264080 
# 
# 
# High freq. dielectric constant tensor:
#      x y z
#    x 1.735720 -0.007080 -0.001050 
#    y -0.007080 1.748140 0.011740 
#    z -0.001050 0.011740 1.699940 
# 
# From -- ./inp_files/63987.got.cif
#   From: 2010.06.25/outbox.cif.g09.slc.cpg/sg2_32_cif.got.tgz:63987.got - 2010.06.27 13:26:56.
