data_PCOD8004538
_publ_section_title
;
Structure prediction by ZEFSAII (Michael W. Deem and Ramdas Pophale) SiO2 
 PCOD8004538
Probable space group: P -1
;
_chemical_formula_sum "Si O2"
_cell_formula_units_Z 14
_cell_length_a 18.123982
_cell_length_b 8.447510
_cell_length_c 20.644427
_cell_angle_alpha 139.945277
_cell_angle_beta 20.046641
_cell_angle_gamma 129.018215
_cell_volume 637.267521
_symmetry_space_group_name_H-M "P -1"
_symmetry_group_IT_number 2
_symmetry_cell_setting 'triclinic'
loop_
_space_group_symop_operation_xyz
x,y,z
-x,-y,-z
loop_
_atom_site_type_symbol
_atom_site_label
_atom_site_fract_x
_atom_site_fract_y
_atom_site_fract_z
Si Si1 0.689856 0.045681 0.084178
Si Si2 0.958015 0.035415 0.340183
Si Si3 0.393613 0.923769 0.460928
Si Si4 0.086037 0.762868 0.758958
Si Si5 0.188782 0.556017 0.095221
Si Si6 0.457225 0.616724 0.500099
Si Si7 0.474646 0.622065 0.129450
O O1 0.861372 0.911039 0.839828
O O2 0.556798 0.367317 0.288774
O O3 0.838992 0.001706 0.015265
O O4 0.511481 0.900536 0.187471
O O5 0.110293 0.813270 0.195778
O O6 0.782770 0.950666 0.414686
O O7 0.790519 0.304289 0.601958
O O8 0.292506 0.765029 0.542653
O O9 0.416252 0.182219 0.555351
O O10 0.648242 0.711873 0.162234
O O11 0.179134 0.773464 0.759009
O O12 0.039628 0.489654 0.705262
O O13 0.334372 0.595645 0.048955
O O14 0.500000 0.500000 0.500000
O O15 0.500000 0.500000 0.000000
#
# Coordination Sequence:
#
# PCOD8004538 Si02
#       7
#     2   2   2   2   2   2   2
#     4  10  23  40  58  82 115 153 188 233 286 333
#     4  10  21  39  61  85 115 150 189 232 282 337
#     4  10  22  36  54  84 117 153 193 229 267 326
#     4  10  21  36  54  78 114 153 189 229 275 322
#     4  10  20  38  60  83 115 151 185 229 283 333
#     4  12  22  35  57  85 117 154 197 233 269 326
#     4  10  22  41  62  86 113 141 185 240 290 345
#
# _framework density 21.968796999999999
#
# number of rings (size 3 to 8) (size 9 to 14) (size 15 to 20)
#    0.000    1.714    0.000    5.571    0.000    6.857 
#    0.000    2.143    0.000    0.000    0.000    0.000 
#    0.000    0.000    0.000    0.000    0.000    0.000 
#
# Total GULP energy -173473.020835 kJ/mol
# GULP energy per Si atom -12390.930060 kJ/mol
# Density = 2.191879 g / cm^3
# Si number density = 21.968797 Si / 1000 Ang^3
#
#
#
# Elastic Constant Matrix: (Units=GPa)
#
#
# Indices 1 2 3 4 5 6 
#
# 1 114.8569 31.3533 32.5104 12.7372 -23.5526 -12.7776
# 2 31.3533 52.2778 19.0874 -10.3457 -4.2795 -15.4442
# 3 32.5104 19.0874 69.4321 -7.0235 -2.1572 -2.1532
# 4 12.7372 -10.3457 -7.0235 26.1330 -6.8268 2.9116
# 5 -23.5526 -4.2795 -2.1572 -6.8268 33.4339 6.8098
# 6 -12.7776 -15.4442 -2.1532 2.9116 6.8098 31.9688
#
#
#
# Elastic Compliance Matrix: (Units=1/GPa)
#
#
# Indices 1 2 3 4 5 6 
#
# 1 0.015318 -0.008264 -0.005718 -0.010596 0.006950 0.001230
# 2 -0.008264 0.030890 -0.002928 0.013959 -0.001332 0.010435
# 3 -0.005718 -0.002928 0.018420 0.006545 -0.001313 -0.002776
# 4 -0.010596 0.013959 0.006545 0.052672 0.006143 -0.003156
# 5 0.006950 -0.001332 -0.001313 0.006143 0.037112 -0.006419
# 6 0.001230 0.010435 -0.002776 -0.003156 -0.006419 0.038281
#
#
# Mechanical properties :
#
#
# Convention : Reuss Voigt Hill
#
# Bulk Modulus (GPa) = 32.45940 44.71876 38.58908
# Shear Modulus (GPa) = 21.11640 28.54819 24.83229
#
# Velocity S-wave (km/s) = 3.10369 3.60875 3.36571
# Velocity P-wave (km/s) = 5.25843 6.14523 5.71905
#
# Compressibility (1/GPa) = 0.03080772
#
# Stress axis : x y z
#
# Youngs Moduli (GPa) = 65.28339 32.37280 54.28807
#
# Poissons Ratio (x) = 0.26752 0.31044
# Poissons Ratio (y) = 0.53947 0.15897
# Poissons Ratio (z) = 0.37331 0.09480
#
# Static dielectric constant tensor:
#      x y z
#    x 4.147200 -0.220670 -0.207590 
#    y -0.220670 3.689420 -0.163640 
#    z -0.207590 -0.163640 4.044440 
# 
# 
# High freq. dielectric constant tensor:
#      x y z
#    x 1.871930 -0.025160 -0.020350 
#    y -0.025160 1.840350 -0.019190 
#    z -0.020350 -0.019190 1.862630 
# 
# From -- ./inp_files/191801.got.cif
#   From: 2010.06.25/outbox.cif.g09.slc.cpg/sg2_96_cif.got.tgz:191801.got - 2010.06.27 13:26:56.
