data_PCOD8004872
_publ_section_title
;
Structure prediction by ZEFSAII (Michael W. Deem and Ramdas Pophale) SiO2 
 PCOD8004872
Probable space group: P -1
;
_chemical_formula_sum "Si O2"
_cell_formula_units_Z 16
_cell_length_a 11.201558
_cell_length_b 8.076712
_cell_length_c 9.810981
_cell_angle_alpha 78.097061
_cell_angle_beta 83.210984
_cell_angle_gamma 55.446664
_cell_volume 715.320487
_symmetry_space_group_name_H-M "P -1"
_symmetry_group_IT_number 2
_symmetry_cell_setting 'triclinic'
loop_
_space_group_symop_operation_xyz
x,y,z
-x,-y,-z
loop_
_atom_site_type_symbol
_atom_site_label
_atom_site_fract_x
_atom_site_fract_y
_atom_site_fract_z
Si Si1 0.273369 0.030882 0.739619
Si Si2 0.021539 0.867806 0.202765
Si Si3 0.170112 0.479541 0.754216
Si Si4 0.952690 0.774926 0.949218
Si Si5 0.475322 0.372765 0.729977
Si Si6 0.410130 0.753097 0.540088
Si Si7 0.129442 0.774806 0.485950
Si Si8 0.374896 0.959928 0.018770
O O1 0.200330 0.268298 0.734366
O O2 0.146278 0.991750 0.749678
O O3 0.362786 0.954278 0.599021
O O4 0.375653 0.891919 0.874821
O O5 0.119972 0.721208 0.338408
O O6 0.068458 0.022016 0.142942
O O7 0.031106 0.735957 0.092569
O O8 0.317187 0.449288 0.796315
O O9 0.109666 0.627051 0.607953
O O10 0.049909 0.575023 0.875655
O O11 0.787110 0.832737 0.970972
O O12 0.492469 0.559926 0.666303
O O13 0.493137 0.262318 0.598827
O O14 0.594132 0.216343 0.849630
O O15 0.280399 0.749230 0.491295
O O16 0.000000 0.000000 0.500000
O O17 0.500000 0.000000 0.000000
#
# Coordination Sequence:
#
# PCOD8004872 Si02
#       8
#     2   2   2   2   2   2   2   2
#     4  11  23  41  65  97 137 166 219 266 335 383
#     4  10  20  38  62  99 120 167 215 270 313 382
#     4  11  23  40  63  98 133 175 206 277 326 389
#     4  10  22  40  70  91 131 169 217 268 325 382
#     4  10  22  43  68  92 131 170 226 260 337 381
#     4  10  22  41  69  95 126 176 214 281 318 390
#     4  11  19  38  66  93 129 167 220 267 322 383
#     4  11  23  43  66  96 131 176 214 267 323 398
#
# _framework density 22.367595000000001
#
# number of rings (size 3 to 8) (size 9 to 14) (size 15 to 20)
#    0.000    1.500    3.750    1.500    0.000    3.500 
#    0.000    5.000    0.000    0.000    0.000    0.000 
#    0.000    0.000    0.000    0.000    0.000    0.000 
#
# Total GULP energy -198314.890087 kJ/mol
# GULP energy per Si atom -12394.680630 kJ/mol
# Density = 2.231669 g / cm^3
# Si number density = 22.367595 Si / 1000 Ang^3
#
#
#
# Elastic Constant Matrix: (Units=GPa)
#
#
# Indices 1 2 3 4 5 6 
#
# 1 69.6179 24.1439 23.6385 6.6095 2.7098 -12.3778
# 2 24.1439 117.9529 67.6300 13.0480 9.2444 -4.8405
# 3 23.6385 67.6300 158.5775 0.0502 16.2152 -7.3800
# 4 6.6095 13.0480 0.0502 47.2933 -8.7001 -1.9472
# 5 2.7098 9.2444 16.2152 -8.7001 30.4044 1.8737
# 6 -12.3778 -4.8405 -7.3800 -1.9472 1.8737 24.3158
#
#
#
# Elastic Compliance Matrix: (Units=1/GPa)
#
#
# Indices 1 2 3 4 5 6 
#
# 1 0.017134 -0.002279 -0.001090 -0.001663 -0.001216 0.007898
# 2 -0.002279 0.012124 -0.004642 -0.003394 -0.001962 -0.000276
# 3 -0.001090 -0.004642 0.008828 0.000929 -0.003026 0.001508
# 4 -0.001663 -0.003394 0.000929 0.023688 0.007458 0.000082
# 5 -0.001216 -0.001962 -0.003026 0.007458 0.037603 -0.004228
# 6 0.007898 -0.000276 0.001508 0.000082 -0.004228 0.045881
#
#
# Mechanical properties :
#
#
# Convention : Reuss Voigt Hill
#
# Bulk Modulus (GPa) = 45.32307 64.10813 54.71560
# Shear Modulus (GPa) = 29.65004 35.78508 32.71756
#
# Velocity S-wave (km/s) = 3.64480 4.00417 3.82870
# Velocity P-wave (km/s) = 6.16600 7.07822 6.63780
#
# Compressibility (1/GPa) = 0.02206382
#
# Stress axis : x y z
#
# Youngs Moduli (GPa) = 58.36360 82.48207 113.28095
#
# Poissons Ratio (x) = 0.18798 0.12345
# Poissons Ratio (y) = 0.13301 0.52586
# Poissons Ratio (z) = 0.06360 0.38289
#
# Static dielectric constant tensor:
#      x y z
#    x 4.047800 -0.295610 -0.186250 
#    y -0.295610 3.982480 -0.088380 
#    z -0.186250 -0.088380 4.681850 
# 
# 
# High freq. dielectric constant tensor:
#      x y z
#    x 1.871380 -0.013080 -0.013280 
#    y -0.013080 1.864240 -0.006410 
#    z -0.013280 -0.006410 1.898900 
# 
# From -- ./inp_files/244033.got.cif
#   From: 2010.06.25/outbox.cif.g09.slc.cpg/sg2_123_cif.got.tgz:244033.got - 2010.06.27 13:26:56.
