data_PCOD8004008
_publ_section_title
;
Structure prediction by ZEFSAII (Michael W. Deem and Ramdas Pophale) SiO2 
 PCOD8004008
Probable space group: P -1
;
_chemical_formula_sum "Si O2"
_cell_formula_units_Z 16
_cell_length_a 8.995071
_cell_length_b 9.611855
_cell_length_c 20.146494
_cell_angle_alpha 33.101305
_cell_angle_beta 123.658732
_cell_angle_gamma 105.708684
_cell_volume 716.426853
_symmetry_space_group_name_H-M "P -1"
_symmetry_group_IT_number 2
_symmetry_cell_setting 'triclinic'
loop_
_space_group_symop_operation_xyz
x,y,z
-x,-y,-z
loop_
_atom_site_type_symbol
_atom_site_label
_atom_site_fract_x
_atom_site_fract_y
_atom_site_fract_z
Si Si1 0.786050 0.711882 0.588609
Si Si2 0.782439 0.721360 0.161481
Si Si3 0.072003 0.821188 0.986789
Si Si4 0.829290 0.766741 0.722494
Si Si5 0.649042 0.221336 0.741498
Si Si6 0.571057 0.961024 0.704006
Si Si7 0.431493 0.008065 0.873165
Si Si8 0.804552 0.337151 0.063100
O O1 0.780090 0.874129 0.591761
O O2 0.676160 0.504502 0.647395
O O3 0.013686 0.556471 0.683723
O O4 0.658623 0.951308 0.408060
O O5 0.809154 1.000000 0.038449
O O6 0.703381 0.750710 0.205142
O O7 0.612082 0.744887 0.058337
O O8 0.054604 0.784771 0.917630
O O9 0.196794 0.523051 0.170595
O O10 0.857458 0.957508 0.911811
O O11 0.680494 0.971247 0.657992
O O12 0.055978 0.688484 0.829601
O O13 0.584541 0.201661 0.657693
O O14 0.489300 0.185412 0.763434
O O15 0.655859 0.661744 0.882385
O O16 0.309579 0.852965 0.871060
#
# Coordination Sequence:
#
# PCOD8004008 Si02
#       8
#     2   2   2   2   2   2   2   2
#     4  11  24  38  64  89 120 157 198 246 299 350
#     4   9  20  38  58  89 122 151 201 252 293 341
#     4   9  16  34  62  89 112 148 201 256 285 326
#     4  11  19  37  63  93 115 152 203 249 289 345
#     4  11  20  38  63  91 116 151 204 247 292 347
#     4  11  22  40  60  92 123 155 195 245 301 353
#     4  10  21  37  63  90 116 159 201 249 292 344
#     4  10  20  37  63  86 122 155 196 240 294 355
#
# _framework density 22.333055000000002
#
# number of rings (size 3 to 8) (size 9 to 14) (size 15 to 20)
#    0.000    1.750    2.500    3.000    0.000    3.500 
#    0.000    1.250    0.000    0.000    0.000    0.000 
#    0.000    0.000    0.000    0.000    0.000    0.000 
#
# Total GULP energy -198332.402374 kJ/mol
# GULP energy per Si atom -12395.775148 kJ/mol
# Density = 2.228222 g / cm^3
# Si number density = 22.333055 Si / 1000 Ang^3
#
#
#
# Elastic Constant Matrix: (Units=GPa)
#
#
# Indices 1 2 3 4 5 6 
#
# 1 102.4828 26.3340 21.2303 -1.4426 7.5337 -12.8406
# 2 26.3340 96.8680 28.6891 22.6050 4.3836 -10.5227
# 3 21.2303 28.6891 70.1350 18.7644 23.5979 -3.5865
# 4 -1.4426 22.6050 18.7644 26.0171 4.6374 -0.4767
# 5 7.5337 4.3836 23.5979 4.6374 26.4253 -1.4218
# 6 -12.8406 -10.5227 -3.5865 -0.4767 -1.4218 24.7810
#
#
#
# Elastic Compliance Matrix: (Units=1/GPa)
#
#
# Indices 1 2 3 4 5 6 
#
# 1 0.011987 -0.003121 -0.003587 0.006140 -0.000534 0.004454
# 2 -0.003121 0.015101 -0.003033 -0.011627 0.003366 0.004325
# 3 -0.003587 -0.003033 0.026937 -0.013401 -0.020213 -0.000666
# 4 0.006140 -0.011627 -0.013401 0.058177 0.001803 -0.002472
# 5 -0.000534 0.003366 -0.020213 0.001803 0.055248 0.001432
# 6 0.004454 0.004325 -0.000666 -0.002472 0.001432 0.044436
#
#
# Mechanical properties :
#
#
# Convention : Reuss Voigt Hill
#
# Bulk Modulus (GPa) = 28.95027 46.88805 37.91916
# Shear Modulus (GPa) = 20.58611 28.32683 24.45647
#
# Velocity S-wave (km/s) = 3.03937 3.56530 3.31279
# Velocity P-wave (km/s) = 5.03072 6.16352 5.62570
#
# Compressibility (1/GPa) = 0.03454200
#
# Stress axis : x y z
#
# Youngs Moduli (GPa) = 83.42646 66.22151 37.12352
#
# Poissons Ratio (x) = 0.20669 0.13316
# Poissons Ratio (y) = 0.26039 0.11260
# Poissons Ratio (z) = 0.29925 0.20086
#
# Static dielectric constant tensor:
#      x y z
#    x 3.967200 -0.052510 0.251120 
#    y -0.052510 4.207540 0.117250 
#    z 0.251120 0.117250 3.673080 
# 
# 
# High freq. dielectric constant tensor:
#      x y z
#    x 1.868590 -0.003700 0.020950 
#    y -0.003700 1.892650 0.013510 
#    z 0.020950 0.013510 1.849980 
# 
# From -- ./inp_files/347457.got.cif
#   From: 2010.06.25/outbox.cif.g09.slc.cpg/sg2_174_cif.got.tgz:347457.got - 2010.06.27 13:26:56.
