data_PCOD8004956
_publ_section_title
;
Structure prediction by ZEFSAII (Michael W. Deem and Ramdas Pophale) SiO2 
 PCOD8004956
Probable space group: P -1
;
_chemical_formula_sum "Si O2"
_cell_formula_units_Z 14
_cell_length_a 8.770641
_cell_length_b 17.714029
_cell_length_c 12.331076
_cell_angle_alpha 150.121057
_cell_angle_beta 49.546293
_cell_angle_gamma 140.226227
_cell_volume 609.649406
_symmetry_space_group_name_H-M "P -1"
_symmetry_group_IT_number 2
_symmetry_cell_setting 'triclinic'
loop_
_space_group_symop_operation_xyz
x,y,z
-x,-y,-z
loop_
_atom_site_type_symbol
_atom_site_label
_atom_site_fract_x
_atom_site_fract_y
_atom_site_fract_z
Si Si1 0.966663 0.740322 0.977125
Si Si2 0.930162 0.325518 0.744656
Si Si3 0.094169 0.794110 0.735368
Si Si4 0.723635 0.684966 0.591392
Si Si5 0.519958 0.114436 0.033559
Si Si6 0.312472 0.645642 0.310091
Si Si7 0.175157 0.036487 0.559793
O O1 0.739754 0.554941 0.899776
O O2 0.993103 0.733428 0.827349
O O3 0.195015 0.767223 0.975292
O O4 0.911645 0.895971 0.214496
O O5 0.735852 0.308406 0.729805
O O6 0.159155 0.353061 0.611117
O O7 0.816074 0.138750 0.632662
O O8 0.000000 0.500000 0.000000
O O9 0.135703 0.645645 0.481009
O O10 0.904780 0.797639 0.747341
O O11 0.351227 0.987378 0.854386
O O12 0.500000 0.500000 0.500000
O O13 0.598560 0.786111 0.736994
O O14 0.500000 0.000000 0.000000
O O15 0.581472 0.801869 0.402754
O O16 0.000000 0.000000 0.500000
#
# Coordination Sequence:
#
# PCOD8004956 Si02
#       7
#     2   2   2   2   2   2   2
#     4  11  23  43  68  99 132 171 216 269 327 388
#     4  11  25  46  67  94 131 175 219 269 326 387
#     4  10  22  39  66  97 130 169 215 269 326 385
#     4  11  24  41  66  98 130 167 217 269 326 388
#     4  10  20  38  63  93 128 166 208 261 320 383
#     4  11  24  43  66  95 131 173 219 268 324 387
#     4  12  26  44  66  96 132 175 220 267 323 390
#
# _framework density 22.964017999999999
#
# number of rings (size 3 to 8) (size 9 to 14) (size 15 to 20)
#    0.000    1.143    0.000    6.857    0.000    6.857 
#    0.000    0.000    0.000    0.000    0.000    0.000 
#    0.000    0.000    0.000    0.000    0.000    0.000 
#
# Total GULP energy -173493.602033 kJ/mol
# GULP energy per Si atom -12392.400145 kJ/mol
# Density = 2.291175 g / cm^3
# Si number density = 22.964018 Si / 1000 Ang^3
#
#
#
# Elastic Constant Matrix: (Units=GPa)
#
#
# Indices 1 2 3 4 5 6 
#
# 1 113.9747 44.1985 55.3589 8.7770 -2.4496 -3.1477
# 2 44.1985 119.6569 39.0260 22.0555 8.8432 4.4007
# 3 55.3589 39.0260 139.0942 13.4779 -5.8093 -9.5834
# 4 8.7770 22.0555 13.4779 36.0864 -1.6037 2.9028
# 5 -2.4496 8.8432 -5.8093 -1.6037 38.1615 1.8693
# 6 -3.1477 4.4007 -9.5834 2.9028 1.8693 37.2385
#
#
#
# Elastic Compliance Matrix: (Units=1/GPa)
#
#
# Indices 1 2 3 4 5 6 
#
# 1 0.011899 -0.003352 -0.003789 0.000586 0.000972 0.000332
# 2 -0.003352 0.011436 -0.001566 -0.005619 -0.003269 -0.001436
# 3 -0.003789 -0.001566 0.009534 -0.001814 0.001378 0.002391
# 4 0.000586 -0.005619 -0.001814 0.031984 0.002524 -0.002373
# 5 0.000972 -0.003269 0.001378 0.002524 0.027377 -0.000748
# 6 0.000332 -0.001436 0.002391 -0.002373 -0.000748 0.027889
#
#
# Mechanical properties :
#
#
# Convention : Reuss Voigt Hill
#
# Bulk Modulus (GPa) = 64.69257 72.21026 68.45142
# Shear Modulus (GPa) = 35.04262 37.90678 36.47470
#
# Velocity S-wave (km/s) = 3.91062 4.06729 3.98972
# Velocity P-wave (km/s) = 6.97302 7.31918 7.14820
#
# Compressibility (1/GPa) = 0.01545773
#
# Stress axis : x y z
#
# Youngs Moduli (GPa) = 84.04303 87.44269 104.88233
#
# Poissons Ratio (x) = 0.29306 0.39735
# Poissons Ratio (y) = 0.28167 0.16421
# Poissons Ratio (z) = 0.31840 0.13691
#
# Static dielectric constant tensor:
#      x y z
#    x -0.509150 -3.105720 -2.315400 
#    y -3.105720 1.776170 -1.549840 
#    z -2.315400 -1.549840 3.322610 
# 
# 
# High freq. dielectric constant tensor:
#      x y z
#    x 1.911260 0.010370 -0.004450 
#    y 0.010370 1.904920 0.005950 
#    z -0.004450 0.005950 1.921730 
# 
# From -- ./inp_files/403521.got.cif
#   From: 2010.06.25/outbox.cif.g09.slc.cpg/sg2_202_cif.got.tgz:403521.got - 2010.06.27 13:26:56.
