data_PCOD8004438
_publ_section_title
;
Structure prediction by ZEFSAII (Michael W. Deem and Ramdas Pophale) SiO2 
 PCOD8004438
Probable space group: P -1
;
_chemical_formula_sum "Si O2"
_cell_formula_units_Z 16
_cell_length_a 8.848574
_cell_length_b 8.500376
_cell_length_c 14.622004
_cell_angle_alpha 131.497803
_cell_angle_beta 85.127368
_cell_angle_gamma 82.865239
_cell_volume 796.396261
_symmetry_space_group_name_H-M "P -1"
_symmetry_group_IT_number 2
_symmetry_cell_setting 'triclinic'
loop_
_space_group_symop_operation_xyz
x,y,z
-x,-y,-z
loop_
_atom_site_type_symbol
_atom_site_label
_atom_site_fract_x
_atom_site_fract_y
_atom_site_fract_z
Si Si1 0.026993 0.223408 0.195191
Si Si2 0.422646 0.735304 0.194169
Si Si3 0.467443 0.536055 0.410419
Si Si4 0.218619 0.362998 0.573158
Si Si5 0.051527 0.215410 0.980552
Si Si6 0.653460 0.079523 0.539151
Si Si7 0.249634 0.488355 0.976652
Si Si8 0.697694 0.807222 0.696912
O O1 0.175840 0.146930 0.222395
O O2 0.933509 0.454991 0.325914
O O3 0.079643 0.250722 0.099554
O O4 0.928803 0.040124 0.137477
O O5 0.363817 0.766865 0.312541
O O6 0.603142 0.605303 0.132384
O O7 0.415510 0.964758 0.235453
O O8 0.305979 0.610956 0.105072
O O9 0.500000 0.500000 0.500000
O O10 0.630853 0.557553 0.365821
O O11 0.332439 0.759671 0.483781
O O12 0.406297 0.332779 0.298542
O O13 0.226138 0.319433 0.447100
O O14 0.207757 0.138397 0.539222
O O15 0.179924 0.294616 0.944959
O O16 0.877552 0.348490 0.014638
O O17 0.500000 0.000000 0.500000
#
# Coordination Sequence:
#
# PCOD8004438 Si02
#       8
#     2   2   2   2   2   2   2   2
#     4  11  22  40  59  86 119 165 190 247 290 352
#     4  10  21  38  67  85 119 152 201 242 300 338
#     4   9  19  35  56  88 121 148 188 237 292 347
#     4   9  20  37  61  85 120 156 190 232 308 354
#     4  10  24  41  59  81 123 152 210 240 293 340
#     4   9  19  36  59  91 121 144 187 245 291 360
#     4  10  22  43  60  87 109 164 199 252 288 347
#     4  10  20  38  58  91 123 148 192 249 290 358
#
# _framework density 20.090502999999998
#
# number of rings (size 3 to 8) (size 9 to 14) (size 15 to 20)
#    0.000    2.250    1.250    1.125    7.000    0.000 
#    0.000    1.250    0.000    0.000    0.000    0.000 
#    0.000    0.000    0.000    0.000    0.000    0.000 
#
# Total GULP energy -198309.585317 kJ/mol
# GULP energy per Si atom -12394.349082 kJ/mol
# Density = 2.004478 g / cm^3
# Si number density = 20.090503 Si / 1000 Ang^3
#
#
#
# Elastic Constant Matrix: (Units=GPa)
#
#
# Indices 1 2 3 4 5 6 
#
# 1 53.7511 19.7143 18.6778 -0.6383 14.5748 -1.9531
# 2 19.7143 130.1737 30.2122 8.2892 3.1365 -1.8128
# 3 18.6778 30.2122 87.9073 8.8799 8.1772 -11.0069
# 4 -0.6383 8.2892 8.8799 23.4714 -2.1132 6.0698
# 5 14.5748 3.1365 8.1772 -2.1132 21.0572 3.9652
# 6 -1.9531 -1.8128 -11.0069 6.0698 3.9652 28.5914
#
#
#
# Elastic Compliance Matrix: (Units=1/GPa)
#
#
# Indices 1 2 3 4 5 6 
#
# 1 0.025072 -0.002802 -0.002538 0.000444 -0.016422 0.002741
# 2 -0.002802 0.008750 -0.002373 -0.002062 0.001409 -0.000308
# 3 -0.002538 -0.002373 0.015028 -0.007491 -0.005961 0.007879
# 4 0.000444 -0.002062 -0.007491 0.051135 0.010932 -0.015356
# 5 -0.016422 0.001409 -0.005961 0.010932 0.064815 -0.014637
# 6 0.002741 -0.000308 0.007879 -0.015356 -0.014637 0.043466
#
#
# Mechanical properties :
#
#
# Convention : Reuss Voigt Hill
#
# Bulk Modulus (GPa) = 29.91942 45.44898 37.68420
# Shear Modulus (GPa) = 21.29163 28.17253 24.73208
#
# Velocity S-wave (km/s) = 3.25897 3.74877 3.51242
# Velocity P-wave (km/s) = 5.39313 6.43497 5.93695
#
# Compressibility (1/GPa) = 0.03342311
#
# Stress axis : x y z
#
# Youngs Moduli (GPa) = 39.88544 114.28130 66.54185
#
# Poissons Ratio (x) = 0.32026 0.16888
# Poissons Ratio (y) = 0.11178 0.15792
# Poissons Ratio (z) = 0.10123 0.27121
#
# Static dielectric constant tensor:
#      x y z
#    x 3.673730 0.038640 0.390720 
#    y 0.038640 2.071560 0.049020 
#    z 0.390720 0.049020 3.563070 
# 
# 
# High freq. dielectric constant tensor:
#      x y z
#    x 1.765480 -0.008590 0.028580 
#    y -0.008590 1.806250 0.012070 
#    z 0.028580 0.012070 1.770360 
# 
# From -- ./inp_files/197999.got.cif
#   From: 2010.06.25/outbox.cif.g09.slc.cpg/sg2_99_cif.got.tgz:197999.got - 2010.06.27 13:26:56.
