data_PCOD8004750
_publ_section_title
;
Structure prediction by ZEFSAII (Michael W. Deem and Ramdas Pophale) SiO2 
 PCOD8004750
Probable space group: P -1
;
_chemical_formula_sum "Si O2"
_cell_formula_units_Z 16
_cell_length_a 6.217108
_cell_length_b 19.756306
_cell_length_c 8.012546
_cell_angle_alpha 104.753395
_cell_angle_beta 57.076658
_cell_angle_gamma 76.060946
_cell_volume 706.284462
_symmetry_space_group_name_H-M "P -1"
_symmetry_group_IT_number 2
_symmetry_cell_setting 'triclinic'
loop_
_space_group_symop_operation_xyz
x,y,z
-x,-y,-z
loop_
_atom_site_type_symbol
_atom_site_label
_atom_site_fract_x
_atom_site_fract_y
_atom_site_fract_z
Si Si1 0.828860 0.445620 0.674339
Si Si2 0.346728 0.142264 0.930901
Si Si3 0.336657 0.755896 0.182643
Si Si4 0.180995 0.835607 0.643380
Si Si5 0.295173 0.143570 0.571495
Si Si6 0.203488 0.021739 0.317188
Si Si7 0.872059 0.602224 0.800349
Si Si8 0.824320 0.451506 0.042385
O O1 0.923414 0.513275 0.708796
O O2 0.861371 0.405356 0.819312
O O3 0.024042 0.380610 0.412765
O O4 0.508526 0.484629 0.757934
O O5 0.008759 0.183961 0.154911
O O6 0.484168 0.200990 0.939349
O O7 0.386740 0.116178 0.705017
O O8 0.527521 0.060901 0.909962
O O9 0.266728 0.772820 0.418051
O O10 0.031088 0.784428 0.237363
O O11 0.534453 0.662686 0.009664
O O12 0.480631 0.828620 0.587166
O O13 0.983907 0.926197 0.724995
O O14 0.320289 0.070986 0.407819
O O15 0.000000 0.000000 0.500000
O O16 0.061317 0.607784 0.882297
O O17 0.000000 0.500000 0.000000
#
# Coordination Sequence:
#
# PCOD8004750 Si02
#       8
#     2   2   2   2   2   2   2   2
#     4   9  19  36  62  94 113 149 210 240 294 363
#     4  11  22  39  60  87 114 154 204 242 300 362
#     4  10  23  42  57  81 127 159 192 242 300 358
#     4  10  23  39  58  88 115 153 202 245 298 356
#     4  10  21  38  59  83 119 155 193 250 293 350
#     4  11  19  38  63  83 118 150 195 256 298 346
#     4  10  20  38  62  84 120 163 190 249 304 344
#     4   9  18  36  59  90 122 146 191 253 291 354
#
# _framework density 22.653763000000001
#
# number of rings (size 3 to 8) (size 9 to 14) (size 15 to 20)
#    0.000    2.000    3.750    1.125    0.000    4.500 
#    9.000    0.000    0.000    0.000    0.000    0.000 
#    0.000    0.000    0.000    0.000    0.000    0.000 
#
# Total GULP energy -198288.929499 kJ/mol
# GULP energy per Si atom -12393.058094 kJ/mol
# Density = 2.260220 g / cm^3
# Si number density = 22.653763 Si / 1000 Ang^3
#
#
#
# Elastic Constant Matrix: (Units=GPa)
#
#
# Indices 1 2 3 4 5 6 
#
# 1 108.7431 16.6989 38.5135 -10.5149 -24.8722 -12.5665
# 2 16.6989 33.8454 28.0721 -0.0816 4.0639 -12.9536
# 3 38.5135 28.0721 146.5442 -7.8967 -15.7315 -4.5401
# 4 -10.5149 -0.0816 -7.8967 28.9872 4.9067 -9.2908
# 5 -24.8722 4.0639 -15.7315 4.9067 38.3842 -7.1696
# 6 -12.5665 -12.9536 -4.5401 -9.2908 -7.1696 24.3126
#
#
#
# Elastic Compliance Matrix: (Units=1/GPa)
#
#
# Indices 1 2 3 4 5 6 
#
# 1 0.014462 -0.002842 -0.001434 0.006722 0.010337 0.011310
# 2 -0.002842 0.046764 -0.007966 0.005085 -0.006607 0.021953
# 3 -0.001434 -0.007966 0.009037 0.000716 0.003134 -0.002100
# 4 0.006722 0.005085 0.000716 0.044387 0.002947 0.024149
# 5 0.010337 -0.006607 0.003134 0.002947 0.037060 0.014463
# 6 0.011310 0.021953 -0.002100 0.024149 0.014463 0.071774
#
#
# Mechanical properties :
#
#
# Convention : Reuss Voigt Hill
#
# Bulk Modulus (GPa) = 21.84492 50.63351 36.23922
# Shear Modulus (GPa) = 18.99508 32.06002 25.52755
#
# Velocity S-wave (km/s) = 2.89882 3.76602 3.36051
# Velocity P-wave (km/s) = 4.56816 6.42729 5.57576
#
# Compressibility (1/GPa) = 0.04577723
#
# Stress axis : x y z
#
# Youngs Moduli (GPa) = 69.14808 21.38419 110.66026
#
# Poissons Ratio (x) = 0.06078 0.15867
# Poissons Ratio (y) = 0.19654 0.88154
# Poissons Ratio (z) = 0.09915 0.17035
#
# Static dielectric constant tensor:
#      x y z
#    x 5.286730 -0.711730 0.040740 
#    y -0.711730 4.159940 -0.355450 
#    z 0.040740 -0.355450 4.535100 
# 
# 
# High freq. dielectric constant tensor:
#      x y z
#    x 1.898370 -0.004380 -0.014450 
#    y -0.004380 1.858730 -0.013790 
#    z -0.014450 -0.013790 1.898640 
# 
# From -- ./inp_files/142298.got.cif
#   From: 2010.06.25/outbox.cif.g09.slc.cpg/sg2_72_cif.got.tgz:142298.got - 2010.06.27 13:26:56.
