data_PCOD8004254
_publ_section_title
;
Structure prediction by ZEFSAII (Michael W. Deem and Ramdas Pophale) SiO2 
 PCOD8004254
Probable space group: P -1
;
_chemical_formula_sum "Si O2"
_cell_formula_units_Z 14
_cell_length_a 8.575033
_cell_length_b 10.923755
_cell_length_c 11.969930
_cell_angle_alpha 38.154811
_cell_angle_beta 85.123243
_cell_angle_gamma 69.162473
_cell_volume 609.463222
_symmetry_space_group_name_H-M "P -1"
_symmetry_group_IT_number 2
_symmetry_cell_setting 'triclinic'
loop_
_space_group_symop_operation_xyz
x,y,z
-x,-y,-z
loop_
_atom_site_type_symbol
_atom_site_label
_atom_site_fract_x
_atom_site_fract_y
_atom_site_fract_z
Si Si1 0.845540 0.449023 0.004140
Si Si2 0.993464 0.729110 0.227955
Si Si3 0.438170 0.894867 0.325350
Si Si4 0.067891 0.013056 0.174329
Si Si5 0.427124 0.358360 0.933690
Si Si6 0.331799 0.432767 0.280933
Si Si7 0.363681 0.252228 0.785771
O O1 0.738516 0.631221 0.782338
O O2 0.718292 0.460338 0.104890
O O3 0.000000 0.500000 0.000000
O O4 0.910605 0.210107 0.110846
O O5 0.176885 0.534551 0.309566
O O6 0.835814 0.669214 0.302082
O O7 0.024277 0.812019 0.288952
O O8 0.902160 0.916474 0.002130
O O9 0.507452 0.789810 0.518322
O O10 0.543012 0.709665 0.356042
O O11 0.235538 0.949827 0.288444
O O12 0.470003 0.111268 0.151761
O O13 0.602723 0.387734 0.893016
O O14 0.342406 0.413339 0.775234
O O15 0.500000 0.000000 0.000000
#
# Coordination Sequence:
#
# PCOD8004254 Si02
#       7
#     2   2   2   2   2   2   2
#     4  11  22  44  69  92 131 180 219 263 327 395
#     4  10  20  38  64  95 132 169 218 268 322 389
#     4  11  23  42  65 102 130 168 219 278 325 376
#     4  10  20  37  66  93 130 175 213 268 326 378
#     4  11  22  43  68  93 135 175 215 266 326 389
#     4  11  26  41  69 100 128 173 221 269 329 388
#     4  10  20  37  68  96 126 174 212 266 337 377
#
# _framework density 22.971032000000001
#
# number of rings (size 3 to 8) (size 9 to 14) (size 15 to 20)
#    0.000    1.429    4.286    2.143   10.000    3.429 
#    0.000    2.143    0.000    0.000    0.000    0.000 
#    0.000    0.000    0.000    0.000    0.000    0.000 
#
# Total GULP energy -173452.255305 kJ/mol
# GULP energy per Si atom -12389.446807 kJ/mol
# Density = 2.291875 g / cm^3
# Si number density = 22.971032 Si / 1000 Ang^3
#
#
#
# Elastic Constant Matrix: (Units=GPa)
#
#
# Indices 1 2 3 4 5 6 
#
# 1 113.6117 33.0234 44.7419 -0.8070 24.4052 -1.2586
# 2 33.0234 136.8744 14.0688 16.6404 2.4887 -11.3182
# 3 44.7419 14.0688 90.0831 15.3720 24.7864 7.7597
# 4 -0.8070 16.6404 15.3720 24.2691 2.7928 7.1341
# 5 24.4052 2.4887 24.7864 2.7928 29.9410 1.3927
# 6 -1.2586 -11.3182 7.7597 7.1341 1.3927 39.9943
#
#
#
# Elastic Compliance Matrix: (Units=1/GPa)
#
#
# Indices 1 2 3 4 5 6 
#
# 1 0.013480 -0.003495 -0.005460 0.007254 -0.006828 -0.000562
# 2 -0.003495 0.009366 0.000834 -0.008415 0.001988 0.003810
# 3 -0.005460 0.000834 0.018315 -0.010881 -0.009709 -0.001210
# 4 0.007254 -0.008415 -0.010881 0.057233 -0.001069 -0.010214
# 5 -0.006828 0.001988 -0.009709 -0.001069 0.046900 0.000789
# 6 -0.000562 0.003810 -0.001210 -0.010214 0.000789 0.028093
#
#
# Mechanical properties :
#
#
# Convention : Reuss Voigt Hill
#
# Bulk Modulus (GPa) = 40.13151 58.24859 49.19005
# Shear Modulus (GPa) = 25.26064 35.42323 30.34194
#
# Velocity S-wave (km/s) = 3.31973 3.93120 3.63833
# Velocity P-wave (km/s) = 5.67473 6.78367 6.25383
#
# Compressibility (1/GPa) = 0.02491808
#
# Stress axis : x y z
#
# Youngs Moduli (GPa) = 74.18303 106.77436 54.59969
#
# Poissons Ratio (x) = 0.37321 0.29813
# Poissons Ratio (y) = 0.25930 -0.04555
# Poissons Ratio (z) = 0.40506 -0.08907
#
# Static dielectric constant tensor:
#      x y z
#    x 4.169750 0.065370 0.280440 
#    y 0.065370 4.428130 0.330360 
#    z 0.280440 0.330360 4.005990 
# 
# 
# High freq. dielectric constant tensor:
#      x y z
#    x 1.909210 -0.004320 0.032610 
#    y -0.004320 1.908460 0.017310 
#    z 0.032610 0.017310 1.884100 
# 
# From -- ./inp_files/391538.got.cif
#   From: 2010.06.25/outbox.cif.g09.slc.cpg/sg2_196_cif.got.tgz:391538.got - 2010.06.27 13:26:56.
