data_PCOD8004451
_publ_section_title
;
Structure prediction by ZEFSAII (Michael W. Deem and Ramdas Pophale) SiO2 
 PCOD8004451
Probable space group: P -1
;
_chemical_formula_sum "Si O2"
_cell_formula_units_Z 16
_cell_length_a 8.325962
_cell_length_b 13.481215
_cell_length_c 19.207831
_cell_angle_alpha 30.490689
_cell_angle_beta 135.375235
_cell_angle_gamma 133.112299
_cell_volume 753.423232
_symmetry_space_group_name_H-M "P -1"
_symmetry_group_IT_number 2
_symmetry_cell_setting 'triclinic'
loop_
_space_group_symop_operation_xyz
x,y,z
-x,-y,-z
loop_
_atom_site_type_symbol
_atom_site_label
_atom_site_fract_x
_atom_site_fract_y
_atom_site_fract_z
Si Si1 0.069889 0.668202 0.509313
Si Si2 0.241048 0.684056 0.772443
Si Si3 0.734431 0.013940 0.521275
Si Si4 0.311466 0.674789 0.437466
Si Si5 0.427320 0.317644 0.009460
Si Si6 0.640842 0.659284 0.180043
Si Si7 0.066060 0.963038 0.120818
Si Si8 0.724947 0.621100 0.679930
O O1 0.064752 0.851891 0.449811
O O2 0.197212 0.745427 0.429959
O O3 0.215970 0.517325 0.681968
O O4 0.807006 0.553195 0.481284
O O5 0.277494 0.887532 0.617513
O O6 0.399273 0.544189 0.871202
O O7 0.969083 0.578859 0.753821
O O8 0.340034 0.726976 0.855178
O O9 0.500000 0.000000 0.500000
O O10 0.777326 0.792857 0.651956
O O11 0.261925 0.822790 0.271681
O O12 0.584601 0.685556 0.531097
O O13 0.454819 0.274338 0.962591
O O14 0.197354 0.178534 0.058783
O O15 0.426093 0.584063 0.211181
O O16 0.826683 0.850571 0.153437
O O17 0.000000 0.000000 0.000000
#
# Coordination Sequence:
#
# PCOD8004451 Si02
#       8
#     2   2   2   2   2   2   2   2
#     4   9  17  31  58  85 110 146 193 232 270 345
#     4  11  24  37  56  86 117 150 192 238 291 336
#     4  12  20  36  59  85 115 151 191 235 286 340
#     4   9  17  33  57  86 111 145 190 234 286 329
#     4  10  20  38  59  80 111 157 198 229 276 354
#     4   9  17  36  59  83 110 150 192 233 285 335
#     4   9  18  32  61  85 108 147 199 235 267 341
#     4  11  22  37  59  85 123 148 183 251 291 332
#
# _framework density 21.236404
#
# number of rings (size 3 to 8) (size 9 to 14) (size 15 to 20)
#    0.000    2.000    3.750    1.875    0.000    0.500 
#    0.000    1.250    8.250    0.000    0.000    0.000 
#    0.000    0.000    0.000    0.000    0.000    0.000 
#
# Total GULP energy -198243.269733 kJ/mol
# GULP energy per Si atom -12390.204358 kJ/mol
# Density = 2.118807 g / cm^3
# Si number density = 21.236404 Si / 1000 Ang^3
#
#
#
# Elastic Constant Matrix: (Units=GPa)
#
#
# Indices 1 2 3 4 5 6 
#
# 1 44.0587 12.8267 28.2349 12.0539 -8.1879 20.7015
# 2 12.8267 99.0653 37.6043 18.5967 -5.1248 12.9629
# 3 28.2349 37.6043 85.0090 20.1161 -20.9158 11.7842
# 4 12.0539 18.5967 20.1161 41.8217 3.4679 -4.0792
# 5 -8.1879 -5.1248 -20.9158 3.4679 23.8078 -4.3685
# 6 20.7015 12.9629 11.7842 -4.0792 -4.3685 32.2180
#
#
#
# Elastic Compliance Matrix: (Units=1/GPa)
#
#
# Indices 1 2 3 4 5 6 
#
# 1 0.045105 0.003874 -0.007781 -0.014300 0.006337 -0.028646
# 2 0.003874 0.013393 -0.005304 -0.005098 -0.000934 -0.006710
# 3 -0.007781 -0.005304 0.022784 -0.007781 0.017363 0.000169
# 4 -0.014300 -0.005098 -0.007781 0.036929 -0.015165 0.016705
# 5 0.006337 -0.000934 0.017363 -0.015165 0.060761 -0.003729
# 6 -0.028646 -0.006710 0.000169 0.016705 -0.003729 0.053692
#
#
# Mechanical properties :
#
#
# Convention : Reuss Voigt Hill
#
# Bulk Modulus (GPa) = 15.90843 42.82942 29.36892
# Shear Modulus (GPa) = 18.37971 29.53398 23.95685
#
# Velocity S-wave (km/s) = 2.94510 3.73329 3.36237
# Velocity P-wave (km/s) = 4.36717 6.22856 5.37899
#
# Compressibility (1/GPa) = 0.06285976
#
# Stress axis : x y z
#
# Youngs Moduli (GPa) = 22.17046 74.66653 43.89009
#
# Poissons Ratio (x) = -0.28926 0.34150
# Poissons Ratio (y) = -0.08589 0.23281
# Poissons Ratio (z) = 0.17250 0.39607
#
# Static dielectric constant tensor:
#      x y z
#    x 3.285190 0.158380 -0.349130 
#    y 0.158380 4.462800 0.016940 
#    z -0.349130 0.016940 3.976090 
# 
# 
# High freq. dielectric constant tensor:
#      x y z
#    x 1.768660 0.015760 -0.033290 
#    y 0.015760 1.855930 0.007360 
#    z -0.033290 0.007360 1.826230 
# 
# From -- ./inp_files/401478.got.cif
#   From: 2010.06.25/outbox.cif.g09.slc.cpg/sg2_201_cif.got.tgz:401478.got - 2010.06.27 13:26:56.
