data_PCOD8004784
_publ_section_title
;
Structure prediction by ZEFSAII (Michael W. Deem and Ramdas Pophale) SiO2 
 PCOD8004784
Probable space group: P -1
;
_chemical_formula_sum "Si O2"
_cell_formula_units_Z 12
_cell_length_a 8.877224
_cell_length_b 16.241726
_cell_length_c 15.304544
_cell_angle_alpha 153.653803
_cell_angle_beta 36.274543
_cell_angle_gamma 133.165962
_cell_volume 573.192433
_symmetry_space_group_name_H-M "P -1"
_symmetry_group_IT_number 2
_symmetry_cell_setting 'triclinic'
loop_
_space_group_symop_operation_xyz
x,y,z
-x,-y,-z
loop_
_atom_site_type_symbol
_atom_site_label
_atom_site_fract_x
_atom_site_fract_y
_atom_site_fract_z
Si Si1 0.046766 0.557983 0.407807
Si Si2 0.788776 0.914834 0.965158
Si Si3 0.665596 0.276168 0.265716
Si Si4 0.547701 0.306370 0.995927
Si Si5 0.770862 0.409932 0.824852
Si Si6 0.238073 0.571265 0.811116
O O1 0.322250 0.479092 0.245472
O O2 0.074534 0.671838 0.411977
O O3 0.890121 0.705034 0.685833
O O4 0.893974 0.382306 0.297191
O O5 0.557684 0.886169 0.112296
O O6 0.699527 0.056633 0.063571
O O7 0.000000 0.000000 0.000000
O O8 0.396712 0.366810 0.520975
O O9 0.661921 0.287980 0.172918
O O10 0.719198 0.363739 0.049461
O O11 0.724425 0.264997 0.786332
O O12 0.933365 0.563556 0.936499
O O13 0.500000 0.500000 0.000000
#
# Coordination Sequence:
#
# PCOD8004784 Si02
#       6
#     2   2   2   2   2   2
#     4  10  20  41  63  87 122 159 197 245 295 351
#     4  12  22  35  65  93 120 155 203 245 291 354
#     4  10  21  38  60  93 120 156 197 247 300 346
#     4  11  20  37  63  91 121 157 200 243 296 351
#     4   9  21  39  64  83 118 165 197 239 304 359
#     4  10  20  38  62  88 123 154 199 250 294 351
#
# _framework density 20.935378
#
# number of rings (size 3 to 8) (size 9 to 14) (size 15 to 20)
#    0.000    1.667    3.333    2.000    0.000    0.667 
#    0.000    1.667    7.333    0.000    0.000    0.000 
#    0.000    0.000    0.000    0.000    0.000    0.000 
#
# Total GULP energy -148705.941445 kJ/mol
# GULP energy per Si atom -12392.161787 kJ/mol
# Density = 2.088773 g / cm^3
# Si number density = 20.935378 Si / 1000 Ang^3
#
#
#
# Elastic Constant Matrix: (Units=GPa)
#
#
# Indices 1 2 3 4 5 6 
#
# 1 127.0787 41.3440 8.4478 -8.3055 2.8700 -0.5358
# 2 41.3440 145.2617 27.4348 -10.4969 10.5848 -14.6729
# 3 8.4478 27.4348 28.9439 7.5438 -1.3564 -2.9550
# 4 -8.3055 -10.4969 7.5438 30.7233 -5.8188 -3.0503
# 5 2.8700 10.5848 -1.3564 -5.8188 26.6362 -7.7608
# 6 -0.5358 -14.6729 -2.9550 -3.0503 -7.7608 41.4288
#
#
#
# Elastic Compliance Matrix: (Units=1/GPa)
#
#
# Indices 1 2 3 4 5 6 
#
# 1 0.008779 -0.002260 -0.000944 0.001797 0.000122 -0.000599
# 2 -0.002260 0.010318 -0.010319 0.005273 -0.002407 0.002827
# 3 -0.000944 -0.010319 0.048641 -0.015200 0.003147 -0.000727
# 4 0.001797 0.005273 -0.015200 0.040457 0.007275 0.005148
# 5 0.000122 -0.002407 0.003147 0.007275 0.042531 0.007876
# 6 -0.000599 0.002827 -0.000727 0.005148 0.007876 0.026934
#
#
# Mechanical properties :
#
#
# Convention : Reuss Voigt Hill
#
# Bulk Modulus (GPa) = 24.57448 50.63749 37.60598
# Shear Modulus (GPa) = 22.90734 34.69483 28.80109
#
# Velocity S-wave (km/s) = 3.31145 4.07533 3.71309
# Velocity P-wave (km/s) = 5.13660 6.81061 6.03196
#
# Compressibility (1/GPa) = 0.04069263
#
# Stress axis : x y z
#
# Youngs Moduli (GPa) = 113.90408 96.91594 20.55869
#
# Poissons Ratio (x) = 0.21904 0.01940
# Poissons Ratio (y) = 0.25743 0.21215
# Poissons Ratio (z) = 0.10751 1.00009
#
# Static dielectric constant tensor:
#      x y z
#    x 5.225620 -0.150520 -0.152350 
#    y -0.150520 4.387020 -0.283910 
#    z -0.152350 -0.283910 3.438630 
# 
# 
# High freq. dielectric constant tensor:
#      x y z
#    x 1.848260 -0.010810 -0.006280 
#    y -0.010810 1.834690 -0.023190 
#    z -0.006280 -0.023190 1.758270 
# 
# From -- ./inp_files/32952.got.cif
#   From: 2010.06.25/outbox.cif.g09.slc.cpg/sg2_17_cif.got.tgz:32952.got - 2010.06.27 13:26:56.
