data_PCOD8004339
_publ_section_title
;
Structure prediction by ZEFSAII (Michael W. Deem and Ramdas Pophale) SiO2 
 PCOD8004339
Probable space group: P -1
;
_chemical_formula_sum "Si O2"
_cell_formula_units_Z 16
_cell_length_a 9.712261
_cell_length_b 22.353478
_cell_length_c 25.916399
_cell_angle_alpha 161.848536
_cell_angle_beta 155.025618
_cell_angle_gamma 34.043855
_cell_volume 716.722012
_symmetry_space_group_name_H-M "P -1"
_symmetry_group_IT_number 2
_symmetry_cell_setting 'triclinic'
loop_
_space_group_symop_operation_xyz
x,y,z
-x,-y,-z
loop_
_atom_site_type_symbol
_atom_site_label
_atom_site_fract_x
_atom_site_fract_y
_atom_site_fract_z
Si Si1 0.946591 0.596467 0.141754
Si Si2 0.370618 0.191500 0.421363
Si Si3 0.072382 0.595786 0.371378
Si Si4 0.795643 0.793120 0.738720
Si Si5 0.656646 0.232536 0.887474
Si Si6 0.082775 0.264215 0.861723
Si Si7 0.339091 0.133055 0.590336
Si Si8 0.160837 0.502276 0.675434
O O1 0.616368 0.666218 0.097553
O O2 0.091132 0.678870 0.202390
O O3 0.238697 0.691543 0.359606
O O4 0.905387 0.356300 0.925548
O O5 0.192147 0.181509 0.297806
O O6 0.194133 0.305443 0.495995
O O7 0.348989 0.973941 0.257312
O O8 0.424116 0.740408 0.593631
O O9 0.762889 0.689915 0.328568
O O10 0.060610 0.559615 0.399096
O O11 0.013090 0.387305 0.148713
O O12 0.970115 0.618287 0.667905
O O13 0.000000 0.000000 0.000000
O O14 0.591712 0.217812 0.792503
O O15 0.482146 0.352114 0.069349
O O16 0.006131 0.025804 0.639354
O O17 0.500000 0.000000 0.500000
#
# Coordination Sequence:
#
# PCOD8004339 Si02
#       8
#     2   2   2   2   2   2   2   2
#     4  10  20  37  70  97 133 167 216 258 332 392
#     4  11  24  42  71  99 130 179 223 265 333 398
#     4  12  26  43  67  98 133 172 223 275 336 391
#     4  12  27  48  70  95 125 174 233 283 327 389
#     4  12  23  40  64  98 137 175 214 269 329 405
#     4  10  21  40  68  97 133 178 213 264 331 396
#     4  12  25  39  61 103 143 177 213 267 331 402
#     4  11  24  47  69  96 135 175 225 278 328 387
#
# _framework density 22.323858000000001
#
# number of rings (size 3 to 8) (size 9 to 14) (size 15 to 20)
#    0.000    0.750    2.500    5.250    3.500    2.000 
#    0.000    5.000    0.000    0.000    0.000    0.000 
#    0.000    0.000    0.000    0.000    0.000    0.000 
#
# Total GULP energy -198405.581910 kJ/mol
# GULP energy per Si atom -12400.348869 kJ/mol
# Density = 2.227305 g / cm^3
# Si number density = 22.323858 Si / 1000 Ang^3
#
#
#
# Elastic Constant Matrix: (Units=GPa)
#
#
# Indices 1 2 3 4 5 6 
#
# 1 93.8424 25.6532 44.5099 -9.1207 -17.6474 1.4197
# 2 25.6532 118.7265 32.4986 5.0695 -9.7240 7.9684
# 3 44.5099 32.4986 147.1348 4.4437 -22.6857 -2.2605
# 4 -9.1207 5.0695 4.4437 36.8188 1.1620 -6.1622
# 5 -17.6474 -9.7240 -22.6857 1.1620 25.3065 -7.3294
# 6 1.4197 7.9684 -2.2605 -6.1622 -7.3294 34.7552
#
#
#
# Elastic Compliance Matrix: (Units=1/GPa)
#
#
# Indices 1 2 3 4 5 6 
#
# 1 0.014278 -0.002034 -0.002900 0.004268 0.006933 0.001913
# 2 -0.002034 0.009533 -0.001411 -0.002074 0.000354 -0.002487
# 3 -0.002900 -0.001411 0.009015 -0.001460 0.006184 0.002074
# 4 0.004268 -0.002074 -0.001460 0.029596 0.001162 0.005699
# 5 0.006933 0.000354 0.006184 0.001162 0.053303 0.011485
# 6 0.001913 -0.002487 0.002074 0.005699 0.011485 0.032832
#
#
# Mechanical properties :
#
#
# Convention : Reuss Voigt Hill
#
# Bulk Modulus (GPa) = 49.66621 62.78078 56.22349
# Shear Modulus (GPa) = 29.76912 36.51224 33.14068
#
# Velocity S-wave (km/s) = 3.65569 4.04861 3.85715
# Velocity P-wave (km/s) = 6.33365 7.07381 6.71393
#
# Compressibility (1/GPa) = 0.02013441
#
# Stress axis : x y z
#
# Youngs Moduli (GPa) = 70.04023 104.89896 110.92524
#
# Poissons Ratio (x) = 0.21335 0.32173
# Poissons Ratio (y) = 0.14245 0.15655
# Poissons Ratio (z) = 0.20315 0.14804
#
# Static dielectric constant tensor:
#      x y z
#    x 3.598580 0.029550 -0.002150 
#    y 0.029550 4.084250 0.256080 
#    z -0.002150 0.256080 4.864350 
# 
# 
# High freq. dielectric constant tensor:
#      x y z
#    x 1.880930 0.007370 -0.008010 
#    y 0.007370 1.877520 0.012610 
#    z -0.008010 0.012610 1.900720 
# 
# From -- ./inp_files/608680.got.cif
#   From: 2010.06.25/outbox.cif.g09.slc.cpg/sg2_305_cif.got.tgz:608680.got - 2010.06.27 13:26:56.
