data_PCOD8004020
_publ_section_title
;
Structure prediction by ZEFSAII (Michael W. Deem and Ramdas Pophale) SiO2 
 PCOD8004020
Probable space group: P -1
;
_chemical_formula_sum "Si O2"
_cell_formula_units_Z 14
_cell_length_a 6.360580
_cell_length_b 14.431216
_cell_length_c 17.956633
_cell_angle_alpha 28.587286
_cell_angle_beta 62.932504
_cell_angle_gamma 62.402597
_cell_volume 694.411316
_symmetry_space_group_name_H-M "P -1"
_symmetry_group_IT_number 2
_symmetry_cell_setting 'triclinic'
loop_
_space_group_symop_operation_xyz
x,y,z
-x,-y,-z
loop_
_atom_site_type_symbol
_atom_site_label
_atom_site_fract_x
_atom_site_fract_y
_atom_site_fract_z
Si Si1 0.789179 0.727834 0.923619
Si Si2 0.669508 0.455650 0.832954
Si Si3 0.127383 0.408638 0.439673
Si Si4 0.206976 0.879633 0.274581
Si Si5 0.757163 0.548798 0.907721
Si Si6 0.305289 0.318286 0.630290
Si Si7 0.939084 0.031993 0.072870
O O1 0.799308 0.723904 0.833681
O O2 0.730317 0.951719 0.800055
O O3 0.598283 0.594220 0.079727
O O4 0.047064 0.640434 0.975160
O O5 0.693167 0.572420 0.670375
O O6 0.750388 0.594465 0.787984
O O7 0.853715 0.256568 0.946125
O O8 0.275986 0.428829 0.477342
O O9 0.028938 0.200652 0.600437
O O10 0.899715 0.581188 0.351367
O O11 0.425181 0.694423 0.371504
O O12 0.168689 0.957249 0.141200
O O13 0.500000 0.500000 0.000000
O O14 0.270843 0.091756 0.785861
O O15 0.000000 0.000000 0.000000
#
# Coordination Sequence:
#
# PCOD8004020 Si02
#       7
#     2   2   2   2   2   2   2
#     4  10  20  37  63  89 109 148 197 238 294 344
#     4  11  20  38  59  88 116 151 192 244 284 341
#     4  10  23  37  56  81 127 158 193 233 289 336
#     4  11  22  38  60  85 116 162 193 236 290 343
#     4   9  20  37  62  88 115 142 189 247 295 342
#     4  10  21  40  54  81 121 169 192 230 282 347
#     4  11  21  36  57  86 119 150 199 242 282 334
#
# _framework density 20.160962000000001
#
# number of rings (size 3 to 8) (size 9 to 14) (size 15 to 20)
#    0.000    1.714    4.286    0.429    0.000    1.714 
#    2.571    0.714    0.000    8.571    0.000    0.000 
#    0.000    0.000    0.000    0.000    0.000    0.000 
#
# Total GULP energy -173511.105535 kJ/mol
# GULP energy per Si atom -12393.650395 kJ/mol
# Density = 2.011507 g / cm^3
# Si number density = 20.160962 Si / 1000 Ang^3
#
#
#
# Elastic Constant Matrix: (Units=GPa)
#
#
# Indices 1 2 3 4 5 6 
#
# 1 111.0704 43.5381 27.0661 8.1925 12.1024 -6.8092
# 2 43.5381 102.4732 33.8849 18.4987 10.3063 11.4771
# 3 27.0661 33.8849 73.9415 17.5007 4.2992 4.9097
# 4 8.1925 18.4987 17.5007 27.5360 0.9766 3.9872
# 5 12.1024 10.3063 4.2992 0.9766 25.9940 -4.6016
# 6 -6.8092 11.4771 4.9097 3.9872 -4.6016 38.5778
#
#
#
# Elastic Compliance Matrix: (Units=1/GPa)
#
#
# Indices 1 2 3 4 5 6 
#
# 1 0.011794 -0.004388 -0.002521 0.000661 -0.002773 0.003309
# 2 -0.004388 0.014607 -0.003222 -0.005661 -0.003814 -0.004580
# 3 -0.002521 -0.003222 0.017989 -0.008367 -0.000379 -0.000956
# 4 0.000661 -0.005661 -0.008367 0.045436 0.001318 -0.001673
# 5 -0.002773 -0.003814 -0.000379 0.001318 0.042278 0.005600
# 6 0.003309 -0.004580 -0.000956 -0.001673 0.005600 0.028831
#
#
# Mechanical properties :
#
#
# Convention : Reuss Voigt Hill
#
# Bulk Modulus (GPa) = 41.44526 55.16258 48.30392
# Shear Modulus (GPa) = 26.42141 30.62129 28.52135
#
# Velocity S-wave (km/s) = 3.62404 3.90146 3.76531
# Velocity P-wave (km/s) = 6.17360 6.90765 6.55092
#
# Compressibility (1/GPa) = 0.02412821
#
# Stress axis : x y z
#
# Youngs Moduli (GPa) = 84.78805 68.46045 55.58865
#
# Poissons Ratio (x) = 0.30043 0.14014
# Poissons Ratio (y) = 0.37208 0.17909
# Poissons Ratio (z) = 0.21375 0.22056
#
# Static dielectric constant tensor:
#      x y z
#    x 3.909350 0.233690 0.059050 
#    y 0.233690 4.022590 0.016960 
#    z 0.059050 0.016960 3.456980 
# 
# 
# High freq. dielectric constant tensor:
#      x y z
#    x 1.802750 0.008330 0.003270 
#    y 0.008330 1.784410 -0.003090 
#    z 0.003270 -0.003090 1.757460 
# 
# From -- ./inp_files/27904.got.cif
#   From: 2010.06.25/outbox.cif.g09.slc.cpg/sg2_14_cif.got.tgz:27904.got - 2010.06.27 13:26:56.
