data_PCOD8004187
_publ_section_title
;
Structure prediction by ZEFSAII (Michael W. Deem and Ramdas Pophale) SiO2 
 PCOD8004187
Probable space group: P -1
;
_chemical_formula_sum "Si O2"
_cell_formula_units_Z 14
_cell_length_a 10.065482
_cell_length_b 8.565593
_cell_length_c 25.167990
_cell_angle_alpha 34.134400
_cell_angle_beta 145.035655
_cell_angle_gamma 127.946334
_cell_volume 684.074642
_symmetry_space_group_name_H-M "P -1"
_symmetry_group_IT_number 2
_symmetry_cell_setting 'triclinic'
loop_
_space_group_symop_operation_xyz
x,y,z
-x,-y,-z
loop_
_atom_site_type_symbol
_atom_site_label
_atom_site_fract_x
_atom_site_fract_y
_atom_site_fract_z
Si Si1 0.733373 0.057302 0.915572
Si Si2 0.670131 0.780366 0.082205
Si Si3 0.174312 0.544030 0.341046
Si Si4 0.544465 0.912321 0.365107
Si Si5 0.625766 0.181680 0.207302
Si Si6 0.450131 0.279366 0.332465
Si Si7 0.154674 0.098096 0.373180
O O1 0.616159 0.385302 0.784457
O O2 0.581504 0.891283 0.875576
O O3 0.744603 0.941299 0.010992
O O4 0.000000 0.000000 0.000000
O O5 0.553387 0.518360 0.099204
O O6 0.898375 0.662381 0.226386
O O7 0.500000 0.000000 0.000000
O O8 0.304613 0.806365 0.302585
O O9 0.264840 0.351998 0.475742
O O10 0.215412 0.360098 0.352768
O O11 0.653595 0.017906 0.318374
O O12 0.486781 0.168896 0.315560
O O13 0.876653 0.095471 0.283242
O O14 0.241819 0.141164 0.329704
O O15 0.693207 0.191386 0.470718
#
# Coordination Sequence:
#
# PCOD8004187 Si02
#       7
#     2   2   2   2   2   2   2
#     4  12  25  41  59  82 122 164 193 229 288 358
#     4  11  24  40  59  86 119 153 195 240 282 344
#     4   9  20  39  61  86 117 152 189 237 298 344
#     4  10  20  37  65  89 112 147 195 247 290 337
#     4  11  23  40  61  87 116 154 196 241 294 338
#     4  10  21  38  60  88 117 154 195 237 289 343
#     4   9  20  39  61  86 119 149 192 248 291 338
#
# _framework density 20.465603999999999
#
# number of rings (size 3 to 8) (size 9 to 14) (size 15 to 20)
#    0.000    1.714    0.000    4.714    0.000   10.286 
#    0.000    2.857    0.000    0.000    0.000    0.000 
#    0.000    0.000    0.000    0.000    0.000    0.000 
#
# Total GULP energy -173655.637878 kJ/mol
# GULP energy per Si atom -12403.974134 kJ/mol
# Density = 2.041902 g / cm^3
# Si number density = 20.465604 Si / 1000 Ang^3
#
#
#
# Elastic Constant Matrix: (Units=GPa)
#
#
# Indices 1 2 3 4 5 6 
#
# 1 119.5054 38.0160 44.2906 7.0071 7.3884 10.0934
# 2 38.0160 121.2369 60.1595 4.9259 20.6830 12.7659
# 3 44.2906 60.1595 106.5138 -11.1216 22.7955 0.8683
# 4 7.0071 4.9259 -11.1216 37.9702 -0.5456 1.2205
# 5 7.3884 20.6830 22.7955 -0.5456 36.7090 -1.8256
# 6 10.0934 12.7659 0.8683 1.2205 -1.8256 20.9498
#
#
#
# Elastic Compliance Matrix: (Units=1/GPa)
#
#
# Indices 1 2 3 4 5 6 
#
# 1 0.010767 -0.000666 -0.004553 -0.003083 0.000774 -0.004346
# 2 -0.000666 0.013403 -0.006812 -0.003416 -0.003620 -0.007680
# 3 -0.004553 -0.006812 0.016924 0.006449 -0.005420 0.004795
# 4 -0.003083 -0.003416 0.006449 0.029175 -0.000950 0.001518
# 5 0.000774 -0.003620 -0.005420 -0.000950 0.032724 0.004965
# 6 -0.004346 -0.007680 0.004795 0.001518 0.004965 0.054652
#
#
# Mechanical properties :
#
#
# Convention : Reuss Voigt Hill
#
# Bulk Modulus (GPa) = 58.71817 70.24315 64.48066
# Shear Modulus (GPa) = 26.68314 32.77848 29.73081
#
# Velocity S-wave (km/s) = 3.61474 4.00639 3.81559
# Velocity P-wave (km/s) = 6.79524 7.46984 7.14051
#
# Compressibility (1/GPa) = 0.01703050
#
# Stress axis : x y z
#
# Youngs Moduli (GPa) = 92.87496 74.61266 59.08894
#
# Poissons Ratio (x) = 0.04969 0.26904
# Poissons Ratio (y) = 0.06185 0.40253
# Poissons Ratio (z) = 0.42287 0.50828
#
# Static dielectric constant tensor:
#      x y z
#    x 3.701770 0.032350 0.029560 
#    y 0.032350 3.711280 -0.039600 
#    z 0.029560 -0.039600 4.006670 
# 
# 
# High freq. dielectric constant tensor:
#      x y z
#    x 1.803670 0.002260 -0.000940 
#    y 0.002260 1.796390 -0.004910 
#    z -0.000940 -0.004910 1.812390 
# 
# From -- ./inp_files/198938.got.cif
#   From: 2010.06.25/outbox.cif.g09.slc.cpg/sg2_100_cif.got.tgz:198938.got - 2010.06.27 13:26:56.
