data_PCOD8004481
_publ_section_title
;
Structure prediction by ZEFSAII (Michael W. Deem and Ramdas Pophale) SiO2 
 PCOD8004481
Probable space group: P -1
;
_chemical_formula_sum "Si O2"
_cell_formula_units_Z 16
_cell_length_a 32.722005
_cell_length_b 16.818636
_cell_length_c 9.820033
_cell_angle_alpha 35.095783
_cell_angle_beta 144.617252
_cell_angle_gamma 162.927287
_cell_volume 894.447245
_symmetry_space_group_name_H-M "P -1"
_symmetry_group_IT_number 2
_symmetry_cell_setting 'triclinic'
loop_
_space_group_symop_operation_xyz
x,y,z
-x,-y,-z
loop_
_atom_site_type_symbol
_atom_site_label
_atom_site_fract_x
_atom_site_fract_y
_atom_site_fract_z
Si Si1 0.328437 0.820408 0.686062
Si Si2 0.058204 0.415308 0.884628
Si Si3 0.052073 0.501660 0.441239
Si Si4 0.101186 0.006986 0.355983
Si Si5 0.656341 0.327924 0.320623
Si Si6 0.081239 0.080006 0.897859
Si Si7 0.661863 0.231851 0.764783
Si Si8 0.354241 0.613949 0.237910
O O1 0.214307 0.747765 0.494068
O O2 0.332019 0.784624 0.588423
O O3 0.482652 0.138105 0.708132
O O4 0.286449 0.614745 0.951564
O O5 0.033338 0.428379 0.648643
O O6 0.983230 0.395271 0.813965
O O7 0.225163 0.690649 0.988790
O O8 0.989386 0.145314 0.087278
O O9 0.941579 0.227907 0.428057
O O10 0.266410 0.321585 0.395342
O O11 0.067353 0.994590 0.128893
O O12 0.005034 0.922135 0.326825
O O13 0.756955 0.621346 0.128369
O O14 0.706816 0.367859 0.550456
O O15 0.493287 0.104384 0.192243
O O16 0.658525 0.354280 0.687952
#
# Coordination Sequence:
#
# PCOD8004481 Si02
#       8
#     2   2   2   2   2   2   2   2
#     4  10  17  30  52  75  98 130 173 209 249 291
#     4  10  20  33  49  74 109 135 160 205 256 304
#     4  10  19  32  51  75 105 136 163 202 256 302
#     4  10  16  29  51  78 100 124 171 212 245 290
#     4  10  20  32  53  76 103 132 167 214 251 290
#     4  10  17  30  51  77 101 128 168 211 249 289
#     4  10  20  34  49  77 106 132 166 208 257 294
#     4  10  17  29  53  77  97 127 172 218 244 286
#
# _framework density 17.888142999999999
#
# number of rings (size 3 to 8) (size 9 to 14) (size 15 to 20)
#    0.000    2.000    5.000    0.750    0.000    0.500 
#    0.000    1.875    0.000    4.500    0.000    5.250 
#    0.000    0.000    0.000    0.000    0.000    0.000 
#
# Total GULP energy -198311.762263 kJ/mol
# GULP energy per Si atom -12394.485141 kJ/mol
# Density = 1.784743 g / cm^3
# Si number density = 17.888143 Si / 1000 Ang^3
#
#
#
# Elastic Constant Matrix: (Units=GPa)
#
#
# Indices 1 2 3 4 5 6 
#
# 1 98.6316 46.4519 35.3394 -5.0348 18.6815 -3.2203
# 2 46.4519 127.1932 29.1062 -2.1463 22.1531 3.6806
# 3 35.3394 29.1062 27.0321 -3.4459 11.9880 -6.1550
# 4 -5.0348 -2.1463 -3.4459 11.9825 -0.4051 0.1625
# 5 18.6815 22.1531 11.9880 -0.4051 30.6725 3.3858
# 6 -3.2203 3.6806 -6.1550 0.1625 3.3858 28.8787
#
#
#
# Elastic Compliance Matrix: (Units=1/GPa)
#
#
# Indices 1 2 3 4 5 6 
#
# 1 0.019611 -0.001331 -0.024116 0.001060 -0.001252 -0.002643
# 2 -0.001331 0.011227 -0.009932 -0.001463 -0.003068 -0.003328
# 3 -0.024116 -0.009932 0.092924 0.013978 -0.016506 0.020238
# 4 0.001060 -0.001463 0.013978 0.087470 -0.004260 0.003291
# 5 -0.001252 -0.003068 -0.016506 -0.004260 0.042889 -0.008271
# 6 -0.002643 -0.003328 0.020238 0.003291 -0.008271 0.040022
#
#
# Mechanical properties :
#
#
# Convention : Reuss Voigt Hill
#
# Bulk Modulus (GPa) = 18.86644 52.73911 35.80277
# Shear Modulus (GPa) = 13.06951 23.77070 18.42010
#
# Velocity S-wave (km/s) = 2.70594 3.64930 3.21243
# Velocity P-wave (km/s) = 4.50917 6.87773 5.81532
#
# Compressibility (1/GPa) = 0.05300418
#
# Stress axis : x y z
#
# Youngs Moduli (GPa) = 50.99058 89.07162 10.76144
#
# Poissons Ratio (x) = 0.11857 0.25953
# Poissons Ratio (y) = 0.06788 0.10688
# Poissons Ratio (z) = 1.22971 0.88463
#
# Static dielectric constant tensor:
#      x y z
#    x 3.553200 -0.114640 0.098060 
#    y -0.114640 3.576830 -0.005890 
#    z 0.098060 -0.005890 2.892560 
# 
# 
# High freq. dielectric constant tensor:
#      x y z
#    x 1.692200 0.000410 -0.008790 
#    y 0.000410 1.708380 0.008030 
#    z -0.008790 0.008030 1.626990 
# 
# From -- ./inp_files/282078.got.cif
#   From: 2010.06.25/outbox.cif.g09.slc.cpg/sg2_142_cif.got.tgz:282078.got - 2010.06.27 13:26:56.
