data_PCOD8004802
_publ_section_title
;
Structure prediction by ZEFSAII (Michael W. Deem and Ramdas Pophale) SiO2 
 PCOD8004802
Probable space group: P -1
;
_chemical_formula_sum "Si O2"
_cell_formula_units_Z 16
_cell_length_a 8.493959
_cell_length_b 8.907144
_cell_length_c 18.908752
_cell_angle_alpha 62.277185
_cell_angle_beta 95.128068
_cell_angle_gamma 46.140010
_cell_volume 697.727440
_symmetry_space_group_name_H-M "P -1"
_symmetry_group_IT_number 2
_symmetry_cell_setting 'triclinic'
loop_
_space_group_symop_operation_xyz
x,y,z
-x,-y,-z
loop_
_atom_site_type_symbol
_atom_site_label
_atom_site_fract_x
_atom_site_fract_y
_atom_site_fract_z
Si Si1 0.384421 0.648734 0.641888
Si Si2 0.476306 0.082608 0.623047
Si Si3 0.707156 0.545218 0.806076
Si Si4 0.926763 0.127233 0.691734
Si Si5 0.007424 0.263684 0.524372
Si Si6 0.060118 0.684346 0.706509
Si Si7 0.319416 0.115005 0.899964
Si Si8 0.433200 0.716226 0.899534
O O1 0.560535 0.572494 0.730848
O O2 0.589577 0.439829 0.628601
O O3 0.241135 0.598456 0.668087
O O4 0.118845 0.013392 0.532642
O O5 0.309500 0.389374 0.587108
O O6 0.233344 0.215272 0.534983
O O7 0.593582 0.841810 0.737148
O O8 0.738475 0.913514 0.621754
O O9 0.635551 0.519504 0.882517
O O10 0.047210 0.242737 0.880508
O O11 0.998869 0.200333 0.618599
O O12 0.016087 0.859193 0.729477
O O13 0.104406 0.009299 0.795572
O O14 0.239393 0.362750 0.807197
O O15 0.500945 0.833283 0.916175
O O16 0.500000 0.000000 0.000000
O O17 0.500000 0.500000 0.000000
#
# Coordination Sequence:
#
# PCOD8004802 Si02
#       8
#     2   2   2   2   2   2   2   2
#     4  10  20  38  62  89 125 168 201 249 306 366
#     4   9  18  38  64  89 125 168 196 263 306 350
#     4  10  21  42  64  87 126 163 206 251 308 370
#     4  11  21  40  62  92 123 170 206 248 305 373
#     4   9  19  39  64  88 126 167 211 243 306 369
#     4  10  22  39  61  90 131 155 207 257 311 348
#     4  11  25  41  63  93 123 157 207 262 309 359
#     4  12  24  40  67  89 118 163 208 248 310 376
#
# _framework density 22.931591999999998
#
# number of rings (size 3 to 8) (size 9 to 14) (size 15 to 20)
#    0.000    1.750    5.000    0.750    0.000    6.000 
#    0.000   10.625    0.000    0.000    0.000    0.000 
#    0.000    0.000    0.000    0.000    0.000    0.000 
#
# Total GULP energy -198324.296952 kJ/mol
# GULP energy per Si atom -12395.268559 kJ/mol
# Density = 2.287940 g / cm^3
# Si number density = 22.931592 Si / 1000 Ang^3
#
#
#
# Elastic Constant Matrix: (Units=GPa)
#
#
# Indices 1 2 3 4 5 6 
#
# 1 134.3590 31.5530 29.6885 -7.3278 -0.1090 -7.5702
# 2 31.5530 90.9749 13.3491 -5.7984 -5.2789 5.5574
# 3 29.6885 13.3491 72.5160 -6.7379 -3.0683 6.1339
# 4 -7.3278 -5.7984 -6.7379 29.5195 0.3675 3.5892
# 5 -0.1090 -5.2789 -3.0683 0.3675 24.6478 -11.1684
# 6 -7.5702 5.5574 6.1339 3.5892 -11.1684 40.0961
#
#
#
# Elastic Compliance Matrix: (Units=1/GPa)
#
#
# Indices 1 2 3 4 5 6 
#
# 1 0.009003 -0.002740 -0.003335 0.000618 0.000203 0.002591
# 2 -0.002740 0.012377 -0.000767 0.001773 0.001701 -0.001800
# 3 -0.003335 -0.000767 0.015855 0.003016 0.000333 -0.003126
# 4 0.000618 0.001773 0.003016 0.035604 -0.001699 -0.004251
# 5 0.000203 0.001701 0.000333 -0.001699 0.046876 0.012960
# 6 0.002591 -0.001800 -0.003126 -0.004251 0.012960 0.030148
#
#
# Mechanical properties :
#
#
# Convention : Reuss Voigt Hill
#
# Bulk Modulus (GPa) = 42.46217 49.67012 46.06614
# Shear Modulus (GPa) = 29.17191 33.73664 31.45428
#
# Velocity S-wave (km/s) = 3.57056 3.83977 3.70761
# Velocity P-wave (km/s) = 5.96285 6.43161 6.20166
#
# Compressibility (1/GPa) = 0.02355038
#
# Stress axis : x y z
#
# Youngs Moduli (GPa) = 111.07470 80.79627 63.07039
#
# Poissons Ratio (x) = 0.22141 0.21031
# Poissons Ratio (y) = 0.30438 0.04840
# Poissons Ratio (z) = 0.37039 0.06201
#
# Static dielectric constant tensor:
#      x y z
#    x 4.386140 0.009370 0.033230 
#    y 0.009370 4.051720 -0.350330 
#    z 0.033230 -0.350330 4.153420 
# 
# 
# High freq. dielectric constant tensor:
#      x y z
#    x 1.922630 0.004470 0.004560 
#    y 0.004470 1.899810 -0.020740 
#    z 0.004560 -0.020740 1.893860 
# 
# From -- ./inp_files/225549.got.cif
#   From: 2010.06.25/outbox.cif.g09.slc.cpg/sg2_113_cif.got.tgz:225549.got - 2010.06.27 13:26:56.
