data_PCOD8004297
_publ_section_title
;
Structure prediction by ZEFSAII (Michael W. Deem and Ramdas Pophale) SiO2 
 PCOD8004297
Probable space group: P -1
;
_chemical_formula_sum "Si O2"
_cell_formula_units_Z 16
_cell_length_a 13.817002
_cell_length_b 10.501208
_cell_length_c 11.664625
_cell_angle_alpha 88.736703
_cell_angle_beta 50.121552
_cell_angle_gamma 47.112251
_cell_volume 643.363786
_symmetry_space_group_name_H-M "P -1"
_symmetry_group_IT_number 2
_symmetry_cell_setting 'triclinic'
loop_
_space_group_symop_operation_xyz
x,y,z
-x,-y,-z
loop_
_atom_site_type_symbol
_atom_site_label
_atom_site_fract_x
_atom_site_fract_y
_atom_site_fract_z
Si Si1 0.049057 0.593270 0.164285
Si Si2 0.403097 0.174355 0.734407
Si Si3 0.204193 0.925536 0.701150
Si Si4 0.970256 0.804163 0.714600
Si Si5 0.365768 0.255646 0.505453
Si Si6 0.337963 0.689786 0.379717
Si Si7 0.401742 0.881794 0.201535
Si Si8 0.769317 0.116694 0.066490
O O1 0.976130 0.805066 0.211637
O O2 0.820233 0.704098 0.370130
O O3 0.300948 0.365743 0.059742
O O4 0.134252 0.464284 0.977198
O O5 0.393640 0.027051 0.733106
O O6 0.449416 0.207381 0.575537
O O7 0.628536 0.015833 0.656894
O O8 0.394287 0.709501 0.460648
O O9 0.331459 0.852974 0.731621
O O10 0.041981 0.946129 0.867202
O O11 0.221437 0.498502 0.550102
O O12 0.068784 0.853436 0.591445
O O13 0.785485 0.900872 0.759003
O O14 0.799421 0.975099 0.955260
O O15 0.325408 0.802490 0.285402
O O16 0.559977 0.399929 0.179435
#
# Coordination Sequence:
#
# PCOD8004297 Si02
#       8
#     2   2   2   2   2   2   2   2
#     4  10  21  39  65  87 124 163 204 255 303 370
#     4   9  22  40  65  92 119 159 211 255 305 369
#     4  10  20  37  67  95 121 160 208 260 312 358
#     4  11  26  40  61  93 131 165 205 254 308 370
#     4  11  22  41  64  93 120 162 209 259 307 358
#     4  11  22  41  63  91 126 166 206 256 307 371
#     4  10  23  44  61  92 124 169 207 250 311 371
#     4  10  21  39  61  96 127 157 206 261 309 363
#
# _framework density 24.869287
#
# number of rings (size 3 to 8) (size 9 to 14) (size 15 to 20)
#    0.750    1.000    1.250    2.625    0.000    6.500 
#    4.500    0.000    0.000    0.000    0.000    0.000 
#    0.000    0.000    0.000    0.000    0.000    0.000 
#
# Total GULP energy -198234.161399 kJ/mol
# GULP energy per Si atom -12389.635087 kJ/mol
# Density = 2.481268 g / cm^3
# Si number density = 24.869287 Si / 1000 Ang^3
#
#
#
# Elastic Constant Matrix: (Units=GPa)
#
#
# Indices 1 2 3 4 5 6 
#
# 1 98.7067 42.7871 7.2514 7.5826 3.7992 -14.5259
# 2 42.7871 92.0291 18.5486 17.8432 8.4375 -13.5243
# 3 7.2514 18.5486 66.4968 13.1579 17.0701 2.0721
# 4 7.5826 17.8432 13.1579 35.1977 6.0083 -1.5703
# 5 3.7992 8.4375 17.0701 6.0083 32.3261 12.1528
# 6 -14.5259 -13.5243 2.0721 -1.5703 12.1528 42.1372
#
#
#
# Elastic Compliance Matrix: (Units=1/GPa)
#
#
# Indices 1 2 3 4 5 6 
#
# 1 0.013021 -0.005588 0.000368 0.000284 -0.001491 0.003118
# 2 -0.005588 0.015747 -0.002134 -0.005336 -0.002776 0.003835
# 3 0.000368 -0.002134 0.018727 -0.004438 -0.008897 0.000922
# 4 0.000284 -0.005336 -0.004438 0.033203 -0.002701 0.000620
# 5 -0.001491 -0.002776 -0.008897 -0.002701 0.041989 -0.013178
# 6 0.003118 0.003835 0.000922 0.000620 -0.013178 0.029816
#
#
# Mechanical properties :
#
#
# Convention : Reuss Voigt Hill
#
# Bulk Modulus (GPa) = 30.50011 43.82300 37.16156
# Shear Modulus (GPa) = 28.06802 34.50855 31.28828
#
# Velocity S-wave (km/s) = 3.36314 3.72909 3.55083
# Velocity P-wave (km/s) = 5.23180 6.01673 5.63794
#
# Compressibility (1/GPa) = 0.03278676
#
# Stress axis : x y z
#
# Youngs Moduli (GPa) = 76.80103 63.50420 53.39960
#
# Poissons Ratio (x) = 0.35487 -0.01967
# Poissons Ratio (y) = 0.42917 0.11396
# Poissons Ratio (z) = -0.02829 0.13552
#
# Static dielectric constant tensor:
#      x y z
#    x 4.640120 0.215430 -0.049150 
#    y 0.215430 4.148390 -0.077120 
#    z -0.049150 -0.077120 4.611660 
# 
# 
# High freq. dielectric constant tensor:
#      x y z
#    x 2.002280 0.019850 -0.007700 
#    y 0.019850 1.965520 0.004830 
#    z -0.007700 0.004830 2.000890 
# 
# From -- ./inp_files/452356.got.cif
#   From: 2010.06.25/outbox.cif.g09.slc.cpg/sg2_227_cif.got.tgz:452356.got - 2010.06.27 13:26:56.
