data_PCOD8004914
_publ_section_title
;
Structure prediction by ZEFSAII (Michael W. Deem and Ramdas Pophale) SiO2 
 PCOD8004914
Probable space group: P -1
;
_chemical_formula_sum "Si O2"
_cell_formula_units_Z 16
_cell_length_a 14.939143
_cell_length_b 13.401356
_cell_length_c 15.596660
_cell_angle_alpha 152.379596
_cell_angle_beta 45.313220
_cell_angle_gamma 113.476965
_cell_volume 752.966718
_symmetry_space_group_name_H-M "P -1"
_symmetry_group_IT_number 2
_symmetry_cell_setting 'triclinic'
loop_
_space_group_symop_operation_xyz
x,y,z
-x,-y,-z
loop_
_atom_site_type_symbol
_atom_site_label
_atom_site_fract_x
_atom_site_fract_y
_atom_site_fract_z
Si Si1 0.238366 0.612732 0.603130
Si Si2 0.188490 0.877283 0.588450
Si Si3 0.338702 0.271045 0.613452
Si Si4 0.162129 0.465919 0.703455
Si Si5 0.981452 0.275188 0.315319
Si Si6 0.544443 0.379500 0.651628
Si Si7 0.987076 0.769798 0.307174
Si Si8 0.319373 0.828769 0.290452
O O1 0.276667 0.406036 0.498983
O O2 0.100765 0.645379 0.662983
O O3 0.412005 0.465170 0.320450
O O4 0.160682 0.932899 0.932005
O O5 0.143729 0.686463 0.500416
O O6 0.285266 0.880045 0.605689
O O7 0.321524 0.707847 0.289376
O O8 0.019003 0.202350 0.926232
O O9 0.272444 0.410387 0.669451
O O10 0.488089 0.254502 0.531802
O O11 0.421385 0.936258 0.306956
O O12 0.178084 0.457870 0.929077
O O13 0.118243 0.260370 0.577614
O O14 0.000000 0.500000 0.500000
O O15 0.392473 0.603344 0.991662
O O16 0.881101 0.883079 0.375805
O O17 0.000000 0.000000 0.500000
#
# Coordination Sequence:
#
# PCOD8004914 Si02
#       8
#     2   2   2   2   2   2   2   2
#     4   9  21  40  57  88 126 154 199 248 292 356
#     4  10  20  38  63  89 122 153 202 250 294 354
#     4  11  22  40  62  85 122 157 200 251 299 349
#     4  10  20  41  66  86 115 161 204 252 290 345
#     4   9  19  38  63  86 118 164 201 246 291 347
#     4  11  24  38  58  90 130 158 188 244 309 361
#     4  11  20  38  65  89 115 156 208 254 293 347
#     4  11  21  39  60  89 121 159 197 246 301 356
#
# _framework density 21.249281
#
# number of rings (size 3 to 8) (size 9 to 14) (size 15 to 20)
#    0.000    1.750    3.750    1.875    0.000    4.000 
#    0.000    2.500    0.000    0.000    0.000    0.000 
#    0.000    0.000    0.000    0.000    0.000    0.000 
#
# Total GULP energy -198297.500555 kJ/mol
# GULP energy per Si atom -12393.593785 kJ/mol
# Density = 2.120092 g / cm^3
# Si number density = 21.249281 Si / 1000 Ang^3
#
#
#
# Elastic Constant Matrix: (Units=GPa)
#
#
# Indices 1 2 3 4 5 6 
#
# 1 131.4658 81.8166 21.0693 6.1171 5.8798 13.5613
# 2 81.8166 163.8970 22.4013 -10.2539 9.3963 -11.3334
# 3 21.0693 22.4013 31.7794 -5.8122 7.1207 1.0769
# 4 6.1171 -10.2539 -5.8122 34.9086 6.1792 10.6102
# 5 5.8798 9.3963 7.1207 6.1792 26.3028 1.9025
# 6 13.5613 -11.3334 1.0769 10.6102 1.9025 36.9963
#
#
#
# Elastic Compliance Matrix: (Units=1/GPa)
#
#
# Indices 1 2 3 4 5 6 
#
# 1 0.013246 -0.006679 -0.005026 -0.003727 0.002080 -0.005793
# 2 -0.006679 0.010380 -0.001924 0.002861 -0.002728 0.005004
# 3 -0.005026 -0.001924 0.040533 0.009710 -0.011289 -0.002131
# 4 -0.003727 0.002861 0.009710 0.036031 -0.010717 -0.007822
# 5 0.002080 -0.002728 -0.011289 -0.010717 0.044136 -0.000466
# 6 -0.005793 0.005004 -0.002131 -0.007822 -0.000466 0.033015
#
#
# Mechanical properties :
#
#
# Convention : Reuss Voigt Hill
#
# Bulk Modulus (GPa) = 27.09842 64.19073 45.64457
# Shear Modulus (GPa) = 23.05224 33.09853 28.07538
#
# Velocity S-wave (km/s) = 3.29728 3.95096 3.63883
# Velocity P-wave (km/s) = 5.22268 7.14755 6.25955
#
# Compressibility (1/GPa) = 0.03690252
#
# Stress axis : x y z
#
# Youngs Moduli (GPa) = 75.49228 96.34206 24.67135
#
# Poissons Ratio (x) = 0.64343 0.12399
# Poissons Ratio (y) = 0.50419 0.04746
# Poissons Ratio (z) = 0.37941 0.18534
#
# Static dielectric constant tensor:
#      x y z
#    x 3.877390 -0.099740 0.006100 
#    y -0.099740 4.152970 -0.146820 
#    z 0.006100 -0.146820 3.721680 
# 
# 
# High freq. dielectric constant tensor:
#      x y z
#    x 1.828600 -0.004750 -0.005630 
#    y -0.004750 1.841790 -0.010270 
#    z -0.005630 -0.010270 1.810950 
# 
# From -- ./inp_files/522316.got.cif
#   From: 2010.06.25/outbox.cif.g09.slc.cpg/sg2_262_cif.got.tgz:522316.got - 2010.06.27 13:26:56.
