data_PCOD8004276
_publ_section_title
;
Structure prediction by ZEFSAII (Michael W. Deem and Ramdas Pophale) SiO2 
 PCOD8004276
Probable space group: P -1
;
_chemical_formula_sum "Si O2"
_cell_formula_units_Z 16
_cell_length_a 14.857769
_cell_length_b 14.923937
_cell_length_c 9.010860
_cell_angle_alpha 48.936892
_cell_angle_beta 29.778319
_cell_angle_gamma 47.786761
_cell_volume 720.047044
_symmetry_space_group_name_H-M "P -1"
_symmetry_group_IT_number 2
_symmetry_cell_setting 'triclinic'
loop_
_space_group_symop_operation_xyz
x,y,z
-x,-y,-z
loop_
_atom_site_type_symbol
_atom_site_label
_atom_site_fract_x
_atom_site_fract_y
_atom_site_fract_z
Si Si1 0.435735 0.851906 0.776989
Si Si2 0.710440 0.419731 0.323472
Si Si3 0.853599 0.927257 0.588563
Si Si4 0.043910 0.435767 0.348088
Si Si5 0.806277 0.317397 0.621573
Si Si6 0.304264 0.091169 0.865715
Si Si7 0.794639 0.822367 0.496218
Si Si8 0.053739 0.821309 0.867852
O O1 0.503698 0.870716 0.491211
O O2 0.617290 0.851002 0.614948
O O3 0.282799 0.972530 0.926933
O O4 0.368165 0.728487 0.014165
O O5 0.500000 0.500000 0.500000
O O6 0.735938 0.392467 0.491057
O O7 0.758337 0.290055 0.306550
O O8 0.863566 0.489013 0.979365
O O9 0.764162 0.924157 0.558045
O O10 0.023601 0.805433 0.510892
O O11 0.912989 0.052551 0.375158
O O12 0.694142 0.934245 0.933922
O O13 0.194767 0.306464 0.299995
O O14 0.000000 0.500000 0.500000
O O15 0.858616 0.411558 0.561768
O O16 0.117430 0.198955 0.968222
O O17 0.988559 0.821167 0.133064
#
# Coordination Sequence:
#
# PCOD8004276 Si02
#       8
#     2   2   2   2   2   2   2   2
#     4  10  21  40  62 101 135 176 219 274 342 396
#     4  12  25  44  71 101 135 179 236 288 330 397
#     4  11  21  38  70 104 129 184 223 270 358 406
#     4  11  24  47  69  94 134 187 231 273 345 401
#     4  11  23  44  73  96 134 179 231 282 334 421
#     4  10  20  37  66  97 142 172 217 274 337 417
#     4  10  23  40  67  95 142 177 219 290 331 410
#     4  11  20  40  70  97 139 181 219 276 353 411
#
# _framework density 22.220770000000002
#
# number of rings (size 3 to 8) (size 9 to 14) (size 15 to 20)
#    0.000    1.250    3.750    2.625    0.000    0.500 
#    0.000    7.500    0.000    0.000    0.000    0.000 
#    0.000    0.000    0.000    0.000    0.000    0.000 
#
# Total GULP energy -198323.981671 kJ/mol
# GULP energy per Si atom -12395.248854 kJ/mol
# Density = 2.217019 g / cm^3
# Si number density = 22.220770 Si / 1000 Ang^3
#
#
#
# Elastic Constant Matrix: (Units=GPa)
#
#
# Indices 1 2 3 4 5 6 
#
# 1 110.1888 49.0066 76.5069 -0.5627 12.5419 9.0291
# 2 49.0066 102.4042 58.1913 -1.1684 3.0142 -3.2724
# 3 76.5069 58.1913 173.1197 -17.1285 22.1449 18.6577
# 4 -0.5627 -1.1684 -17.1285 39.3007 -5.5758 5.1499
# 5 12.5419 3.0142 22.1449 -5.5758 33.1937 4.9907
# 6 9.0291 -3.2724 18.6577 5.1499 4.9907 32.1263
#
#
#
# Elastic Compliance Matrix: (Units=1/GPa)
#
#
# Indices 1 2 3 4 5 6 
#
# 1 0.014674 -0.004233 -0.004901 -0.002216 -0.002108 -0.001026
# 2 -0.004233 0.013999 -0.003746 -0.001642 0.001835 0.004769
# 3 -0.004901 -0.003746 0.010680 0.004715 -0.003322 -0.005446
# 4 -0.002216 -0.001642 0.004715 0.028949 0.003834 -0.007519
# 5 -0.002108 0.001835 -0.003322 0.003834 0.034098 -0.003203
# 6 -0.001026 0.004769 -0.005446 -0.007519 -0.003203 0.036767
#
#
# Mechanical properties :
#
#
# Convention : Reuss Voigt Hill
#
# Bulk Modulus (GPa) = 73.56885 83.68027 78.62456
# Shear Modulus (GPa) = 29.50589 34.39135 31.94862
#
# Velocity S-wave (km/s) = 3.64792 3.93837 3.79592
# Velocity P-wave (km/s) = 7.13605 7.64338 7.39407
#
# Compressibility (1/GPa) = 0.01359271
#
# Stress axis : x y z
#
# Youngs Moduli (GPa) = 68.14966 71.43130 93.63533
#
# Poissons Ratio (x) = 0.30240 0.45888
# Poissons Ratio (y) = 0.28850 0.35075
# Poissons Ratio (z) = 0.33398 0.26758
#
# Static dielectric constant tensor:
#      x y z
#    x 4.122600 -0.024220 0.139100 
#    y -0.024220 4.089250 -0.042170 
#    z 0.139100 -0.042170 4.249670 
# 
# 
# High freq. dielectric constant tensor:
#      x y z
#    x 1.866590 -0.012200 0.018550 
#    y -0.012200 1.868180 -0.008420 
#    z 0.018550 -0.008420 1.883900 
# 
# From -- ./inp_files/272168.got.cif
#   From: 2010.06.25/outbox.cif.g09.slc.cpg/sg2_137_cif.got.tgz:272168.got - 2010.06.27 13:26:56.
