data_PCOD8004521
_publ_section_title
;
Structure prediction by ZEFSAII (Michael W. Deem and Ramdas Pophale) SiO2 
 PCOD8004521
Probable space group: P -1
;
_chemical_formula_sum "Si O2"
_cell_formula_units_Z 16
_cell_length_a 16.991948
_cell_length_b 9.536172
_cell_length_c 13.757632
_cell_angle_alpha 137.306478
_cell_angle_beta 145.783625
_cell_angle_gamma 60.993911
_cell_volume 804.661112
_symmetry_space_group_name_H-M "P -1"
_symmetry_group_IT_number 2
_symmetry_cell_setting 'triclinic'
loop_
_space_group_symop_operation_xyz
x,y,z
-x,-y,-z
loop_
_atom_site_type_symbol
_atom_site_label
_atom_site_fract_x
_atom_site_fract_y
_atom_site_fract_z
Si Si1 0.360071 0.479002 0.541732
Si Si2 0.138097 0.817037 0.259018
Si Si3 0.614003 0.211703 0.106363
Si Si4 0.149775 0.128219 0.271286
Si Si5 0.815862 0.620746 0.880504
Si Si6 0.717704 0.820352 0.266269
Si Si7 0.333321 0.227618 0.023250
Si Si8 0.849615 0.540143 0.396863
O O1 0.324735 0.662050 0.665785
O O2 0.283603 0.242253 0.392041
O O3 0.303181 0.476158 0.373270
O O4 0.537253 0.540782 0.743475
O O5 0.158398 0.584624 0.145113
O O6 0.206552 0.962731 0.309288
O O7 0.212961 0.938099 0.495120
O O8 0.963689 0.783868 0.067720
O O9 0.728920 0.309843 0.186438
O O10 0.459772 0.248964 0.940027
O O11 0.592084 0.957765 0.970660
O O12 0.113920 0.303157 0.393225
O O13 0.000000 0.000000 0.000000
O O14 0.767318 0.759678 0.982946
O O15 0.781498 0.646531 0.295020
O O16 0.762646 0.831556 0.203894
O O17 0.000000 0.500000 0.500000
#
# Coordination Sequence:
#
# PCOD8004521 Si02
#       8
#     2   2   2   2   2   2   2   2
#     4  10  20  39  60  85 116 155 200 242 297 360
#     4  10  22  38  58  83 119 161 197 240 308 355
#     4  10  21  39  65  87 122 163 198 245 304 360
#     4  10  20  38  60  81 113 157 198 236 299 356
#     4  11  22  37  57  88 121 154 201 250 291 356
#     4  10  21  41  59  87 124 159 201 240 306 360
#     4  11  23  37  62  91 120 158 204 248 298 350
#     4  10  23  38  61  92 122 154 204 251 296 351
#
# _framework density 19.884146999999999
#
# number of rings (size 3 to 8) (size 9 to 14) (size 15 to 20)
#    0.000    1.750    1.250    3.750    3.500    2.500 
#    2.250    0.625    0.000    0.000    0.000    0.000 
#    0.000    0.000    0.000    0.000    0.000    0.000 
#
# Total GULP energy -198386.449323 kJ/mol
# GULP energy per Si atom -12399.153083 kJ/mol
# Density = 1.983889 g / cm^3
# Si number density = 19.884147 Si / 1000 Ang^3
#
#
#
# Elastic Constant Matrix: (Units=GPa)
#
#
# Indices 1 2 3 4 5 6 
#
# 1 77.3808 44.7500 16.4603 -6.6178 -3.8300 -2.3149
# 2 44.7500 97.7634 30.9907 -4.2506 2.0462 7.3007
# 3 16.4603 30.9907 96.3287 -5.9081 -9.9253 4.9227
# 4 -6.6178 -4.2506 -5.9081 30.9745 8.6595 5.5726
# 5 -3.8300 2.0462 -9.9253 8.6595 26.4124 2.2891
# 6 -2.3149 7.3007 4.9227 5.5726 2.2891 21.7001
#
#
#
# Elastic Compliance Matrix: (Units=1/GPa)
#
#
# Indices 1 2 3 4 5 6 
#
# 1 0.018323 -0.008631 -0.000248 0.001214 0.002458 0.004344
# 2 -0.008631 0.015908 -0.003665 0.001729 -0.003954 -0.005468
# 3 -0.000248 -0.003665 0.012265 0.000863 0.004773 -0.002301
# 4 0.001214 0.001729 0.000863 0.037727 -0.011209 -0.009154
# 5 0.002458 -0.003954 0.004773 -0.011209 0.044102 -0.001264
# 6 0.004344 -0.005468 -0.002301 -0.009154 -0.001264 0.051392
#
#
# Mechanical properties :
#
#
# Convention : Reuss Voigt Hill
#
# Bulk Modulus (GPa) = 46.71486 50.65277 48.68382
# Shear Modulus (GPa) = 23.59148 27.76887 25.68017
#
# Velocity S-wave (km/s) = 3.44822 3.74108 3.59763
# Velocity P-wave (km/s) = 6.27679 6.64756 6.46484
#
# Compressibility (1/GPa) = 0.02140646
#
# Stress axis : x y z
#
# Youngs Moduli (GPa) = 54.57621 62.86248 81.53318
#
# Poissons Ratio (x) = 0.54259 0.02025
# Poissons Ratio (y) = 0.47107 0.29881
# Poissons Ratio (z) = 0.01355 0.23038
#
# Static dielectric constant tensor:
#      x y z
#    x 3.600100 0.245290 -0.008290 
#    y 0.245290 3.519700 0.085650 
#    z -0.008290 0.085650 3.778830 
# 
# 
# High freq. dielectric constant tensor:
#      x y z
#    x 1.767530 0.020700 -0.001520 
#    y 0.020700 1.767010 0.006010 
#    z -0.001520 0.006010 1.788880 
# 
# From -- ./inp_files/179278.got.cif
#   From: 2010.06.25/outbox.cif.g09.slc.cpg/sg2_90_cif.got.tgz:179278.got - 2010.06.27 13:26:56.
