data_PCOD8004916
_publ_section_title
;
Structure prediction by ZEFSAII (Michael W. Deem and Ramdas Pophale) SiO2 
 PCOD8004916
Probable space group: P -1
;
_chemical_formula_sum "Si O2"
_cell_formula_units_Z 16
_cell_length_a 11.414106
_cell_length_b 11.694341
_cell_length_c 13.762296
_cell_angle_alpha 99.769068
_cell_angle_beta 118.700291
_cell_angle_gamma 131.177743
_cell_volume 821.132489
_symmetry_space_group_name_H-M "P -1"
_symmetry_group_IT_number 2
_symmetry_cell_setting 'triclinic'
loop_
_space_group_symop_operation_xyz
x,y,z
-x,-y,-z
loop_
_atom_site_type_symbol
_atom_site_label
_atom_site_fract_x
_atom_site_fract_y
_atom_site_fract_z
Si Si1 0.471196 0.799993 0.970392
Si Si2 0.522088 0.969150 0.683448
Si Si3 0.014119 0.365977 0.626052
Si Si4 0.105424 0.861442 0.278923
Si Si5 0.418548 0.582656 0.079247
Si Si6 0.766379 0.384770 0.832747
Si Si7 0.083872 0.164868 0.626949
Si Si8 0.784974 0.181207 0.022313
O O1 0.276062 0.635392 0.777270
O O2 0.737888 0.045150 0.063927
O O3 0.518291 0.718784 0.039462
O O4 0.357835 0.808634 0.000955
O O5 0.210373 0.729008 0.532668
O O6 0.631659 0.951507 0.651465
O O7 0.585350 0.144979 0.688994
O O8 0.656240 0.047143 0.850556
O O9 0.926887 0.280840 0.691421
O O10 0.067510 0.279147 0.584243
O O11 0.099083 0.965869 0.367149
O O12 0.860154 0.684156 0.082948
O O13 0.410331 0.665913 0.177696
O O14 0.622048 0.633755 0.192598
O O15 0.000000 0.500000 0.000000
O O16 0.906085 0.564706 0.829400
O O17 0.000000 0.000000 0.500000
#
# Coordination Sequence:
#
# PCOD8004916 Si02
#       8
#     2   2   2   2   2   2   2   2
#     4  10  20  34  50  83 110 148 168 216 268 324
#     4  11  17  33  54  82 111 140 168 230 270 310
#     4   9  21  33  52  81 113 137 175 222 269 315
#     4   9  19  30  50  79 106 129 176 219 270 303
#     4  11  17  35  56  75 109 139 176 223 260 310
#     4  10  16  29  55  80 102 134 174 222 264 306
#     4  10  22  33  50  83 103 140 181 223 266 313
#     4  10  20  32  53  80 116 134 182 208 270 330
#
# _framework density 19.485285999999999
#
# number of rings (size 3 to 8) (size 9 to 14) (size 15 to 20)
#    0.750    1.250    5.000    2.250    0.000    0.500 
#    0.000    0.000    0.000    3.000    0.000    2.625 
#    0.000    0.000    0.000    0.000    0.000    0.000 
#
# Total GULP energy -198221.048393 kJ/mol
# GULP energy per Si atom -12388.815525 kJ/mol
# Density = 1.944094 g / cm^3
# Si number density = 19.485286 Si / 1000 Ang^3
#
#
#
# Elastic Constant Matrix: (Units=GPa)
#
#
# Indices 1 2 3 4 5 6 
#
# 1 120.7838 13.3720 23.2403 -1.3289 -9.7892 6.0298
# 2 13.3720 59.7708 4.3660 11.8590 6.0106 14.0571
# 3 23.2403 4.3660 49.2772 3.7799 0.2993 0.5692
# 4 -1.3289 11.8590 3.7799 17.6559 -2.4723 1.8130
# 5 -9.7892 6.0106 0.2993 -2.4723 33.1809 -4.1979
# 6 6.0298 14.0571 0.5692 1.8130 -4.1979 12.7291
#
#
#
# Elastic Compliance Matrix: (Units=1/GPa)
#
#
# Indices 1 2 3 4 5 6 
#
# 1 0.009905 -0.002972 -0.004757 0.004345 0.003754 -0.000578
# 2 -0.002972 0.030056 0.000637 -0.018821 -0.011912 -0.033060
# 3 -0.004757 0.000637 0.022950 -0.006063 -0.002089 0.000699
# 4 0.004345 -0.018821 -0.006063 0.071234 0.011660 0.012697
# 5 0.003754 -0.011912 -0.002089 0.011660 0.037079 0.022038
# 6 -0.000578 -0.033060 0.000699 0.012697 0.022038 0.120771
#
#
# Mechanical properties :
#
#
# Convention : Reuss Voigt Hill
#
# Bulk Modulus (GPa) = 20.52302 34.64314 27.58308
# Shear Modulus (GPa) = 15.50758 25.30342 20.40550
#
# Velocity S-wave (km/s) = 2.82416 3.60751 3.23960
# Velocity P-wave (km/s) = 4.60325 5.93042 5.30848
#
# Compressibility (1/GPa) = 0.04872577
#
# Stress axis : x y z
#
# Youngs Moduli (GPa) = 100.96342 33.27077 43.57229
#
# Poissons Ratio (x) = 0.09889 0.20729
# Poissons Ratio (y) = 0.30008 -0.02774
# Poissons Ratio (z) = 0.48032 -0.02118
#
# Static dielectric constant tensor:
#      x y z
#    x 3.532550 0.163720 -0.007690 
#    y 0.163720 3.416550 0.221170 
#    z -0.007690 0.221170 3.514480 
# 
# 
# High freq. dielectric constant tensor:
#      x y z
#    x 1.755720 0.013430 -0.009990 
#    y 0.013430 1.706010 0.007610 
#    z -0.009990 0.007610 1.750070 
# 
# From -- ./inp_files/277021.got.cif
#   From: 2010.06.25/outbox.cif.g09.slc.cpg/sg2_139_cif.got.tgz:277021.got - 2010.06.27 13:26:56.
