data_PCOD8004314
_publ_section_title
;
Structure prediction by ZEFSAII (Michael W. Deem and Ramdas Pophale) SiO2 
 PCOD8004314
Probable space group: P -1
;
_chemical_formula_sum "Si O2"
_cell_formula_units_Z 14
_cell_length_a 14.534857
_cell_length_b 8.349239
_cell_length_c 14.942864
_cell_angle_alpha 110.652891
_cell_angle_beta 28.523481
_cell_angle_gamma 128.436437
_cell_volume 580.480333
_symmetry_space_group_name_H-M "P -1"
_symmetry_group_IT_number 2
_symmetry_cell_setting 'triclinic'
loop_
_space_group_symop_operation_xyz
x,y,z
-x,-y,-z
loop_
_atom_site_type_symbol
_atom_site_label
_atom_site_fract_x
_atom_site_fract_y
_atom_site_fract_z
Si Si1 0.507175 0.620722 0.240785
Si Si2 0.760067 0.464811 0.081016
Si Si3 0.464271 0.969844 0.919060
Si Si4 0.833079 0.874387 0.846064
Si Si5 0.777863 0.004873 0.212809
Si Si6 0.963623 0.799604 0.542805
Si Si7 0.587310 0.739586 0.504231
O O1 0.553577 0.492931 0.243867
O O2 0.552219 0.831614 0.294343
O O3 0.207388 0.433495 0.420061
O O4 0.728655 0.718902 0.994122
O O5 0.738922 0.306474 0.991916
O O6 0.652878 0.330050 0.242692
O O7 0.072777 0.719170 0.868176
O O8 0.755987 0.115687 0.655834
O O9 0.500000 0.000000 0.000000
O O10 0.352121 0.075484 0.998366
O O11 0.801442 0.729612 0.759544
O O12 0.143347 0.116622 0.639338
O O13 0.640021 0.899758 0.407104
O O14 0.000000 0.000000 0.000000
O O15 0.000000 0.000000 0.500000
O O16 0.500000 0.500000 0.500000
#
# Coordination Sequence:
#
# PCOD8004314 Si02
#       7
#     2   2   2   2   2   2   2
#     4  11  21  41  69  99 136 178 228 281 343 407
#     4  11  21  42  68  97 138 177 226 278 337 409
#     4  12  26  42  68 103 137 180 230 285 340 405
#     4  12  24  42  69 103 135 179 229 285 346 397
#     4  10  20  37  68 104 129 177 233 273 335 416
#     4  12  23  43  70  97 131 183 231 275 346 406
#     4  12  20  38  74  99 132 183 225 272 342 406
#
# _framework density 24.117958000000002
#
# number of rings (size 3 to 8) (size 9 to 14) (size 15 to 20)
#    0.000    0.571   10.000    0.429    0.000    0.571 
#    0.000    4.286    0.000    2.571    0.000    0.000 
#    0.000    0.000    0.000    0.000    0.000    0.000 
#
# Total GULP energy -173611.222763 kJ/mol
# GULP energy per Si atom -12400.801626 kJ/mol
# Density = 2.406306 g / cm^3
# Si number density = 24.117958 Si / 1000 Ang^3
#
#
#
# Elastic Constant Matrix: (Units=GPa)
#
#
# Indices 1 2 3 4 5 6 
#
# 1 91.3134 43.4102 49.4915 -7.0041 18.7630 27.8560
# 2 43.4102 135.3585 53.9552 -17.2134 -4.5186 48.3451
# 3 49.4915 53.9552 114.9678 -12.6184 24.8095 4.5400
# 4 -7.0041 -17.2134 -12.6184 39.3493 6.0280 -3.0748
# 5 18.7630 -4.5186 24.8095 6.0280 53.2071 0.0712
# 6 27.8560 48.3451 4.5400 -3.0748 0.0712 40.0977
#
#
#
# Elastic Compliance Matrix: (Units=1/GPa)
#
#
# Indices 1 2 3 4 5 6 
#
# 1 0.019792 0.002835 -0.008448 0.001242 -0.002919 -0.016110
# 2 0.002835 0.020050 -0.010433 0.003195 0.005239 -0.024726
# 3 -0.008448 -0.010433 0.018249 0.002100 -0.006676 0.016555
# 4 0.001242 0.003195 0.002100 0.028152 -0.004332 -0.002786
# 5 -0.002919 0.005239 -0.006676 -0.004332 0.023878 -0.003908
# 6 -0.016110 -0.024726 0.016555 -0.002786 -0.003908 0.063862
#
#
# Mechanical properties :
#
#
# Convention : Reuss Voigt Hill
#
# Bulk Modulus (GPa) = 38.46556 70.59480 54.53018
# Shear Modulus (GPa) = 23.28379 39.51634 31.40007
#
# Velocity S-wave (km/s) = 3.11048 4.05218 3.61215
# Velocity P-wave (km/s) = 5.37435 7.15736 6.32896
#
# Compressibility (1/GPa) = 0.02599728
#
# Stress axis : x y z
#
# Youngs Moduli (GPa) = 50.52491 49.87514 54.79828
#
# Poissons Ratio (x) = -0.14138 0.46294
# Poissons Ratio (y) = -0.14322 0.57173
# Poissons Ratio (z) = 0.42684 0.52037
#
# Static dielectric constant tensor:
#      x y z
#    x 4.590290 0.519120 0.167810 
#    y 0.519120 4.580400 -0.281600 
#    z 0.167810 -0.281600 4.489250 
# 
# 
# High freq. dielectric constant tensor:
#      x y z
#    x 1.957020 0.031020 0.013420 
#    y 0.031020 1.952620 -0.017460 
#    z 0.013420 -0.017460 1.956300 
# 
# From -- ./inp_files/315538.got.cif
#   From: 2010.06.25/outbox.cif.g09.slc.cpg/sg2_158_cif.got.tgz:315538.got - 2010.06.27 13:26:56.
