data_PCOD8004078
_publ_section_title
;
Structure prediction by ZEFSAII (Michael W. Deem and Ramdas Pophale) SiO2 
 PCOD8004078
Probable space group: P -1
;
_chemical_formula_sum "Si O2"
_cell_formula_units_Z 16
_cell_length_a 9.924957
_cell_length_b 16.956941
_cell_length_c 9.155929
_cell_angle_alpha 111.737549
_cell_angle_beta 88.864712
_cell_angle_gamma 41.474624
_cell_volume 829.913823
_symmetry_space_group_name_H-M "P -1"
_symmetry_group_IT_number 2
_symmetry_cell_setting 'triclinic'
loop_
_space_group_symop_operation_xyz
x,y,z
-x,-y,-z
loop_
_atom_site_type_symbol
_atom_site_label
_atom_site_fract_x
_atom_site_fract_y
_atom_site_fract_z
Si Si1 0.859051 0.050159 0.394043
Si Si2 0.068318 0.082250 0.214168
Si Si3 0.871015 0.196380 0.982438
Si Si4 0.378772 0.331507 0.716262
Si Si5 0.496094 0.246963 0.984328
Si Si6 0.385281 0.512978 0.727925
Si Si7 0.174508 0.628459 0.499067
Si Si8 0.947481 0.492403 0.655251
O O1 0.589235 0.176329 0.522136
O O2 0.893220 0.108409 0.317980
O O3 0.000000 0.000000 0.500000
O O4 0.959261 0.910502 0.230765
O O5 0.026624 0.199249 0.350600
O O6 0.337030 0.920919 0.125117
O O7 0.012392 0.101387 0.059060
O O8 0.642365 0.256150 0.019114
O O9 0.793989 0.333802 0.077743
O O10 0.379207 0.309732 0.871452
O O11 0.409198 0.416693 0.756603
O O12 0.140624 0.421174 0.716620
O O13 0.296477 0.342020 0.175183
O O14 0.293088 0.538037 0.585684
O O15 0.634095 0.430692 0.653993
O O16 0.060721 0.605412 0.410019
O O17 0.000000 0.500000 0.500000
#
# Coordination Sequence:
#
# PCOD8004078 Si02
#       8
#     2   2   2   2   2   2   2   2
#     4  11  20  37  60  97 123 157 199 254 310 363
#     4  10  21  37  66  88 126 153 207 259 305 352
#     4  10  21  36  63  93 124 152 208 254 309 345
#     4  12  24  40  64  91 131 161 201 250 314 372
#     4  11  23  42  58  93 127 166 196 251 314 369
#     4  10  20  37  63  94 123 156 206 262 298 355
#     4  10  20  39  62  95 118 157 214 256 300 350
#     4  12  26  42  64  88 124 170 210 244 305 373
#
# _framework density 19.279109999999999
#
# number of rings (size 3 to 8) (size 9 to 14) (size 15 to 20)
#    0.000    1.250    6.250    1.875    3.500    0.500 
#    2.250    2.500    0.000    0.000    0.000    0.000 
#    0.000    0.000    0.000    0.000    0.000    0.000 
#
# Total GULP energy -198453.306992 kJ/mol
# GULP energy per Si atom -12403.331687 kJ/mol
# Density = 1.923523 g / cm^3
# Si number density = 19.279110 Si / 1000 Ang^3
#
#
#
# Elastic Constant Matrix: (Units=GPa)
#
#
# Indices 1 2 3 4 5 6 
#
# 1 79.9609 29.3991 37.8466 6.3031 8.3272 -7.5245
# 2 29.3991 92.4445 45.8198 -0.9265 6.0419 -9.1757
# 3 37.8466 45.8198 126.2918 9.0830 -2.8012 8.8725
# 4 6.3031 -0.9265 9.0830 33.5336 -4.0493 -1.6256
# 5 8.3272 6.0419 -2.8012 -4.0493 27.8313 4.5230
# 6 -7.5245 -9.1757 8.8725 -1.6256 4.5230 15.5040
#
#
#
# Elastic Compliance Matrix: (Units=1/GPa)
#
#
# Indices 1 2 3 4 5 6 
#
# 1 0.018079 -0.000758 -0.006172 -0.002085 -0.008462 0.014107
# 2 -0.000758 0.016647 -0.007242 0.002566 -0.006300 0.015736
# 3 -0.006172 -0.007242 0.014004 -0.002811 0.007299 -0.017720
# 4 -0.002085 0.002566 -0.002811 0.031702 0.003687 0.004363
# 5 -0.008462 -0.006300 0.007299 0.003687 0.045130 -0.024791
# 6 0.014107 0.015736 -0.017720 0.004363 -0.024791 0.098489
#
#
# Mechanical properties :
#
#
# Convention : Reuss Voigt Hill
#
# Bulk Modulus (GPa) = 49.05255 58.31426 53.68340
# Shear Modulus (GPa) = 19.29072 27.74923 23.51998
#
# Velocity S-wave (km/s) = 3.16666 3.79798 3.49660
# Velocity P-wave (km/s) = 6.23450 7.03889 6.64887
#
# Compressibility (1/GPa) = 0.02038630
#
# Stress axis : x y z
#
# Youngs Moduli (GPa) = 55.31251 60.06913 71.40715
#
# Poissons Ratio (x) = 0.04555 0.44069
# Poissons Ratio (y) = 0.04194 0.51716
# Poissons Ratio (z) = 0.34136 0.43505
#
# Static dielectric constant tensor:
#      x y z
#    x 3.882800 -0.267740 -0.730450 
#    y -0.267740 3.752010 0.570890 
#    z -0.730450 0.570890 4.955380 
# 
# 
# High freq. dielectric constant tensor:
#      x y z
#    x 1.719590 0.001270 0.006790 
#    y 0.001270 1.755580 0.006050 
#    z 0.006790 0.006050 1.767700 
# 
# From -- ./inp_files/218336.got.cif
#   From: 2010.06.25/outbox.cif.g09.slc.cpg/sg2_110_cif.got.tgz:218336.got - 2010.06.27 13:26:56.
