data_PCOD8004402
_publ_section_title
;
Structure prediction by ZEFSAII (Michael W. Deem and Ramdas Pophale) SiO2 
 PCOD8004402
Probable space group: P -1
;
_chemical_formula_sum "Si O2"
_cell_formula_units_Z 16
_cell_length_a 27.386714
_cell_length_b 20.872085
_cell_length_c 10.424757
_cell_angle_alpha 142.194051
_cell_angle_beta 29.663877
_cell_angle_gamma 162.545279
_cell_volume 853.791078
_symmetry_space_group_name_H-M "P -1"
_symmetry_group_IT_number 2
_symmetry_cell_setting 'triclinic'
loop_
_space_group_symop_operation_xyz
x,y,z
-x,-y,-z
loop_
_atom_site_type_symbol
_atom_site_label
_atom_site_fract_x
_atom_site_fract_y
_atom_site_fract_z
Si Si1 0.028638 0.358588 0.689147
Si Si2 0.014770 0.107186 0.735423
Si Si3 0.337232 0.832958 0.721535
Si Si4 0.067748 0.911823 0.695487
Si Si5 0.748898 0.732709 0.305180
Si Si6 0.470003 0.890672 0.781494
Si Si7 0.790170 0.542627 0.317848
Si Si8 0.337251 0.139551 0.685331
O O1 0.205645 0.605884 0.635585
O O2 0.117602 0.362928 0.600329
O O3 0.973834 0.243013 0.504657
O O4 0.819491 0.215949 0.995770
O O5 0.192761 0.248314 0.655387
O O6 0.054466 0.256980 0.817610
O O7 0.000000 0.000000 0.500000
O O8 0.792330 0.914377 0.003593
O O9 0.458157 0.939292 0.749710
O O10 0.500000 0.000000 0.500000
O O11 0.151996 0.061076 0.622188
O O12 0.252004 0.081536 0.646823
O O13 0.849340 0.748714 0.995533
O O14 0.500000 0.500000 0.500000
O O15 0.254223 0.622358 0.873666
O O16 0.661208 0.985303 0.490505
O O17 0.500000 0.000000 0.000000
O O18 0.572057 0.402571 0.582244
#
# Coordination Sequence:
#
# PCOD8004402 Si02
#       8
#     2   2   2   2   2   2   2   2
#     4  10  21  37  59  84 115 152 191 235 293 341
#     4  11  22  37  57  85 114 149 190 235 284 338
#     4  10  22  38  58  88 119 148 196 243 285 352
#     4  10  20  38  58  81 115 152 187 238 287 336
#     4  10  22  37  56  85 115 146 195 237 279 347
#     4   9  19  40  60  81 115 156 186 234 295 337
#     4   9  21  36  58  82 117 146 191 232 281 346
#     4   9  21  37  57  81 117 144 197 229 281 350
#
# _framework density 18.739947000000001
#
# number of rings (size 3 to 8) (size 9 to 14) (size 15 to 20)
#    0.750    1.500    0.000    2.250    1.750    2.500 
#    4.500    0.625    0.000    0.000    0.000    0.000 
#    0.000    0.000    0.000    0.000    0.000    0.000 
#
# Total GULP energy -198326.895886 kJ/mol
# GULP energy per Si atom -12395.430993 kJ/mol
# Density = 1.869729 g / cm^3
# Si number density = 18.739947 Si / 1000 Ang^3
#
#
#
# Elastic Constant Matrix: (Units=GPa)
#
#
# Indices 1 2 3 4 5 6 
#
# 1 103.8675 33.3370 37.2782 -3.8239 7.4240 -5.1881
# 2 33.3370 68.8509 48.3068 2.6638 12.9126 -5.5583
# 3 37.2782 48.3068 98.7446 5.9067 6.2014 5.4713
# 4 -3.8239 2.6638 5.9067 32.5703 5.4059 -2.5399
# 5 7.4240 12.9126 6.2014 5.4059 30.6955 -6.9118
# 6 -5.1881 -5.5583 5.4713 -2.5399 -6.9118 23.3099
#
#
#
# Elastic Compliance Matrix: (Units=1/GPa)
#
#
# Indices 1 2 3 4 5 6 
#
# 1 0.012143 -0.003391 -0.003187 0.002611 -0.000715 0.002714
# 2 -0.003391 0.025819 -0.011354 0.001122 -0.006537 0.006251
# 3 -0.003187 -0.011354 0.017450 -0.003353 0.000898 -0.007612
# 4 0.002611 0.001122 -0.003353 0.032699 -0.005373 0.003605
# 5 -0.000715 -0.006537 0.000898 -0.005373 0.038254 0.008829
# 6 0.002714 0.006251 -0.007612 0.003605 0.008829 0.049792
#
#
# Mechanical properties :
#
#
# Convention : Reuss Voigt Hill
#
# Bulk Modulus (GPa) = 51.15335 56.58966 53.87150
# Shear Modulus (GPa) = 22.87942 27.48453 25.18197
#
# Velocity S-wave (km/s) = 3.49791 3.83381 3.66971
# Velocity P-wave (km/s) = 6.60829 7.06119 6.83849
#
# Compressibility (1/GPa) = 0.01954906
#
# Stress axis : x y z
#
# Youngs Moduli (GPa) = 82.35421 38.73063 57.30516
#
# Poissons Ratio (x) = 0.13135 0.18262
# Poissons Ratio (y) = 0.27929 0.65062
# Poissons Ratio (z) = 0.26244 0.43973
#
# Static dielectric constant tensor:
#      x y z
#    x 3.629400 0.059070 -0.097940 
#    y 0.059070 3.261030 -0.021920 
#    z -0.097940 -0.021920 3.281520 
# 
# 
# High freq. dielectric constant tensor:
#      x y z
#    x 1.746140 0.005880 -0.006320 
#    y 0.005880 1.716600 0.000230 
#    z -0.006320 0.000230 1.715960 
# 
# From -- ./inp_files/357801.got.cif
#   From: 2010.06.25/outbox.cif.g09.slc.cpg/sg2_179_cif.got.tgz:357801.got - 2010.06.27 13:26:56.
