data_PCOD8004374
_publ_section_title
;
Structure prediction by ZEFSAII (Michael W. Deem and Ramdas Pophale) SiO2 
 PCOD8004374
Probable space group: P -1
;
_chemical_formula_sum "Si O2"
_cell_formula_units_Z 16
_cell_length_a 12.408840
_cell_length_b 14.249887
_cell_length_c 16.186417
_cell_angle_alpha 36.231778
_cell_angle_beta 24.960397
_cell_angle_gamma 42.627401
_cell_volume 713.762467
_symmetry_space_group_name_H-M "P -1"
_symmetry_group_IT_number 2
_symmetry_cell_setting 'triclinic'
loop_
_space_group_symop_operation_xyz
x,y,z
-x,-y,-z
loop_
_atom_site_type_symbol
_atom_site_label
_atom_site_fract_x
_atom_site_fract_y
_atom_site_fract_z
Si Si1 0.287572 0.323741 0.395052
Si Si2 0.339559 0.915448 0.414649
Si Si3 0.157590 0.668009 0.191726
Si Si4 0.097439 0.325121 0.083649
Si Si5 0.832506 0.406961 0.943266
Si Si6 0.818666 0.804405 0.054414
Si Si7 0.311960 0.002800 0.550904
Si Si8 0.677839 0.736373 0.859101
O O1 0.170900 0.479283 0.324943
O O2 0.575300 0.351532 0.209372
O O3 0.269635 0.190759 0.430108
O O4 0.116159 0.268086 0.631297
O O5 0.137608 0.776279 0.646460
O O6 0.570884 0.875000 0.221214
O O7 0.429616 0.924588 0.441576
O O8 0.211090 0.086728 0.356223
O O9 0.173479 0.695902 0.063427
O O10 0.381151 0.751681 0.027878
O O11 0.300492 0.326042 0.016713
O O12 0.000000 0.500000 0.000000
O O13 0.239309 0.237429 0.970849
O O14 0.822122 0.598562 0.802465
O O15 0.084760 0.359043 0.852950
O O16 0.043935 0.929289 0.814923
O O17 0.500000 0.000000 0.500000
#
# Coordination Sequence:
#
# PCOD8004374 Si02
#       8
#     2   2   2   2   2   2   2   2
#     4  10  20  38  56  95 129 174 206 255 324 383
#     4  11  26  43  68 100 129 171 224 269 331 384
#     4  10  22  35  65  94 129 165 219 259 322 388
#     4  11  25  49  70  92 130 170 224 275 333 383
#     4  11  21  39  65  93 137 168 213 264 322 387
#     4  11  25  42  65 100 130 175 218 269 320 393
#     4  11  22  37  63  92 140 172 207 260 325 381
#     4  11  22  45  69  93 132 175 217 276 322 385
#
# _framework density 22.416421
#
# number of rings (size 3 to 8) (size 9 to 14) (size 15 to 20)
#    0.000    1.250    2.500    4.125    1.750    1.500 
#    2.250    2.500    0.000    0.000    0.000    0.000 
#    0.000    0.000    0.000    0.000    0.000    0.000 
#
# Total GULP energy -198321.336913 kJ/mol
# GULP energy per Si atom -12395.083557 kJ/mol
# Density = 2.236540 g / cm^3
# Si number density = 22.416421 Si / 1000 Ang^3
#
#
#
# Elastic Constant Matrix: (Units=GPa)
#
#
# Indices 1 2 3 4 5 6 
#
# 1 116.4948 10.8108 27.6085 12.1019 11.8486 14.8717
# 2 10.8108 89.2714 47.4002 -3.8002 -2.0536 12.6081
# 3 27.6085 47.4002 100.2672 -0.6379 7.2608 13.5501
# 4 12.1019 -3.8002 -0.6379 44.4663 6.5222 9.3487
# 5 11.8486 -2.0536 7.2608 6.5222 22.4073 -2.8792
# 6 14.8717 12.6081 13.5501 9.3487 -2.8792 34.8008
#
#
#
# Elastic Compliance Matrix: (Units=1/GPa)
#
#
# Indices 1 2 3 4 5 6 
#
# 1 0.010139 0.000220 -0.002066 -0.001304 -0.004762 -0.003652
# 2 0.000220 0.015554 -0.007196 0.001394 0.002841 -0.003067
# 3 -0.002066 -0.007196 0.014751 0.001576 -0.005205 -0.003108
# 4 -0.001304 0.001394 0.001576 0.025929 -0.008296 -0.008213
# 5 -0.004762 0.002841 -0.005205 -0.008296 0.052744 0.009624
# 6 -0.003652 -0.003067 -0.003108 -0.008213 0.009624 0.035619
#
#
# Mechanical properties :
#
#
# Convention : Reuss Voigt Hill
#
# Bulk Modulus (GPa) = 44.72258 53.07471 48.89864
# Shear Modulus (GPa) = 27.73567 35.01581 31.37574
#
# Velocity S-wave (km/s) = 3.52133 3.95658 3.74528
# Velocity P-wave (km/s) = 6.04377 6.67838 6.36899
#
# Compressibility (1/GPa) = 0.02236007
#
# Stress axis : x y z
#
# Youngs Moduli (GPa) = 98.62713 64.29322 67.79320
#
# Poissons Ratio (x) = -0.01412 0.14004
# Poissons Ratio (y) = -0.02166 0.48783
# Poissons Ratio (z) = 0.20373 0.46264
#
# Static dielectric constant tensor:
#      x y z
#    x 4.032920 0.276140 0.148640 
#    y 0.276140 4.548490 -0.141100 
#    z 0.148640 -0.141100 4.055760 
# 
# 
# High freq. dielectric constant tensor:
#      x y z
#    x 1.876620 0.013870 0.009670 
#    y 0.013870 1.892710 -0.015730 
#    z 0.009670 -0.015730 1.873280 
# 
# From -- ./inp_files/522230.got.cif
#   From: 2010.06.25/outbox.cif.g09.slc.cpg/sg2_262_cif.got.tgz:522230.got - 2010.06.27 13:26:56.
