data_PCOD8004707
_publ_section_title
;
Structure prediction by ZEFSAII (Michael W. Deem and Ramdas Pophale) SiO2 
 PCOD8004707
Probable space group: P -1
;
_chemical_formula_sum "Si O2"
_cell_formula_units_Z 16
_cell_length_a 7.624858
_cell_length_b 20.007565
_cell_length_c 9.026543
_cell_angle_alpha 58.282172
_cell_angle_beta 126.575180
_cell_angle_gamma 142.777301
_cell_volume 665.224319
_symmetry_space_group_name_H-M "P -1"
_symmetry_group_IT_number 2
_symmetry_cell_setting 'triclinic'
loop_
_space_group_symop_operation_xyz
x,y,z
-x,-y,-z
loop_
_atom_site_type_symbol
_atom_site_label
_atom_site_fract_x
_atom_site_fract_y
_atom_site_fract_z
Si Si1 0.310066 0.978442 0.282955
Si Si2 0.374129 0.157585 0.964853
Si Si3 0.475824 0.731136 0.792458
Si Si4 0.354400 0.351817 0.527471
Si Si5 0.247754 0.678704 0.290014
Si Si6 0.679595 0.466568 0.120528
Si Si7 0.205479 0.474513 0.215731
Si Si8 0.753368 0.203629 0.588710
O O1 0.343795 0.908862 0.277035
O O2 0.500000 0.000000 0.500000
O O3 0.454773 0.089783 0.140612
O O4 0.949992 0.913694 0.203139
O O5 0.354073 0.211313 0.033720
O O6 0.663760 0.252939 0.896367
O O7 0.557422 0.668326 0.826021
O O8 0.524879 0.819817 0.608050
O O9 0.107540 0.626934 0.740778
O O10 0.458876 0.301990 0.541601
O O11 0.381994 0.434782 0.338598
O O12 0.592082 0.416137 0.709598
O O13 0.019614 0.253853 0.543827
O O14 0.149907 0.718832 0.313960
O O15 0.959887 0.545248 0.285048
O O16 0.500000 0.500000 0.000000
O O17 0.835276 0.497486 0.998767
#
# Coordination Sequence:
#
# PCOD8004707 Si02
#       8
#     2   2   2   2   2   2   2   2
#     4  11  24  48  74 101 130 176 236 295 356 406
#     4  11  24  44  78  97 133 185 228 289 356 405
#     4  11  22  42  66  97 134 187 228 270 342 418
#     4  10  21  40  64  92 138 179 227 273 342 399
#     4  12  24  42  67 104 137 180 225 278 335 418
#     4  12  25  36  60 100 148 178 226 274 325 410
#     4  10  20  38  61  90 130 191 220 268 332 410
#     4  11  25  42  71 100 136 177 233 290 345 405
#
# _framework density 24.052038
#
# number of rings (size 3 to 8) (size 9 to 14) (size 15 to 20)
#    0.000    1.000    5.000    1.875    3.500    1.000 
#    0.000    0.625    0.000    0.000    0.000    0.000 
#    0.000    0.000    0.000    0.000    0.000    0.000 
#
# Total GULP energy -198213.402699 kJ/mol
# GULP energy per Si atom -12388.337669 kJ/mol
# Density = 2.399729 g / cm^3
# Si number density = 24.052038 Si / 1000 Ang^3
#
#
#
# Elastic Constant Matrix: (Units=GPa)
#
#
# Indices 1 2 3 4 5 6 
#
# 1 84.1054 21.7652 7.1575 -8.6427 19.1036 -33.4905
# 2 21.7652 87.8170 26.4147 -6.1730 11.6520 -29.8900
# 3 7.1575 26.4147 107.3609 -2.9889 17.0740 -12.2003
# 4 -8.6427 -6.1730 -2.9889 46.0761 -11.7256 10.7603
# 5 19.1036 11.6520 17.0740 -11.7256 32.3924 -7.1744
# 6 -33.4905 -29.8900 -12.2003 10.7603 -7.1744 41.6108
#
#
#
# Elastic Compliance Matrix: (Units=1/GPa)
#
#
# Indices 1 2 3 4 5 6 
#
# 1 0.020088 0.001299 0.001815 -0.002459 -0.010517 0.016456
# 2 0.001299 0.016059 -0.002227 -0.001310 -0.003250 0.011706
# 3 0.001815 -0.002227 0.010926 -0.001326 -0.005982 0.002376
# 4 -0.002459 -0.001310 -0.001326 0.025436 0.010021 -0.008159
# 5 -0.010517 -0.003250 -0.005982 0.010021 0.043324 -0.007675
# 6 0.016456 0.011706 0.002376 -0.008159 -0.007675 0.047169
#
#
# Mechanical properties :
#
#
# Convention : Reuss Voigt Hill
#
# Bulk Modulus (GPa) = 20.47231 43.32868 31.90050
# Shear Modulus (GPa) = 28.16757 38.94559 33.55658
#
# Velocity S-wave (km/s) = 3.42586 4.02832 3.73924
# Velocity P-wave (km/s) = 4.91720 6.30001 5.65106
#
# Compressibility (1/GPa) = 0.04884646
#
# Stress axis : x y z
#
# Youngs Moduli (GPa) = 49.78138 62.27107 91.52674
#
# Poissons Ratio (x) = -0.08087 -0.16614
# Poissons Ratio (y) = -0.06465 0.20383
# Poissons Ratio (z) = -0.09037 0.13867
#
# Static dielectric constant tensor:
#      x y z
#    x 4.440250 -0.479180 0.428560 
#    y -0.479180 4.881690 -0.395380 
#    z 0.428560 -0.395380 4.597830 
# 
# 
# High freq. dielectric constant tensor:
#      x y z
#    x 1.936880 -0.033880 0.027900 
#    y -0.033880 1.947210 -0.015380 
#    z 0.027900 -0.015380 1.961060 
# 
# From -- ./inp_files/223510.got.cif
#   From: 2010.06.25/outbox.cif.g09.slc.cpg/sg2_112_cif.got.tgz:223510.got - 2010.06.27 13:26:56.
