data_PCOD8004942
_publ_section_title
;
Structure prediction by ZEFSAII (Michael W. Deem and Ramdas Pophale) SiO2 
 PCOD8004942
Probable space group: P -1
;
_chemical_formula_sum "Si O2"
_cell_formula_units_Z 14
_cell_length_a 9.279004
_cell_length_b 11.706487
_cell_length_c 9.283100
_cell_angle_alpha 128.233897
_cell_angle_beta 121.322126
_cell_angle_gamma 57.788726
_cell_volume 642.199527
_symmetry_space_group_name_H-M "P -1"
_symmetry_group_IT_number 2
_symmetry_cell_setting 'triclinic'
loop_
_space_group_symop_operation_xyz
x,y,z
-x,-y,-z
loop_
_atom_site_type_symbol
_atom_site_label
_atom_site_fract_x
_atom_site_fract_y
_atom_site_fract_z
Si Si1 0.998221 0.932491 0.790091
Si Si2 0.537578 0.651092 0.093352
Si Si3 0.112878 0.552541 0.978103
Si Si4 0.389243 0.862045 0.938192
Si Si5 0.547330 0.842016 0.707149
Si Si6 0.290965 0.807386 0.320576
Si Si7 0.918788 0.655212 0.663709
O O1 0.960070 0.774264 0.669182
O O2 0.192882 0.905778 0.802604
O O3 0.859275 0.042716 0.696220
O O4 0.000000 0.000000 0.000000
O O5 0.748319 0.606249 0.135567
O O6 0.463202 0.771880 0.277210
O O7 0.500000 0.500000 0.000000
O O8 0.424248 0.713389 0.939875
O O9 0.000025 0.646919 0.859963
O O10 0.214369 0.664269 0.186837
O O11 0.000000 0.500000 0.000000
O O12 0.532833 0.817233 0.850775
O O13 0.413296 0.996433 0.159621
O O14 0.361728 0.847450 0.540850
O O15 0.706626 0.702849 0.614223
O O16 0.000000 0.500000 0.500000
#
# Coordination Sequence:
#
# PCOD8004942 Si02
#       7
#     2   2   2   2   2   2   2
#     4  12  21  45  71  94 128 177 222 269 325 391
#     4  10  20  38  63  92 122 170 216 263 319 385
#     4  11  23  41  65  94 133 173 213 274 333 388
#     4  11  23  43  68  93 134 175 220 271 333 387
#     4  11  25  42  65 100 132 172 217 278 331 388
#     4  11  23  42  68  94 129 171 228 267 321 402
#     4  12  25  44  68  99 134 174 222 271 330 393
#
# _framework density 21.800077999999999
#
# number of rings (size 3 to 8) (size 9 to 14) (size 15 to 20)
#    0.000    0.857    4.286    2.571    0.000    7.429 
#    0.000    4.286    0.000    0.000    0.000    0.000 
#    0.000    0.000    0.000    0.000    0.000    0.000 
#
# Total GULP energy -173566.944082 kJ/mol
# GULP energy per Si atom -12397.638863 kJ/mol
# Density = 2.175046 g / cm^3
# Si number density = 21.800078 Si / 1000 Ang^3
#
#
#
# Elastic Constant Matrix: (Units=GPa)
#
#
# Indices 1 2 3 4 5 6 
#
# 1 136.7254 54.8157 37.1458 10.7749 0.9387 -4.4065
# 2 54.8157 138.9537 51.7783 1.3594 4.4556 -3.7050
# 3 37.1458 51.7783 97.7193 -2.4715 10.1527 -3.0539
# 4 10.7749 1.3594 -2.4715 35.2250 -5.3933 3.5536
# 5 0.9387 4.4556 10.1527 -5.3933 26.9399 -4.8592
# 6 -4.4065 -3.7050 -3.0539 3.5536 -4.8592 34.3062
#
#
#
# Elastic Compliance Matrix: (Units=1/GPa)
#
#
# Indices 1 2 3 4 5 6 
#
# 1 0.009287 -0.002832 -0.002128 -0.002904 0.000560 0.001078
# 2 -0.002832 0.009862 -0.004148 0.000180 0.000127 0.000331
# 3 -0.002128 -0.004148 0.013700 0.001149 -0.004212 -0.000217
# 4 -0.002904 0.000180 0.001149 0.030423 0.005249 -0.002659
# 5 0.000560 0.000127 -0.004212 0.005249 0.040604 0.004918
# 6 0.001078 0.000331 -0.000217 -0.002659 0.004918 0.030276
#
#
# Mechanical properties :
#
#
# Convention : Reuss Voigt Hill
#
# Bulk Modulus (GPa) = 68.32855 73.43087 70.87971
# Shear Modulus (GPa) = 31.79763 34.60479 33.20121
#
# Velocity S-wave (km/s) = 3.82331 3.98850 3.90678
# Velocity P-wave (km/s) = 7.13453 7.41403 7.27562
#
# Compressibility (1/GPa) = 0.01463517
#
# Stress axis : x y z
#
# Youngs Moduli (GPa) = 107.67792 101.39781 72.99403
#
# Poissons Ratio (x) = 0.28711 0.15532
# Poissons Ratio (y) = 0.30489 0.30274
# Poissons Ratio (z) = 0.22912 0.42055
#
# Static dielectric constant tensor:
#      x y z
#    x 3.225960 -1.071650 -0.655100 
#    y -1.071650 3.106360 -0.047900 
#    z -0.655100 -0.047900 3.666140 
# 
# 
# High freq. dielectric constant tensor:
#      x y z
#    x 1.867900 -0.007610 -0.003560 
#    y -0.007610 1.869910 -0.002030 
#    z -0.003560 -0.002030 1.836440 
# 
# From -- ./inp_files/153664.got.cif
#   From: 2010.06.25/outbox.cif.g09.slc.cpg/sg2_77_cif.got.tgz:153664.got - 2010.06.27 13:26:56.
