data_PCOD8004003
_publ_section_title
;
Structure prediction by ZEFSAII (Michael W. Deem and Ramdas Pophale) SiO2 
 PCOD8004003
Probable space group: P -1
;
_chemical_formula_sum "Si O2"
_cell_formula_units_Z 14
_cell_length_a 10.955327
_cell_length_b 14.473046
_cell_length_c 20.662549
_cell_angle_alpha 18.357589
_cell_angle_beta 133.650699
_cell_angle_gamma 130.822848
_cell_volume 746.574472
_symmetry_space_group_name_H-M "P -1"
_symmetry_group_IT_number 2
_symmetry_cell_setting 'triclinic'
loop_
_space_group_symop_operation_xyz
x,y,z
-x,-y,-z
loop_
_atom_site_type_symbol
_atom_site_label
_atom_site_fract_x
_atom_site_fract_y
_atom_site_fract_z
Si Si1 0.161552 0.223531 0.683155
Si Si2 0.784101 0.761572 0.575810
Si Si3 0.051464 0.599630 0.023162
Si Si4 0.539664 0.401876 0.508291
Si Si5 0.227065 0.144751 0.035265
Si Si6 0.145102 0.601486 0.801901
Si Si7 0.919090 0.749359 0.220821
O O1 0.337531 0.360781 0.635515
O O2 0.173336 0.167518 0.801585
O O3 0.005333 0.432251 0.468688
O O4 0.130316 0.922404 0.834112
O O5 0.807039 0.625010 0.747115
O O6 0.632949 0.596120 0.595779
O O7 0.959494 0.703100 0.638899
O O8 0.746815 0.108917 0.334988
O O9 0.886556 0.589960 0.016813
O O10 0.000000 0.500000 0.000000
O O11 0.500000 0.500000 0.500000
O O12 0.618184 0.076899 0.752193
O O13 0.251969 0.421337 0.907898
O O14 0.217317 0.254187 0.884656
O O15 0.052793 0.000886 0.088673
#
# Coordination Sequence:
#
# PCOD8004003 Si02
#       7
#     2   2   2   2   2   2   2
#     4  10  21  36  60  87 125 148 197 253 297 347
#     4   9  22  40  57  88 119 152 204 240 290 353
#     4  10  21  35  61  90 112 155 200 247 289 336
#     4  11  26  38  58  89 127 159 191 245 314 352
#     4  10  20  37  63  86 117 157 203 240 294 357
#     4   9  20  39  66  80 116 159 208 241 277 357
#     4   9  19  35  60  91 111 153 202 247 287 351
#
# _framework density 18.752314999999999
#
# number of rings (size 3 to 8) (size 9 to 14) (size 15 to 20)
#    0.857    1.429    1.429    0.000   12.000    1.143 
#    0.000    0.000    0.000    1.714    0.000    0.000 
#    0.000    0.000    0.000    0.000    0.000    0.000 
#
# Total GULP energy -173564.016291 kJ/mol
# GULP energy per Si atom -12397.429735 kJ/mol
# Density = 1.870963 g / cm^3
# Si number density = 18.752315 Si / 1000 Ang^3
#
#
#
# Elastic Constant Matrix: (Units=GPa)
#
#
# Indices 1 2 3 4 5 6 
#
# 1 83.6383 55.3701 29.8469 -0.1664 -1.0803 -18.2832
# 2 55.3701 137.3758 53.5678 -1.6932 -6.3673 -16.3123
# 3 29.8469 53.5678 86.8520 -13.1772 -6.4052 -9.5760
# 4 -0.1664 -1.6932 -13.1772 36.0641 -10.3589 -1.5479
# 5 -1.0803 -6.3673 -6.4052 -10.3589 24.3045 -1.0726
# 6 -18.2832 -16.3123 -9.5760 -1.5479 -1.0726 32.2493
#
#
#
# Elastic Compliance Matrix: (Units=1/GPa)
#
#
# Indices 1 2 3 4 5 6 
#
# 1 0.017898 -0.005654 -0.002225 -0.001138 -0.001469 0.006523
# 2 -0.005654 0.011794 -0.005283 -0.001051 0.001050 0.001176
# 3 -0.002225 -0.005283 0.017465 0.008117 0.006661 0.001863
# 4 -0.001138 -0.001051 0.008117 0.035730 0.017197 0.003520
# 5 -0.001469 0.001050 0.006661 0.017197 0.050624 0.004185
# 6 0.006523 0.001176 0.001863 0.003520 0.004185 0.036163
#
#
# Mechanical properties :
#
#
# Convention : Reuss Voigt Hill
#
# Bulk Modulus (GPa) = 48.00346 65.04841 56.52593
# Shear Modulus (GPa) = 24.63745 29.79565 27.21655
#
# Velocity S-wave (km/s) = 3.62862 3.99043 3.81382
# Velocity P-wave (km/s) = 6.57344 7.48297 7.04290
#
# Compressibility (1/GPa) = 0.02083183
#
# Stress axis : x y z
#
# Youngs Moduli (GPa) = 55.87253 84.79208 57.25608
#
# Poissons Ratio (x) = 0.47938 0.12742
# Poissons Ratio (y) = 0.31588 0.30250
# Poissons Ratio (z) = 0.12434 0.44799
#
# Static dielectric constant tensor:
#      x y z
#    x 3.204310 -0.135860 -0.113250 
#    y -0.135860 3.239290 0.000260 
#    z -0.113250 0.000260 3.581750 
# 
# 
# High freq. dielectric constant tensor:
#      x y z
#    x 1.704220 -0.015380 -0.005840 
#    y -0.015380 1.719140 -0.008200 
#    z -0.005840 -0.008200 1.735520 
# 
# From -- ./inp_files/595327.got.cif
#   From: 2010.06.25/outbox.cif.g09.slc.cpg/sg2_298_cif.got.tgz:595327.got - 2010.06.27 13:26:56.
