data_PCOD8004140
_publ_section_title
;
Structure prediction by ZEFSAII (Michael W. Deem and Ramdas Pophale) SiO2 
 PCOD8004140
Probable space group: P -1
;
_chemical_formula_sum "Si O2"
_cell_formula_units_Z 16
_cell_length_a 25.990823
_cell_length_b 13.770428
_cell_length_c 9.802177
_cell_angle_alpha 128.499818
_cell_angle_beta 138.990435
_cell_angle_gamma 21.716796
_cell_volume 806.022345
_symmetry_space_group_name_H-M "P -1"
_symmetry_group_IT_number 2
_symmetry_cell_setting 'triclinic'
loop_
_space_group_symop_operation_xyz
x,y,z
-x,-y,-z
loop_
_atom_site_type_symbol
_atom_site_label
_atom_site_fract_x
_atom_site_fract_y
_atom_site_fract_z
Si Si1 0.889539 0.542442 0.761368
Si Si2 0.363749 0.586047 0.771946
Si Si3 0.767683 0.315461 0.114902
Si Si4 0.077645 0.257293 0.406015
Si Si5 0.017473 0.189422 0.482944
Si Si6 0.064731 0.172892 0.013975
Si Si7 0.472894 0.683474 0.634411
Si Si8 0.393244 0.875590 0.355062
O O1 0.980342 0.363093 0.650635
O O2 0.902092 0.422026 0.801678
O O3 0.693505 0.866202 0.618013
O O4 0.000000 0.500000 0.000000
O O5 0.300945 0.610628 0.805862
O O6 0.461897 0.346401 0.665516
O O7 0.500000 0.500000 0.000000
O O8 0.201970 0.869169 0.611726
O O9 0.861558 0.313973 0.301489
O O10 0.905277 0.016272 0.079397
O O11 0.610855 0.542752 0.892764
O O12 0.000000 0.500000 0.500000
O O13 0.016304 0.236025 0.365928
O O14 0.286110 0.971500 0.580766
O O15 0.013389 0.307788 0.171903
O O16 0.245169 0.976820 0.144092
O O17 0.500000 0.500000 0.500000
O O18 0.488500 0.737384 0.571554
#
# Coordination Sequence:
#
# PCOD8004140 Si02
#       8
#     2   2   2   2   2   2   2   2
#     4  10  20  40  63  88 125 169 206 257 317 378
#     4  12  21  39  66  97 120 165 221 258 308 386
#     4  12  24  40  63  98 134 162 209 272 327 366
#     4  11  23  41  66  97 122 168 227 256 307 392
#     4  12  25  40  64  98 130 164 210 271 322 372
#     4  10  20  38  63  91 128 164 207 264 316 366
#     4  11  20  41  65  89 128 170 215 258 313 383
#     4  10  20  37  64  93 116 163 223 259 298 375
#
# _framework density 19.850567000000002
#
# number of rings (size 3 to 8) (size 9 to 14) (size 15 to 20)
#    0.000    1.000    5.000    4.875    0.000    1.500 
#    0.000    3.125    0.000    0.000    0.000    0.000 
#    0.000    0.000    0.000    0.000    0.000    0.000 
#
# Total GULP energy -198419.949181 kJ/mol
# GULP energy per Si atom -12401.246824 kJ/mol
# Density = 1.980539 g / cm^3
# Si number density = 19.850567 Si / 1000 Ang^3
#
#
#
# Elastic Constant Matrix: (Units=GPa)
#
#
# Indices 1 2 3 4 5 6 
#
# 1 115.5799 47.6452 48.1337 -4.2075 -21.8000 -7.1237
# 2 47.6452 156.6636 34.7089 5.4214 -21.5691 0.5260
# 3 48.1337 34.7089 62.3561 -1.7016 -14.8645 -0.4932
# 4 -4.2075 5.4214 -1.7016 32.7428 3.1618 -13.1687
# 5 -21.8000 -21.5691 -14.8645 3.1618 38.5614 -3.6554
# 6 -7.1237 0.5260 -0.4932 -13.1687 -3.6554 30.8466
#
#
#
# Elastic Compliance Matrix: (Units=1/GPa)
#
#
# Indices 1 2 3 4 5 6 
#
# 1 0.014341 -0.002002 -0.008929 0.003399 0.003751 0.005099
# 2 -0.002002 0.007949 -0.002369 -0.002503 0.002473 -0.001411
# 3 -0.008929 -0.002369 0.024979 -0.000318 0.003151 -0.001385
# 4 0.003399 -0.002503 -0.000318 0.038345 -0.001128 0.017059
# 5 0.003751 0.002473 0.003151 -0.001128 0.031130 0.004082
# 6 0.005099 -0.001411 -0.001385 0.017059 0.004082 0.041364
#
#
# Mechanical properties :
#
#
# Convention : Reuss Voigt Hill
#
# Bulk Modulus (GPa) = 48.38021 66.17503 57.27762
# Shear Modulus (GPa) = 26.09637 34.03763 30.06700
#
# Velocity S-wave (km/s) = 3.62973 4.14538 3.89609
# Velocity P-wave (km/s) = 6.48010 7.50474 7.01117
#
# Compressibility (1/GPa) = 0.02066961
#
# Stress axis : x y z
#
# Youngs Moduli (GPa) = 69.73050 125.80963 40.03295
#
# Poissons Ratio (x) = 0.25182 0.35744
# Poissons Ratio (y) = 0.13957 0.09485
# Poissons Ratio (z) = 0.62260 0.29808
#
# Static dielectric constant tensor:
#      x y z
#    x 3.705260 0.357560 -0.344090 
#    y 0.357560 3.912050 -0.116410 
#    z -0.344090 -0.116410 3.523440 
# 
# 
# High freq. dielectric constant tensor:
#      x y z
#    x 1.767550 0.009090 -0.032050 
#    y 0.009090 1.787410 0.004160 
#    z -0.032050 0.004160 1.764980 
# 
# From -- ./inp_files/299394.got.cif
#   From: 2010.06.25/outbox.cif.g09.slc.cpg/sg2_150_cif.got.tgz:299394.got - 2010.06.27 13:26:56.
