data_PCOD8004870
_publ_section_title
;
Structure prediction by ZEFSAII (Michael W. Deem and Ramdas Pophale) SiO2 
 PCOD8004870
Probable space group: P -1
;
_chemical_formula_sum "Si O2"
_cell_formula_units_Z 14
_cell_length_a 17.576842
_cell_length_b 8.467795
_cell_length_c 12.360657
_cell_angle_alpha 101.189145
_cell_angle_beta 28.879781
_cell_angle_gamma 120.563268
_cell_volume 609.744657
_symmetry_space_group_name_H-M "P -1"
_symmetry_group_IT_number 2
_symmetry_cell_setting 'triclinic'
loop_
_space_group_symop_operation_xyz
x,y,z
-x,-y,-z
loop_
_atom_site_type_symbol
_atom_site_label
_atom_site_fract_x
_atom_site_fract_y
_atom_site_fract_z
Si Si1 0.430631 0.745832 0.868517
Si Si2 0.247142 0.192636 0.174035
Si Si3 0.349348 0.607291 0.183459
Si Si4 0.052249 0.622868 0.184116
Si Si5 0.705634 0.693490 0.103643
Si Si6 0.689442 0.001635 0.259276
Si Si7 0.884904 0.166074 0.270059
O O1 0.437872 0.567247 0.788023
O O2 0.682524 0.997937 0.585340
O O3 0.341265 0.708853 0.097739
O O4 0.277882 0.741587 0.981338
O O5 0.365625 0.444457 0.089562
O O6 0.422582 0.187844 0.003857
O O7 0.215254 0.153436 0.080997
O O8 0.000000 0.000000 0.500000
O O9 0.129918 0.455976 0.511099
O O10 0.955646 0.403169 0.208338
O O11 0.115562 0.807839 0.044211
O O12 0.576835 0.744471 0.335288
O O13 0.914321 0.797472 0.932343
O O14 0.808600 0.058884 0.232465
O O15 0.500000 0.000000 0.500000
#
# Coordination Sequence:
#
# PCOD8004870 Si02
#       7
#     2   2   2   2   2   2   2
#     4  10  22  44  65  98 133 167 215 262 329 395
#     4  10  20  38  62  97 131 167 215 260 322 389
#     4  10  22  37  65  97 130 170 208 266 323 385
#     4  11  24  42  66  97 134 168 218 270 323 384
#     4  10  24  42  67  93 128 172 215 270 320 388
#     4  12  25  45  67  94 129 175 221 275 322 374
#     4  11  24  45  65  95 132 174 216 265 326 385
#
# _framework density 22.960431
#
# number of rings (size 3 to 8) (size 9 to 14) (size 15 to 20)
#    0.000    1.429    1.429    3.000    2.000    4.571 
#    2.571    0.000    0.000    0.000    0.000    0.000 
#    0.000    0.000    0.000    0.000    0.000    0.000 
#
# Total GULP energy -173495.126673 kJ/mol
# GULP energy per Si atom -12392.509048 kJ/mol
# Density = 2.290817 g / cm^3
# Si number density = 22.960431 Si / 1000 Ang^3
#
#
#
# Elastic Constant Matrix: (Units=GPa)
#
#
# Indices 1 2 3 4 5 6 
#
# 1 120.3016 27.4439 14.1799 2.6897 11.5615 11.8319
# 2 27.4439 48.8086 20.7875 12.7343 -15.0938 21.8992
# 3 14.1799 20.7875 82.9391 -1.4934 4.7939 -11.2693
# 4 2.6897 12.7343 -1.4934 34.8743 1.2174 1.6649
# 5 11.5615 -15.0938 4.7939 1.2174 40.2054 6.3835
# 6 11.8319 21.8992 -11.2693 1.6649 6.3835 5.7418
#
#
#
# Elastic Compliance Matrix: (Units=1/GPa)
#
#
# Indices 1 2 3 4 5 6 
#
# 1 0.010213 -0.003806 -0.001377 0.000937 -0.003304 -0.005832
# 2 -0.003806 -0.003138 0.007931 -0.000057 -0.008072 0.044368
# 3 -0.001377 0.007931 0.007477 -0.001788 0.005436 -0.018263
# 4 0.000937 -0.000057 -0.001788 0.029227 0.001471 -0.015331
# 5 -0.003304 -0.008072 0.005436 0.001471 0.017613 0.028256
# 6 -0.005832 0.044368 -0.018263 -0.015331 0.028256 -0.045854
#
#
# Mechanical properties :
#
#
# Convention : Reuss Voigt Hill
#
# Bulk Modulus (GPa) = 49.87740 41.87466 45.87603
# Shear Modulus (GPa) = 298.97684 28.80684 163.89184
#
# Velocity S-wave (km/s) = 11.42351 3.54592 8.45784
# Velocity P-wave (km/s) = 13.99164 5.91963 10.74262
#
# Compressibility (1/GPa) = 0.02004916
#
# Stress axis : x y z
#
# Youngs Moduli (GPa) = 97.91415 -318.65833 133.74778
#
# Poissons Ratio (x) = -1.21269 0.18415
# Poissons Ratio (y) = 0.37262 -1.06078
# Poissons Ratio (z) = 0.13481 2.52735
#
# Static dielectric constant tensor:
#      x y z
#    x 4.512050 0.123000 0.108580 
#    y 0.123000 4.363360 -0.001290 
#    z 0.108580 -0.001290 3.894610 
# 
# 
# High freq. dielectric constant tensor:
#      x y z
#    x 1.925810 0.008470 0.006620 
#    y 0.008470 1.911730 0.000480 
#    z 0.006620 0.000480 1.892610 
# 
# From -- ./inp_files/34158.got.cif
#   From: 2010.06.25/outbox.cif.g09.slc.cpg/sg2_18_cif.got.tgz:34158.got - 2010.06.27 13:26:56.
