data_PCOD8004767
_publ_section_title
;
Structure prediction by ZEFSAII (Michael W. Deem and Ramdas Pophale) SiO2 
 PCOD8004767
Probable space group: P -1
;
_chemical_formula_sum "Si O2"
_cell_formula_units_Z 12
_cell_length_a 22.254096
_cell_length_b 6.657649
_cell_length_c 6.841852
_cell_angle_alpha 63.692638
_cell_angle_beta 127.480535
_cell_angle_gamma 135.623343
_cell_volume 562.528576
_symmetry_space_group_name_H-M "P -1"
_symmetry_group_IT_number 2
_symmetry_cell_setting 'triclinic'
loop_
_space_group_symop_operation_xyz
x,y,z
-x,-y,-z
loop_
_atom_site_type_symbol
_atom_site_label
_atom_site_fract_x
_atom_site_fract_y
_atom_site_fract_z
Si Si1 0.863818 0.788743 0.435064
Si Si2 0.445392 0.665787 0.037710
Si Si3 0.960955 0.188379 0.114919
Si Si4 0.379810 0.263092 0.726897
Si Si5 0.783341 0.752426 0.690565
Si Si6 0.295453 0.654520 0.962164
O O1 0.792374 0.744420 0.479577
O O2 0.801833 0.510887 0.291558
O O3 0.950005 0.817790 0.700176
O O4 0.906218 0.074758 0.266178
O O5 0.405725 0.518932 0.809636
O O6 0.356677 0.544859 0.063769
O O7 0.526752 0.627187 0.271868
O O8 0.500000 0.000000 0.000000
O O9 0.000000 0.500000 0.000000
O O10 0.888264 0.988646 0.885564
O O11 0.289309 0.170667 0.453619
O O12 0.352974 0.993393 0.918595
O O13 0.735491 0.445438 0.831067
#
# Coordination Sequence:
#
# PCOD8004767 Si02
#       6
#     2   2   2   2   2   2
#     4  10  21  39  58  84 126 150 192 256 280 344
#     4   9  19  39  62  85 123 155 194 249 289 346
#     4  10  22  38  59  87 116 158 198 235 300 351
#     4  10  20  38  62  87 119 160 195 242 299 341
#     4  11  22  37  61  89 116 159 199 239 298 349
#     4  10  21  39  59  88 123 155 198 243 289 349
#
# _framework density 21.332250999999999
#
# number of rings (size 3 to 8) (size 9 to 14) (size 15 to 20)
#    0.000    2.000    1.667    1.500    0.000    2.667 
#    3.000    7.500    0.000    0.000    0.000    0.000 
#    0.000    0.000    0.000    0.000    0.000    0.000 
#
# Total GULP energy -148681.257676 kJ/mol
# GULP energy per Si atom -12390.104806 kJ/mol
# Density = 2.128370 g / cm^3
# Si number density = 21.332251 Si / 1000 Ang^3
#
#
#
# Elastic Constant Matrix: (Units=GPa)
#
#
# Indices 1 2 3 4 5 6 
#
# 1 80.4532 28.3689 51.1762 10.6683 10.1221 5.1568
# 2 28.3689 114.7986 37.8968 -8.7325 -4.7923 1.2876
# 3 51.1762 37.8968 92.2103 -9.1652 5.8195 5.3431
# 4 10.6683 -8.7325 -9.1652 26.0996 9.8543 1.9390
# 5 10.1221 -4.7923 5.8195 9.8543 41.4433 3.6207
# 6 5.1568 1.2876 5.3431 1.9390 3.6207 27.0267
#
#
#
# Elastic Compliance Matrix: (Units=1/GPa)
#
#
# Indices 1 2 3 4 5 6 
#
# 1 0.024362 -0.002622 -0.013909 -0.015460 -0.000573 -0.000588
# 2 -0.002622 0.010536 -0.002668 0.003090 0.001489 0.000105
# 3 -0.013909 -0.002668 0.021309 0.013538 -0.002947 -0.002008
# 4 -0.015460 0.003090 0.013538 0.054577 -0.010537 -0.002378
# 5 -0.000573 0.001489 -0.002947 -0.010537 0.027563 -0.002316
# 6 -0.000588 0.000105 -0.002008 -0.002378 -0.002316 0.037985
#
#
# Mechanical properties :
#
#
# Convention : Reuss Voigt Hill
#
# Bulk Modulus (GPa) = 56.15509 58.03840 57.09674
# Shear Modulus (GPa) = 22.65875 30.24858 26.45366
#
# Velocity S-wave (km/s) = 3.26265 3.76969 3.52530
# Velocity P-wave (km/s) = 6.36980 6.79804 6.58740
#
# Compressibility (1/GPa) = 0.01780783
#
# Stress axis : x y z
#
# Youngs Moduli (GPa) = 41.04824 94.91714 46.92905
#
# Poissons Ratio (x) = 0.24885 0.65276
# Poissons Ratio (y) = 0.10762 0.12520
# Poissons Ratio (z) = 0.57096 0.25322
#
# Static dielectric constant tensor:
#      x y z
#    x 4.322790 0.381080 0.330740 
#    y 0.381080 3.820660 0.163540 
#    z 0.330740 0.163540 3.909370 
# 
# 
# High freq. dielectric constant tensor:
#      x y z
#    x 1.844020 0.026920 0.020450 
#    y 0.026920 1.827580 0.009530 
#    z 0.020450 0.009530 1.829960 
# 
# From -- ./inp_files/3393.got.cif
#   From: 2010.06.25/outbox.cif.g09.slc.cpg/sg2_2_cif.got.tgz:3393.got - 2010.06.27 13:26:56.
