data_PCOD8004282
_publ_section_title
;
Structure prediction by ZEFSAII (Michael W. Deem and Ramdas Pophale) SiO2 
 PCOD8004282
Probable space group: P -1
;
_chemical_formula_sum "Si O2"
_cell_formula_units_Z 16
_cell_length_a 12.446111
_cell_length_b 15.132195
_cell_length_c 15.780351
_cell_angle_alpha 151.613650
_cell_angle_beta 142.805089
_cell_angle_gamma 55.533220
_cell_volume 754.263515
_symmetry_space_group_name_H-M "P -1"
_symmetry_group_IT_number 2
_symmetry_cell_setting 'triclinic'
loop_
_space_group_symop_operation_xyz
x,y,z
-x,-y,-z
loop_
_atom_site_type_symbol
_atom_site_label
_atom_site_fract_x
_atom_site_fract_y
_atom_site_fract_z
Si Si1 0.406608 0.787991 0.459157
Si Si2 0.842550 0.025117 0.862293
Si Si3 0.152362 0.006855 0.488161
Si Si4 0.552900 0.293337 0.217670
Si Si5 0.010759 0.494254 0.401210
Si Si6 0.224437 0.328004 0.940300
Si Si7 0.474686 0.131339 0.209374
Si Si8 0.003943 0.905821 0.706001
O O1 0.325007 0.950563 0.518570
O O2 0.418534 0.767030 0.550310
O O3 0.621328 0.862602 0.614996
O O4 0.252674 0.559293 0.132080
O O5 0.868814 0.963153 0.731605
O O6 0.866527 0.260028 0.079561
O O7 0.000000 0.000000 0.000000
O O8 0.001020 0.815867 0.290742
O O9 0.260982 0.224571 0.791815
O O10 0.026935 0.034525 0.356903
O O11 0.766042 0.447175 0.440299
O O12 0.565686 0.304983 0.338205
O O13 0.391974 0.365197 0.147581
O O14 0.470902 0.054062 0.934251
O O15 0.000000 0.500000 0.500000
O O16 0.939054 0.657301 0.457122
O O17 0.235699 0.039679 0.991040
#
# Coordination Sequence:
#
# PCOD8004282 Si02
#       8
#     2   2   2   2   2   2   2   2
#     4  12  25  42  70  96 133 173 219 268 324 390
#     4  12  23  41  67  98 129 169 221 269 323 384
#     4  11  26  46  63  96 137 171 216 267 326 389
#     4  10  20  37  67 101 127 166 217 265 329 383
#     4  11  23  39  68  98 131 169 214 268 326 383
#     4  11  24  42  71  93 132 178 213 262 333 393
#     4  10  20  39  67 101 129 160 216 280 323 376
#     4  11  24  43  66  96 134 171 215 275 323 380
#
# _framework density 21.212744000000001
#
# number of rings (size 3 to 8) (size 9 to 14) (size 15 to 20)
#    0.000    1.000    5.000    1.875    0.000    3.000 
#    0.000    1.250    0.000    0.000    0.000    0.000 
#    0.000    0.000    0.000    0.000    0.000    0.000 
#
# Total GULP energy -198486.662071 kJ/mol
# GULP energy per Si atom -12405.416379 kJ/mol
# Density = 2.116446 g / cm^3
# Si number density = 21.212744 Si / 1000 Ang^3
#
#
#
# Elastic Constant Matrix: (Units=GPa)
#
#
# Indices 1 2 3 4 5 6 
#
# 1 97.5213 20.4888 26.7113 15.9541 2.9006 -5.8001
# 2 20.4888 81.9914 29.7277 5.1989 -11.7648 -9.3933
# 3 26.7113 29.7277 96.4295 23.3802 -12.0893 -2.8632
# 4 15.9541 5.1989 23.3802 29.3006 -7.5614 0.3325
# 5 2.9006 -11.7648 -12.0893 -7.5614 28.1813 6.7083
# 6 -5.8001 -9.3933 -2.8632 0.3325 6.7083 30.1313
#
#
#
# Elastic Compliance Matrix: (Units=1/GPa)
#
#
# Indices 1 2 3 4 5 6 
#
# 1 0.012672 -0.002600 -0.001743 -0.006510 -0.005543 0.002769
# 2 -0.002600 0.015131 -0.004005 0.003211 0.005093 0.002667
# 3 -0.001743 -0.004005 0.014652 -0.009400 0.002420 -0.000627
# 4 -0.006510 0.003211 -0.009400 0.047698 0.011799 -0.004299
# 5 -0.005543 0.005093 0.002420 0.011799 0.044601 -0.009310
# 6 0.002769 0.002667 -0.000627 -0.004299 -0.009310 0.036613
#
#
# Mechanical properties :
#
#
# Convention : Reuss Voigt Hill
#
# Bulk Modulus (GPa) = 38.82264 47.75531 43.28898
# Shear Modulus (GPa) = 25.42580 30.79028 28.10804
#
# Velocity S-wave (km/s) = 3.46585 3.81399 3.64408
# Velocity P-wave (km/s) = 5.86152 6.47740 6.17714
#
# Compressibility (1/GPa) = 0.02575816
#
# Stress axis : x y z
#
# Youngs Moduli (GPa) = 78.91139 66.08945 68.25134
#
# Poissons Ratio (x) = 0.17184 0.11897
# Poissons Ratio (y) = 0.20518 0.27337
# Poissons Ratio (z) = 0.13755 0.26471
#
# Static dielectric constant tensor:
#      x y z
#    x 4.018950 -0.060150 -0.137600 
#    y -0.060150 3.815490 0.232580 
#    z -0.137600 0.232580 3.770720 
# 
# 
# High freq. dielectric constant tensor:
#      x y z
#    x 1.843040 -0.007540 -0.002970 
#    y -0.007540 1.827890 0.012530 
#    z -0.002970 0.012530 1.820450 
# 
# From -- ./inp_files/455436.got.cif
#   From: 2010.06.25/outbox.cif.g09.slc.cpg/sg2_228_cif.got.tgz:455436.got - 2010.06.27 13:26:56.
