data_PCOD8004556
_publ_section_title
;
Structure prediction by ZEFSAII (Michael W. Deem and Ramdas Pophale) SiO2 
 PCOD8004556
Probable space group: P -1
;
_chemical_formula_sum "Si O2"
_cell_formula_units_Z 16
_cell_length_a 14.972360
_cell_length_b 11.450334
_cell_length_c 14.594902
_cell_angle_alpha 148.635220
_cell_angle_beta 135.693389
_cell_angle_gamma 36.166881
_cell_volume 765.731613
_symmetry_space_group_name_H-M "P -1"
_symmetry_group_IT_number 2
_symmetry_cell_setting 'triclinic'
loop_
_space_group_symop_operation_xyz
x,y,z
-x,-y,-z
loop_
_atom_site_type_symbol
_atom_site_label
_atom_site_fract_x
_atom_site_fract_y
_atom_site_fract_z
Si Si1 0.314759 0.233510 0.776754
Si Si2 0.912342 0.481671 0.509994
Si Si3 0.311887 0.520207 0.788061
Si Si4 0.036300 0.255807 0.630405
Si Si5 0.844521 0.016538 0.889119
Si Si6 0.607814 0.399898 0.840930
Si Si7 0.246559 0.658399 0.444455
Si Si8 0.548290 0.372316 0.570482
O O1 0.291361 0.347087 0.732820
O O2 0.145440 0.371208 0.789804
O O3 0.404791 0.915059 0.626795
O O4 0.409904 0.316411 0.964699
O O5 0.774694 0.464966 0.358633
O O6 0.008079 0.233723 0.484909
O O7 0.000000 0.500000 0.500000
O O8 0.858368 0.735251 0.707168
O O9 0.487473 0.376496 0.796879
O O10 0.255294 0.813344 0.982591
O O11 0.871476 0.434514 0.680966
O O12 0.135159 0.973488 0.563679
O O13 0.771386 0.165081 0.838840
O O14 0.000000 0.000000 0.000000
O O15 0.590755 0.354421 0.693759
O O16 0.367352 0.578677 0.562875
O O17 0.352448 0.532028 0.347040
#
# Coordination Sequence:
#
# PCOD8004556 Si02
#       8
#     2   2   2   2   2   2   2   2
#     4  10  20  38  60  85 124 158 192 250 304 357
#     4  12  21  36  64  93 120 158 202 238 303 369
#     4  11  23  38  56  93 130 160 195 245 301 367
#     4  10  20  38  61  87 122 155 201 253 300 354
#     4  11  22  37  58  88 128 160 194 239 304 367
#     4  11  24  38  60  91 125 160 203 248 299 362
#     4   9  21  39  62  87 115 160 204 254 302 343
#     4  10  21  41  64  85 113 158 210 249 302 349
#
# _framework density 20.895047999999999
#
# number of rings (size 3 to 8) (size 9 to 14) (size 15 to 20)
#    0.000    1.500    2.500    3.750    1.750    5.000 
#    0.000    6.250    0.000    3.000    0.000    0.000 
#    0.000    0.000    0.000    0.000    0.000    0.000 
#
# Total GULP energy -198236.181572 kJ/mol
# GULP energy per Si atom -12389.761348 kJ/mol
# Density = 2.084749 g / cm^3
# Si number density = 20.895048 Si / 1000 Ang^3
#
#
#
# Elastic Constant Matrix: (Units=GPa)
#
#
# Indices 1 2 3 4 5 6 
#
# 1 116.6447 34.9168 28.6065 -9.4749 24.9154 -18.5711
# 2 34.9168 113.2128 40.1660 -17.0274 4.0991 -11.4881
# 3 28.6065 40.1660 95.8379 -4.7387 1.1077 -2.3040
# 4 -9.4749 -17.0274 -4.7387 18.3447 -7.5712 12.7898
# 5 24.9154 4.0991 1.1077 -7.5712 27.8827 -3.9553
# 6 -18.5711 -11.4881 -2.3040 12.7898 -3.9553 22.2669
#
#
#
# Elastic Compliance Matrix: (Units=1/GPa)
#
#
# Indices 1 2 3 4 5 6 
#
# 1 0.014568 -0.003244 -0.003079 -0.012182 -0.013637 0.014733
# 2 -0.003244 0.012683 -0.003823 0.013264 0.004304 -0.003412
# 3 -0.003079 -0.003823 0.012932 0.002079 0.002812 -0.003897
# 4 -0.012182 0.013264 0.002079 0.120990 0.032220 -0.066873
# 5 -0.013637 0.004304 0.002812 0.032220 0.053521 -0.017861
# 6 0.014733 -0.003412 -0.003897 -0.066873 -0.017861 0.090271
#
#
# Mechanical properties :
#
#
# Convention : Reuss Voigt Hill
#
# Bulk Modulus (GPa) = 50.27562 59.23045 54.75304
# Shear Modulus (GPa) = 15.06533 28.49926 21.78230
#
# Velocity S-wave (km/s) = 2.68806 3.69714 3.23222
# Velocity P-wave (km/s) = 5.80926 6.82886 6.33959
#
# Compressibility (1/GPa) = 0.01989036
#
# Stress axis : x y z
#
# Youngs Moduli (GPa) = 68.64281 78.84796 77.32583
#
# Poissons Ratio (x) = 0.25578 0.23812
# Poissons Ratio (y) = 0.22268 0.29561
# Poissons Ratio (z) = 0.21138 0.30143
#
# Static dielectric constant tensor:
#      x y z
#    x 4.154300 -0.104040 0.137170 
#    y -0.104040 4.029930 -0.167280 
#    z 0.137170 -0.167280 3.859560 
# 
# 
# High freq. dielectric constant tensor:
#      x y z
#    x 1.824080 -0.004540 0.017290 
#    y -0.004540 1.831980 -0.020440 
#    z 0.017290 -0.020440 1.787970 
# 
# From -- ./inp_files/522125.got.cif
#   From: 2010.06.25/outbox.cif.g09.slc.cpg/sg2_262_cif.got.tgz:522125.got - 2010.06.27 13:26:56.
