data_PCOD8004800
_publ_section_title
;
Structure prediction by ZEFSAII (Michael W. Deem and Ramdas Pophale) SiO2 
 PCOD8004800
Probable space group: P -1
;
_chemical_formula_sum "Si O2"
_cell_formula_units_Z 16
_cell_length_a 16.520361
_cell_length_b 8.506107
_cell_length_c 6.555828
_cell_angle_alpha 58.070815
_cell_angle_beta 62.640653
_cell_angle_gamma 69.327471
_cell_volume 686.978992
_symmetry_space_group_name_H-M "P -1"
_symmetry_group_IT_number 2
_symmetry_cell_setting 'triclinic'
loop_
_space_group_symop_operation_xyz
x,y,z
-x,-y,-z
loop_
_atom_site_type_symbol
_atom_site_label
_atom_site_fract_x
_atom_site_fract_y
_atom_site_fract_z
Si Si1 0.107621 0.428860 0.093050
Si Si2 0.256923 0.884314 0.405065
Si Si3 0.637601 0.228105 0.026088
Si Si4 0.707284 0.458757 0.122568
Si Si5 0.063834 0.091566 0.590731
Si Si6 0.962143 0.778823 0.022706
Si Si7 0.485611 0.295225 0.876132
Si Si8 0.581793 0.043133 0.603221
O O1 0.043470 0.297252 0.374111
O O2 0.060182 0.642852 0.029861
O O3 0.212447 0.409022 0.071017
O O4 0.107670 0.346240 0.918251
O O5 0.296413 0.898636 0.121081
O O6 0.268163 0.669088 0.618769
O O7 0.313174 0.002059 0.409638
O O8 0.153088 0.979867 0.458087
O O9 0.563053 0.371482 0.879050
O O10 0.705705 0.338389 0.001115
O O11 0.584811 0.092707 0.325464
O O12 0.603993 0.567448 0.180548
O O13 0.080844 0.132613 0.780375
O O14 0.983136 0.961432 0.742681
O O15 0.531676 0.225751 0.656547
O O16 0.466496 0.131533 0.163554
#
# Coordination Sequence:
#
# PCOD8004800 Si02
#       8
#     2   2   2   2   2   2   2   2
#     4  11  23  43  66 100 129 166 214 265 327 387
#     4  10  22  40  59  92 129 167 216 265 318 383
#     4  10  22  38  61  89 127 175 211 264 322 380
#     4  11  23  39  60  92 131 164 217 267 315 385
#     4  11  22  44  70  95 129 170 213 266 326 385
#     4  10  24  44  69  96 129 166 212 269 328 388
#     4  10  20  38  62  89 124 168 216 268 319 377
#     4   9  20  38  61  88 125 165 218 269 316 382
#
# _framework density 23.290378
#
# number of rings (size 3 to 8) (size 9 to 14) (size 15 to 20)
#    0.000    1.750    1.250    2.250    0.000    8.500 
#    2.250    2.500    0.000    0.000    0.000    0.000 
#    0.000    0.000    0.000    0.000    0.000    0.000 
#
# Total GULP energy -198236.780548 kJ/mol
# GULP energy per Si atom -12389.798784 kJ/mol
# Density = 2.323737 g / cm^3
# Si number density = 23.290378 Si / 1000 Ang^3
#
#
#
# Elastic Constant Matrix: (Units=GPa)
#
#
# Indices 1 2 3 4 5 6 
#
# 1 94.8743 20.1392 16.5537 1.3797 -3.1822 -1.7010
# 2 20.1392 69.2947 39.2092 5.6382 2.7140 -5.9972
# 3 16.5537 39.2092 109.6110 7.1796 3.5980 -0.5041
# 4 1.3797 5.6382 7.1796 29.0180 -3.2852 -4.7186
# 5 -3.1822 2.7140 3.5980 -3.2852 23.0794 -0.3010
# 6 -1.7010 -5.9972 -0.5041 -4.7186 -0.3010 25.0886
#
#
#
# Elastic Compliance Matrix: (Units=1/GPa)
#
#
# Indices 1 2 3 4 5 6 
#
# 1 0.011372 -0.002990 -0.000748 0.000490 0.002108 0.000159
# 2 -0.002990 0.019422 -0.006308 -0.001638 -0.001894 0.003982
# 3 -0.000748 -0.006308 0.011670 -0.002078 -0.001499 -0.001733
# 4 0.000490 -0.001638 -0.002078 0.037022 0.005940 0.006634
# 5 0.002108 -0.001894 -0.001499 0.005940 0.044938 0.001316
# 6 0.000159 0.003982 -0.001733 0.006634 0.001316 0.042050
#
#
# Mechanical properties :
#
#
# Convention : Reuss Voigt Hill
#
# Bulk Modulus (GPa) = 44.70219 47.28713 45.99466
# Shear Modulus (GPa) = 25.77004 28.62905 27.19955
#
# Velocity S-wave (km/s) = 3.32997 3.50983 3.42108
# Velocity P-wave (km/s) = 5.83267 6.06404 5.94948
#
# Compressibility (1/GPa) = 0.02237027
#
# Stress axis : x y z
#
# Youngs Moduli (GPa) = 87.93508 51.48925 85.69033
#
# Poissons Ratio (x) = 0.15397 0.06412
# Poissons Ratio (y) = 0.26296 0.54053
# Poissons Ratio (z) = 0.06580 0.32479
#
# Static dielectric constant tensor:
#      x y z
#    x 4.152050 0.169930 -0.023900 
#    y 0.169930 4.030140 -0.053310 
#    z -0.023900 -0.053310 4.279730 
# 
# 
# High freq. dielectric constant tensor:
#      x y z
#    x 1.925450 0.010390 0.003800 
#    y 0.010390 1.903460 0.000490 
#    z 0.003800 0.000490 1.926590 
# 
# From -- ./inp_files/106199.got.cif
#   From: 2010.06.25/outbox.cif.g09.slc.cpg/sg2_54_cif.got.tgz:106199.got - 2010.06.27 13:26:56.
