data_PCOD8004308
_publ_section_title
;
Structure prediction by ZEFSAII (Michael W. Deem and Ramdas Pophale) SiO2 
 PCOD8004308
Probable space group: P -1
;
_chemical_formula_sum "Si O2"
_cell_formula_units_Z 16
_cell_length_a 14.056278
_cell_length_b 11.381513
_cell_length_c 9.538509
_cell_angle_alpha 96.383317
_cell_angle_beta 96.535026
_cell_angle_gamma 149.137031
_cell_volume 709.408654
_symmetry_space_group_name_H-M "P -1"
_symmetry_group_IT_number 2
_symmetry_cell_setting 'triclinic'
loop_
_space_group_symop_operation_xyz
x,y,z
-x,-y,-z
loop_
_atom_site_type_symbol
_atom_site_label
_atom_site_fract_x
_atom_site_fract_y
_atom_site_fract_z
Si Si1 0.394248 0.542695 0.855756
Si Si2 0.449544 0.001124 0.701189
Si Si3 0.388017 0.358827 0.317253
Si Si4 0.002423 0.013311 0.333768
Si Si5 0.543992 0.736063 0.205052
Si Si6 0.989055 0.721126 0.619775
Si Si7 0.178124 0.537724 0.735117
Si Si8 0.818715 0.306719 0.650834
O O1 0.534214 0.673293 0.757887
O O2 0.271601 0.532725 0.838840
O O3 0.535034 0.687726 0.034786
O O4 0.227363 0.255896 0.794164
O O5 0.345951 0.824947 0.793507
O O6 0.267579 0.820949 0.533647
O O7 0.552005 0.237439 0.789295
O O8 0.627772 0.108000 0.695093
O O9 0.500000 0.500000 0.500000
O O10 0.151663 0.084626 0.286858
O O11 0.419555 0.507442 0.244971
O O12 0.086813 0.234120 0.331383
O O13 0.000000 0.000000 0.500000
O O14 0.773300 0.000593 0.331979
O O15 0.865322 0.561752 0.437652
O O16 0.943035 0.566097 0.700776
O O17 0.969939 0.368151 0.739680
#
# Coordination Sequence:
#
# PCOD8004308 Si02
#       8
#     2   2   2   2   2   2   2   2
#     4  12  28  43  65 104 140 179 216 278 344 402
#     4  10  21  39  66  98 132 172 226 281 323 389
#     4  12  25  45  73  99 129 179 232 273 334 399
#     4  12  23  44  70  98 131 174 225 281 328 401
#     4  12  24  45  68 100 145 172 215 284 349 390
#     4  11  19  40  69  91 129 175 222 274 331 391
#     4  11  21  41  64  95 129 178 230 266 325 392
#     4  10  20  37  68 100 122 176 235 276 317 388
#
# _framework density 22.553998
#
# number of rings (size 3 to 8) (size 9 to 14) (size 15 to 20)
#    0.000    0.750    6.250    1.875    0.000    4.000 
#    2.250    0.625    0.000    0.000    0.000    0.000 
#    0.000    0.000    0.000    0.000    0.000    0.000 
#
# Total GULP energy -198335.119503 kJ/mol
# GULP energy per Si atom -12395.944969 kJ/mol
# Density = 2.250266 g / cm^3
# Si number density = 22.553998 Si / 1000 Ang^3
#
#
#
# Elastic Constant Matrix: (Units=GPa)
#
#
# Indices 1 2 3 4 5 6 
#
# 1 125.1895 31.6813 24.1856 -7.6411 -4.7798 -0.4215
# 2 31.6813 76.6308 16.2204 -1.9085 -1.0266 13.3573
# 3 24.1856 16.2204 79.5428 -10.3018 -4.3247 -2.8630
# 4 -7.6411 -1.9085 -10.3018 20.4427 -0.2095 -7.9248
# 5 -4.7798 -1.0266 -4.3247 -0.2095 21.4924 0.2127
# 6 -0.4215 13.3573 -2.8630 -7.9248 0.2127 41.0009
#
#
#
# Elastic Compliance Matrix: (Units=1/GPa)
#
#
# Indices 1 2 3 4 5 6 
#
# 1 0.009516 -0.003826 -0.001551 0.003147 0.001634 0.001836
# 2 -0.003826 0.016234 -0.002901 -0.003811 -0.000634 -0.006264
# 3 -0.001551 -0.002901 0.014947 0.008072 0.002568 0.003520
# 4 0.003147 -0.003811 0.008072 0.058957 0.002586 0.013219
# 5 0.001634 -0.000634 0.002568 0.002586 0.047397 0.000657
# 6 0.001836 -0.006264 0.003520 0.013219 0.000657 0.029247
#
#
# Mechanical properties :
#
#
# Convention : Reuss Voigt Hill
#
# Bulk Modulus (GPa) = 41.42139 47.28195 44.35167
# Shear Modulus (GPa) = 24.88817 30.53892 27.71355
#
# Velocity S-wave (km/s) = 3.32549 3.68371 3.50918
# Velocity P-wave (km/s) = 5.75765 6.25319 6.01053
#
# Compressibility (1/GPa) = 0.02414211
#
# Stress axis : x y z
#
# Youngs Moduli (GPa) = 105.08277 61.60049 66.90438
#
# Poissons Ratio (x) = 0.23567 0.10376
# Poissons Ratio (y) = 0.40202 0.19406
# Poissons Ratio (z) = 0.16298 0.17868
#
# Static dielectric constant tensor:
#      x y z
#    x 4.590850 -0.113290 -0.231230 
#    y -0.113290 4.254740 0.090120 
#    z -0.231230 0.090120 3.745830 
# 
# 
# High freq. dielectric constant tensor:
#      x y z
#    x 1.910080 0.001620 -0.006130 
#    y 0.001620 1.885030 0.013540 
#    z -0.006130 0.013540 1.848350 
# 
# From -- ./inp_files/307760.got.cif
#   From: 2010.06.25/outbox.cif.g09.slc.cpg/sg2_154_cif.got.tgz:307760.got - 2010.06.27 13:26:56.
