data_PCOD8004878
_publ_section_title
;
Structure prediction by ZEFSAII (Michael W. Deem and Ramdas Pophale) SiO2 
 PCOD8004878
Probable space group: P -1
;
_chemical_formula_sum "Si O2"
_cell_formula_units_Z 16
_cell_length_a 20.346527
_cell_length_b 12.179033
_cell_length_c 10.079694
_cell_angle_alpha 139.062047
_cell_angle_beta 151.815723
_cell_angle_gamma 46.050576
_cell_volume 769.787823
_symmetry_space_group_name_H-M "P -1"
_symmetry_group_IT_number 2
_symmetry_cell_setting 'triclinic'
loop_
_space_group_symop_operation_xyz
x,y,z
-x,-y,-z
loop_
_atom_site_type_symbol
_atom_site_label
_atom_site_fract_x
_atom_site_fract_y
_atom_site_fract_z
Si Si1 0.378904 0.875123 0.052193
Si Si2 0.932856 0.516246 0.251470
Si Si3 0.618800 0.063278 0.179730
Si Si4 0.688042 0.817225 0.632535
Si Si5 0.371255 0.559430 0.417269
Si Si6 0.082638 0.177444 0.160396
Si Si7 0.371231 0.515214 0.682456
Si Si8 0.091202 0.120811 0.436924
O O1 0.520361 0.835187 0.350258
O O2 0.274324 0.026834 0.065257
O O3 0.436858 0.921120 0.054073
O O4 0.296313 0.705154 0.744131
O O5 0.963408 0.703505 0.426161
O O6 0.000000 0.500000 0.500000
O O7 0.001898 0.359564 0.144353
O O8 0.765377 0.516682 0.953170
O O9 0.661437 0.240274 0.471593
O O10 0.750607 0.927610 0.285862
O O11 0.500000 0.000000 0.000000
O O12 0.763740 0.830683 0.638383
O O13 0.730865 0.631322 0.601640
O O14 0.500000 0.500000 0.500000
O O15 0.412782 0.499728 0.586551
O O16 0.092293 0.151506 0.309661
O O17 0.002560 0.025951 0.818624
O O18 0.500000 0.500000 0.000000
#
# Coordination Sequence:
#
# PCOD8004878 Si02
#       8
#     2   2   2   2   2   2   2   2
#     4   9  21  38  57  92 119 153 202 255 303 376
#     4  10  22  40  61  91 131 163 205 262 313 376
#     4  11  21  36  63  92 126 154 196 265 322 362
#     4  10  20  38  63  82 120 162 204 248 309 371
#     4  11  23  40  66  99 125 162 216 262 317 379
#     4  10  21  40  59  88 118 165 207 250 308 375
#     4   9  21  40  60  88 129 160 200 262 311 373
#     4  10  21  38  61  87 125 155 202 258 308 369
#
# _framework density 20.784949000000001
#
# number of rings (size 3 to 8) (size 9 to 14) (size 15 to 20)
#    0.000    2.000    1.250    1.500    3.500    6.000 
#    2.250    1.250    0.000    0.000    0.000    0.000 
#    0.000    0.000    0.000    0.000    0.000    0.000 
#
# Total GULP energy -198230.834637 kJ/mol
# GULP energy per Si atom -12389.427165 kJ/mol
# Density = 2.073764 g / cm^3
# Si number density = 20.784949 Si / 1000 Ang^3
#
#
#
# Elastic Constant Matrix: (Units=GPa)
#
#
# Indices 1 2 3 4 5 6 
#
# 1 84.7324 44.9182 24.9873 14.7465 1.2565 2.1872
# 2 44.9182 167.1279 41.1231 42.2121 3.4907 -2.4493
# 3 24.9873 41.1231 81.6201 8.6501 -5.1720 1.4234
# 4 14.7465 42.2121 8.6501 40.0836 3.4844 -2.4800
# 5 1.2565 3.4907 -5.1720 3.4844 25.6124 -0.1555
# 6 2.1872 -2.4493 1.4234 -2.4800 -0.1555 28.2497
#
#
#
# Elastic Compliance Matrix: (Units=1/GPa)
#
#
# Indices 1 2 3 4 5 6 
#
# 1 0.014460 -0.002711 -0.002881 -0.001869 -0.000676 -0.001377
# 2 -0.002711 0.009631 -0.003187 -0.008369 -0.000682 0.000467
# 3 -0.002881 -0.003187 0.014880 0.000861 0.003459 -0.000708
# 4 -0.001869 -0.008369 0.000861 0.034699 -0.003300 0.002404
# 5 -0.000676 -0.000682 0.003459 -0.003300 0.040316 -0.000249
# 6 -0.001377 0.000467 -0.000708 0.002404 -0.000249 0.035791
#
#
# Mechanical properties :
#
#
# Convention : Reuss Voigt Hill
#
# Bulk Modulus (GPa) = 46.70311 61.72641 54.21476
# Shear Modulus (GPa) = 28.65768 33.61925 31.13847
#
# Velocity S-wave (km/s) = 3.71721 4.02615 3.87476
# Velocity P-wave (km/s) = 6.39859 7.16766 6.79402
#
# Compressibility (1/GPa) = 0.02141185
#
# Stress axis : x y z
#
# Youngs Moduli (GPa) = 69.15759 103.82856 67.20418
#
# Poissons Ratio (x) = 0.28151 0.19364
# Poissons Ratio (y) = 0.18751 0.21417
# Poissons Ratio (z) = 0.19927 0.33089
#
# Static dielectric constant tensor:
#      x y z
#    x 3.395730 0.064270 -0.114700 
#    y 0.064270 4.628890 0.362290 
#    z -0.114700 0.362290 3.553460 
# 
# 
# High freq. dielectric constant tensor:
#      x y z
#    x 1.780660 0.005240 -0.011680 
#    y 0.005240 1.842580 0.022700 
#    z -0.011680 0.022700 1.800970 
# 
# From -- ./inp_files/333859.got.cif
#   From: 2010.06.25/outbox.cif.g09.slc.cpg/sg2_167_cif.got.tgz:333859.got - 2010.06.27 13:26:56.
