data_PCOD8004710
_publ_section_title
;
Structure prediction by ZEFSAII (Michael W. Deem and Ramdas Pophale) SiO2 
 PCOD8004710
Probable space group: P -1
;
_chemical_formula_sum "Si O2"
_cell_formula_units_Z 16
_cell_length_a 6.741718
_cell_length_b 13.612781
_cell_length_c 10.562788
_cell_angle_alpha 64.861050
_cell_angle_beta 118.525503
_cell_angle_gamma 95.734837
_cell_volume 764.546838
_symmetry_space_group_name_H-M "P -1"
_symmetry_group_IT_number 2
_symmetry_cell_setting 'triclinic'
loop_
_space_group_symop_operation_xyz
x,y,z
-x,-y,-z
loop_
_atom_site_type_symbol
_atom_site_label
_atom_site_fract_x
_atom_site_fract_y
_atom_site_fract_z
Si Si1 0.314048 0.531249 0.316210
Si Si2 0.335108 0.851860 0.601234
Si Si3 0.261910 0.013919 0.277157
Si Si4 0.469328 0.062496 0.826287
Si Si5 0.177572 0.893313 0.788173
Si Si6 0.459291 0.391914 0.200591
Si Si7 0.210161 0.435953 0.846940
Si Si8 0.503353 0.270894 0.856344
O O1 0.500000 0.500000 0.500000
O O2 0.339834 0.441996 0.262544
O O3 0.335391 0.651040 0.202847
O O4 0.055567 0.533581 0.282626
O O5 0.230349 0.909387 0.411700
O O6 0.145224 0.853268 0.655417
O O7 0.438932 0.730081 0.666411
O O8 0.528905 0.922164 0.665530
O O9 0.299986 0.967262 0.171453
O O10 0.038242 0.100420 0.187542
O O11 0.417832 0.192827 0.763939
O O12 0.254090 0.014662 0.725863
O O13 0.500000 0.000000 0.000000
O O14 0.365593 0.803382 0.955139
O O15 0.667598 0.456230 0.190469
O O16 0.269863 0.392590 0.031294
O O17 0.293403 0.343355 0.819872
#
# Coordination Sequence:
#
# PCOD8004710 Si02
#       8
#     2   2   2   2   2   2   2   2
#     4  11  26  42  63  97 129 162 213 268 325 388
#     4  10  21  39  60  91 128 159 209 268 318 379
#     4  10  22  36  61  92 127 162 209 262 317 376
#     4   9  21  38  56  87 125 160 209 256 302 387
#     4  10  20  38  61  91 122 164 214 257 317 376
#     4  10  22  41  68  94 122 168 216 261 321 382
#     4  10  22  44  66  91 125 164 219 268 313 381
#     4  10  22  38  62  87 122 166 213 257 319 381
#
# _framework density 20.927429
#
# number of rings (size 3 to 8) (size 9 to 14) (size 15 to 20)
#    0.000    2.000    1.250    0.750    3.500    6.000 
#    2.250    0.000    0.000    0.000    0.000    0.000 
#    0.000    0.000    0.000    0.000    0.000    0.000 
#
# Total GULP energy -198281.389046 kJ/mol
# GULP energy per Si atom -12392.586815 kJ/mol
# Density = 2.087980 g / cm^3
# Si number density = 20.927429 Si / 1000 Ang^3
#
#
#
# Elastic Constant Matrix: (Units=GPa)
#
#
# Indices 1 2 3 4 5 6 
#
# 1 124.8728 30.5415 43.8040 5.4010 3.5529 -24.9643
# 2 30.5415 95.3211 30.5515 -19.6536 -9.0100 -12.3263
# 3 43.8040 30.5515 72.6483 -7.5912 2.5328 -2.1304
# 4 5.4010 -19.6536 -7.5912 26.7037 0.4150 -3.0799
# 5 3.5529 -9.0100 2.5328 0.4150 34.4802 3.7235
# 6 -24.9643 -12.3263 -2.1304 -3.0799 3.7235 24.1995
#
#
#
# Elastic Compliance Matrix: (Units=1/GPa)
#
#
# Indices 1 2 3 4 5 6 
#
# 1 0.013924 -0.001527 -0.007776 -0.004645 -0.002579 0.012707
# 2 -0.001527 0.016126 -0.004567 0.011643 0.003796 0.007134
# 3 -0.007776 -0.004567 0.020506 0.003137 -0.001075 -0.007979
# 4 -0.004645 0.011643 0.003137 0.048662 0.001915 0.007313
# 5 -0.002579 0.003796 -0.001075 0.001915 0.030892 -0.005331
# 6 0.012707 0.007134 -0.007979 0.007313 -0.005331 0.059114
#
#
# Mechanical properties :
#
#
# Convention : Reuss Voigt Hill
#
# Bulk Modulus (GPa) = 43.83233 55.84848 49.84040
# Shear Modulus (GPa) = 22.26473 29.60636 25.93554
#
# Velocity S-wave (km/s) = 3.26529 3.76535 3.52420
# Velocity P-wave (km/s) = 5.93351 6.75637 6.35826
#
# Compressibility (1/GPa) = 0.02281421
#
# Stress axis : x y z
#
# Youngs Moduli (GPa) = 71.81705 62.01167 48.76681
#
# Poissons Ratio (x) = 0.09471 0.37923
# Poissons Ratio (y) = 0.10969 0.22273
# Poissons Ratio (z) = 0.55847 0.28322
#
# Static dielectric constant tensor:
#      x y z
#    x 3.895350 -0.092560 -0.239030 
#    y -0.092560 4.904880 0.147060 
#    z -0.239030 0.147060 3.657040 
# 
# 
# High freq. dielectric constant tensor:
#      x y z
#    x 1.822430 -0.014450 -0.014740 
#    y -0.014450 1.829580 -0.007160 
#    z -0.014740 -0.007160 1.801000 
# 
# From -- ./inp_files/367639.got.cif
#   From: 2010.06.25/outbox.cif.g09.slc.cpg/sg2_184_cif.got.tgz:367639.got - 2010.06.27 13:26:56.
