data_PCOD8004188
_publ_section_title
;
Structure prediction by ZEFSAII (Michael W. Deem and Ramdas Pophale) SiO2 
 PCOD8004188
Probable space group: P -1
;
_chemical_formula_sum "Si O2"
_cell_formula_units_Z 16
_cell_length_a 21.083005
_cell_length_b 17.103187
_cell_length_c 11.015811
_cell_angle_alpha 30.465533
_cell_angle_beta 28.841489
_cell_angle_gamma 26.046046
_cell_volume 786.940225
_symmetry_space_group_name_H-M "P -1"
_symmetry_group_IT_number 2
_symmetry_cell_setting 'triclinic'
loop_
_space_group_symop_operation_xyz
x,y,z
-x,-y,-z
loop_
_atom_site_type_symbol
_atom_site_label
_atom_site_fract_x
_atom_site_fract_y
_atom_site_fract_z
Si Si1 0.840862 0.318270 0.840868
Si Si2 0.192037 0.370758 0.934916
Si Si3 0.467611 0.380641 0.888264
Si Si4 0.657152 0.000001 0.717528
Si Si5 0.183937 0.000003 0.790113
Si Si6 0.151758 0.380638 0.731086
Si Si7 0.655979 0.999999 0.226932
Si Si8 0.562803 0.629240 0.305662
O O1 0.867184 0.455650 0.537486
O O2 0.997304 0.186501 0.841827
O O3 0.677158 0.455642 0.006883
O O4 0.816197 0.186496 0.971672
O O5 0.258987 0.346129 0.717249
O O6 0.307538 0.384905 0.807572
O O7 0.014307 0.559362 0.006434
O O8 0.194029 0.187604 0.213941
O O9 0.573681 0.440636 0.565785
O O10 0.394888 0.346132 0.936618
O O11 0.596185 0.191156 0.999949
O O12 0.618360 0.187610 0.598458
O O13 0.703691 0.000001 0.500573
O O14 0.500000 0.000000 0.000000
O O15 0.262048 0.000007 0.785823
O O16 0.212663 0.191154 0.808896
O O17 0.500000 0.000000 0.500000
#
# Coordination Sequence:
#
# PCOD8004188 Si02
#       8
#     2   2   2   2   2   2   2   2
#     4  11  24  45  70  92 138 171 222 263 328 402
#     4  10  23  40  67  91 130 170 219 264 324 384
#     4  11  24  42  64  99 127 172 216 269 325 387
#     4  10  20  37  65  89 121 167 214 266 309 383
#     4  11  26  44  65 101 130 177 215 269 334 384
#     4  11  24  42  64  99 127 172 216 269 325 387
#     4  12  28  41  64 100 137 165 217 275 323 382
#     4  10  23  40  67  91 130 170 219 264 324 384
#
# _framework density 20.331913
#
# number of rings (size 3 to 8) (size 9 to 14) (size 15 to 20)
#    0.000    1.250    3.750    0.750   10.500    1.000 
#    0.000    0.625    0.000    0.000    0.000    0.000 
#    0.000    0.000    0.000    0.000    0.000    0.000 
#
# Total GULP energy -198251.914217 kJ/mol
# GULP energy per Si atom -12390.744639 kJ/mol
# Density = 2.028564 g / cm^3
# Si number density = 20.331913 Si / 1000 Ang^3
#
#
#
# Elastic Constant Matrix: (Units=GPa)
#
#
# Indices 1 2 3 4 5 6 
#
# 1 169.7604 65.0581 41.0179 -10.6422 22.0570 5.9943
# 2 65.0581 145.2208 52.9435 -14.2425 14.1789 13.0886
# 3 41.0179 52.9435 84.3211 -14.7260 17.1790 0.9387
# 4 -10.6422 -14.2425 -14.7260 31.7644 -2.9509 5.7770
# 5 22.0570 14.1789 17.1790 -2.9509 32.8485 3.6763
# 6 5.9943 13.0886 0.9387 5.7770 3.6763 24.8598
#
#
#
# Elastic Compliance Matrix: (Units=1/GPa)
#
#
# Indices 1 2 3 4 5 6 
#
# 1 0.007660 -0.002558 -0.001366 0.000497 -0.003271 -0.000080
# 2 -0.002558 0.010533 -0.004979 0.002603 0.000618 -0.005437
# 3 -0.001366 -0.004979 0.017641 0.004547 -0.005987 0.002114
# 4 0.000497 0.002603 0.004547 0.036859 0.000631 -0.010321
# 5 -0.003271 0.000618 -0.005987 0.000631 0.036097 -0.004795
# 6 -0.000080 -0.005437 0.002114 -0.010321 -0.004795 0.046135
#
#
# Mechanical properties :
#
#
# Convention : Reuss Voigt Hill
#
# Bulk Modulus (GPa) = 55.47462 79.70459 67.58961
# Shear Modulus (GPa) = 27.97348 33.91341 30.94344
#
# Velocity S-wave (km/s) = 3.71326 4.08853 3.90541
# Velocity P-wave (km/s) = 6.76226 7.84697 7.32472
#
# Compressibility (1/GPa) = 0.01802626
#
# Stress axis : x y z
#
# Youngs Moduli (GPa) = 130.54562 94.94368 56.68706
#
# Poissons Ratio (x) = 0.24291 0.07742
# Poissons Ratio (y) = 0.33399 0.28227
# Poissons Ratio (z) = 0.17829 0.47276
#
# Static dielectric constant tensor:
#      x y z
#    x 3.801020 -0.235410 0.261230 
#    y -0.235410 -3.311780 2.579590 
#    z 0.261230 2.579590 2.677900 
# 
# 
# High freq. dielectric constant tensor:
#      x y z
#    x 1.793150 0.005930 0.013290 
#    y 0.005930 1.813540 -0.008550 
#    z 0.013290 -0.008550 1.795470 
# 
# From -- ./inp_files/335617.got.cif
#   From: 2010.06.25/outbox.cif.g09.slc.cpg/sg2_168_cif.got.tgz:335617.got - 2010.06.27 13:26:56.
