data_PCOD8004934
_publ_section_title
;
Structure prediction by ZEFSAII (Michael W. Deem and Ramdas Pophale) SiO2 
 PCOD8004934
Probable space group: P -1
;
_chemical_formula_sum "Si O2"
_cell_formula_units_Z 16
_cell_length_a 21.105265
_cell_length_b 17.932047
_cell_length_c 13.505564
_cell_angle_alpha 21.978008
_cell_angle_beta 38.673916
_cell_angle_gamma 25.582667
_cell_volume 775.407490
_symmetry_space_group_name_H-M "P -1"
_symmetry_group_IT_number 2
_symmetry_cell_setting 'triclinic'
loop_
_space_group_symop_operation_xyz
x,y,z
-x,-y,-z
loop_
_atom_site_type_symbol
_atom_site_label
_atom_site_fract_x
_atom_site_fract_y
_atom_site_fract_z
Si Si1 0.909262 0.795310 0.809660
Si Si2 0.507812 0.127483 0.617766
Si Si3 0.826695 0.530875 0.982569
Si Si4 0.918228 0.809937 0.449355
Si Si5 0.751930 0.810441 0.162002
Si Si6 0.211440 0.747512 0.771008
Si Si7 0.557757 0.321746 0.924600
Si Si8 0.635403 0.141204 0.263110
O O1 0.800165 0.090231 0.509461
O O2 0.797739 0.849601 0.956504
O O3 0.000000 0.500000 0.000000
O O4 0.041918 0.740708 0.765675
O O5 0.359385 0.209174 0.698798
O O6 0.459216 0.414083 0.368589
O O7 0.587369 0.030187 0.530420
O O8 0.647144 0.805104 0.905724
O O9 0.868670 0.698509 0.712873
O O10 0.841704 0.389373 0.034716
O O11 0.099166 0.510645 0.567199
O O12 0.896615 0.033314 0.273103
O O13 0.803208 0.989736 0.273423
O O14 0.671751 0.102025 0.965687
O O15 0.389812 0.475558 0.923003
O O16 0.636340 0.091528 0.206602
O O17 0.500000 0.500000 0.000000
#
# Coordination Sequence:
#
# PCOD8004934 Si02
#       8
#     2   2   2   2   2   2   2   2
#     4  11  22  43  63  86 126 167 201 253 310 364
#     4  10  20  41  62  92 125 159 203 253 307 362
#     4  10  20  38  63  92 114 161 212 241 301 376
#     4  10  21  41  62  89 129 160 201 257 299 366
#     4  11  24  39  61  94 127 153 206 263 306 352
#     4  12  20  39  68  86 120 168 208 246 301 370
#     4  11  22  40  64  93 127 158 205 260 299 362
#     4   9  18  39  69  87 120 171 202 239 311 373
#
# _framework density 20.634312000000001
#
# number of rings (size 3 to 8) (size 9 to 14) (size 15 to 20)
#    0.000    1.500    7.500    0.375    0.000    3.500 
#    2.250    3.750    0.000    0.000    0.000    0.000 
#    0.000    0.000    0.000    0.000    0.000    0.000 
#
# Total GULP energy -198245.544417 kJ/mol
# GULP energy per Si atom -12390.346526 kJ/mol
# Density = 2.058735 g / cm^3
# Si number density = 20.634312 Si / 1000 Ang^3
#
#
#
# Elastic Constant Matrix: (Units=GPa)
#
#
# Indices 1 2 3 4 5 6 
#
# 1 132.3889 34.9428 31.2319 -12.9596 4.6854 -5.5953
# 2 34.9428 86.8904 19.4958 -14.5656 -6.2496 -0.2718
# 3 31.2319 19.4958 44.9885 -10.1598 -1.7149 0.6051
# 4 -12.9596 -14.5656 -10.1598 29.4254 7.6957 1.9414
# 5 4.6854 -6.2496 -1.7149 7.6957 30.8405 -10.4352
# 6 -5.5953 -0.2718 0.6051 1.9414 -10.4352 44.6627
#
#
#
# Elastic Compliance Matrix: (Units=1/GPa)
#
#
# Indices 1 2 3 4 5 6 
#
# 1 0.009804 -0.002619 -0.005371 0.001797 -0.002561 0.000609
# 2 -0.002619 0.014149 -0.003296 0.004161 0.002080 0.000108
# 3 -0.005371 -0.003296 0.028771 0.006094 -0.000248 -0.001406
# 4 0.001797 0.004161 0.006094 0.042105 -0.011032 -0.004240
# 5 -0.002561 0.002080 -0.000248 -0.011032 0.039127 0.009316
# 6 0.000609 0.000108 -0.001406 -0.004240 0.009316 0.024847
#
#
# Mechanical properties :
#
#
# Convention : Reuss Voigt Hill
#
# Bulk Modulus (GPa) = 33.16549 48.40098 40.78324
# Shear Modulus (GPa) = 26.11993 32.89223 29.50608
#
# Velocity S-wave (km/s) = 3.56174 3.99689 3.78557
# Velocity P-wave (km/s) = 5.74652 6.69385 6.23820
#
# Compressibility (1/GPa) = 0.03015182
#
# Stress axis : x y z
#
# Youngs Moduli (GPa) = 101.99816 70.67716 34.75740
#
# Poissons Ratio (x) = 0.18508 0.18670
# Poissons Ratio (y) = 0.26709 0.11456
# Poissons Ratio (z) = 0.54788 0.23295
#
# Static dielectric constant tensor:
#      x y z
#    x 4.687230 0.127830 0.856140 
#    y 0.127830 3.778510 -0.068160 
#    z 0.856140 -0.068160 4.629060 
# 
# 
# High freq. dielectric constant tensor:
#      x y z
#    x 1.823340 -0.006920 0.007980 
#    y -0.006920 1.778280 -0.030890 
#    z 0.007980 -0.030890 1.808790 
# 
# From -- ./inp_files/214267.got.cif
#   From: 2010.06.25/outbox.cif.g09.slc.cpg/sg2_108_cif.got.tgz:214267.got - 2010.06.27 13:26:56.
