data_PCOD8004770
_publ_section_title
;
Structure prediction by ZEFSAII (Michael W. Deem and Ramdas Pophale) SiO2 
 PCOD8004770
Probable space group: P -1
;
_chemical_formula_sum "Si O2"
_cell_formula_units_Z 16
_cell_length_a 13.706854
_cell_length_b 8.441484
_cell_length_c 15.131875
_cell_angle_alpha 62.026691
_cell_angle_beta 32.058829
_cell_angle_gamma 78.545408
_cell_volume 743.181988
_symmetry_space_group_name_H-M "P -1"
_symmetry_group_IT_number 2
_symmetry_cell_setting 'triclinic'
loop_
_space_group_symop_operation_xyz
x,y,z
-x,-y,-z
loop_
_atom_site_type_symbol
_atom_site_label
_atom_site_fract_x
_atom_site_fract_y
_atom_site_fract_z
Si Si1 0.971138 0.960127 0.892314
Si Si2 0.816218 0.291453 0.960649
Si Si3 0.104477 0.194518 0.563564
Si Si4 0.195230 0.569485 0.518344
Si Si5 0.832096 0.063062 0.650844
Si Si6 0.457030 0.289400 0.127071
Si Si7 0.441157 0.324027 0.660938
Si Si8 0.651184 0.024671 0.299848
O O1 0.148816 0.994861 0.815851
O O2 0.873876 0.111245 0.945102
O O3 0.786609 0.741685 0.106026
O O4 0.067355 0.010367 0.706672
O O5 0.019630 0.495042 0.748118
O O6 0.666772 0.299347 0.998332
O O7 0.712635 0.241822 0.150528
O O8 0.148031 0.398422 0.526673
O O9 0.293635 0.225737 0.348004
O O10 0.895297 0.131904 0.684944
O O11 0.190134 0.761723 0.429913
O O12 0.409142 0.613865 0.386935
O O13 0.619097 0.869251 0.853695
O O14 0.000000 0.000000 0.500000
O O15 0.500000 0.500000 0.000000
O O16 0.500000 0.500000 0.500000
O O17 0.462793 0.145044 0.639967
O O18 0.500000 0.000000 0.500000
#
# Coordination Sequence:
#
# PCOD8004770 Si02
#       8
#     2   2   2   2   2   2   2   2
#     4  10  21  39  62  89 121 161 203 249 303 363
#     4  10  20  38  62  87 121 163 199 248 307 360
#     4  10  22  40  61  89 124 161 205 256 302 363
#     4  11  22  40  63  91 122 162 207 254 305 363
#     4  10  21  38  60  88 122 160 201 250 305 361
#     4  11  23  41  63  91 125 163 204 255 310 363
#     4  11  22  40  63  89 121 160 203 253 306 363
#     4  11  22  40  63  90 122 160 202 253 307 366
#
# _framework density 21.529046999999998
#
# number of rings (size 3 to 8) (size 9 to 14) (size 15 to 20)
#    0.000    1.500    0.000    7.875    0.000    3.000 
#    0.000   10.000    0.000    0.000    0.000    0.000 
#    0.000    0.000    0.000    0.000    0.000    0.000 
#
# Total GULP energy -198319.578432 kJ/mol
# GULP energy per Si atom -12394.973652 kJ/mol
# Density = 2.148005 g / cm^3
# Si number density = 21.529047 Si / 1000 Ang^3
#
#
#
# Elastic Constant Matrix: (Units=GPa)
#
#
# Indices 1 2 3 4 5 6 
#
# 1 145.0647 48.1313 40.0324 -17.4072 -12.4834 -5.3504
# 2 48.1313 74.5492 28.8930 -18.1705 -8.9045 2.4256
# 3 40.0324 28.8930 121.7084 -18.9699 -4.8416 10.6859
# 4 -17.4072 -18.1705 -18.9699 36.6683 -5.4601 2.4468
# 5 -12.4834 -8.9045 -4.8416 -5.4601 36.7642 3.0353
# 6 -5.3504 2.4256 10.6859 2.4468 3.0353 38.6679
#
#
#
# Elastic Compliance Matrix: (Units=1/GPa)
#
#
# Indices 1 2 3 4 5 6 
#
# 1 0.009397 -0.004909 -0.001831 0.001221 0.001786 0.001897
# 2 -0.004909 0.019525 -0.001514 0.007330 0.004139 -0.002274
# 3 -0.001831 -0.001514 0.010146 0.004032 0.001220 -0.003313
# 4 0.001221 0.007330 0.004032 0.035089 0.008285 -0.004276
# 5 0.001786 0.004139 0.001220 0.008285 0.030470 -0.003266
# 6 0.001897 -0.002274 -0.003313 -0.004276 -0.003266 0.027709
#
#
# Mechanical properties :
#
#
# Convention : Reuss Voigt Hill
#
# Bulk Modulus (GPa) = 44.32284 63.93730 54.13007
# Shear Modulus (GPa) = 31.97692 37.37112 34.67402
#
# Velocity S-wave (km/s) = 3.85813 4.17087 4.01754
# Velocity P-wave (km/s) = 6.36231 7.27719 6.83508
#
# Compressibility (1/GPa) = 0.02256173
#
# Stress axis : x y z
#
# Youngs Moduli (GPa) = 106.41135 51.21692 98.56220
#
# Poissons Ratio (x) = 0.25140 0.18046
# Poissons Ratio (y) = 0.52232 0.14920
# Poissons Ratio (z) = 0.19484 0.07753
#
# Static dielectric constant tensor:
#      x y z
#    x 4.414910 0.105650 0.260790 
#    y 0.105650 3.595030 -0.270100 
#    z 0.260790 -0.270100 4.514990 
# 
# 
# High freq. dielectric constant tensor:
#      x y z
#    x 1.864400 -0.010330 0.000270 
#    y -0.010330 1.819000 -0.011000 
#    z 0.000270 -0.011000 1.863830 
# 
# From -- ./inp_files/514072.got.cif
#   From: 2010.06.25/outbox.cif.g09.slc.cpg/sg2_258_cif.got.tgz:514072.got - 2010.06.27 13:26:56.
