data_PCOD8004947
_publ_section_title
;
Structure prediction by ZEFSAII (Michael W. Deem and Ramdas Pophale) SiO2 
 PCOD8004947
Probable space group: P -1
;
_chemical_formula_sum "Si O2"
_cell_formula_units_Z 16
_cell_length_a 15.871912
_cell_length_b 11.166651
_cell_length_c 11.812482
_cell_angle_alpha 116.861806
_cell_angle_beta 35.133662
_cell_angle_gamma 90.968701
_cell_volume 781.203944
_symmetry_space_group_name_H-M "P -1"
_symmetry_group_IT_number 2
_symmetry_cell_setting 'triclinic'
loop_
_space_group_symop_operation_xyz
x,y,z
-x,-y,-z
loop_
_atom_site_type_symbol
_atom_site_label
_atom_site_fract_x
_atom_site_fract_y
_atom_site_fract_z
Si Si1 0.935790 0.732861 0.067332
Si Si2 0.686314 0.142372 0.554017
Si Si3 0.898712 0.448820 0.963324
Si Si4 0.300704 0.203094 0.279063
Si Si5 0.529617 0.633434 0.892927
Si Si6 0.658445 0.498804 0.049485
Si Si7 0.915046 0.247379 0.321315
Si Si8 0.955637 0.678932 0.592342
O O1 0.093007 0.624526 0.953188
O O2 0.745658 0.949520 0.393372
O O3 0.850112 0.638047 0.099542
O O4 0.051302 0.719892 0.827242
O O5 0.891209 0.101065 0.288392
O O6 0.616136 0.207499 0.787545
O O7 0.513107 0.290840 0.717437
O O8 0.716004 0.497067 0.114942
O O9 0.117649 0.283894 0.597596
O O10 0.350119 0.329032 0.292293
O O11 0.245193 0.196218 0.208703
O O12 0.500000 0.000000 0.000000
O O13 0.697665 0.437277 0.688245
O O14 0.411335 0.612334 0.926312
O O15 0.858874 0.381556 0.706783
O O16 0.081468 0.202768 0.206059
O O17 0.000000 0.500000 0.500000
#
# Coordination Sequence:
#
# PCOD8004947 Si02
#       8
#     2   2   2   2   2   2   2   2
#     4  11  23  40  61  83 129 169 195 241 304 368
#     4  11  21  36  62  96 123 151 204 255 299 355
#     4  10  23  43  61  84 125 170 199 236 310 372
#     4  11  22  38  62  93 119 157 203 254 301 352
#     4  11  19  38  64  92 123 152 200 261 304 345
#     4  10  20  38  63  93 117 156 204 253 303 351
#     4  11  19  38  62  91 120 160 201 250 307 350
#     4  11  18  35  63  90 119 152 201 251 303 351
#
# _framework density 20.481207999999999
#
# number of rings (size 3 to 8) (size 9 to 14) (size 15 to 20)
#    0.000    1.250    5.000    2.625    0.000    0.500 
#    2.250    6.875    0.000    0.000    0.000    0.000 
#    0.000    0.000    0.000    0.000    0.000    0.000 
#
# Total GULP energy -198360.428772 kJ/mol
# GULP energy per Si atom -12397.526798 kJ/mol
# Density = 2.043459 g / cm^3
# Si number density = 20.481208 Si / 1000 Ang^3
#
#
#
# Elastic Constant Matrix: (Units=GPa)
#
#
# Indices 1 2 3 4 5 6 
#
# 1 173.8049 46.3921 41.8089 5.1257 -12.3560 0.6431
# 2 46.3921 62.2592 27.4421 0.8612 -5.4743 3.4790
# 3 41.8089 27.4421 66.3722 19.5771 2.3615 5.4384
# 4 5.1257 0.8612 19.5771 34.7933 -1.0055 2.1332
# 5 -12.3560 -5.4743 2.3615 -1.0055 32.0090 -4.6709
# 6 0.6431 3.4790 5.4384 2.1332 -4.6709 30.4423
#
#
#
# Elastic Compliance Matrix: (Units=1/GPa)
#
#
# Indices 1 2 3 4 5 6 
#
# 1 0.007930 -0.004043 -0.003863 0.001106 0.002886 0.001350
# 2 -0.004043 0.023060 -0.008477 0.004938 0.003030 -0.000917
# 3 -0.003863 -0.008477 0.025476 -0.013511 -0.005746 -0.003436
# 4 0.001106 0.004938 -0.013511 0.036167 0.003377 -0.000190
# 5 0.002886 0.003030 -0.005746 0.003377 0.034226 0.005634
# 6 0.001350 -0.000917 -0.003436 -0.000190 0.005634 0.034417
#
#
# Mechanical properties :
#
#
# Convention : Reuss Voigt Hill
#
# Bulk Modulus (GPa) = 42.19424 59.30250 50.74837
# Shear Modulus (GPa) = 24.75967 31.90182 28.33074
#
# Velocity S-wave (km/s) = 3.48069 3.95094 3.72325
# Velocity P-wave (km/s) = 6.06628 7.05909 6.58143
#
# Compressibility (1/GPa) = 0.02369992
#
# Stress axis : x y z
#
# Youngs Moduli (GPa) = 126.11122 43.36471 39.25278
#
# Poissons Ratio (x) = 0.17532 0.15163
# Poissons Ratio (y) = 0.50986 0.33275
# Poissons Ratio (z) = 0.48715 0.36760
#
# Static dielectric constant tensor:
#      x y z
#    x 4.036480 0.105690 -0.003310 
#    y 0.105690 3.854390 0.014070 
#    z -0.003310 0.014070 3.407010 
# 
# 
# High freq. dielectric constant tensor:
#      x y z
#    x 1.807730 0.008270 0.004300 
#    y 0.008270 1.799900 -0.005620 
#    z 0.004300 -0.005620 1.779190 
# 
# From -- ./inp_files/186626.got.cif
#   From: 2010.06.25/outbox.cif.g09.slc.cpg/sg2_94_cif.got.tgz:186626.got - 2010.06.27 13:26:56.
