data_PCOD8004618
_publ_section_title
;
Structure prediction by ZEFSAII (Michael W. Deem and Ramdas Pophale) SiO2 
 PCOD8004618
Probable space group: P -1
;
_chemical_formula_sum "Si O2"
_cell_formula_units_Z 16
_cell_length_a 23.336697
_cell_length_b 8.775288
_cell_length_c 10.556971
_cell_angle_alpha 137.048066
_cell_angle_beta 145.456900
_cell_angle_gamma 33.965598
_cell_volume 676.720441
_symmetry_space_group_name_H-M "P -1"
_symmetry_group_IT_number 2
_symmetry_cell_setting 'triclinic'
loop_
_space_group_symop_operation_xyz
x,y,z
-x,-y,-z
loop_
_atom_site_type_symbol
_atom_site_label
_atom_site_fract_x
_atom_site_fract_y
_atom_site_fract_z
Si Si1 0.908669 0.286842 0.240707
Si Si2 0.610688 0.240305 0.679092
Si Si3 0.427874 0.863878 0.946352
Si Si4 0.168730 0.016611 0.241466
Si Si5 0.939989 0.588265 0.269180
Si Si6 0.344067 0.348366 0.905131
Si Si7 0.651890 0.452685 0.534686
Si Si8 0.700042 0.882595 0.868999
O O1 0.874984 0.500850 0.194897
O O2 0.804419 0.439546 0.254613
O O3 0.037058 0.203186 0.489680
O O4 0.910689 0.034819 0.032852
O O5 0.711521 0.012530 0.622777
O O6 0.465357 0.363481 0.467581
O O7 0.651248 0.113208 0.815674
O O8 0.618036 0.499266 0.837972
O O9 0.393233 0.651605 0.723667
O O10 0.369602 0.080464 0.856708
O O11 0.577624 0.719169 0.123659
O O12 0.381616 0.983501 0.072520
O O13 0.223057 0.795837 0.319843
O O14 0.073850 0.323278 0.306490
O O15 0.845187 0.751055 0.080519
O O16 0.685005 0.647513 0.651014
#
# Coordination Sequence:
#
# PCOD8004618 Si02
#       8
#     2   2   2   2   2   2   2   2
#     4  10  20  38  60  93 119 152 212 266 302 353
#     4  10  24  42  63  93 132 166 204 255 318 380
#     4  10  21  38  67  92 121 161 209 265 308 362
#     4  11  22  40  65  91 122 162 214 265 298 358
#     4  11  23  36  64  92 122 166 208 254 311 363
#     4   9  18  39  61  91 117 155 211 257 303 354
#     4  11  23  40  67  96 120 164 214 259 314 364
#     4  12  24  42  61  93 138 167 197 254 316 385
#
# _framework density 23.643439000000001
#
# number of rings (size 3 to 8) (size 9 to 14) (size 15 to 20)
#    0.000    1.500    2.500    2.625    1.750    5.500 
#    0.000    6.250    0.000    0.000    0.000    0.000 
#    0.000    0.000    0.000    0.000    0.000    0.000 
#
# Total GULP energy -198299.672878 kJ/mol
# GULP energy per Si atom -12393.729555 kJ/mol
# Density = 2.358963 g / cm^3
# Si number density = 23.643439 Si / 1000 Ang^3
#
#
#
# Elastic Constant Matrix: (Units=GPa)
#
#
# Indices 1 2 3 4 5 6 
#
# 1 69.4452 25.1946 4.0050 -0.8657 -3.8571 -17.9563
# 2 25.1946 67.1506 23.9361 -0.9305 -6.8273 -10.3707
# 3 4.0050 23.9361 92.1220 8.0025 10.3134 10.0118
# 4 -0.8657 -0.9305 8.0025 24.7101 -2.0248 10.6745
# 5 -3.8571 -6.8273 10.3134 -2.0248 21.5514 -2.7706
# 6 -17.9563 -10.3707 10.0118 10.6745 -2.7706 31.5364
#
#
#
# Elastic Compliance Matrix: (Units=1/GPa)
#
#
# Indices 1 2 3 4 5 6 
#
# 1 0.019266 -0.004916 -0.000824 -0.003805 0.003367 0.011198
# 2 -0.004916 0.021605 -0.007443 0.000743 0.010540 0.007343
# 3 -0.000824 -0.007443 0.015140 -0.002764 -0.011007 -0.007754
# 4 -0.003805 0.000743 -0.002764 0.049021 0.003252 -0.017352
# 5 0.003367 0.010540 -0.011007 0.003252 0.057565 0.012834
# 6 0.011198 0.007343 -0.007754 -0.017352 0.012834 0.049963
#
#
# Mechanical properties :
#
#
# Convention : Reuss Voigt Hill
#
# Bulk Modulus (GPa) = 33.73044 37.22102 35.47573
# Shear Modulus (GPa) = 20.09592 27.26505 23.68049
#
# Velocity S-wave (km/s) = 2.91857 3.39953 3.16819
# Velocity P-wave (km/s) = 5.06504 5.58443 5.33107
#
# Compressibility (1/GPa) = 0.02964681
#
# Stress axis : x y z
#
# Youngs Moduli (GPa) = 51.90515 46.28526 66.05058
#
# Poissons Ratio (x) = 0.22753 0.05441
# Poissons Ratio (y) = 0.25515 0.49158
# Poissons Ratio (z) = 0.04276 0.34448
#
# Static dielectric constant tensor:
#      x y z
#    x 4.248420 -0.256740 0.356270 
#    y -0.256740 4.106850 0.121920 
#    z 0.356270 0.121920 4.217300 
# 
# 
# High freq. dielectric constant tensor:
#      x y z
#    x 1.921700 -0.024980 0.023670 
#    y -0.024980 1.915820 0.012690 
#    z 0.023670 0.012690 1.940050 
# 
# From -- ./inp_files/447268.got.cif
#   From: 2010.06.25/outbox.cif.g09.slc.cpg/sg2_224_cif.got.tgz:447268.got - 2010.06.27 13:26:56.
