data_PCOD8004051
_publ_section_title
;
Structure prediction by ZEFSAII (Michael W. Deem and Ramdas Pophale) SiO2 
 PCOD8004051
Probable space group: P -1
;
_chemical_formula_sum "Si O2"
_cell_formula_units_Z 14
_cell_length_a 21.343278
_cell_length_b 8.860258
_cell_length_c 9.146499
_cell_angle_alpha 147.924052
_cell_angle_beta 133.018005
_cell_angle_gamma 48.464075
_cell_volume 655.277939
_symmetry_space_group_name_H-M "P -1"
_symmetry_group_IT_number 2
_symmetry_cell_setting 'triclinic'
loop_
_space_group_symop_operation_xyz
x,y,z
-x,-y,-z
loop_
_atom_site_type_symbol
_atom_site_label
_atom_site_fract_x
_atom_site_fract_y
_atom_site_fract_z
Si Si1 0.861375 0.329196 0.759423
Si Si2 0.692807 0.300303 0.638583
Si Si3 0.556212 0.178262 0.824831
Si Si4 0.974951 0.782729 0.399916
Si Si5 0.164486 0.487516 0.452735
Si Si6 0.732992 0.150355 0.911004
Si Si7 0.588508 0.930999 0.994072
O O1 0.782024 0.376189 0.784576
O O2 0.826036 0.354952 0.557516
O O3 0.920401 0.001635 0.613891
O O4 0.916001 0.577155 0.069940
O O5 0.703832 0.197300 0.737124
O O6 0.615831 0.585018 0.736571
O O7 0.666005 0.046216 0.292748
O O8 0.649883 0.136301 0.864483
O O9 0.500000 0.000000 0.500000
O O10 0.571218 0.073687 0.927068
O O11 0.500000 0.500000 0.000000
O O12 0.065078 0.575917 0.431261
O O13 0.000000 0.000000 0.500000
O O14 0.191810 0.141476 0.191395
O O15 0.228463 0.580874 0.749990
O O16 0.500000 0.000000 0.000000
#
# Coordination Sequence:
#
# PCOD8004051 Si02
#       7
#     2   2   2   2   2   2   2
#     4  11  21  39  63  90 120 159 205 253 303 363
#     4  12  25  42  61  91 126 163 202 248 303 363
#     4  12  24  42  65  93 121 156 201 251 300 357
#     4  10  20  37  63  92 119 156 205 255 302 361
#     4  11  21  39  62  88 117 158 204 250 300 357
#     4  12  24  40  60  89 124 160 200 251 301 357
#     4  12  24  43  66  91 123 164 203 248 302 362
#
# _framework density 21.364979000000002
#
# number of rings (size 3 to 8) (size 9 to 14) (size 15 to 20)
#    0.000    0.571    0.000   11.571    0.000    0.000 
#    0.000    4.286    0.000    0.000    0.000    0.000 
#    0.000    0.000    0.000    0.000    0.000    0.000 
#
# Total GULP energy -173659.365441 kJ/mol
# GULP energy per Si atom -12404.240389 kJ/mol
# Density = 2.131635 g / cm^3
# Si number density = 21.364979 Si / 1000 Ang^3
#
#
#
# Elastic Constant Matrix: (Units=GPa)
#
#
# Indices 1 2 3 4 5 6 
#
# 1 128.0776 61.4147 28.5417 -10.6958 -12.1925 -5.1698
# 2 61.4147 120.6254 26.5125 8.5455 -13.9839 -1.7954
# 3 28.5417 26.5125 130.7672 -9.0879 4.1293 -2.1945
# 4 -10.6958 8.5455 -9.0879 48.8333 -10.7977 -14.9207
# 5 -12.1925 -13.9839 4.1293 -10.7977 32.7895 -2.9689
# 6 -5.1698 -1.7954 -2.1945 -14.9207 -2.9689 43.1224
#
#
#
# Elastic Compliance Matrix: (Units=1/GPa)
#
#
# Indices 1 2 3 4 5 6 
#
# 1 0.011672 -0.005534 -0.001141 0.005201 0.004125 0.003194
# 2 -0.005534 0.011900 -0.001536 -0.003570 0.001913 -0.001350
# 3 -0.001141 -0.001536 0.008366 0.001401 -0.001617 0.000599
# 4 0.005201 -0.003570 0.001401 0.028198 0.010519 0.011027
# 5 0.004125 0.001913 -0.001617 0.010519 0.037120 0.006687
# 6 0.003194 -0.001350 0.000599 0.011027 0.006687 0.027823
#
#
# Mechanical properties :
#
#
# Convention : Reuss Voigt Hill
#
# Bulk Modulus (GPa) = 64.45012 68.04533 66.24773
# Shear Modulus (GPa) = 34.08956 42.48244 38.28600
#
# Velocity S-wave (km/s) = 3.99881 4.46400 4.23779
# Velocity P-wave (km/s) = 7.18000 7.64774 7.41755
#
# Compressibility (1/GPa) = 0.01551587
#
# Stress axis : x y z
#
# Youngs Moduli (GPa) = 85.67678 84.03322 119.53128
#
# Poissons Ratio (x) = 0.46508 0.13634
# Poissons Ratio (y) = 0.47418 0.18358
# Poissons Ratio (z) = 0.09773 0.12906
#
# Static dielectric constant tensor:
#      x y z
#    x 4.043460 -0.338060 -0.145810 
#    y -0.338060 4.070700 0.192750 
#    z -0.145810 0.192750 4.060960 
# 
# 
# High freq. dielectric constant tensor:
#      x y z
#    x 1.843680 -0.020110 -0.001950 
#    y -0.020110 1.843170 0.008910 
#    z -0.001950 0.008910 1.857470 
# 
# From -- ./inp_files/53138.got.cif
#   From: 2010.06.25/outbox.cif.g09.slc.cpg/sg2_27_cif.got.tgz:53138.got - 2010.06.27 13:26:56.
