data_PCOD8004606
_publ_section_title
;
Structure prediction by ZEFSAII (Michael W. Deem and Ramdas Pophale) SiO2 
 PCOD8004606
Probable space group: P -1
;
_chemical_formula_sum "Si O2"
_cell_formula_units_Z 14
_cell_length_a 9.288102
_cell_length_b 20.220586
_cell_length_c 9.110156
_cell_angle_alpha 129.459109
_cell_angle_beta 148.884708
_cell_angle_gamma 50.372535
_cell_volume 663.558118
_symmetry_space_group_name_H-M "P -1"
_symmetry_group_IT_number 2
_symmetry_cell_setting 'triclinic'
loop_
_space_group_symop_operation_xyz
x,y,z
-x,-y,-z
loop_
_atom_site_type_symbol
_atom_site_label
_atom_site_fract_x
_atom_site_fract_y
_atom_site_fract_z
Si Si1 0.458013 0.639068 0.313604
Si Si2 0.984250 0.474348 0.283052
Si Si3 0.312306 0.946287 0.172964
Si Si4 0.802258 0.199492 0.499424
Si Si5 0.246305 0.759328 0.824689
Si Si6 0.411801 0.084362 0.941603
Si Si7 0.241589 0.335118 0.689355
O O1 0.719919 0.597377 0.595624
O O2 0.232455 0.719038 0.305767
O O3 0.576249 0.669699 0.308274
O O4 0.291923 0.563755 0.033493
O O5 0.000000 0.500000 0.500000
O O6 0.942270 0.566764 0.289774
O O7 0.408019 0.943020 0.085500
O O8 0.500000 0.000000 0.500000
O O9 0.304082 0.847476 0.077076
O O10 0.000000 0.000000 0.000000
O O11 0.819948 0.230554 0.391646
O O12 0.075919 0.120624 0.667264
O O13 0.519799 0.162884 0.224647
O O14 0.971726 0.730199 0.611375
O O15 0.541144 0.688900 0.017754
O O16 0.500000 0.000000 0.000000
#
# Coordination Sequence:
#
# PCOD8004606 Si02
#       7
#     2   2   2   2   2   2   2
#     4  11  22  39  64  90 119 161 206 247 293 355
#     4  10  20  38  60  90 124 156 198 256 301 338
#     4  11  23  41  63  88 119 156 197 246 298 352
#     4  11  24  43  60  87 126 159 191 245 308 356
#     4  11  23  40  60  88 125 158 192 248 309 354
#     4  11  24  43  63  87 120 159 196 245 301 356
#     4  11  21  38  63  90 117 159 206 247 293 355
#
# _framework density 21.098376999999999
#
# number of rings (size 3 to 8) (size 9 to 14) (size 15 to 20)
#    0.000    1.143    0.000    9.857    0.000    3.429 
#    0.000    4.286    0.000    0.000    0.000    0.000 
#    0.000    0.000    0.000    0.000    0.000    0.000 
#
# Total GULP energy -173519.943119 kJ/mol
# GULP energy per Si atom -12394.281651 kJ/mol
# Density = 2.105036 g / cm^3
# Si number density = 21.098377 Si / 1000 Ang^3
#
#
#
# Elastic Constant Matrix: (Units=GPa)
#
#
# Indices 1 2 3 4 5 6 
#
# 1 59.5104 59.3177 39.6826 6.8595 12.8765 3.1103
# 2 59.3177 141.6582 55.3329 -15.2494 -2.6848 11.7530
# 3 39.6826 55.3329 142.7240 1.1879 20.3786 16.9782
# 4 6.8595 -15.2494 1.1879 59.5624 4.5477 5.3078
# 5 12.8765 -2.6848 20.3786 4.5477 30.3180 2.7764
# 6 3.1103 11.7530 16.9782 5.3078 2.7764 36.8637
#
#
#
# Elastic Compliance Matrix: (Units=1/GPa)
#
#
# Indices 1 2 3 4 5 6 
#
# 1 0.040094 -0.017401 -0.002739 -0.008315 -0.016015 0.005830
# 2 -0.017401 0.016518 -0.002549 0.005892 0.010071 -0.004231
# 3 -0.002739 -0.002549 0.009907 0.000161 -0.005459 -0.003131
# 4 -0.008315 0.005892 0.000161 0.019516 0.001399 -0.004167
# 5 -0.016015 0.010071 -0.005459 0.001399 0.044402 -0.002891
# 6 0.005830 -0.004231 -0.003131 -0.004167 -0.002891 0.030244
#
#
# Mechanical properties :
#
#
# Convention : Reuss Voigt Hill
#
# Bulk Modulus (GPa) = 47.30404 72.50653 59.90528
# Shear Modulus (GPa) = 23.46247 37.98613 30.72430
#
# Velocity S-wave (km/s) = 3.33836 4.24775 3.82021
# Velocity P-wave (km/s) = 6.10974 7.64842 6.92197
#
# Compressibility (1/GPa) = 0.02113984
#
# Stress axis : x y z
#
# Youngs Moduli (GPa) = 24.94124 60.54082 100.93948
#
# Poissons Ratio (x) = 1.05350 0.27646
# Poissons Ratio (y) = 0.43401 0.25732
# Poissons Ratio (z) = 0.06831 0.15433
#
# Static dielectric constant tensor:
#      x y z
#    x 3.723720 0.202590 0.073490 
#    y 0.202590 4.529780 -0.199000 
#    z 0.073490 -0.199000 4.306020 
# 
# 
# High freq. dielectric constant tensor:
#      x y z
#    x 1.801000 0.006160 0.016460 
#    y 0.006160 1.846290 -0.002890 
#    z 0.016460 -0.002890 1.848630 
# 
# From -- ./inp_files/213168.got.cif
#   From: 2010.06.25/outbox.cif.g09.slc.cpg/sg2_107_cif.got.tgz:213168.got - 2010.06.27 13:26:56.
