data_PCOD8004961
_publ_section_title
;
Structure prediction by ZEFSAII (Michael W. Deem and Ramdas Pophale) SiO2 
 PCOD8004961
Probable space group: P -1
;
_chemical_formula_sum "Si O2"
_cell_formula_units_Z 14
_cell_length_a 12.712949
_cell_length_b 23.165939
_cell_length_c 9.333517
_cell_angle_alpha 33.993305
_cell_angle_beta 129.376146
_cell_angle_gamma 153.637638
_cell_volume 613.845655
_symmetry_space_group_name_H-M "P -1"
_symmetry_group_IT_number 2
_symmetry_cell_setting 'triclinic'
loop_
_space_group_symop_operation_xyz
x,y,z
-x,-y,-z
loop_
_atom_site_type_symbol
_atom_site_label
_atom_site_fract_x
_atom_site_fract_y
_atom_site_fract_z
Si Si1 0.055361 0.114781 0.519697
Si Si2 0.453044 0.469700 0.313502
Si Si3 0.396989 0.260191 0.918712
Si Si4 0.990778 0.712074 0.206412
Si Si5 0.315110 0.099763 0.627975
Si Si6 0.089262 0.472685 0.741567
Si Si7 0.126247 0.553095 0.150051
O O1 0.250689 0.336037 0.279077
O O2 0.247882 0.144600 0.591187
O O3 0.880341 0.028872 0.410417
O O4 0.872525 0.967116 0.799450
O O5 0.333226 0.309598 0.650759
O O6 0.452893 0.586747 0.132308
O O7 0.751450 0.634099 0.195396
O O8 0.572598 0.283824 0.951442
O O9 0.949532 0.656603 0.116633
O O10 0.013175 0.632854 0.502476
O O11 0.262661 0.954311 0.957101
O O12 0.611014 0.309156 0.400838
O O13 0.000000 0.500000 0.500000
O O14 0.903546 0.363949 0.946148
O O15 0.000000 0.500000 0.000000
#
# Coordination Sequence:
#
# PCOD8004961 Si02
#       7
#     2   2   2   2   2   2   2
#     4  11  22  36  61  96 130 155 202 263 314 373
#     4  10  20  38  63  94 123 165 202 254 326 366
#     4  10  21  39  61  90 127 163 206 254 314 378
#     4  10  21  41  66  90 123 162 210 257 311 373
#     4  11  23  37  62  96 124 161 206 260 315 362
#     4  10  22  42  65  86 124 172 211 251 304 375
#     4  10  22  40  63  87 121 167 207 253 303 366
#
# _framework density 22.807036
#
# number of rings (size 3 to 8) (size 9 to 14) (size 15 to 20)
#    0.000    1.714    2.857    1.286    0.000    5.143 
#    0.000    1.429    0.000    6.857    0.000    0.000 
#    0.000    0.000    0.000    0.000    0.000    0.000 
#
# Total GULP energy -173515.289703 kJ/mol
# GULP energy per Si atom -12393.949265 kJ/mol
# Density = 2.275513 g / cm^3
# Si number density = 22.807036 Si / 1000 Ang^3
#
#
#
# Elastic Constant Matrix: (Units=GPa)
#
#
# Indices 1 2 3 4 5 6 
#
# 1 142.2771 34.2561 29.7778 -9.5219 -27.8148 -8.7721
# 2 34.2561 86.1689 11.5018 -8.2047 1.9635 -13.6677
# 3 29.7778 11.5018 48.4880 -8.6942 -7.0294 -2.1101
# 4 -9.5219 -8.2047 -8.6942 36.5616 -5.6757 1.0131
# 5 -27.8148 1.9635 -7.0294 -5.6757 24.5204 -0.1962
# 6 -8.7721 -13.6677 -2.1101 1.0131 -0.1962 33.7927
#
#
#
# Elastic Compliance Matrix: (Units=1/GPa)
#
#
# Indices 1 2 3 4 5 6 
#
# 1 0.011615 -0.003932 -0.003642 0.003296 0.013218 0.001175
# 2 -0.003932 0.014306 -0.001475 0.000807 -0.005805 0.004616
# 3 -0.003642 -0.001475 0.024777 0.005286 0.004313 -0.000128
# 4 0.003296 0.000807 0.005286 0.031571 0.012502 0.000638
# 5 0.013218 -0.005805 0.004313 0.012502 0.060382 0.001328
# 6 0.001175 0.004616 -0.000128 0.000638 0.001328 0.031745
#
#
# Mechanical properties :
#
#
# Convention : Reuss Voigt Hill
#
# Bulk Modulus (GPa) = 30.67408 47.55616 39.11512
# Shear Modulus (GPa) = 24.58687 32.40147 28.49417
#
# Velocity S-wave (km/s) = 3.28691 3.77328 3.53846
# Velocity P-wave (km/s) = 5.28050 6.31509 5.82082
#
# Compressibility (1/GPa) = 0.03260082
#
# Stress axis : x y z
#
# Youngs Moduli (GPa) = 86.09803 69.89873 40.35938
#
# Poissons Ratio (x) = 0.27486 0.14698
# Poissons Ratio (y) = 0.33856 0.05952
# Poissons Ratio (z) = 0.31355 0.10309
#
# Static dielectric constant tensor:
#      x y z
#    x 5.496130 -0.836660 0.135240 
#    y -0.836660 4.166110 0.061110 
#    z 0.135240 0.061110 4.049360 
# 
# 
# High freq. dielectric constant tensor:
#      x y z
#    x 1.912880 -0.009010 -0.008930 
#    y -0.009010 1.889870 0.006480 
#    z -0.008930 0.006480 1.889280 
# 
# From -- ./inp_files/282207.got.cif
#   From: 2010.06.25/outbox.cif.g09.slc.cpg/sg2_142_cif.got.tgz:282207.got - 2010.06.27 13:26:56.
