data_PCOD8004031
_publ_section_title
;
Structure prediction by ZEFSAII (Michael W. Deem and Ramdas Pophale) SiO2 
 PCOD8004031
Probable space group: P -1
;
_chemical_formula_sum "Si O2"
_cell_formula_units_Z 16
_cell_length_a 18.087022
_cell_length_b 11.637099
_cell_length_c 8.779797
_cell_angle_alpha 61.615872
_cell_angle_beta 79.469962
_cell_angle_gamma 132.565259
_cell_volume 751.849633
_symmetry_space_group_name_H-M "P -1"
_symmetry_group_IT_number 2
_symmetry_cell_setting 'triclinic'
loop_
_space_group_symop_operation_xyz
x,y,z
-x,-y,-z
loop_
_atom_site_type_symbol
_atom_site_label
_atom_site_fract_x
_atom_site_fract_y
_atom_site_fract_z
Si Si1 0.708553 0.942714 0.621634
Si Si2 0.142490 0.829054 0.009037
Si Si3 0.039408 0.403157 0.328805
Si Si4 0.215957 0.412357 0.775352
Si Si5 0.483605 0.521467 0.233399
Si Si6 0.140126 0.564703 0.856388
Si Si7 0.994845 0.148274 0.762219
Si Si8 0.480302 0.637752 0.469392
O O1 0.662056 0.780777 0.598204
O O2 0.856269 0.100120 0.546677
O O3 0.741200 0.140523 0.432118
O O4 0.572804 0.738651 0.931773
O O5 0.112674 0.912984 0.064557
O O6 0.068967 0.590869 0.276018
O O7 0.042625 0.687200 0.974824
O O8 0.328932 0.082073 0.757180
O O9 0.081572 0.350464 0.459580
O O10 0.147475 0.567308 0.033447
O O11 0.209743 0.534493 0.794869
O O12 0.402787 0.656966 0.534825
O O13 0.142194 0.320307 0.694978
O O14 0.116388 0.143034 0.064192
O O15 0.422099 0.524976 0.387341
O O16 0.592773 0.584213 0.247542
#
# Coordination Sequence:
#
# PCOD8004031 Si02
#       8
#     2   2   2   2   2   2   2   2
#     4  10  20  38  59  88 117 145 188 241 291 334
#     4  10  20  37  63  90 113 142 191 244 286 330
#     4  11  20  36  63  87 110 149 196 239 280 334
#     4  10  23  39  55  81 122 158 186 229 284 343
#     4  10  21  35  61  89 114 146 190 241 287 334
#     4  10  22  39  59  84 118 154 187 232 285 342
#     4  10  21  38  59  85 115 151 194 235 280 337
#     4  11  20  37  61  88 115 150 191 235 282 336
#
# _framework density 21.280850000000001
#
# number of rings (size 3 to 8) (size 9 to 14) (size 15 to 20)
#    0.000    1.750    0.000    6.375    0.000    4.500 
#    0.000    7.500    0.000    0.000    0.000    0.000 
#    0.000    0.000    0.000    0.000    0.000    0.000 
#
# Total GULP energy -198269.448577 kJ/mol
# GULP energy per Si atom -12391.840536 kJ/mol
# Density = 2.123241 g / cm^3
# Si number density = 21.280850 Si / 1000 Ang^3
#
#
#
# Elastic Constant Matrix: (Units=GPa)
#
#
# Indices 1 2 3 4 5 6 
#
# 1 115.1474 17.7409 56.7399 -9.3639 -2.7774 -6.5060
# 2 17.7409 45.2257 27.1180 -12.0658 7.2370 -9.8713
# 3 56.7399 27.1180 102.6953 -3.9019 19.0010 3.6616
# 4 -9.3639 -12.0658 -3.9019 24.8478 5.7743 7.8783
# 5 -2.7774 7.2370 19.0010 5.7743 43.1077 -1.2870
# 6 -6.5060 -9.8713 3.6616 7.8783 -1.2870 26.0113
#
#
#
# Elastic Compliance Matrix: (Units=1/GPa)
#
#
# Indices 1 2 3 4 5 6 
#
# 1 0.013187 0.000476 -0.008322 0.001477 0.004372 0.004420
# 2 0.000476 0.032833 -0.008208 0.012482 -0.003243 0.009793
# 3 -0.008322 -0.008208 0.018165 0.000031 -0.007412 -0.008130
# 4 0.001477 0.012482 0.000031 0.052637 -0.009402 -0.011306
# 5 0.004372 -0.003243 -0.007412 -0.009402 0.028705 0.005174
# 6 0.004420 0.009793 -0.008130 -0.011306 0.005174 0.048092
#
#
# Mechanical properties :
#
#
# Convention : Reuss Voigt Hill
#
# Bulk Modulus (GPa) = 31.17439 51.80733 41.49086
# Shear Modulus (GPa) = 21.14883 29.55800 25.35342
#
# Velocity S-wave (km/s) = 3.15587 3.73090 3.45537
# Velocity P-wave (km/s) = 5.28774 6.55415 5.95471
#
# Compressibility (1/GPa) = 0.03207761
#
# Stress axis : x y z
#
# Youngs Moduli (GPa) = 75.83073 30.45732 55.04964
#
# Poissons Ratio (x) = -0.01450 0.45813
# Poissons Ratio (y) = -0.03610 0.45184
# Poissons Ratio (z) = 0.63108 0.24999
#
# Static dielectric constant tensor:
#      x y z
#    x 3.776970 -0.022880 0.250440 
#    y -0.022880 4.008010 0.002190 
#    z 0.250440 0.002190 3.781000 
# 
# 
# High freq. dielectric constant tensor:
#      x y z
#    x 1.816970 -0.001080 0.016040 
#    y -0.001080 1.842250 -0.002680 
#    z 0.016040 -0.002680 1.832150 
# 
# From -- ./inp_files/333034.got.cif
#   From: 2010.06.25/outbox.cif.g09.slc.cpg/sg2_167_cif.got.tgz:333034.got - 2010.06.27 13:26:56.
