data_PCOD8004299
_publ_section_title
;
Structure prediction by ZEFSAII (Michael W. Deem and Ramdas Pophale) SiO2 
 PCOD8004299
Probable space group: P -1
;
_chemical_formula_sum "Si O2"
_cell_formula_units_Z 12
_cell_length_a 9.203628
_cell_length_b 16.428511
_cell_length_c 9.832894
_cell_angle_alpha 143.012212
_cell_angle_beta 46.504583
_cell_angle_gamma 133.094073
_cell_volume 617.835650
_symmetry_space_group_name_H-M "P -1"
_symmetry_group_IT_number 2
_symmetry_cell_setting 'triclinic'
loop_
_space_group_symop_operation_xyz
x,y,z
-x,-y,-z
loop_
_atom_site_type_symbol
_atom_site_label
_atom_site_fract_x
_atom_site_fract_y
_atom_site_fract_z
Si Si1 0.249292 0.660387 0.157701
Si Si2 0.016063 0.644691 0.029747
Si Si3 0.936339 0.900625 0.280935
Si Si4 0.345330 0.037722 0.041940
Si Si5 0.459229 0.649486 0.748727
Si Si6 0.475620 0.902447 0.513201
O O1 0.303507 0.754966 0.384368
O O2 0.170240 0.500666 0.048243
O O3 0.070945 0.695463 0.221400
O O4 0.454819 0.678180 0.953002
O O5 0.228255 0.627254 0.803840
O O6 0.940400 0.747731 0.120602
O O7 0.699452 0.881926 0.368546
O O8 0.000000 0.000000 0.500000
O O9 0.101615 0.964314 0.138677
O O10 0.383739 0.208757 0.233762
O O11 0.500000 0.000000 0.000000
O O12 0.390209 0.973062 0.785610
O O13 0.500000 0.500000 0.500000
O O14 0.500000 0.000000 0.500000
#
# Coordination Sequence:
#
# PCOD8004299 Si02
#       6
#     2   2   2   2   2   2
#     4   9  20  41  63  91 130 171 211 273 329 382
#     4   9  20  42  63  92 125 176 223 250 344 395
#     4  12  24  40  68  95 131 178 220 271 332 393
#     4  12  23  44  69 100 129 175 226 269 333 398
#     4  10  20  37  67  95 126 165 222 266 320 396
#     4  12  24  44  65  98 138 166 224 281 324 394
#
# _framework density 19.422640000000001
#
# number of rings (size 3 to 8) (size 9 to 14) (size 15 to 20)
#    1.000    0.333    5.000    1.000    2.333    2.667 
#    3.000    0.833    0.000    0.000    0.000    0.000 
#    0.000    0.000    0.000    0.000    0.000    0.000 
#
# Total GULP energy -148665.011015 kJ/mol
# GULP energy per Si atom -12388.750918 kJ/mol
# Density = 1.937843 g / cm^3
# Si number density = 19.422640 Si / 1000 Ang^3
#
#
#
# Elastic Constant Matrix: (Units=GPa)
#
#
# Indices 1 2 3 4 5 6 
#
# 1 103.1239 48.4880 56.1510 16.0863 -5.1739 -3.9147
# 2 48.4880 154.5090 55.4537 17.4923 -4.1968 -9.7411
# 3 56.1510 55.4537 122.9796 8.2053 6.6427 -9.6237
# 4 16.0863 17.4923 8.2053 37.6706 -0.5467 -1.8228
# 5 -5.1739 -4.1968 6.6427 -0.5467 36.6908 5.9808
# 6 -3.9147 -9.7411 -9.6237 -1.8228 5.9808 30.3346
#
#
#
# Elastic Compliance Matrix: (Units=1/GPa)
#
#
# Indices 1 2 3 4 5 6 
#
# 1 0.014488 -0.002057 -0.005695 -0.004017 0.003012 -0.001433
# 2 -0.002057 0.008448 -0.002660 -0.002390 0.000914 0.001280
# 3 -0.005695 -0.002660 0.012311 0.001082 -0.003831 0.003137
# 4 -0.004017 -0.002390 0.001082 0.029171 -0.000757 0.000959
# 5 0.003012 0.000914 -0.003831 -0.000757 0.029509 -0.006397
# 6 -0.001433 0.001280 0.003137 0.000959 -0.006397 0.035506
#
#
# Mechanical properties :
#
#
# Convention : Reuss Voigt Hill
#
# Bulk Modulus (GPa) = 69.32384 77.86643 73.59514
# Shear Modulus (GPa) = 32.24455 35.64053 33.94254
#
# Velocity S-wave (km/s) = 4.07892 4.28834 4.18494
# Velocity P-wave (km/s) = 7.61270 8.04347 7.83105
#
# Compressibility (1/GPa) = 0.01442505
#
# Stress axis : x y z
#
# Youngs Moduli (GPa) = 69.02201 118.36592 81.22598
#
# Poissons Ratio (x) = 0.24343 0.46255
# Poissons Ratio (y) = 0.14195 0.21608
# Poissons Ratio (z) = 0.39305 0.31488
#
# Static dielectric constant tensor:
#      x y z
#    x 3.343540 -0.107760 -0.115260 
#    y -0.107760 3.420290 -0.200830 
#    z -0.115260 -0.200830 3.206630 
# 
# 
# High freq. dielectric constant tensor:
#      x y z
#    x 1.741130 -0.003610 -0.006620 
#    y -0.003610 1.773290 0.010330 
#    z -0.006620 0.010330 1.746210 
# 
# From -- ./inp_files/204674.got.cif
#   From: 2010.06.25/outbox.cif.g09.slc.cpg/sg2_103_cif.got.tgz:204674.got - 2010.06.27 13:26:56.
