data_PCOD8004424
_publ_section_title
;
Structure prediction by ZEFSAII (Michael W. Deem and Ramdas Pophale) SiO2 
 PCOD8004424
Probable space group: P -1
;
_chemical_formula_sum "Si O2"
_cell_formula_units_Z 16
_cell_length_a 13.537866
_cell_length_b 18.948734
_cell_length_c 9.123376
_cell_angle_alpha 142.370616
_cell_angle_beta 115.450989
_cell_angle_gamma 37.803099
_cell_volume 746.100134
_symmetry_space_group_name_H-M "P -1"
_symmetry_group_IT_number 2
_symmetry_cell_setting 'triclinic'
loop_
_space_group_symop_operation_xyz
x,y,z
-x,-y,-z
loop_
_atom_site_type_symbol
_atom_site_label
_atom_site_fract_x
_atom_site_fract_y
_atom_site_fract_z
Si Si1 0.898303 0.459585 0.203210
Si Si2 0.519477 0.176283 0.759003
Si Si3 0.134699 0.984887 0.421768
Si Si4 0.034014 0.823623 0.078494
Si Si5 0.859198 0.384827 0.766374
Si Si6 0.252904 0.288064 0.230096
Si Si7 0.993851 0.693996 0.584744
Si Si8 0.597947 0.943585 0.692120
O O1 0.742870 0.679859 0.540916
O O2 0.108711 0.304930 0.145665
O O3 0.906087 0.451595 0.018410
O O4 0.841379 0.381462 0.097818
O O5 0.562831 0.079610 0.781993
O O6 0.705245 0.072399 0.638335
O O7 0.437550 0.150177 0.555306
O O8 0.366574 0.411841 0.069756
O O9 0.134511 0.996074 0.618053
O O10 0.930752 0.204035 0.588163
O O11 0.160550 0.828654 0.135929
O O12 0.959471 0.838016 0.899092
O O13 0.973012 0.299207 0.549215
O O14 0.171127 0.466816 0.380145
O O15 0.461641 0.077466 0.965053
O O16 0.812680 0.766649 0.594373
#
# Coordination Sequence:
#
# PCOD8004424 Si02
#       8
#     2   2   2   2   2   2   2   2
#     4   9  20  37  60  85 117 161 190 240 291 346
#     4  11  23  36  59  91 118 154 196 236 294 351
#     4  10  21  44  63  82 117 158 198 242 287 342
#     4   9  21  41  64  83 116 158 199 242 286 340
#     4  11  21  38  59  86 119 153 195 236 295 346
#     4  10  20  38  58  86 125 151 192 237 296 350
#     4  11  22  37  60  92 120 153 191 240 296 349
#     4  11  22  35  59  90 123 152 187 242 293 354
#
# _framework density 21.444842999999999
#
# number of rings (size 3 to 8) (size 9 to 14) (size 15 to 20)
#    0.000    1.750    2.500    2.250    1.750    2.500 
#    0.000   15.625    0.000    0.000    0.000    0.000 
#    0.000    0.000    0.000    0.000    0.000    0.000 
#
# Total GULP energy -198290.421594 kJ/mol
# GULP energy per Si atom -12393.151350 kJ/mol
# Density = 2.139603 g / cm^3
# Si number density = 21.444843 Si / 1000 Ang^3
#
#
#
# Elastic Constant Matrix: (Units=GPa)
#
#
# Indices 1 2 3 4 5 6 
#
# 1 110.0322 20.0533 54.5610 -9.9626 4.6468 5.4118
# 2 20.0533 54.4283 36.2629 -16.8146 -5.0521 9.6357
# 3 54.5610 36.2629 127.6764 -19.7629 -13.5551 5.5536
# 4 -9.9626 -16.8146 -19.7629 44.3755 -0.2282 -6.3746
# 5 4.6468 -5.0521 -13.5551 -0.2282 35.1836 0.5415
# 6 5.4118 9.6357 5.5536 -6.3746 0.5415 24.3066
#
#
#
# Elastic Compliance Matrix: (Units=1/GPa)
#
#
# Indices 1 2 3 4 5 6 
#
# 1 0.012080 -0.001228 -0.005206 -0.000234 -0.003764 -0.000991
# 2 -0.001228 0.025688 -0.005312 0.006075 0.001953 -0.007146
# 3 -0.005206 -0.005312 0.012412 0.002511 0.004708 0.000983
# 4 -0.000234 0.006075 0.002511 0.026484 0.001981 0.003971
# 5 -0.003764 0.001953 0.004708 0.001981 0.031045 -0.001184
# 6 -0.000991 -0.007146 0.000983 0.003971 -0.001184 0.045038
#
#
# Mechanical properties :
#
#
# Convention : Reuss Voigt Hill
#
# Bulk Modulus (GPa) = 37.47248 57.09905 47.28576
# Shear Modulus (GPa) = 27.00726 32.85712 29.93219
#
# Velocity S-wave (km/s) = 3.55263 3.91854 3.74006
# Velocity P-wave (km/s) = 5.86004 6.86710 6.38346
#
# Compressibility (1/GPa) = 0.02668625
#
# Stress axis : x y z
#
# Youngs Moduli (GPa) = 82.78045 38.92846 80.56922
#
# Poissons Ratio (x) = 0.04782 0.41945
# Poissons Ratio (y) = 0.10168 0.42802
# Poissons Ratio (z) = 0.43096 0.20681
#
# Static dielectric constant tensor:
#      x y z
#    x 3.739280 0.244300 0.026720 
#    y 0.244300 3.890610 -0.178900 
#    z 0.026720 -0.178900 4.110530 
# 
# 
# High freq. dielectric constant tensor:
#      x y z
#    x 1.827290 0.031020 -0.004380 
#    y 0.031020 1.837700 -0.010040 
#    z -0.004380 -0.010040 1.851200 
# 
# From -- ./inp_files/318807.got.cif
#   From: 2010.06.25/outbox.cif.g09.slc.cpg/sg2_160_cif.got.tgz:318807.got - 2010.06.27 13:26:56.
