data_PCOD8004789
_publ_section_title
;
Structure prediction by ZEFSAII (Michael W. Deem and Ramdas Pophale) SiO2 
 PCOD8004789
Probable space group: P -1
;
_chemical_formula_sum "Si O2"
_cell_formula_units_Z 14
_cell_length_a 15.926741
_cell_length_b 8.855838
_cell_length_c 18.532951
_cell_angle_alpha 44.582601
_cell_angle_beta 23.460890
_cell_angle_gamma 50.637843
_cell_volume 728.778307
_symmetry_space_group_name_H-M "P -1"
_symmetry_group_IT_number 2
_symmetry_cell_setting 'triclinic'
loop_
_space_group_symop_operation_xyz
x,y,z
-x,-y,-z
loop_
_atom_site_type_symbol
_atom_site_label
_atom_site_fract_x
_atom_site_fract_y
_atom_site_fract_z
Si Si1 0.009175 0.750161 0.590550
Si Si2 0.804389 0.957261 0.325153
Si Si3 0.714823 0.982975 0.095824
Si Si4 0.575740 0.785997 0.423718
Si Si5 0.413553 0.651659 0.372555
Si Si6 0.591295 0.468437 0.017518
Si Si7 0.699569 0.516964 0.625407
O O1 0.169428 0.716597 0.542424
O O2 0.100866 0.633619 0.486535
O O3 0.779595 0.645348 0.826012
O O4 0.000000 0.000000 0.500000
O O5 0.660019 0.144813 0.399947
O O6 0.740011 0.872933 0.325432
O O7 0.781311 0.765509 0.466820
O O8 0.044848 0.052710 0.101642
O O9 0.673552 0.233643 0.043996
O O10 0.664267 0.877934 0.248182
O O11 0.567712 0.862462 0.192654
O O12 0.561650 0.525532 0.524138
O O13 0.465117 0.551173 0.287050
O O14 0.406648 0.514784 0.202840
O O15 0.500000 0.500000 0.000000
#
# Coordination Sequence:
#
# PCOD8004789 Si02
#       7
#     2   2   2   2   2   2   2
#     4  10  22  45  62  88 124 159 200 253 309 361
#     4  10  20  38  63  91 121 161 203 247 301 359
#     4  12  21  39  62  95 121 160 206 251 295 364
#     4  10  20  38  62  88 129 160 198 250 302 356
#     4   9  22  42  58  92 130 157 201 247 306 363
#     4  12  24  40  67  91 116 163 212 250 303 361
#     4   9  21  44  59  87 124 160 196 254 302 364
#
# _framework density 19.210232999999999
#
# number of rings (size 3 to 8) (size 9 to 14) (size 15 to 20)
#    0.857    0.857    2.857    1.714    0.000    1.714 
#    2.571    0.000    0.000    0.000    0.000    0.000 
#    0.000    0.000    0.000    0.000    0.000    0.000 
#
# Total GULP energy -173574.541387 kJ/mol
# GULP energy per Si atom -12398.181528 kJ/mol
# Density = 1.916651 g / cm^3
# Si number density = 19.210233 Si / 1000 Ang^3
#
#
#
# Elastic Constant Matrix: (Units=GPa)
#
#
# Indices 1 2 3 4 5 6 
#
# 1 80.8474 20.7876 46.4239 3.1720 12.6479 -4.7138
# 2 20.7876 94.8903 31.4245 -11.7028 7.9668 -29.2623
# 3 46.4239 31.4245 110.3842 2.9844 -4.4809 0.9575
# 4 3.1720 -11.7028 2.9844 38.0646 0.4705 1.7918
# 5 12.6479 7.9668 -4.4809 0.4705 36.9112 -0.1613
# 6 -4.7138 -29.2623 0.9575 1.7918 -0.1613 25.0488
#
#
#
# Elastic Compliance Matrix: (Units=1/GPa)
#
#
# Indices 1 2 3 4 5 6 
#
# 1 0.018386 0.000595 -0.008219 -0.000824 -0.007396 0.004480
# 2 0.000595 0.021817 -0.007079 0.006089 -0.005739 0.025397
# 3 -0.008219 -0.007079 0.014930 -0.002259 0.006141 -0.010186
# 4 -0.000824 0.006089 -0.002259 0.028173 -0.001643 0.005018
# 5 -0.007396 -0.005739 0.006141 -0.001643 0.031596 -0.008010
# 6 0.004480 0.025397 -0.010186 0.005018 -0.008010 0.070414
#
#
# Mechanical properties :
#
#
# Convention : Reuss Voigt Hill
#
# Bulk Modulus (GPa) = 38.86929 53.71045 46.28987
# Shear Modulus (GPa) = 22.39167 32.50397 27.44782
#
# Velocity S-wave (km/s) = 3.41781 4.11787 3.78406
# Velocity P-wave (km/s) = 5.98772 7.11542 6.57579
#
# Compressibility (1/GPa) = 0.02572725
#
# Stress axis : x y z
#
# Youngs Moduli (GPa) = 54.38933 45.83531 66.98018
#
# Poissons Ratio (x) = -0.02727 0.55049
# Poissons Ratio (y) = -0.03236 0.47416
# Poissons Ratio (z) = 0.44701 0.32447
#
# Static dielectric constant tensor:
#      x y z
#    x 3.362330 -0.097840 -0.043750 
#    y -0.097840 3.573120 -0.070940 
#    z -0.043750 -0.070940 3.507340 
# 
# 
# High freq. dielectric constant tensor:
#      x y z
#    x 1.736330 -0.010980 -0.002180 
#    y -0.010980 1.752780 -0.006650 
#    z -0.002180 -0.006650 1.745900 
# 
# From -- ./inp_files/296926.got.cif
#   From: 2010.06.25/outbox.cif.g09.slc.cpg/sg2_149_cif.got.tgz:296926.got - 2010.06.27 13:26:56.
