data_PCOD8004015
_publ_section_title
;
Structure prediction by ZEFSAII (Michael W. Deem and Ramdas Pophale) SiO2 
 PCOD8004015
Probable space group: P -1
;
_chemical_formula_sum "Si O2"
_cell_formula_units_Z 16
_cell_length_a 8.926246
_cell_length_b 18.983530
_cell_length_c 21.355925
_cell_angle_alpha 160.863131
_cell_angle_beta 129.859218
_cell_angle_gamma 61.026653
_cell_volume 798.309178
_symmetry_space_group_name_H-M "P -1"
_symmetry_group_IT_number 2
_symmetry_cell_setting 'triclinic'
loop_
_space_group_symop_operation_xyz
x,y,z
-x,-y,-z
loop_
_atom_site_type_symbol
_atom_site_label
_atom_site_fract_x
_atom_site_fract_y
_atom_site_fract_z
Si Si1 0.436413 0.003217 0.414483
Si Si2 0.080264 0.093190 0.439315
Si Si3 0.682652 0.952114 0.123572
Si Si4 0.680484 0.492486 0.402168
Si Si5 0.582849 0.756213 0.702750
Si Si6 0.745149 0.534963 0.104586
Si Si7 0.073423 0.754732 0.265578
Si Si8 0.836740 0.146645 0.198015
O O1 0.278734 0.129376 0.474951
O O2 0.668290 0.135908 0.549210
O O3 0.500000 0.000000 0.500000
O O4 0.270244 0.727926 0.117884
O O5 0.155687 0.359531 0.712036
O O6 0.054845 0.928065 0.354295
O O7 0.847446 0.985875 0.252097
O O8 0.594545 0.147961 0.275076
O O9 0.804139 0.998102 0.127885
O O10 0.499875 0.662033 0.829825
O O11 0.646465 0.698741 0.602865
O O12 0.676361 0.274358 0.262265
O O13 0.914517 0.633449 0.549034
O O14 0.500000 0.500000 0.500000
O O15 0.788811 0.968046 0.974994
O O16 0.910144 0.716007 0.247332
O O17 0.500000 0.500000 0.000000
O O18 0.000000 0.500000 0.000000
#
# Coordination Sequence:
#
# PCOD8004015 Si02
#       8
#     2   2   2   2   2   2   2   2
#     4  10  20  39  59  87 111 151 201 242 298 359
#     4  11  24  40  59  89 124 155 195 261 304 353
#     4  11  23  40  55  89 129 152 192 250 312 341
#     4  10  20  38  63  88 116 160 206 236 285 363
#     4  11  18  37  66  87 115 161 201 241 285 357
#     4  12  21  39  66  89 115 156 209 248 292 367
#     4  11  20  40  66  85 111 157 206 245 293 361
#     4  10  20  37  63  88 115 162 203 239 287 356
#
# _framework density 20.042361
#
# number of rings (size 3 to 8) (size 9 to 14) (size 15 to 20)
#    0.000    1.250    7.500    1.500    0.000    1.000 
#    4.500    0.000    0.000    0.000    0.000    0.000 
#    0.000    0.000    0.000    0.000    0.000    0.000 
#
# Total GULP energy -198275.079137 kJ/mol
# GULP energy per Si atom -12392.192446 kJ/mol
# Density = 1.999674 g / cm^3
# Si number density = 20.042361 Si / 1000 Ang^3
#
#
#
# Elastic Constant Matrix: (Units=GPa)
#
#
# Indices 1 2 3 4 5 6 
#
# 1 115.8895 40.1460 51.2931 -11.9179 -1.3462 -10.6249
# 2 40.1460 61.9807 47.5490 -25.7944 -0.0375 -11.9647
# 3 51.2931 47.5490 153.3110 -26.2429 -9.4874 -7.6823
# 4 -11.9179 -25.7944 -26.2429 34.1389 -0.8401 2.0809
# 5 -1.3462 -0.0375 -9.4874 -0.8401 45.2414 0.6087
# 6 -10.6249 -11.9647 -7.6823 2.0809 0.6087 15.2008
#
#
#
# Elastic Compliance Matrix: (Units=1/GPa)
#
#
# Indices 1 2 3 4 5 6 
#
# 1 0.011864 -0.006648 -0.002281 -0.002781 -0.000213 0.002296
# 2 -0.006648 0.035946 -0.004608 0.020139 -0.001011 0.018602
# 3 -0.002281 -0.004608 0.009294 0.002976 0.001946 -0.001009
# 4 -0.002781 0.020139 0.002976 0.045299 0.001276 0.009160
# 5 -0.000213 -0.001011 0.001946 0.001276 0.022542 -0.001038
# 6 0.002296 0.018602 -0.001009 0.009160 -0.001038 0.080310
#
#
# Mechanical properties :
#
#
# Convention : Reuss Voigt Hill
#
# Bulk Modulus (GPa) = 33.30019 67.68416 50.49217
# Shear Modulus (GPa) = 20.63215 31.72908 26.18062
#
# Velocity S-wave (km/s) = 3.21195 3.98314 3.61815
# Velocity P-wave (km/s) = 5.51421 7.41604 6.53468
#
# Compressibility (1/GPa) = 0.03002986
#
# Stress axis : x y z
#
# Youngs Moduli (GPa) = 84.28984 27.81917 107.59265
#
# Poissons Ratio (x) = 0.18495 0.24547
# Poissons Ratio (y) = 0.56039 0.49574
# Poissons Ratio (z) = 0.19230 0.12818
#
# Static dielectric constant tensor:
#      x y z
#    x 4.067130 -0.171790 0.000610 
#    y -0.171790 3.082850 0.284460 
#    z 0.000610 0.284460 2.491190 
# 
# 
# High freq. dielectric constant tensor:
#      x y z
#    x 1.789850 -0.011640 -0.005320 
#    y -0.011640 1.729500 -0.005830 
#    z -0.005320 -0.005830 1.809460 
# 
# From -- ./inp_files/591102.got.cif
#   From: 2010.06.25/outbox.cif.g09.slc.cpg/sg2_296_cif.got.tgz:591102.got - 2010.06.27 13:26:56.
