data_PCOD8004062
_publ_section_title
;
Structure prediction by ZEFSAII (Michael W. Deem and Ramdas Pophale) SiO2 
 PCOD8004062
Probable space group: P -1
;
_chemical_formula_sum "Si O2"
_cell_formula_units_Z 16
_cell_length_a 14.577808
_cell_length_b 9.558083
_cell_length_c 13.175187
_cell_angle_alpha 86.112172
_cell_angle_beta 42.772024
_cell_angle_gamma 54.532453
_cell_volume 773.721073
_symmetry_space_group_name_H-M "P -1"
_symmetry_group_IT_number 2
_symmetry_cell_setting 'triclinic'
loop_
_space_group_symop_operation_xyz
x,y,z
-x,-y,-z
loop_
_atom_site_type_symbol
_atom_site_label
_atom_site_fract_x
_atom_site_fract_y
_atom_site_fract_z
Si Si1 0.619758 0.161928 0.160760
Si Si2 0.016807 0.576177 0.160186
Si Si3 0.538056 0.727837 0.248340
Si Si4 0.167555 0.521802 0.422826
Si Si5 0.001181 0.726338 0.756074
Si Si6 0.341947 0.127861 0.715215
Si Si7 0.545172 0.494557 0.578777
Si Si8 0.144890 0.225381 0.501251
O O1 0.409473 0.382382 0.255238
O O2 0.646298 0.259352 0.222204
O O3 0.580690 0.046598 0.255122
O O4 0.824486 0.982738 0.927391
O O5 0.043357 0.385685 0.147198
O O6 0.895944 0.713524 0.145888
O O7 0.881884 0.740615 0.357838
O O8 0.249846 0.464577 0.985437
O O9 0.641114 0.732150 0.257308
O O10 0.431253 0.670301 0.373405
O O11 0.349907 0.959226 0.327582
O O12 0.196346 0.331503 0.402958
O O13 0.993406 0.709044 0.641907
O O14 0.070072 0.658627 0.388556
O O15 0.237534 0.591351 0.595566
O O16 0.500000 0.000000 0.500000
O O17 0.500000 0.500000 0.500000
#
# Coordination Sequence:
#
# PCOD8004062 Si02
#       8
#     2   2   2   2   2   2   2   2
#     4  11  22  40  61  87 121 167 202 241 304 367
#     4  11  22  36  64  95 120 157 209 253 297 368
#     4  12  23  39  59  95 124 157 204 256 301 355
#     4   9  19  39  63  93 119 156 207 259 300 359
#     4  10  21  41  62  87 121 168 204 243 310 364
#     4  12  20  37  63  87 124 160 198 247 303 360
#     4  11  26  40  57  89 133 163 199 246 305 368
#     4  10  20  37  63  92 126 152 201 265 309 340
#
# _framework density 20.679286000000001
#
# number of rings (size 3 to 8) (size 9 to 14) (size 15 to 20)
#    0.000    1.250    3.750    3.375    1.750    2.500 
#    0.000    6.250    0.000    4.500    0.000    0.000 
#    0.000    0.000    0.000    0.000    0.000    0.000 
#
# Total GULP energy -198331.290939 kJ/mol
# GULP energy per Si atom -12395.705684 kJ/mol
# Density = 2.063222 g / cm^3
# Si number density = 20.679286 Si / 1000 Ang^3
#
#
#
# Elastic Constant Matrix: (Units=GPa)
#
#
# Indices 1 2 3 4 5 6 
#
# 1 84.2528 29.1551 11.9339 10.9868 -1.6064 -10.4983
# 2 29.1551 65.0130 30.3781 7.2725 -3.3388 -0.6549
# 3 11.9339 30.3781 86.5412 20.6738 -3.4527 -2.1525
# 4 10.9868 7.2725 20.6738 31.2898 5.1215 -4.2697
# 5 -1.6064 -3.3388 -3.4527 5.1215 27.3646 10.0597
# 6 -10.4983 -0.6549 -2.1525 -4.2697 10.0597 32.6737
#
#
#
# Elastic Compliance Matrix: (Units=1/GPa)
#
#
# Indices 1 2 3 4 5 6 
#
# 1 0.015151 -0.006996 0.001372 -0.003860 -0.000738 0.004541
# 2 -0.006996 0.021701 -0.006940 0.001271 0.002139 -0.002763
# 3 0.001372 -0.006940 0.016423 -0.010474 0.003677 -0.001117
# 4 -0.003860 0.001271 -0.010474 0.042949 -0.012172 0.007455
# 5 -0.000738 0.002139 0.003677 -0.012172 0.045185 -0.015454
# 6 0.004541 -0.002763 -0.001117 0.007455 -0.015454 0.037668
#
#
# Mechanical properties :
#
#
# Convention : Reuss Voigt Hill
#
# Bulk Modulus (GPa) = 35.52667 42.08235 38.80451
# Shear Modulus (GPa) = 23.40962 29.22161 26.31561
#
# Velocity S-wave (km/s) = 3.36822 3.76318 3.57116
# Velocity P-wave (km/s) = 5.68715 6.26707 5.98414
#
# Compressibility (1/GPa) = 0.02814787
#
# Stress axis : x y z
#
# Youngs Moduli (GPa) = 66.00369 46.07979 60.88964
#
# Poissons Ratio (x) = 0.32237 -0.08354
# Poissons Ratio (y) = 0.46175 0.42257
# Poissons Ratio (z) = -0.09056 0.31979
#
# Static dielectric constant tensor:
#      x y z
#    x 4.061910 -0.085990 0.257290 
#    y -0.085990 3.695170 0.262680 
#    z 0.257290 0.262680 3.651180 
# 
# 
# High freq. dielectric constant tensor:
#      x y z
#    x 1.809120 -0.003170 0.006140 
#    y -0.003170 1.780840 0.016800 
#    z 0.006140 0.016800 1.812230 
# 
# From -- ./inp_files/207547.got.cif
#   From: 2010.06.25/outbox.cif.g09.slc.cpg/sg2_104_cif.got.tgz:207547.got - 2010.06.27 13:26:56.
