data_PCOD8004499
_publ_section_title
;
Structure prediction by ZEFSAII (Michael W. Deem and Ramdas Pophale) SiO2 
 PCOD8004499
Probable space group: P -1
;
_chemical_formula_sum "Si O2"
_cell_formula_units_Z 16
_cell_length_a 12.837183
_cell_length_b 27.644896
_cell_length_c 24.830639
_cell_angle_alpha 9.389844
_cell_angle_beta 34.058087
_cell_angle_gamma 34.569798
_cell_volume 803.372694
_symmetry_space_group_name_H-M "P -1"
_symmetry_group_IT_number 2
_symmetry_cell_setting 'triclinic'
loop_
_space_group_symop_operation_xyz
x,y,z
-x,-y,-z
loop_
_atom_site_type_symbol
_atom_site_label
_atom_site_fract_x
_atom_site_fract_y
_atom_site_fract_z
Si Si1 0.549367 0.447415 0.662290
Si Si2 0.239883 0.227053 0.166006
Si Si3 0.092573 0.901995 0.486825
Si Si4 0.687504 0.976618 0.837850
Si Si5 0.348087 0.708127 0.094315
Si Si6 0.875106 0.791963 0.248279
Si Si7 0.003067 0.068656 0.794909
Si Si8 0.849343 0.698606 0.181481
O O1 0.644792 0.261377 0.876305
O O2 0.701346 0.616744 0.379107
O O3 0.394549 0.684385 0.492846
O O4 0.463420 0.219808 0.908642
O O5 0.125579 0.053010 0.451743
O O6 0.220176 0.069337 0.290221
O O7 0.153827 0.558267 0.836566
O O8 0.457319 0.225149 0.090064
O O9 0.127888 0.031086 0.270475
O O10 0.740473 0.842759 0.019717
O O11 0.303222 0.360663 0.481368
O O12 0.197888 0.953930 0.864946
O O13 0.000000 0.500000 0.500000
O O14 0.000000 0.000000 0.000000
O O15 0.831651 0.973850 0.011511
O O16 0.988391 0.422756 0.406762
O O17 0.980799 0.934667 0.892351
#
# Coordination Sequence:
#
# PCOD8004499 Si02
#       8
#     2   2   2   2   2   2   2   2
#     4  12  24  37  61  89 115 158 198 250 289 346
#     4  10  21  36  61  90 119 142 188 256 304 358
#     4  10  20  38  59  89 116 149 191 243 314 346
#     4  12  23  41  60  84 119 161 200 238 293 352
#     4  11  22  38  62  89 122 150 196 250 304 347
#     4  10  21  34  52  77 114 154 186 227 279 340
#     4  11  24  37  56  84 118 161 196 238 288 346
#     4  12  25  40  55  81 125 164 203 231 274 359
#
# _framework density 19.916035999999998
#
# number of rings (size 3 to 8) (size 9 to 14) (size 15 to 20)
#    0.000    1.000    3.750    3.750    1.750    4.000 
#    0.000    0.000    0.000    1.500    0.000    0.000 
#    0.000    0.000    0.000    0.000    0.000    0.000 
#
# Total GULP energy -198296.117518 kJ/mol
# GULP energy per Si atom -12393.507345 kJ/mol
# Density = 1.987071 g / cm^3
# Si number density = 19.916036 Si / 1000 Ang^3
#
#
#
# Elastic Constant Matrix: (Units=GPa)
#
#
# Indices 1 2 3 4 5 6 
#
# 1 137.9421 42.1001 46.2540 -9.7644 -10.8890 -0.3566
# 2 42.1001 94.5197 27.3691 12.3862 -5.3266 -9.1946
# 3 46.2540 27.3691 70.3522 -15.2537 -22.3014 -0.3109
# 4 -9.7644 12.3862 -15.2537 36.1845 3.7142 -10.7315
# 5 -10.8890 -5.3266 -22.3014 3.7142 39.2012 -2.1751
# 6 -0.3566 -9.1946 -0.3109 -10.7315 -2.1751 29.8804
#
#
#
# Elastic Compliance Matrix: (Units=1/GPa)
#
#
# Indices 1 2 3 4 5 6 
#
# 1 0.010051 -0.003243 -0.005271 0.001556 -0.000819 -0.000434
# 2 -0.003243 0.014766 -0.005699 -0.007730 -0.001317 0.001574
# 3 -0.005271 -0.005699 0.026078 0.011320 0.011712 0.003373
# 4 0.001556 -0.007730 0.011320 0.038704 0.002813 0.011863
# 5 -0.000819 -0.001317 0.011712 0.002813 0.031667 0.003022
# 6 -0.000434 0.001574 0.003373 0.011863 0.003022 0.038461
#
#
# Mechanical properties :
#
#
# Convention : Reuss Voigt Hill
#
# Bulk Modulus (GPa) = 44.50216 59.36225 51.93221
# Shear Modulus (GPa) = 25.55678 33.52595 29.54137
#
# Velocity S-wave (km/s) = 3.58610 4.10733 3.85554
# Velocity P-wave (km/s) = 6.28810 7.23634 6.77882
#
# Compressibility (1/GPa) = 0.02247082
#
# Stress axis : x y z
#
# Youngs Moduli (GPa) = 99.49438 67.72207 38.34581
#
# Poissons Ratio (x) = 0.21961 0.20210
# Poissons Ratio (y) = 0.32264 0.21853
# Poissons Ratio (z) = 0.52439 0.38595
#
# Static dielectric constant tensor:
#      x y z
#    x 3.721040 0.050700 -0.408990 
#    y 0.050700 3.999550 0.001440 
#    z -0.408990 0.001440 4.178680 
# 
# 
# High freq. dielectric constant tensor:
#      x y z
#    x 1.767650 0.005170 -0.026340 
#    y 0.005170 1.768830 -0.019810 
#    z -0.026340 -0.019810 1.781530 
# 
# From -- ./inp_files/531779.got.cif
#   From: 2010.06.25/outbox.cif.g09.slc.cpg/sg2_266_cif.got.tgz:531779.got - 2010.06.27 13:26:56.
