data_PCOD8004818
_publ_section_title
;
Structure prediction by ZEFSAII (Michael W. Deem and Ramdas Pophale) SiO2 
 PCOD8004818
Probable space group: P -1
;
_chemical_formula_sum "Si O2"
_cell_formula_units_Z 12
_cell_length_a 4.833207
_cell_length_b 13.579183
_cell_length_c 21.478156
_cell_angle_alpha 21.872726
_cell_angle_beta 113.087147
_cell_angle_gamma 110.578053
_cell_volume 482.776080
_symmetry_space_group_name_H-M "P -1"
_symmetry_group_IT_number 2
_symmetry_cell_setting 'triclinic'
loop_
_space_group_symop_operation_xyz
x,y,z
-x,-y,-z
loop_
_atom_site_type_symbol
_atom_site_label
_atom_site_fract_x
_atom_site_fract_y
_atom_site_fract_z
Si Si1 0.738981 0.531532 0.230465
Si Si2 0.939789 0.793381 0.456604
Si Si3 0.243772 0.902549 0.946959
Si Si4 0.796242 0.227607 0.790966
Si Si5 0.357396 0.129012 0.224700
Si Si6 0.503570 0.400978 0.957206
O O1 0.981760 0.754679 0.139510
O O2 0.742774 0.489806 0.180073
O O3 0.814152 0.261911 0.433237
O O4 0.407276 0.660879 0.143392
O O5 0.789787 0.516458 0.587194
O O6 0.691394 0.002338 0.336761
O O7 0.111261 0.910700 0.343783
O O8 0.918129 0.001198 0.885341
O O9 0.460148 0.155836 0.822106
O O10 0.244314 0.797594 0.936512
O O11 0.317605 0.361341 0.135930
O O12 0.316486 0.245407 0.083599
#
# Coordination Sequence:
#
# PCOD8004818 Si02
#       6
#     2   2   2   2   2   2
#     4   8  21  39  63  96 111 167 197 250 300 351
#     4  10  24  38  67  86 128 157 194 259 308 336
#     4  10  20  38  62  91 118 157 206 238 299 365
#     4  10  20  38  62  91 123 150 198 257 296 353
#     4  11  23  47  56  91 127 158 206 245 300 364
#     4   9  24  41  67  86 119 172 198 248 295 365
#
# _framework density 24.856245000000001
#
# number of rings (size 3 to 8) (size 9 to 14) (size 15 to 20)
#    2.000    0.333    0.000    2.000    0.000    8.000 
#    0.000    5.000    0.000    0.000    0.000    0.000 
#    0.000    0.000    0.000    0.000    0.000    0.000 
#
# Total GULP energy -148678.335396 kJ/mol
# GULP energy per Si atom -12389.861283 kJ/mol
# Density = 2.479967 g / cm^3
# Si number density = 24.856245 Si / 1000 Ang^3
#
#
#
# Elastic Constant Matrix: (Units=GPa)
#
#
# Indices 1 2 3 4 5 6 
#
# 1 68.9757 -6.3398 21.7651 5.9556 -1.4055 -10.6255
# 2 -6.3398 81.8636 7.0769 -4.9846 8.3696 -21.7502
# 3 21.7651 7.0769 86.6375 12.5072 0.4527 -9.8454
# 4 5.9556 -4.9846 12.5072 26.2873 -2.9022 -0.3237
# 5 -1.4055 8.3696 0.4527 -2.9022 19.3096 -1.5719
# 6 -10.6255 -21.7502 -9.8454 -0.3237 -1.5719 18.9178
#
#
#
# Elastic Compliance Matrix: (Units=1/GPa)
#
#
# Indices 1 2 3 4 5 6 
#
# 1 0.018486 0.005664 -0.003172 -0.001418 -0.000009 0.015219
# 2 0.005664 0.020315 -0.000469 0.002458 -0.005909 0.025845
# 3 -0.003172 -0.000469 0.013774 -0.005962 -0.000866 0.004673
# 4 -0.001418 0.002458 -0.005962 0.042255 0.005329 0.000093
# 5 -0.000009 -0.005909 -0.000866 0.005329 0.054958 -0.002592
# 6 0.015219 0.025845 0.004673 0.000093 -0.002592 0.093341
#
#
# Mechanical properties :
#
#
# Convention : Reuss Voigt Hill
#
# Bulk Modulus (GPa) = 17.66175 31.38679 24.52427
# Shear Modulus (GPa) = 19.38301 27.23459 23.30880
#
# Velocity S-wave (km/s) = 2.79553 3.31370 3.06558
# Velocity P-wave (km/s) = 4.18819 5.22452 4.73479
#
# Compressibility (1/GPa) = 0.05661954
#
# Stress axis : x y z
#
# Youngs Moduli (GPa) = 54.09428 49.22444 72.60114
#
# Poissons Ratio (x) = -0.27881 0.23033
# Poissons Ratio (y) = -0.30639 0.03407
# Poissons Ratio (z) = 0.17161 0.02310
#
# Static dielectric constant tensor:
#      x y z
#    x 4.073020 -0.030520 0.021280 
#    y -0.030520 4.169230 0.049350 
#    z 0.021280 0.049350 4.437550 
# 
# 
# High freq. dielectric constant tensor:
#      x y z
#    x 1.982590 -0.002330 -0.002900 
#    y -0.002330 1.977380 0.004410 
#    z -0.002900 0.004410 1.983530 
# 
# From -- ./inp_files/485483.got.cif
#   From: 2010.06.25/outbox.cif.g09.slc.cpg/sg2_243_cif.got.tgz:485483.got - 2010.06.27 13:26:56.
