data_PCOD8004384
_publ_section_title
;
Structure prediction by ZEFSAII (Michael W. Deem and Ramdas Pophale) SiO2 
 PCOD8004384
Probable space group: P -1
;
_chemical_formula_sum "Si O2"
_cell_formula_units_Z 16
_cell_length_a 17.107151
_cell_length_b 29.025107
_cell_length_c 5.098101
_cell_angle_alpha 100.065461
_cell_angle_beta 101.309378
_cell_angle_gamma 17.676760
_cell_volume 753.104435
_symmetry_space_group_name_H-M "P -1"
_symmetry_group_IT_number 2
_symmetry_cell_setting 'triclinic'
loop_
_space_group_symop_operation_xyz
x,y,z
-x,-y,-z
loop_
_atom_site_type_symbol
_atom_site_label
_atom_site_fract_x
_atom_site_fract_y
_atom_site_fract_z
Si Si1 0.140076 0.865402 0.190830
Si Si2 0.297738 0.309642 0.775261
Si Si3 0.982045 0.343650 0.961056
Si Si4 0.182132 0.946507 0.341238
Si Si5 0.946214 0.591207 0.797845
Si Si6 0.467899 0.596731 0.018744
Si Si7 0.197177 0.178623 0.455728
Si Si8 0.736693 0.373930 0.336120
O O1 0.269395 0.843373 0.320501
O O2 0.343075 0.709981 0.202981
O O3 0.907610 0.986014 0.363747
O O4 0.050160 0.917336 0.881998
O O5 0.588536 0.149106 0.703712
O O6 0.135745 0.370834 0.517806
O O7 0.189971 0.422172 0.854902
O O8 0.284479 0.291497 0.030628
O O9 0.964290 0.406204 0.109759
O O10 0.132622 0.229581 0.167756
O O11 0.684409 0.494220 0.853846
O O12 0.133975 0.254751 0.698627
O O13 0.650643 0.464340 0.190126
O O14 0.240997 0.689937 0.847916
O O15 0.023232 0.229648 0.480034
O O16 0.500000 0.000000 0.500000
O O17 0.500000 0.500000 0.500000
#
# Coordination Sequence:
#
# PCOD8004384 Si02
#       8
#     2   2   2   2   2   2   2   2
#     4  10  22  37  60  89 118 159 201 243 301 361
#     4  10  20  38  57  82 125 157 194 247 299 348
#     4  11  22  41  65  88 118 156 211 250 292 370
#     4  10  21  39  56  85 129 157 193 247 303 362
#     4  10  21  36  60  87 111 157 206 244 290 349
#     4  10  22  39  65  91 117 158 212 253 301 360
#     4  11  24  43  63  89 126 160 194 254 319 365
#     4  10  21  42  64  90 123 157 205 264 304 361
#
# _framework density 21.245394000000001
#
# number of rings (size 3 to 8) (size 9 to 14) (size 15 to 20)
#    0.000    1.750    1.250    2.625    1.750    0.000 
#    6.750    5.000    0.000    0.000    0.000    0.000 
#    0.000    0.000    0.000    0.000    0.000    0.000 
#
# Total GULP energy -198303.512291 kJ/mol
# GULP energy per Si atom -12393.969518 kJ/mol
# Density = 2.119704 g / cm^3
# Si number density = 21.245394 Si / 1000 Ang^3
#
#
#
# Elastic Constant Matrix: (Units=GPa)
#
#
# Indices 1 2 3 4 5 6 
#
# 1 98.1172 52.6515 14.6979 5.1192 11.1388 -6.8246
# 2 52.6515 84.0004 20.7085 18.2340 16.5951 -8.5207
# 3 14.6979 20.7085 81.1085 13.2972 -0.5969 3.5747
# 4 5.1192 18.2340 13.2972 26.9400 -5.4036 3.9876
# 5 11.1388 16.5951 -0.5969 -5.4036 33.2451 7.6506
# 6 -6.8246 -8.5207 3.5747 3.9876 7.6506 34.7090
#
#
#
# Elastic Compliance Matrix: (Units=1/GPa)
#
#
# Indices 1 2 3 4 5 6 
#
# 1 0.015866 -0.011141 -0.000865 0.005245 0.001171 -0.000387
# 2 -0.011141 0.028351 -0.002416 -0.020795 -0.016378 0.011017
# 3 -0.000865 -0.002416 0.013938 -0.004485 0.001480 -0.002010
# 4 0.005245 -0.020795 -0.004485 0.058991 0.021618 -0.015154
# 5 0.001171 -0.016378 0.001480 0.021618 0.045173 -0.016383
# 6 -0.000387 0.011017 -0.002010 -0.015154 -0.016383 0.036999
#
#
# Mechanical properties :
#
#
# Convention : Reuss Voigt Hill
#
# Bulk Modulus (GPa) = 34.11794 48.81577 41.46685
# Shear Modulus (GPa) = 21.01442 30.65669 25.83556
#
# Velocity S-wave (km/s) = 3.14845 3.80278 3.49098
# Velocity P-wave (km/s) = 5.41395 6.50450 5.98412
#
# Compressibility (1/GPa) = 0.02931010
#
# Stress axis : x y z
#
# Youngs Moduli (GPa) = 63.02635 35.27256 71.74811
#
# Poissons Ratio (x) = 0.39297 0.06205
# Poissons Ratio (y) = 0.70217 0.17338
# Poissons Ratio (z) = 0.05451 0.08523
#
# Static dielectric constant tensor:
#      x y z
#    x 3.730170 0.067670 0.113530 
#    y 0.067670 3.499050 0.088040 
#    z 0.113530 0.088040 3.920050 
# 
# 
# High freq. dielectric constant tensor:
#      x y z
#    x 1.839760 -0.007040 -0.000890 
#    y -0.007040 1.808670 0.013740 
#    z -0.000890 0.013740 1.838860 
# 
# From -- ./inp_files/71669.got.cif
#   From: 2010.06.25/outbox.cif.g09.slc.cpg/sg2_36_cif.got.tgz:71669.got - 2010.06.27 13:26:56.
