data_PCOD8004871
_publ_section_title
;
Structure prediction by ZEFSAII (Michael W. Deem and Ramdas Pophale) SiO2 
 PCOD8004871
Probable space group: P -1
;
_chemical_formula_sum "Si O2"
_cell_formula_units_Z 16
_cell_length_a 11.841531
_cell_length_b 7.983206
_cell_length_c 11.035258
_cell_angle_alpha 123.744534
_cell_angle_beta 123.679555
_cell_angle_gamma 90.235904
_cell_volume 644.215908
_symmetry_space_group_name_H-M "P -1"
_symmetry_group_IT_number 2
_symmetry_cell_setting 'triclinic'
loop_
_space_group_symop_operation_xyz
x,y,z
-x,-y,-z
loop_
_atom_site_type_symbol
_atom_site_label
_atom_site_fract_x
_atom_site_fract_y
_atom_site_fract_z
Si Si1 0.447342 0.995900 0.680763
Si Si2 0.883264 0.720268 0.542813
Si Si3 0.772827 0.113389 0.007330
Si Si4 0.043384 0.848345 0.086208
Si Si5 0.543943 0.568660 0.191657
Si Si6 0.818293 0.362779 0.743709
Si Si7 0.986310 0.420722 0.636288
Si Si8 0.372919 0.076624 0.925208
O O1 0.357251 0.771708 0.456202
O O2 0.600685 0.988939 0.809043
O O3 0.489196 0.219009 0.712540
O O4 0.342123 0.012063 0.737403
O O5 0.715635 0.638687 0.360018
O O6 0.996703 0.760056 0.512937
O O7 0.884748 0.528568 0.556078
O O8 0.951848 0.957119 0.747672
O O9 0.885387 0.049272 0.964368
O O10 0.842389 0.383598 0.156575
O O11 0.773622 0.047642 0.123698
O O12 0.153467 0.741630 0.158009
O O13 0.874208 0.634161 0.892945
O O14 0.500000 0.500000 0.000000
O O15 0.433880 0.340052 0.103452
O O16 0.913882 0.308379 0.674983
O O17 0.500000 0.000000 0.000000
#
# Coordination Sequence:
#
# PCOD8004871 Si02
#       8
#     2   2   2   2   2   2   2   2
#     4  10  20  38  69  94 132 167 221 269 323 377
#     4  11  22  41  68  95 131 174 213 276 321 388
#     4  10  22  42  65  99 129 178 208 271 323 396
#     4  10  23  45  65  91 142 169 220 260 333 391
#     4  10  20  38  62  98 132 162 210 277 323 372
#     4  10  22  42  66  97 126 184 209 273 320 392
#     4  10  24  39  69  96 131 167 226 263 331 376
#     4   9  19  34  64  93 131 164 214 268 322 372
#
# _framework density 24.836395
#
# number of rings (size 3 to 8) (size 9 to 14) (size 15 to 20)
#    0.000    2.000    1.250    2.250    7.000    3.000 
#    0.000    5.625    0.000    0.000    0.000    0.000 
#    0.000    0.000    0.000    0.000    0.000    0.000 
#
# Total GULP energy -198255.418155 kJ/mol
# GULP energy per Si atom -12390.963635 kJ/mol
# Density = 2.477987 g / cm^3
# Si number density = 24.836395 Si / 1000 Ang^3
#
#
#
# Elastic Constant Matrix: (Units=GPa)
#
#
# Indices 1 2 3 4 5 6 
#
# 1 72.6754 4.9830 29.5713 13.7193 -19.5822 2.0438
# 2 4.9830 43.5973 12.9792 11.6908 -6.5255 7.4132
# 3 29.5713 12.9792 186.4669 8.9185 2.7400 -10.9417
# 4 13.7193 11.6908 8.9185 36.9072 -11.2637 0.3754
# 5 -19.5822 -6.5255 2.7400 -11.2637 38.3238 -0.8112
# 6 2.0438 7.4132 -10.9417 0.3754 -0.8112 28.6278
#
#
#
# Elastic Compliance Matrix: (Units=1/GPa)
#
#
# Indices 1 2 3 4 5 6 
#
# 1 0.017978 0.001590 -0.003054 -0.003830 0.008495 -0.002572
# 2 0.001590 0.027303 -0.002297 -0.007622 0.003219 -0.007871
# 3 -0.003054 -0.002297 0.006248 -0.000429 -0.002458 0.003137
# 4 -0.003830 -0.007622 -0.000429 0.033006 0.006516 0.001835
# 5 0.008495 0.003219 -0.002458 0.006516 0.033041 -0.001529
# 6 -0.002572 -0.007871 0.003137 0.001835 -0.001529 0.038284
#
#
# Mechanical properties :
#
#
# Convention : Reuss Voigt Hill
#
# Bulk Modulus (GPa) = 22.72393 44.20074 33.46234
# Shear Modulus (GPa) = 28.08166 37.78550 32.93358
#
# Velocity S-wave (km/s) = 3.36619 3.90471 3.64541
# Velocity P-wave (km/s) = 4.92723 6.17774 5.58758
#
# Compressibility (1/GPa) = 0.04400646
#
# Stress axis : x y z
#
# Youngs Moduli (GPa) = 55.62407 36.62545 160.05471
#
# Poissons Ratio (x) = -0.05824 0.48886
# Poissons Ratio (y) = -0.08846 0.36769
# Poissons Ratio (z) = 0.16989 0.08414
#
# Static dielectric constant tensor:
#      x y z
#    x 4.285430 0.421360 -0.135180 
#    y 0.421360 4.973390 -0.060070 
#    z -0.135180 -0.060070 4.846310 
# 
# 
# High freq. dielectric constant tensor:
#      x y z
#    x 1.957680 0.013560 0.000820 
#    y 0.013560 1.982470 -0.006820 
#    z 0.000820 -0.006820 2.013410 
# 
# From -- ./inp_files/420111.got.cif
#   From: 2010.06.25/outbox.cif.g09.slc.cpg/sg2_211_cif.got.tgz:420111.got - 2010.06.27 13:26:56.
