data_PCOD8004675
_publ_section_title
;
Structure prediction by ZEFSAII (Michael W. Deem and Ramdas Pophale) SiO2 
 PCOD8004675
Probable space group: P -1
;
_chemical_formula_sum "Si O2"
_cell_formula_units_Z 16
_cell_length_a 8.708936
_cell_length_b 19.014467
_cell_length_c 23.736846
_cell_angle_alpha 15.027181
_cell_angle_beta 39.618662
_cell_angle_gamma 41.464842
_cell_volume 649.537689
_symmetry_space_group_name_H-M "P -1"
_symmetry_group_IT_number 2
_symmetry_cell_setting 'triclinic'
loop_
_space_group_symop_operation_xyz
x,y,z
-x,-y,-z
loop_
_atom_site_type_symbol
_atom_site_label
_atom_site_fract_x
_atom_site_fract_y
_atom_site_fract_z
Si Si1 0.495728 0.626682 0.139616
Si Si2 0.225421 0.781068 0.200492
Si Si3 0.045543 0.618574 0.769100
Si Si4 0.989312 0.410191 0.327338
Si Si5 0.261025 0.942589 0.871863
Si Si6 0.463389 0.351723 0.683705
Si Si7 0.373961 0.103035 0.512285
Si Si8 0.606018 0.900396 0.705353
O O1 0.331259 0.574639 0.282188
O O2 0.781735 0.647118 0.060290
O O3 0.471670 0.390292 0.283253
O O4 0.396816 0.903912 0.923306
O O5 0.295809 0.687629 0.316260
O O6 0.931761 0.801875 0.266431
O O7 0.344658 0.063514 0.931240
O O8 0.954043 0.642413 0.712870
O O9 0.792790 0.637631 0.861671
O O10 0.220417 0.861763 0.546272
O O11 0.094738 0.161775 0.528303
O O12 0.705315 0.441891 0.392042
O O13 0.108904 0.688159 0.095094
O O14 0.470732 0.982433 0.736682
O O15 0.500000 0.500000 0.500000
O O16 0.500000 0.000000 0.500000
O O17 0.410440 0.880526 0.724516
#
# Coordination Sequence:
#
# PCOD8004675 Si02
#       8
#     2   2   2   2   2   2   2   2
#     4  10  21  40  62  86 127 169 204 261 330 371
#     4  10  21  42  64  91 138 166 211 272 316 385
#     4  10  20  39  61  84 125 165 207 265 310 382
#     4  10  20  39  61  87 125 165 206 259 323 380
#     4  10  23  39  61  91 124 166 208 261 323 380
#     4  10  22  38  65  98 128 170 215 264 326 382
#     4  10  20  38  61  88 121 164 205 262 320 377
#     4  10  22  38  60  91 122 160 216 261 318 379
#
# _framework density 24.632902999999999
#
# number of rings (size 3 to 8) (size 9 to 14) (size 15 to 20)
#    0.000    2.000    2.500    0.375    1.750    2.000 
#    0.000    3.750    0.000    0.000    0.000    0.000 
#    0.000    0.000    0.000    0.000    0.000    0.000 
#
# Total GULP energy -198219.849195 kJ/mol
# GULP energy per Si atom -12388.740575 kJ/mol
# Density = 2.457684 g / cm^3
# Si number density = 24.632903 Si / 1000 Ang^3
#
#
#
# Elastic Constant Matrix: (Units=GPa)
#
#
# Indices 1 2 3 4 5 6 
#
# 1 131.2161 48.1894 30.0520 -8.9562 52.1232 -21.6170
# 2 48.1894 154.0420 25.4532 0.9838 20.1625 -20.4461
# 3 30.0520 25.4532 43.7521 13.4617 23.6536 -6.2905
# 4 -8.9562 0.9838 13.4617 25.9026 1.8174 10.7786
# 5 52.1232 20.1625 23.6536 1.8174 38.7521 -12.3927
# 6 -21.6170 -20.4461 -6.2905 10.7786 -12.3927 61.2536
#
#
#
# Elastic Compliance Matrix: (Units=1/GPa)
#
#
# Indices 1 2 3 4 5 6 
#
# 1 0.018966 -0.002724 -0.001621 0.009543 -0.023834 -0.000884
# 2 -0.002724 0.007880 -0.003666 -0.000263 0.002397 0.001824
# 3 -0.001621 -0.003666 0.045509 -0.023646 -0.021737 0.002641
# 4 0.009543 -0.000263 -0.023646 0.058829 -0.004345 -0.010379
# 5 -0.023834 0.002397 -0.021737 -0.004345 0.071831 0.005454
# 6 -0.000884 0.001824 0.002641 -0.010379 0.005454 0.019823
#
#
# Mechanical properties :
#
#
# Convention : Reuss Voigt Hill
#
# Bulk Modulus (GPa) = 17.75167 59.59996 38.67581
# Shear Modulus (GPa) = 19.40725 40.20271 29.80498
#
# Velocity S-wave (km/s) = 2.80993 4.04428 3.48223
# Velocity P-wave (km/s) = 4.21304 6.78646 5.64826
#
# Compressibility (1/GPa) = 0.05633274
#
# Stress axis : x y z
#
# Youngs Moduli (GPa) = 52.72635 126.91025 21.97385
#
# Poissons Ratio (x) = 0.34571 0.03561
# Poissons Ratio (y) = 0.14363 0.08055
# Poissons Ratio (z) = 0.08545 0.46525
#
# Static dielectric constant tensor:
#      x y z
#    x 5.041420 -0.699280 0.577920 
#    y -0.699280 5.314090 -0.511630 
#    z 0.577920 -0.511630 4.100720 
# 
# 
# High freq. dielectric constant tensor:
#      x y z
#    x 1.997080 -0.009910 0.024270 
#    y -0.009910 1.996450 -0.019120 
#    z 0.024270 -0.019120 1.936220 
# 
# From -- ./inp_files/201782.got.cif
#   From: 2010.06.25/outbox.cif.g09.slc.cpg/sg2_101_cif.got.tgz:201782.got - 2010.06.27 13:26:56.
