data_PCOD8004024
_publ_section_title
;
Structure prediction by ZEFSAII (Michael W. Deem and Ramdas Pophale) SiO2 
 PCOD8004024
Probable space group: P -1
;
_chemical_formula_sum "Si O2"
_cell_formula_units_Z 16
_cell_length_a 14.225040
_cell_length_b 12.763641
_cell_length_c 8.829369
_cell_angle_alpha 71.068990
_cell_angle_beta 31.479170
_cell_angle_gamma 69.714495
_cell_volume 783.840033
_symmetry_space_group_name_H-M "P -1"
_symmetry_group_IT_number 2
_symmetry_cell_setting 'triclinic'
loop_
_space_group_symop_operation_xyz
x,y,z
-x,-y,-z
loop_
_atom_site_type_symbol
_atom_site_label
_atom_site_fract_x
_atom_site_fract_y
_atom_site_fract_z
Si Si1 0.073167 0.829056 0.640345
Si Si2 0.468549 0.017007 0.291107
Si Si3 0.510035 0.163322 0.890817
Si Si4 0.096651 0.770594 0.297882
Si Si5 0.777000 0.636386 0.836545
Si Si6 0.212013 0.978277 0.919028
Si Si7 0.697869 0.452183 0.807751
Si Si8 0.006259 0.589671 0.822640
O O1 0.274200 0.848097 0.398936
O O2 0.049983 0.838991 0.486168
O O3 0.035070 0.707098 0.804288
O O4 0.934996 0.920648 0.873015
O O5 0.282663 0.004127 0.642551
O O6 0.545591 0.904895 0.146137
O O7 0.620702 0.043648 0.185496
O O8 0.429266 0.117528 0.177408
O O9 0.421237 0.290984 0.932645
O O10 0.278955 0.678489 0.110101
O O11 0.928022 0.704436 0.521551
O O12 0.125530 0.861678 0.087506
O O13 0.766757 0.522436 0.816246
O O14 0.825375 0.606944 0.958935
O O15 0.824731 0.460676 0.486884
O O16 0.500000 0.500000 0.000000
O O17 0.000000 0.500000 0.000000
#
# Coordination Sequence:
#
# PCOD8004024 Si02
#       8
#     2   2   2   2   2   2   2   2
#     4  10  21  38  64  87 126 162 202 250 312 368
#     4  10  24  38  60  86 128 156 208 250 308 361
#     4  11  22  41  60  90 122 164 202 248 314 376
#     4  10  20  37  63  89 119 166 205 248 311 367
#     4  10  21  40  67  86 122 168 206 249 310 372
#     4  11  22  41  60  92 122 162 208 257 302 361
#     4  10  21  41  63  90 122 164 209 251 305 372
#     4  10  22  42  63  93 121 158 207 257 311 360
#
# _framework density 20.412330999999998
#
# number of rings (size 3 to 8) (size 9 to 14) (size 15 to 20)
#    0.000    2.000    1.250    4.875    3.500    1.500 
#    9.000    1.250    0.000    0.000    0.000    0.000 
#    0.000    0.000    0.000    0.000    0.000    0.000 
#
# Total GULP energy -198386.246973 kJ/mol
# GULP energy per Si atom -12399.140436 kJ/mol
# Density = 2.036587 g / cm^3
# Si number density = 20.412331 Si / 1000 Ang^3
#
#
#
# Elastic Constant Matrix: (Units=GPa)
#
#
# Indices 1 2 3 4 5 6 
#
# 1 68.1889 33.3032 38.6066 -4.8968 11.9056 -0.0205
# 2 33.3032 116.3562 56.5578 -2.2561 28.6978 -8.4028
# 3 38.6066 56.5578 95.3340 -0.5214 17.0507 -20.0152
# 4 -4.8968 -2.2561 -0.5214 41.5179 -5.4288 -5.2275
# 5 11.9056 28.6978 17.0507 -5.4288 22.9389 -3.6092
# 6 -0.0205 -8.4028 -20.0152 -5.2275 -3.6092 29.7689
#
#
#
# Elastic Compliance Matrix: (Units=1/GPa)
#
#
# Indices 1 2 3 4 5 6 
#
# 1 0.020699 -0.001532 -0.008127 0.001026 -0.003507 -0.006127
# 2 -0.001532 0.015594 -0.006442 -0.001573 -0.014609 -0.001978
# 3 -0.008127 -0.006442 0.020213 0.000313 -0.000829 0.011721
# 4 0.001026 -0.001573 0.000313 0.025859 0.008157 0.005297
# 5 -0.003507 -0.014609 -0.000829 0.008157 0.067004 0.004872
# 6 -0.006127 -0.001978 0.011721 0.005297 0.004872 0.042431
#
#
# Mechanical properties :
#
#
# Convention : Reuss Voigt Hill
#
# Bulk Modulus (GPa) = 41.14517 59.64604 50.39561
# Shear Modulus (GPa) = 21.54223 28.93923 25.24073
#
# Velocity S-wave (km/s) = 3.25215 3.76936 3.52027
# Velocity P-wave (km/s) = 5.85685 6.94465 6.42382
#
# Compressibility (1/GPa) = 0.02430419
#
# Stress axis : x y z
#
# Youngs Moduli (GPa) = 48.31229 64.12847 49.47277
#
# Poissons Ratio (x) = 0.09822 0.40207
# Poissons Ratio (y) = 0.07399 0.31870
# Poissons Ratio (z) = 0.39264 0.41311
#
# Static dielectric constant tensor:
#      x y z
#    x 3.691720 0.080340 -0.042540 
#    y 0.080340 3.842970 -0.049760 
#    z -0.042540 -0.049760 3.677930 
# 
# 
# High freq. dielectric constant tensor:
#      x y z
#    x 1.793920 0.004500 -0.011150 
#    y 0.004500 1.808950 0.004830 
#    z -0.011150 0.004830 1.785550 
# 
# From -- ./inp_files/306873.got.cif
#   From: 2010.06.25/outbox.cif.g09.slc.cpg/sg2_154_cif.got.tgz:306873.got - 2010.06.27 13:26:56.
