data_PCOD8004178
_publ_section_title
;
Structure prediction by ZEFSAII (Michael W. Deem and Ramdas Pophale) SiO2 
 PCOD8004178
Probable space group: P -1
;
_chemical_formula_sum "Si O2"
_cell_formula_units_Z 12
_cell_length_a 11.330138
_cell_length_b 13.310021
_cell_length_c 11.607694
_cell_angle_alpha 138.568075
_cell_angle_beta 64.557809
_cell_angle_gamma 144.897567
_cell_volume 583.257870
_symmetry_space_group_name_H-M "P -1"
_symmetry_group_IT_number 2
_symmetry_cell_setting 'triclinic'
loop_
_space_group_symop_operation_xyz
x,y,z
-x,-y,-z
loop_
_atom_site_type_symbol
_atom_site_label
_atom_site_fract_x
_atom_site_fract_y
_atom_site_fract_z
Si Si1 0.600861 0.669519 0.988131
Si Si2 0.551292 0.361275 0.573876
Si Si3 0.979462 0.749655 0.584498
Si Si4 0.848204 0.245220 0.692609
Si Si5 0.825747 0.540093 0.057842
Si Si6 0.863487 0.900014 0.590623
O O1 0.500000 0.500000 0.000000
O O2 0.662983 0.586242 0.810913
O O3 0.415764 0.602044 0.944440
O O4 0.829263 0.989516 0.189817
O O5 0.765228 0.483103 0.523942
O O6 0.406286 0.321150 0.508433
O O7 0.381489 0.075392 0.458637
O O8 0.878532 0.772550 0.556632
O O9 0.086783 0.715114 0.435002
O O10 0.071869 0.417098 0.825406
O O11 0.783857 0.358994 0.834194
O O12 0.012038 0.834254 0.173551
O O13 0.000000 0.000000 0.500000
#
# Coordination Sequence:
#
# PCOD8004178 Si02
#       6
#     2   2   2   2   2   2
#     4  12  20  38  61  86 118 150 195 240 289 338
#     4  11  22  38  59  87 116 152 197 237 286 340
#     4  12  22  36  61  87 117 154 191 241 288 340
#     4  10  21  41  60  82 121 151 193 236 286 349
#     4  10  20  37  65  84 112 159 188 237 292 339
#     4  11  17  38  63  85 111 150 199 239 282 332
#
# _framework density 20.574090000000002
#
# number of rings (size 3 to 8) (size 9 to 14) (size 15 to 20)
#    0.000    1.000    8.333    1.000    0.000    0.667 
#    0.000   10.000    0.000    0.000    0.000    0.000 
#    0.000    0.000    0.000    0.000    0.000    0.000 
#
# Total GULP energy -148784.153613 kJ/mol
# GULP energy per Si atom -12398.679468 kJ/mol
# Density = 2.052726 g / cm^3
# Si number density = 20.574090 Si / 1000 Ang^3
#
#
#
# Elastic Constant Matrix: (Units=GPa)
#
#
# Indices 1 2 3 4 5 6 
#
# 1 33.6074 16.4580 12.4904 -3.1379 -11.4446 3.7323
# 2 16.4580 133.5095 55.2137 -5.9569 -0.8433 17.6847
# 3 12.4904 55.2137 139.1054 -9.8999 -18.0688 11.6473
# 4 -3.1379 -5.9569 -9.8999 25.2107 13.5898 3.6315
# 5 -11.4446 -0.8433 -18.0688 13.5898 35.1162 -1.6268
# 6 3.7323 17.6847 11.6473 3.6315 -1.6268 12.1975
#
#
#
# Elastic Compliance Matrix: (Units=1/GPa)
#
#
# Indices 1 2 3 4 5 6 
#
# 1 0.036127 -0.004219 0.000077 -0.003001 0.012762 -0.002416
# 2 -0.004219 0.011608 -0.003289 0.006286 -0.005919 -0.015060
# 3 0.000077 -0.003289 0.009462 0.001329 0.004109 -0.004138
# 4 -0.003001 0.006286 0.001329 0.058731 -0.024270 -0.030187
# 5 0.012762 -0.005919 0.004109 -0.024270 0.044646 0.013934
# 6 -0.002416 -0.015060 -0.004138 -0.030187 0.013934 0.119355
#
#
# Mechanical properties :
#
#
# Convention : Reuss Voigt Hill
#
# Bulk Modulus (GPa) = 23.62097 52.72739 38.17418
# Shear Modulus (GPa) = 16.18637 29.30888 22.74762
#
# Velocity S-wave (km/s) = 2.80792 3.77842 3.32873
# Velocity P-wave (km/s) = 4.69238 6.68722 5.77656
#
# Compressibility (1/GPa) = 0.04233526
#
# Stress axis : x y z
#
# Youngs Moduli (GPa) = 27.68049 86.14508 105.68344
#
# Poissons Ratio (x) = 0.36340 -0.00813
# Poissons Ratio (y) = 0.11677 0.34763
# Poissons Ratio (z) = -0.00213 0.28336
#
# Static dielectric constant tensor:
#      x y z
#    x 3.742470 0.153010 -0.038050 
#    y 0.153010 3.676570 -0.048550 
#    z -0.038050 -0.048550 4.122180 
# 
# 
# High freq. dielectric constant tensor:
#      x y z
#    x 1.788410 0.016490 0.002200 
#    y 0.016490 1.779790 0.001800 
#    z 0.002200 0.001800 1.823340 
# 
# From -- ./inp_files/154788.got.cif
#   From: 2010.06.25/outbox.cif.g09.slc.cpg/sg2_78_cif.got.tgz:154788.got - 2010.06.27 13:26:56.
