data_PCOD8004303
_publ_section_title
;
Structure prediction by ZEFSAII (Michael W. Deem and Ramdas Pophale) SiO2 
 PCOD8004303
Probable space group: P -1
;
_chemical_formula_sum "Si O2"
_cell_formula_units_Z 16
_cell_length_a 9.285325
_cell_length_b 14.303649
_cell_length_c 14.616583
_cell_angle_alpha 150.712417
_cell_angle_beta 68.290949
_cell_angle_gamma 91.021168
_cell_volume 654.505935
_symmetry_space_group_name_H-M "P -1"
_symmetry_group_IT_number 2
_symmetry_cell_setting 'triclinic'
loop_
_space_group_symop_operation_xyz
x,y,z
-x,-y,-z
loop_
_atom_site_type_symbol
_atom_site_label
_atom_site_fract_x
_atom_site_fract_y
_atom_site_fract_z
Si Si1 0.812013 0.790189 0.320347
Si Si2 0.882437 0.960168 0.776384
Si Si3 0.883134 0.284145 0.312248
Si Si4 0.446357 0.165517 0.066398
Si Si5 0.657283 0.097864 0.242191
Si Si6 0.358046 0.041898 0.681639
Si Si7 0.817109 0.427691 0.250051
Si Si8 0.960292 0.389758 0.718367
O O1 0.737397 0.968658 0.399560
O O2 0.918162 0.820452 0.405446
O O3 0.608213 0.842988 0.448517
O O4 0.000000 0.500000 0.000000
O O5 0.928631 0.841196 0.766514
O O6 0.054139 0.742477 0.476917
O O7 0.660987 0.060241 0.880285
O O8 0.882049 0.189341 0.972699
O O9 0.682207 0.542214 0.627209
O O10 0.826045 0.103243 0.160268
O O11 0.927394 0.338919 0.248961
O O12 0.500000 0.000000 0.000000
O O13 0.319086 0.137213 0.001711
O O14 0.430583 0.367202 0.501424
O O15 0.705769 0.046110 0.295217
O O16 0.267436 0.334303 0.967222
O O17 0.892486 0.549046 0.282537
#
# Coordination Sequence:
#
# PCOD8004303 Si02
#       8
#     2   2   2   2   2   2   2   2
#     4   9  19  38  68 100 122 157 207 260 320 388
#     4  12  25  39  62  92 126 172 220 263 314 377
#     4  12  26  42  61  92 132 175 222 266 311 373
#     4  12  23  40  62  87 126 172 220 269 317 365
#     4  12  22  42  65  90 132 173 213 266 320 373
#     4  10  20  37  67  96 123 164 209 255 323 385
#     4  12  23  41  63  90 132 175 216 263 316 369
#     4  11  22  41  64  95 129 164 211 265 319 376
#
# _framework density 24.445920000000001
#
# number of rings (size 3 to 8) (size 9 to 14) (size 15 to 20)
#    0.000    0.750    5.000    3.000    0.000    3.000 
#    0.000    0.000    0.000   14.250    0.000    0.000 
#    0.000    0.000    0.000    0.000    0.000    0.000 
#
# Total GULP energy -198350.955595 kJ/mol
# GULP energy per Si atom -12396.934725 kJ/mol
# Density = 2.439028 g / cm^3
# Si number density = 24.445920 Si / 1000 Ang^3
#
#
#
# Elastic Constant Matrix: (Units=GPa)
#
#
# Indices 1 2 3 4 5 6 
#
# 1 99.8187 30.0613 34.9644 -4.9778 4.1830 -15.4712
# 2 30.0613 106.4409 11.9924 -12.3066 11.6032 -28.5368
# 3 34.9644 11.9924 120.5789 -4.7677 5.5296 -10.3643
# 4 -4.9778 -12.3066 -4.7677 37.1569 -4.2496 -5.0661
# 5 4.1830 11.6032 5.5296 -4.2496 43.5010 -4.6323
# 6 -15.4712 -28.5368 -10.3643 -5.0661 -4.6323 37.2657
#
#
#
# Elastic Compliance Matrix: (Units=1/GPa)
#
#
# Indices 1 2 3 4 5 6 
#
# 1 0.012231 -0.002344 -0.003068 0.000841 0.000195 0.002568
# 2 -0.002344 0.013508 0.000494 0.005376 -0.001849 0.010009
# 3 -0.003068 0.000494 0.009363 0.001112 -0.000730 0.001769
# 4 0.000841 0.005376 0.001112 0.030467 0.002300 0.009203
# 5 0.000195 -0.001849 -0.000730 0.002300 0.023967 0.001754
# 6 0.002568 0.010009 0.001769 0.009203 0.001754 0.037526
#
#
# Mechanical properties :
#
#
# Convention : Reuss Voigt Hill
#
# Bulk Modulus (GPa) = 39.58039 53.43049 46.50544
# Shear Modulus (GPa) = 34.40676 40.23940 37.32308
#
# Velocity S-wave (km/s) = 3.75569 4.06157 3.91162
# Velocity P-wave (km/s) = 5.91887 6.62564 6.28221
#
# Compressibility (1/GPa) = 0.02526503
#
# Stress axis : x y z
#
# Youngs Moduli (GPa) = 81.76182 74.03059 106.79868
#
# Poissons Ratio (x) = 0.17354 0.32770
# Poissons Ratio (y) = 0.19166 -0.05276
# Poissons Ratio (z) = 0.25088 -0.03657
#
# Static dielectric constant tensor:
#      x y z
#    x 4.453310 -0.588190 -0.139110 
#    y -0.588190 4.581030 -0.082470 
#    z -0.139110 -0.082470 5.214580 
# 
# 
# High freq. dielectric constant tensor:
#      x y z
#    x 1.953700 -0.033960 -0.023300 
#    y -0.033960 1.960860 -0.007810 
#    z -0.023300 -0.007810 1.998690 
# 
# From -- ./inp_files/505747.got.cif
#   From: 2010.06.25/outbox.cif.g09.slc.cpg/sg2_253_cif.got.tgz:505747.got - 2010.06.27 13:26:56.
