data_PCOD8004442
_publ_section_title
;
Structure prediction by ZEFSAII (Michael W. Deem and Ramdas Pophale) SiO2 
 PCOD8004442
Probable space group: P -1
;
_chemical_formula_sum "Si O2"
_cell_formula_units_Z 16
_cell_length_a 12.521256
_cell_length_b 14.192061
_cell_length_c 17.604402
_cell_angle_alpha 32.185971
_cell_angle_beta 150.029792
_cell_angle_gamma 128.717593
_cell_volume 761.238630
_symmetry_space_group_name_H-M "P -1"
_symmetry_group_IT_number 2
_symmetry_cell_setting 'triclinic'
loop_
_space_group_symop_operation_xyz
x,y,z
-x,-y,-z
loop_
_atom_site_type_symbol
_atom_site_label
_atom_site_fract_x
_atom_site_fract_y
_atom_site_fract_z
Si Si1 0.965861 0.606954 0.155590
Si Si2 0.283627 0.697982 0.075380
Si Si3 0.478132 0.305005 0.095420
Si Si4 0.192602 0.392490 0.303168
Si Si5 0.203906 0.229715 0.846215
Si Si6 0.690860 0.205000 0.805128
Si Si7 0.791462 0.550413 0.441330
Si Si8 0.924309 0.956041 0.565727
O O1 0.985552 0.485169 0.174169
O O2 0.101983 0.747292 0.135941
O O3 0.079034 0.449307 0.399854
O O4 0.693346 0.733050 0.922495
O O5 0.152632 0.552506 0.103642
O O6 0.298072 0.797569 0.095415
O O7 0.534517 0.564398 0.288021
O O8 0.152058 0.867489 0.818991
O O9 0.739554 0.141164 0.368788
O O10 0.500000 0.500000 0.000000
O O11 0.370390 0.308504 0.942618
O O12 0.439217 0.361447 0.516247
O O13 0.196842 0.194269 0.410851
O O14 0.223739 0.267858 0.743199
O O15 0.934967 0.347720 0.624963
O O16 0.278099 0.004980 0.061471
O O17 0.000000 0.000000 0.500000
#
# Coordination Sequence:
#
# PCOD8004442 Si02
#       8
#     2   2   2   2   2   2   2   2
#     4  10  21  40  68  92 123 168 210 262 322 368
#     4  11  23  40  65  94 131 163 214 262 323 370
#     4  11  24  43  62  89 131 174 208 257 321 381
#     4  11  21  43  64  96 130 167 214 263 319 379
#     4  10  23  37  62  93 127 161 219 261 318 369
#     4  11  21  41  67  98 125 163 219 266 313 376
#     4  10  20  38  58  93 124 161 205 273 311 364
#     4  12  26  42  64  95 129 176 215 255 316 391
#
# _framework density 21.018376
#
# number of rings (size 3 to 8) (size 9 to 14) (size 15 to 20)
#    0.000    1.250    3.750    2.625    0.000    7.500 
#    0.000    2.500    0.000    0.000    0.000    0.000 
#    0.000    0.000    0.000    0.000    0.000    0.000 
#
# Total GULP energy -198396.382335 kJ/mol
# GULP energy per Si atom -12399.773896 kJ/mol
# Density = 2.097054 g / cm^3
# Si number density = 21.018376 Si / 1000 Ang^3
#
#
#
# Elastic Constant Matrix: (Units=GPa)
#
#
# Indices 1 2 3 4 5 6 
#
# 1 121.7409 16.9880 46.1619 -1.2145 11.0469 9.4672
# 2 16.9880 92.2885 19.3499 -12.1142 5.0218 -4.1269
# 3 46.1619 19.3499 100.2226 -1.9237 7.2663 2.4939
# 4 -1.2145 -12.1142 -1.9237 32.2229 1.0055 2.7137
# 5 11.0469 5.0218 7.2663 1.0055 40.4293 2.8508
# 6 9.4672 -4.1269 2.4939 2.7137 2.8508 19.0671
#
#
#
# Elastic Compliance Matrix: (Units=1/GPa)
#
#
# Indices 1 2 3 4 5 6 
#
# 1 0.010555 -0.001119 -0.004408 0.000159 -0.001626 -0.004686
# 2 -0.001119 0.012158 -0.001738 0.004210 -0.001208 0.002996
# 3 -0.004408 -0.001738 0.012394 -0.000081 -0.000828 0.000327
# 4 0.000159 0.004210 -0.000081 0.032963 -0.001112 -0.003682
# 5 -0.001626 -0.001208 -0.000828 -0.001112 0.025719 -0.003033
# 6 -0.004686 0.002996 0.000327 -0.003682 -0.003033 0.056356
#
#
# Mechanical properties :
#
#
# Convention : Reuss Voigt Hill
#
# Bulk Modulus (GPa) = 48.59698 53.25019 50.92358
# Shear Modulus (GPa) = 29.14849 33.79402 31.47125
#
# Velocity S-wave (km/s) = 3.72803 4.01413 3.87372
# Velocity P-wave (km/s) = 6.45773 6.84649 6.65495
#
# Compressibility (1/GPa) = 0.02057741
#
# Stress axis : x y z
#
# Youngs Moduli (GPa) = 94.73857 82.24796 80.68360
#
# Poissons Ratio (x) = 0.09202 0.35566
# Poissons Ratio (y) = 0.10600 0.14025
# Poissons Ratio (z) = 0.41762 0.14296
#
# Static dielectric constant tensor:
#      x y z
#    x 4.052710 0.036610 0.055170 
#    y 0.036610 3.541500 0.044810 
#    z 0.055170 0.044810 3.871790 
# 
# 
# High freq. dielectric constant tensor:
#      x y z
#    x 1.836410 0.001270 0.007060 
#    y 0.001270 1.808950 -0.000430 
#    z 0.007060 -0.000430 1.822670 
# 
# From -- ./inp_files/205182.got.cif
#   From: 2010.06.25/outbox.cif.g09.slc.cpg/sg2_103_cif.got.tgz:205182.got - 2010.06.27 13:26:56.
