data_PCOD8004269
_publ_section_title
;
Structure prediction by ZEFSAII (Michael W. Deem and Ramdas Pophale) SiO2 
 PCOD8004269
Probable space group: P -1
;
_chemical_formula_sum "Si O2"
_cell_formula_units_Z 16
_cell_length_a 19.499238
_cell_length_b 8.616349
_cell_length_c 16.975718
_cell_angle_alpha 132.102257
_cell_angle_beta 159.102126
_cell_angle_gamma 57.650636
_cell_volume 708.524361
_symmetry_space_group_name_H-M "P -1"
_symmetry_group_IT_number 2
_symmetry_cell_setting 'triclinic'
loop_
_space_group_symop_operation_xyz
x,y,z
-x,-y,-z
loop_
_atom_site_type_symbol
_atom_site_label
_atom_site_fract_x
_atom_site_fract_y
_atom_site_fract_z
Si Si1 0.848083 0.470224 0.603891
Si Si2 0.912061 0.779893 0.527028
Si Si3 0.528914 0.929930 0.918926
Si Si4 0.116168 0.196910 0.803376
Si Si5 0.328582 0.705481 0.937428
Si Si6 0.955765 0.240285 0.944108
Si Si7 0.282602 0.207048 0.522820
Si Si8 0.260448 0.415343 0.199356
O O1 0.674523 0.270880 0.395104
O O2 0.952637 0.674098 0.843470
O O3 0.746802 0.561872 0.455447
O O4 0.016486 0.367900 0.716416
O O5 0.726295 0.551434 0.233237
O O6 0.848868 0.886399 0.571942
O O7 0.124852 0.743235 0.760677
O O8 0.940164 0.954287 0.544814
O O9 0.715292 0.833332 0.084822
O O10 0.500000 0.000000 0.000000
O O11 0.568086 0.136147 0.971643
O O12 0.215486 0.282294 0.023915
O O13 0.480079 0.752720 0.190872
O O14 0.141164 0.257779 0.089087
O O15 0.813292 0.374104 0.807138
O O16 0.805781 0.983359 0.702948
O O17 0.500000 0.500000 0.500000
#
# Coordination Sequence:
#
# PCOD8004269 Si02
#       8
#     2   2   2   2   2   2   2   2
#     4  11  25  42  60  95 140 172 212 264 324 384
#     4  10  21  42  64  94 125 164 223 272 321 381
#     4  11  24  43  68  96 126 168 218 273 330 385
#     4  10  22  41  66  93 127 170 214 267 323 387
#     4  10  24  41  67  94 125 169 223 269 323 387
#     4  10  23  38  63  97 130 170 216 262 318 384
#     4  12  23  40  66  93 131 176 215 263 317 386
#     4  10  20  37  66  96 126 165 213 268 321 376
#
# _framework density 22.582145000000001
#
# number of rings (size 3 to 8) (size 9 to 14) (size 15 to 20)
#    0.000    1.500    1.250    3.000    7.000    2.500 
#    0.000    1.250    0.000    6.000    0.000    0.000 
#    0.000    0.000    0.000    0.000    0.000    0.000 
#
# Total GULP energy -198425.198533 kJ/mol
# GULP energy per Si atom -12401.574908 kJ/mol
# Density = 2.253075 g / cm^3
# Si number density = 22.582145 Si / 1000 Ang^3
#
#
#
# Elastic Constant Matrix: (Units=GPa)
#
#
# Indices 1 2 3 4 5 6 
#
# 1 72.7537 29.7025 36.3168 -5.0551 11.0750 -21.0614
# 2 29.7025 110.8560 58.9571 -2.4108 -4.4058 -5.0165
# 3 36.3168 58.9571 148.7106 6.9464 1.4321 -1.3227
# 4 -5.0551 -2.4108 6.9464 38.6424 -5.0753 -7.7670
# 5 11.0750 -4.4058 1.4321 -5.0753 25.4125 -0.8607
# 6 -21.0614 -5.0165 -1.3227 -7.7670 -0.8607 23.9336
#
#
#
# Elastic Compliance Matrix: (Units=1/GPa)
#
#
# Indices 1 2 3 4 5 6 
#
# 1 0.027123 -0.003531 -0.005284 0.008052 -0.009677 0.025101
# 2 -0.003531 0.012380 -0.004162 0.001601 0.004237 -0.000070
# 3 -0.005284 -0.004162 0.009794 -0.003968 0.000024 -0.006268
# 4 0.008052 0.001601 -0.003968 0.031814 0.003944 0.017668
# 5 -0.009677 0.004237 0.000024 0.003944 0.044929 -0.004730
# 6 0.025101 -0.000070 -0.006268 0.017668 -0.004730 0.069074
#
#
# Mechanical properties :
#
#
# Convention : Reuss Voigt Hill
#
# Bulk Modulus (GPa) = 42.83691 64.69703 53.76697
# Shear Modulus (GPa) = 21.84844 31.42060 26.63452
#
# Velocity S-wave (km/s) = 3.11386 3.73418 3.43804
# Velocity P-wave (km/s) = 5.65143 6.87779 6.29455
#
# Compressibility (1/GPa) = 0.02334435
#
# Stress axis : x y z
#
# Youngs Moduli (GPa) = 36.86905 80.77270 102.10030
#
# Poissons Ratio (x) = 0.28520 0.53946
# Poissons Ratio (y) = 0.13018 0.42496
# Poissons Ratio (z) = 0.19480 0.33619
#
# Static dielectric constant tensor:
#      x y z
#    x 3.751280 -0.194260 0.108860 
#    y -0.194260 4.174660 0.110710 
#    z 0.108860 0.110710 4.199210 
# 
# 
# High freq. dielectric constant tensor:
#      x y z
#    x 1.870400 -0.014920 0.004340 
#    y -0.014920 1.899590 0.003760 
#    z 0.004340 0.003760 1.903470 
# 
# From -- ./inp_files/577456.got.cif
#   From: 2010.06.25/outbox.cif.g09.slc.cpg/sg2_289_cif.got.tgz:577456.got - 2010.06.27 13:26:56.
