data_PCOD8004166
_publ_section_title
;
Structure prediction by ZEFSAII (Michael W. Deem and Ramdas Pophale) SiO2 
 PCOD8004166
Probable space group: P -1
;
_chemical_formula_sum "Si O2"
_cell_formula_units_Z 16
_cell_length_a 16.633683
_cell_length_b 12.954264
_cell_length_c 8.720830
_cell_angle_alpha 50.333926
_cell_angle_beta 92.832245
_cell_angle_gamma 52.622938
_cell_volume 804.534009
_symmetry_space_group_name_H-M "P -1"
_symmetry_group_IT_number 2
_symmetry_cell_setting 'triclinic'
loop_
_space_group_symop_operation_xyz
x,y,z
-x,-y,-z
loop_
_atom_site_type_symbol
_atom_site_label
_atom_site_fract_x
_atom_site_fract_y
_atom_site_fract_z
Si Si1 0.150466 0.988296 0.678607
Si Si2 0.866819 0.500415 0.737213
Si Si3 0.719631 0.962369 0.145185
Si Si4 0.355548 0.700794 0.698998
Si Si5 0.426174 0.477885 0.603425
Si Si6 0.191393 0.140183 0.093099
Si Si7 0.140973 0.781338 0.118623
Si Si8 0.905398 0.509440 0.050415
O O1 0.227782 0.835884 0.673754
O O2 0.244466 0.967065 0.801148
O O3 0.120063 0.895283 0.855402
O O4 0.996909 0.264589 0.364802
O O5 0.788238 0.727536 0.423523
O O6 0.832736 0.409525 0.737357
O O7 0.810180 0.581965 0.831722
O O8 0.039188 0.277665 0.974485
O O9 0.782303 0.911439 0.034337
O O10 0.545627 0.194117 0.895657
O O11 0.371744 0.578541 0.674840
O O12 0.317786 0.897352 0.435645
O O13 0.500000 0.500000 0.000000
O O14 0.500000 0.500000 0.500000
O O15 0.286563 0.626023 0.359621
O O16 0.189763 0.296716 0.003653
O O17 0.000000 0.000000 0.000000
O O18 0.000000 0.500000 0.000000
#
# Coordination Sequence:
#
# PCOD8004166 Si02
#       8
#     2   2   2   2   2   2   2   2
#     4  12  22  41  68  98 129 177 218 272 330 387
#     4  11  23  42  62  94 137 171 214 277 333 382
#     4  12  22  39  71  93 128 175 226 269 319 392
#     4  12  21  36  66 100 130 165 219 279 322 376
#     4  12  24  44  67  99 130 176 226 266 321 403
#     4  11  21  37  66 102 126 171 228 269 318 397
#     4  12  28  45  65  97 140 174 217 276 334 390
#     4  10  20  37  64  97 129 166 225 270 318 395
#
# _framework density 19.88729
#
# number of rings (size 3 to 8) (size 9 to 14) (size 15 to 20)
#    0.000    0.500    8.750    1.875    1.750    1.000 
#    0.000    0.000    0.000    1.500    0.000    0.000 
#    0.000    0.000    0.000    0.000    0.000    0.000 
#
# Total GULP energy -198343.229770 kJ/mol
# GULP energy per Si atom -12396.451861 kJ/mol
# Density = 1.984203 g / cm^3
# Si number density = 19.887290 Si / 1000 Ang^3
#
#
#
# Elastic Constant Matrix: (Units=GPa)
#
#
# Indices 1 2 3 4 5 6 
#
# 1 70.7101 39.6901 41.6345 -0.1493 -0.1620 12.4528
# 2 39.6901 132.5694 31.4465 10.8743 -4.7556 4.7010
# 3 41.6345 31.4465 161.5495 -0.0785 -4.3110 -0.7912
# 4 -0.1493 10.8743 -0.0785 37.1743 0.2156 -3.3670
# 5 -0.1620 -4.7556 -4.3110 0.2156 30.7475 2.3769
# 6 12.4528 4.7010 -0.7912 -3.3670 2.3769 20.2814
#
#
#
# Elastic Compliance Matrix: (Units=1/GPa)
#
#
# Indices 1 2 3 4 5 6 
#
# 1 0.021954 -0.005058 -0.004744 0.000439 -0.000378 -0.012375
# 2 -0.005058 0.009442 -0.000498 -0.002766 0.001362 0.000279
# 3 -0.004744 -0.000498 0.007545 0.000439 0.000697 0.003314
# 4 0.000439 -0.002766 0.000439 0.028187 -0.000962 0.005181
# 5 -0.000378 0.001362 0.000697 -0.000962 0.033153 -0.004101
# 6 -0.012375 0.000279 0.003314 0.005181 -0.004101 0.058310
#
#
# Mechanical properties :
#
#
# Convention : Reuss Voigt Hill
#
# Bulk Modulus (GPa) = 54.52509 65.59678 60.06094
# Shear Modulus (GPa) = 26.98270 34.44449 30.71360
#
# Velocity S-wave (km/s) = 3.68745 4.16623 3.93413
# Velocity P-wave (km/s) = 6.75324 7.49661 7.13461
#
# Compressibility (1/GPa) = 0.01834018
#
# Stress axis : x y z
#
# Youngs Moduli (GPa) = 45.54924 105.91465 132.54534
#
# Poissons Ratio (x) = 0.53576 0.62878
# Poissons Ratio (y) = 0.23041 0.06599
# Poissons Ratio (z) = 0.21608 0.05273
#
# Static dielectric constant tensor:
#      x y z
#    x 3.256740 0.126800 -0.008010 
#    y 0.126800 4.331510 -0.028270 
#    z -0.008010 -0.028270 4.011790 
# 
# 
# High freq. dielectric constant tensor:
#      x y z
#    x 1.718760 0.002000 -0.002170 
#    y 0.002000 1.805270 0.003540 
#    z -0.002170 0.003540 1.802950 
# 
# From -- ./inp_files/331618.got.cif
#   From: 2010.06.25/outbox.cif.g09.slc.cpg/sg2_166_cif.got.tgz:331618.got - 2010.06.27 13:26:56.
