data_PCOD8004730
_publ_section_title
;
Structure prediction by ZEFSAII (Michael W. Deem and Ramdas Pophale) SiO2 
 PCOD8004730
Probable space group: P -1
;
_chemical_formula_sum "Si O2"
_cell_formula_units_Z 16
_cell_length_a 5.149433
_cell_length_b 11.940103
_cell_length_c 19.845321
_cell_angle_alpha 31.785024
_cell_angle_beta 105.902067
_cell_angle_gamma 104.033470
_cell_volume 618.006021
_symmetry_space_group_name_H-M "P -1"
_symmetry_group_IT_number 2
_symmetry_cell_setting 'triclinic'
loop_
_space_group_symop_operation_xyz
x,y,z
-x,-y,-z
loop_
_atom_site_type_symbol
_atom_site_label
_atom_site_fract_x
_atom_site_fract_y
_atom_site_fract_z
Si Si1 0.305710 0.351307 0.997010
Si Si2 0.972265 0.010307 0.900103
Si Si3 0.539461 0.239472 0.825690
Si Si4 0.365731 0.497761 0.563040
Si Si5 0.240515 0.795124 0.812203
Si Si6 0.923955 0.140593 0.689817
Si Si7 0.075837 0.812289 0.650004
Si Si8 0.555610 0.537416 0.795764
O O1 0.453855 0.192197 0.141987
O O2 0.079103 0.243232 0.986399
O O3 0.160167 0.543579 0.927586
O O4 0.546787 0.452600 0.915588
O O5 0.814858 0.103026 0.906733
O O6 0.804125 0.097583 0.778108
O O7 0.287004 0.074399 0.887015
O O8 0.544456 0.435889 0.672273
O O9 0.552557 0.332143 0.853099
O O10 0.500000 0.500000 0.500000
O O11 0.268203 0.744170 0.437559
O O12 0.142135 0.318154 0.633951
O O13 0.231960 0.901597 0.682606
O O14 0.039205 0.919368 0.783385
O O15 0.276270 0.662739 0.699125
O O16 0.810353 0.689030 0.721103
O O17 0.000000 0.000000 0.500000
#
# Coordination Sequence:
#
# PCOD8004730 Si02
#       8
#     2   2   2   2   2   2   2   2
#     4  10  24  46  71 103 142 184 245 300 342 429
#     4  11  23  42  67 102 143 178 240 293 349 424
#     4  11  24  42  69 102 139 190 229 290 369 412
#     4  10  20  38  61  95 138 174 225 287 344 420
#     4  10  24  44  73 101 137 191 231 292 365 408
#     4  10  22  37  63  99 132 176 228 285 347 419
#     4  11  26  48  70 106 143 183 240 294 349 433
#     4  11  26  47  72 101 143 188 240 293 352 425
#
# _framework density 25.889717999999998
#
# number of rings (size 3 to 8) (size 9 to 14) (size 15 to 20)
#    0.000    1.500    1.250    2.625    1.750   10.000 
#    0.000    0.000    0.000    0.000    0.000    0.000 
#    0.000    0.000    0.000    0.000    0.000    0.000 
#
# Total GULP energy -198241.549917 kJ/mol
# GULP energy per Si atom -12390.096870 kJ/mol
# Density = 2.583079 g / cm^3
# Si number density = 25.889718 Si / 1000 Ang^3
#
#
#
# Elastic Constant Matrix: (Units=GPa)
#
#
# Indices 1 2 3 4 5 6 
#
# 1 120.0917 30.2117 29.9160 -10.3607 8.1111 -6.5458
# 2 30.2117 107.2743 24.6767 -16.8683 10.0881 -16.2781
# 3 29.9160 24.6767 105.7978 6.1967 16.9371 -0.5179
# 4 -10.3607 -16.8683 6.1967 45.9348 -3.1979 8.6247
# 5 8.1111 10.0881 16.9371 -3.1979 47.2235 -5.8558
# 6 -6.5458 -16.2781 -0.5179 8.6247 -5.8558 43.5362
#
#
#
# Elastic Compliance Matrix: (Units=1/GPa)
#
#
# Indices 1 2 3 4 5 6 
#
# 1 0.009548 -0.001802 -0.002338 0.001722 -0.000255 0.000358
# 2 -0.001802 0.011436 -0.002231 0.003444 -0.000703 0.003202
# 3 -0.002338 -0.002231 0.011364 -0.002948 -0.003514 -0.000939
# 4 0.001722 0.003444 -0.002948 0.024506 0.001292 -0.003169
# 5 -0.000255 -0.000703 -0.003514 0.001292 0.023027 0.002498
# 6 0.000358 0.003202 -0.000939 -0.003169 0.002498 0.025173
#
#
# Mechanical properties :
#
#
# Convention : Reuss Voigt Hill
#
# Bulk Modulus (GPa) = 51.00492 55.86363 53.43428
# Shear Modulus (GPa) = 40.21476 43.89618 42.05547
#
# Velocity S-wave (km/s) = 3.94548 4.12212 4.03477
# Velocity P-wave (km/s) = 6.36391 6.65434 6.51074
#
# Compressibility (1/GPa) = 0.01960595
#
# Stress axis : x y z
#
# Youngs Moduli (GPa) = 104.73351 87.44160 87.99673
#
# Poissons Ratio (x) = 0.15757 0.20572
# Poissons Ratio (y) = 0.18873 0.19635
# Poissons Ratio (z) = 0.24484 0.19511
#
# Static dielectric constant tensor:
#      x y z
#    x 4.695560 0.067350 0.398060 
#    y 0.067350 4.817730 0.340380 
#    z 0.398060 0.340380 5.350510 
# 
# 
# High freq. dielectric constant tensor:
#      x y z
#    x 2.032000 -0.005030 0.004880 
#    y -0.005030 2.037380 0.007430 
#    z 0.004880 0.007430 2.055130 
# 
# From -- ./inp_files/583217.got.cif
#   From: 2010.06.25/outbox.cif.g09.slc.cpg/sg2_292_cif.got.tgz:583217.got - 2010.06.27 13:26:56.
