data_PCOD8004471
_publ_section_title
;
Structure prediction by ZEFSAII (Michael W. Deem and Ramdas Pophale) SiO2 
 PCOD8004471
Probable space group: P -1
;
_chemical_formula_sum "Si O2"
_cell_formula_units_Z 16
_cell_length_a 27.630701
_cell_length_b 25.027232
_cell_length_c 11.473970
_cell_angle_alpha 39.750718
_cell_angle_beta 140.846943
_cell_angle_gamma 170.488142
_cell_volume 827.256695
_symmetry_space_group_name_H-M "P -1"
_symmetry_group_IT_number 2
_symmetry_cell_setting 'triclinic'
loop_
_space_group_symop_operation_xyz
x,y,z
-x,-y,-z
loop_
_atom_site_type_symbol
_atom_site_label
_atom_site_fract_x
_atom_site_fract_y
_atom_site_fract_z
Si Si1 0.900092 0.117043 0.896162
Si Si2 0.534648 0.870489 0.511090
Si Si3 0.685013 0.129516 0.559229
Si Si4 0.832826 0.140338 0.189049
Si Si5 0.479407 0.879747 0.141862
Si Si6 0.406026 0.137722 0.038940
Si Si7 0.594907 0.694800 0.845235
Si Si8 0.940857 0.750863 0.394050
O O1 0.252597 0.481873 0.936847
O O2 0.810165 0.106716 0.676889
O O3 0.786466 0.998324 0.017478
O O4 0.740922 0.872014 0.945082
O O5 0.589015 0.948188 0.347727
O O6 0.224712 0.494629 0.580155
O O7 0.519867 0.938099 0.448584
O O8 0.000000 0.500000 0.500000
O O9 0.500000 0.000000 0.500000
O O10 0.702683 0.066476 0.777346
O O11 0.142686 0.502985 0.114741
O O12 0.876631 0.102372 0.409310
O O13 0.676256 0.051335 0.116002
O O14 0.644956 0.911596 0.111392
O O15 0.500000 0.000000 0.000000
O O16 0.313999 0.456172 0.685618
O O17 0.500000 0.500000 0.000000
O O18 0.838896 0.962988 0.751526
#
# Coordination Sequence:
#
# PCOD8004471 Si02
#       8
#     2   2   2   2   2   2   2   2
#     4  10  20  38  59  85 112 153 188 232 293 349
#     4   9  21  38  57  78 113 150 196 237 293 344
#     4  11  23  33  51  76 107 145 188 249 290 320
#     4  11  23  40  59  82 114 159 206 232 288 359
#     4  11  24  37  58  82 112 154 200 265 297 326
#     4  11  23  38  58  80 115 156 203 230 281 361
#     4  11  21  37  67  98 121 138 185 245 294 347
#     4  10  21  39  62  87 116 157 188 233 294 354
#
# _framework density 19.341034000000001
#
# number of rings (size 3 to 8) (size 9 to 14) (size 15 to 20)
#    0.000    1.500    0.000    7.500    3.500    5.000 
#    0.000    0.000    0.000    4.500    0.000    0.000 
#    0.000    0.000    0.000    0.000    0.000    0.000 
#
# Total GULP energy -198386.823071 kJ/mol
# GULP energy per Si atom -12399.176442 kJ/mol
# Density = 1.929701 g / cm^3
# Si number density = 19.341034 Si / 1000 Ang^3
#
#
#
# Elastic Constant Matrix: (Units=GPa)
#
#
# Indices 1 2 3 4 5 6 
#
# 1 107.6521 50.2037 38.9654 -0.7855 -2.4537 -8.3487
# 2 50.2037 112.6664 47.9563 -8.8867 1.7925 3.2530
# 3 38.9654 47.9563 72.2854 -5.1457 -1.2334 -15.3540
# 4 -0.7855 -8.8867 -5.1457 31.1945 -5.9711 -0.2263
# 5 -2.4537 1.7925 -1.2334 -5.9711 29.9238 -0.3307
# 6 -8.3487 3.2530 -15.3540 -0.2263 -0.3307 39.1873
#
#
#
# Elastic Compliance Matrix: (Units=1/GPa)
#
#
# Indices 1 2 3 4 5 6 
#
# 1 0.012780 -0.004230 -0.003828 -0.001332 0.000895 0.001574
# 2 -0.004230 0.014752 -0.008512 0.002431 -0.001157 -0.005457
# 3 -0.003828 -0.008512 0.023647 0.001757 0.001623 0.009180
# 4 -0.001332 0.002431 0.001757 0.034285 0.006664 0.000457
# 5 0.000895 -0.001157 0.001623 0.006664 0.034971 0.001256
# 6 0.001574 -0.005457 0.009180 0.000457 0.001256 0.029917
#
#
# Mechanical properties :
#
#
# Convention : Reuss Voigt Hill
#
# Bulk Modulus (GPa) = 55.43637 62.98386 59.21011
# Shear Modulus (GPa) = 26.38449 30.42636 28.40542
#
# Velocity S-wave (km/s) = 3.69748 3.97060 3.83647
# Velocity P-wave (km/s) = 6.85224 7.32506 7.09259
#
# Compressibility (1/GPa) = 0.01803870
#
# Stress axis : x y z
#
# Youngs Moduli (GPa) = 78.24579 67.78946 42.28804
#
# Poissons Ratio (x) = 0.28676 0.16188
# Poissons Ratio (y) = 0.33100 0.35996
# Poissons Ratio (z) = 0.29952 0.57703
#
# Static dielectric constant tensor:
#      x y z
#    x 3.868210 0.003920 -0.077950 
#    y 0.003920 3.583110 0.042650 
#    z -0.077950 0.042650 3.411640 
# 
# 
# High freq. dielectric constant tensor:
#      x y z
#    x 1.762510 0.008060 -0.008810 
#    y 0.008060 1.764080 0.002490 
#    z -0.008810 0.002490 1.725770 
# 
# From -- ./inp_files/370854.got.cif
#   From: 2010.06.25/outbox.cif.g09.slc.cpg/sg2_186_cif.got.tgz:370854.got - 2010.06.27 13:26:56.
