data_PCOD8004315
_publ_section_title
;
Structure prediction by ZEFSAII (Michael W. Deem and Ramdas Pophale) SiO2 
 PCOD8004315
Probable space group: P -1
;
_chemical_formula_sum "Si O2"
_cell_formula_units_Z 16
_cell_length_a 11.487020
_cell_length_b 8.858717
_cell_length_c 9.371273
_cell_angle_alpha 78.182477
_cell_angle_beta 103.219750
_cell_angle_gamma 128.356966
_cell_volume 725.502527
_symmetry_space_group_name_H-M "P -1"
_symmetry_group_IT_number 2
_symmetry_cell_setting 'triclinic'
loop_
_space_group_symop_operation_xyz
x,y,z
-x,-y,-z
loop_
_atom_site_type_symbol
_atom_site_label
_atom_site_fract_x
_atom_site_fract_y
_atom_site_fract_z
Si Si1 0.792958 0.940527 0.730565
Si Si2 0.359306 0.275623 0.996506
Si Si3 0.914942 0.712808 0.751908
Si Si4 0.895772 0.713698 0.198017
Si Si5 0.867943 0.513652 0.489356
Si Si6 0.156165 0.559029 0.981771
Si Si7 0.271788 0.945139 0.836632
Si Si8 0.656244 0.086352 0.456656
O O1 0.849256 0.831633 0.684373
O O2 0.744075 0.025863 0.583222
O O3 0.661399 0.807151 0.833628
O O4 0.933852 0.112207 0.828149
O O5 0.211050 0.245068 0.909425
O O6 0.376231 0.149310 0.910806
O O7 0.500000 0.500000 0.000000
O O8 0.870188 0.563997 0.643001
O O9 0.095967 0.859927 0.793203
O O10 0.815863 0.567031 0.884355
O O11 0.878024 0.681293 0.369810
O O12 0.858243 0.514040 0.168693
O O13 0.721138 0.307474 0.446160
O O14 0.000000 0.500000 0.500000
O O15 0.278023 0.791347 0.962807
O O16 0.000000 0.500000 0.000000
O O17 0.344926 0.973857 0.695915
O O18 0.500000 0.000000 0.500000
#
# Coordination Sequence:
#
# PCOD8004315 Si02
#       8
#     2   2   2   2   2   2   2   2
#     4  12  25  45  74 108 141 188 241 296 352 425
#     4  12  29  46  69 106 147 189 231 290 368 426
#     4  11  22  40  73 115 137 179 245 299 347 413
#     4  12  22  44  72 101 143 181 244 296 340 416
#     4  12  23  43  72 107 141 187 242 292 346 417
#     4  10  20  37  68 105 141 173 232 297 344 405
#     4  11  23  46  73 101 144 189 235 292 358 417
#     4  12  29  48  69 106 149 190 234 292 366 431
#
# _framework density 22.053678000000001
#
# number of rings (size 3 to 8) (size 9 to 14) (size 15 to 20)
#    0.000    0.500    6.250    2.625    5.250    2.000 
#    0.000    2.500    0.000    0.000    0.000    0.000 
#    0.000    0.000    0.000    0.000    0.000    0.000 
#
# Total GULP energy -198284.267689 kJ/mol
# GULP energy per Si atom -12392.766731 kJ/mol
# Density = 2.200348 g / cm^3
# Si number density = 22.053678 Si / 1000 Ang^3
#
#
#
# Elastic Constant Matrix: (Units=GPa)
#
#
# Indices 1 2 3 4 5 6 
#
# 1 75.3508 27.3778 25.5692 1.3358 -12.7219 -7.1681
# 2 27.3778 155.2901 43.8279 9.3048 -21.9876 -4.8278
# 3 25.5692 43.8279 102.0445 -7.9527 -16.7381 -2.5211
# 4 1.3358 9.3048 -7.9527 42.0058 -10.3144 -7.3705
# 5 -12.7219 -21.9876 -16.7381 -10.3144 35.9996 -3.7987
# 6 -7.1681 -4.8278 -2.5211 -7.3705 -3.7987 37.2837
#
#
#
# Elastic Compliance Matrix: (Units=1/GPa)
#
#
# Indices 1 2 3 4 5 6 
#
# 1 0.015616 -0.001428 -0.002473 0.000931 0.004106 0.003252
# 2 -0.001428 0.007947 -0.002707 -0.001458 0.002732 0.000561
# 3 -0.002473 -0.002707 0.012768 0.004540 0.004861 0.001430
# 4 0.000931 -0.001458 0.004540 0.028787 0.010542 0.007062
# 5 0.004106 0.002732 0.004861 0.010542 0.036951 0.007321
# 6 0.003252 0.000561 0.001430 0.007062 0.007321 0.029758
#
#
# Mechanical properties :
#
#
# Convention : Reuss Voigt Hill
#
# Bulk Modulus (GPa) = 43.26292 58.47057 50.86674
# Shear Modulus (GPa) = 32.73355 38.78517 35.75936
#
# Velocity S-wave (km/s) = 3.85680 4.19820 4.03112
# Velocity P-wave (km/s) = 6.28434 7.07603 6.69190
#
# Compressibility (1/GPa) = 0.02311448
#
# Stress axis : x y z
#
# Youngs Moduli (GPa) = 64.03880 125.83334 78.31788
#
# Poissons Ratio (x) = 0.17974 0.19367
# Poissons Ratio (y) = 0.09147 0.21200
# Poissons Ratio (z) = 0.15836 0.34063
#
# Static dielectric constant tensor:
#      x y z
#    x 4.116130 -0.236770 -0.117520 
#    y -0.236770 4.301620 -0.367610 
#    z -0.117520 -0.367610 4.492460 
# 
# 
# High freq. dielectric constant tensor:
#      x y z
#    x 1.853040 -0.020740 -0.010810 
#    y -0.020740 1.878530 -0.012420 
#    z -0.010810 -0.012420 1.876490 
# 
# From -- ./inp_files/186814.got.cif
#   From: 2010.06.25/outbox.cif.g09.slc.cpg/sg2_94_cif.got.tgz:186814.got - 2010.06.27 13:26:56.
