data_PCOD8004943
_publ_section_title
;
Structure prediction by ZEFSAII (Michael W. Deem and Ramdas Pophale) SiO2 
 PCOD8004943
Probable space group: P -1
;
_chemical_formula_sum "Si O2"
_cell_formula_units_Z 14
_cell_length_a 15.003456
_cell_length_b 25.383626
_cell_length_c 14.391357
_cell_angle_alpha 157.330107
_cell_angle_beta 159.927456
_cell_angle_gamma 23.766189
_cell_volume 674.506032
_symmetry_space_group_name_H-M "P -1"
_symmetry_group_IT_number 2
_symmetry_cell_setting 'triclinic'
loop_
_space_group_symop_operation_xyz
x,y,z
-x,-y,-z
loop_
_atom_site_type_symbol
_atom_site_label
_atom_site_fract_x
_atom_site_fract_y
_atom_site_fract_z
Si Si1 0.156968 0.076316 0.576620
Si Si2 0.769445 0.890272 0.902607
Si Si3 0.916096 0.320283 0.586337
Si Si4 0.626990 0.466337 0.879219
Si Si5 0.020198 0.582595 0.561773
Si Si6 0.358883 0.419616 0.119659
Si Si7 0.046081 0.151865 0.789223
O O1 0.174213 0.161016 0.827975
O O2 0.083152 0.186474 0.598372
O O3 0.462042 0.954171 0.661961
O O4 0.922000 0.006091 0.236953
O O5 0.940194 0.753384 0.783209
O O6 0.754669 0.845395 0.924142
O O7 0.663994 0.297695 0.245820
O O8 0.767130 0.468502 0.738278
O O9 0.141735 0.336199 0.759095
O O10 0.330887 0.522816 0.730195
O O11 0.601830 0.490529 0.783968
O O12 0.762406 0.293176 0.752939
O O13 0.811893 0.557362 0.242630
O O14 0.000000 0.500000 0.500000
O O15 0.000000 0.000000 0.500000
#
# Coordination Sequence:
#
# PCOD8004943 Si02
#       7
#     2   2   2   2   2   2   2
#     4  11  22  40  64  92 126 162 196 257 318 367
#     4  11  24  40  60  89 128 165 210 244 298 375
#     4  10  20  38  63  92 124 155 200 252 319 369
#     4  12  24  42  65  91 129 163 207 255 307 358
#     4  12  26  41  64  87 125 175 213 248 290 358
#     4  10  21  38  61  94 123 156 200 257 308 371
#     4  10  23  38  61  95 129 162 195 253 312 379
#
# _framework density 20.755929999999999
#
# number of rings (size 3 to 8) (size 9 to 14) (size 15 to 20)
#    0.000    1.143    2.857    3.429    4.000    2.286 
#    0.000    0.000    0.000   17.143    0.000    0.000 
#    0.000    0.000    0.000    0.000    0.000    0.000 
#
# Total GULP energy -173562.867970 kJ/mol
# GULP energy per Si atom -12397.347712 kJ/mol
# Density = 2.070869 g / cm^3
# Si number density = 20.755930 Si / 1000 Ang^3
#
#
#
# Elastic Constant Matrix: (Units=GPa)
#
#
# Indices 1 2 3 4 5 6 
#
# 1 81.8129 44.9784 30.5476 -13.5113 20.9479 7.8745
# 2 44.9784 136.6296 21.0165 -6.7944 -7.0775 10.0656
# 3 30.5476 21.0165 83.8834 -21.7892 11.5159 -8.7972
# 4 -13.5113 -6.7944 -21.7892 45.3141 -11.0138 -1.2375
# 5 20.9479 -7.0775 11.5159 -11.0138 33.1281 -6.4823
# 6 7.8745 10.0656 -8.7972 -1.2375 -6.4823 38.6079
#
#
#
# Elastic Compliance Matrix: (Units=1/GPa)
#
#
# Indices 1 2 3 4 5 6 
#
# 1 0.022423 -0.006934 -0.005205 -0.000777 -0.015393 -0.006561
# 2 -0.006934 0.010144 -0.000805 0.000774 0.007048 -0.000206
# 3 -0.005205 -0.000805 0.016140 0.006394 0.000665 0.005266
# 4 -0.000777 0.000774 0.006394 0.027111 0.008162 0.003653
# 5 -0.015393 0.007048 0.000665 0.008162 0.045746 0.009396
# 6 -0.006561 -0.000206 0.005266 0.003653 0.009396 0.030188
#
#
# Mechanical properties :
#
#
# Convention : Reuss Voigt Hill
#
# Bulk Modulus (GPa) = 43.82079 55.04567 49.43323
# Shear Modulus (GPa) = 26.99119 37.12890 32.06005
#
# Velocity S-wave (km/s) = 3.61003 4.23405 3.93443
# Velocity P-wave (km/s) = 6.20763 7.10499 6.67142
#
# Compressibility (1/GPa) = 0.02282022
#
# Stress axis : x y z
#
# Youngs Moduli (GPa) = 44.59729 98.57928 61.95677
#
# Poissons Ratio (x) = 0.68351 0.32250
# Poissons Ratio (y) = 0.30922 0.04985
# Poissons Ratio (z) = 0.23214 0.07932
#
# Static dielectric constant tensor:
#      x y z
#    x 3.937980 -0.009530 -0.117930 
#    y -0.009530 3.847420 -0.154510 
#    z -0.117930 -0.154510 3.956980 
# 
# 
# High freq. dielectric constant tensor:
#      x y z
#    x 1.808100 0.006520 0.003840 
#    y 0.006520 1.818330 -0.015880 
#    z 0.003840 -0.015880 1.804870 
# 
# From -- ./inp_files/66932.got.cif
#   From: 2010.06.25/outbox.cif.g09.slc.cpg/sg2_34_cif.got.tgz:66932.got - 2010.06.27 13:26:56.
