data_PCOD8004504
_publ_section_title
;
Structure prediction by ZEFSAII (Michael W. Deem and Ramdas Pophale) SiO2 
 PCOD8004504
Probable space group: P -1
;
_chemical_formula_sum "Si O2"
_cell_formula_units_Z 16
_cell_length_a 13.772471
_cell_length_b 9.715422
_cell_length_c 11.763246
_cell_angle_alpha 131.087985
_cell_angle_beta 52.052972
_cell_angle_gamma 137.954011
_cell_volume 768.998906
_symmetry_space_group_name_H-M "P -1"
_symmetry_group_IT_number 2
_symmetry_cell_setting 'triclinic'
loop_
_space_group_symop_operation_xyz
x,y,z
-x,-y,-z
loop_
_atom_site_type_symbol
_atom_site_label
_atom_site_fract_x
_atom_site_fract_y
_atom_site_fract_z
Si Si1 0.708978 0.169822 0.560656
Si Si2 0.868545 0.981648 0.268232
Si Si3 0.376942 0.216846 0.995333
Si Si4 0.548124 0.644879 0.221138
Si Si5 0.602456 0.214187 0.430269
Si Si6 0.836544 0.632162 0.835315
Si Si7 0.789184 0.290113 0.132099
Si Si8 0.108110 0.392648 0.965327
O O1 0.674211 0.137600 0.430924
O O2 0.788580 0.419991 0.678222
O O3 0.820935 0.090434 0.457485
O O4 0.546499 0.993961 0.637544
O O5 0.721831 0.791401 0.203899
O O6 0.932333 0.839891 0.189634
O O7 0.987628 0.176823 0.204737
O O8 0.491896 0.389863 0.101318
O O9 0.253709 0.267374 0.084847
O O10 0.469346 0.257614 0.833279
O O11 0.304780 0.972980 0.962729
O O12 0.441821 0.637641 0.391531
O O13 0.723928 0.350715 0.318450
O O14 0.811528 0.561423 0.946051
O O15 0.778082 0.404739 0.089867
O O16 0.960384 0.387630 0.087878
#
# Coordination Sequence:
#
# PCOD8004504 Si02
#       8
#     2   2   2   2   2   2   2   2
#     4  10  21  35  63  95 121 147 204 256 299 352
#     4  11  21  38  61  90 122 156 200 256 301 349
#     4  11  20  36  64  94 119 155 202 254 296 355
#     4  10  21  36  63  94 123 151 205 251 298 356
#     4  10  20  38  59  90 123 163 192 242 304 363
#     4  12  21  37  64  96 119 151 207 256 298 348
#     4  11  24  41  61  85 126 168 200 242 308 368
#     4  11  24  41  59  90 123 163 204 248 302 361
#
# _framework density 20.806270000000001
#
# number of rings (size 3 to 8) (size 9 to 14) (size 15 to 20)
#    0.000    1.250    3.750    4.500    1.750    0.000 
#    0.000    6.250    0.000    3.750    0.000    0.000 
#    0.000    0.000    0.000    0.000    0.000    0.000 
#
# Total GULP energy -198270.983877 kJ/mol
# GULP energy per Si atom -12391.936492 kJ/mol
# Density = 2.075891 g / cm^3
# Si number density = 20.806270 Si / 1000 Ang^3
#
#
#
# Elastic Constant Matrix: (Units=GPa)
#
#
# Indices 1 2 3 4 5 6 
#
# 1 55.0308 35.3085 41.9939 -2.1211 -4.2960 1.4259
# 2 35.3085 139.9730 72.5337 -5.4004 8.3431 -8.6685
# 3 41.9939 72.5337 135.4657 -2.3379 -13.4606 0.8713
# 4 -2.1211 -5.4004 -2.3379 36.9550 4.2140 -1.7023
# 5 -4.2960 8.3431 -13.4606 4.2140 19.2553 1.4836
# 6 1.4259 -8.6685 0.8713 -1.7023 1.4836 31.5002
#
#
#
# Elastic Compliance Matrix: (Units=1/GPa)
#
#
# Indices 1 2 3 4 5 6 
#
# 1 0.025088 -0.003974 -0.005255 -0.000013 0.003823 -0.002265
# 2 -0.003974 0.012793 -0.006807 0.002810 -0.012159 0.004613
# 3 -0.005255 -0.006807 0.013840 -0.001922 0.012080 -0.002691
# 4 -0.000013 0.002810 -0.001922 0.028505 -0.009018 0.002792
# 5 0.003823 -0.012159 0.012080 -0.009018 0.069058 -0.007593
# 6 -0.002265 0.004613 -0.002691 0.002792 -0.007593 0.033701
#
#
# Mechanical properties :
#
#
# Convention : Reuss Voigt Hill
#
# Bulk Modulus (GPa) = 50.89399 70.01577 60.45488
# Shear Modulus (GPa) = 22.56230 29.58433 26.07331
#
# Velocity S-wave (km/s) = 3.29659 3.77489 3.54382
# Velocity P-wave (km/s) = 6.24532 7.26114 6.77230
#
# Compressibility (1/GPa) = 0.01964869
#
# Stress axis : x y z
#
# Youngs Moduli (GPa) = 39.85929 78.16758 72.25184
#
# Poissons Ratio (x) = 0.31063 0.37970
# Poissons Ratio (y) = 0.15840 0.49184
# Poissons Ratio (z) = 0.20947 0.53211
#
# Static dielectric constant tensor:
#      x y z
#    x 3.637160 0.158550 -0.335060 
#    y 0.158550 3.827660 0.092610 
#    z -0.335060 0.092610 3.999940 
# 
# 
# High freq. dielectric constant tensor:
#      x y z
#    x 1.784460 0.027460 -0.033030 
#    y 0.027460 1.804730 0.010800 
#    z -0.033030 0.010800 1.831060 
# 
# From -- ./inp_files/448185.got.cif
#   From: 2010.06.25/outbox.cif.g09.slc.cpg/sg2_225_cif.got.tgz:448185.got - 2010.06.27 13:26:56.
