data_PCOD8004182
_publ_section_title
;
Structure prediction by ZEFSAII (Michael W. Deem and Ramdas Pophale) SiO2 
 PCOD8004182
Probable space group: P -1
;
_chemical_formula_sum "Si O2"
_cell_formula_units_Z 16
_cell_length_a 17.608449
_cell_length_b 8.383907
_cell_length_c 7.564889
_cell_angle_alpha 83.735313
_cell_angle_beta 47.326328
_cell_angle_gamma 116.319623
_cell_volume 576.500575
_symmetry_space_group_name_H-M "P -1"
_symmetry_group_IT_number 2
_symmetry_cell_setting 'triclinic'
loop_
_space_group_symop_operation_xyz
x,y,z
-x,-y,-z
loop_
_atom_site_type_symbol
_atom_site_label
_atom_site_fract_x
_atom_site_fract_y
_atom_site_fract_z
Si Si1 0.716915 0.041050 0.747660
Si Si2 0.674207 0.788958 0.246518
Si Si3 0.225860 0.529379 0.340745
Si Si4 0.886233 0.180563 0.120168
Si Si5 0.370838 0.577483 0.759630
Si Si6 0.029836 0.718124 0.448094
Si Si7 0.570086 0.451891 0.763156
Si Si8 0.140801 0.478689 0.922117
O O1 0.753738 0.268647 0.637629
O O2 0.787593 0.031287 0.465456
O O3 0.793442 0.059465 0.814850
O O4 0.547373 0.819810 0.053330
O O5 0.547729 0.785144 0.432712
O O6 0.688731 0.672755 0.078793
O O7 0.603397 0.578612 0.516641
O O8 0.829451 0.019653 0.055778
O O9 0.053324 0.300176 0.591676
O O10 0.282814 0.465191 0.400700
O O11 0.322211 0.629557 0.997562
O O12 0.860925 0.333070 0.079138
O O13 0.059136 0.340515 0.881112
O O14 0.301940 0.581604 0.685388
O O15 0.000000 0.500000 0.500000
O O16 0.955380 0.701965 0.745169
O O17 0.500000 0.500000 0.000000
#
# Coordination Sequence:
#
# PCOD8004182 Si02
#       8
#     2   2   2   2   2   2   2   2
#     4  10  20  37  65  87 116 151 197 246 288 339
#     4  11  24  41  58  82 127 158 192 236 295 349
#     4  10  20  39  63  87 114 151 202 245 284 344
#     4  10  20  39  61  92 114 152 192 246 292 345
#     4  10  22  43  55  86 120 157 191 244 286 354
#     4   8  17  37  58  87 115 144 187 249 289 336
#     4  12  22  39  59  87 118 159 198 236 289 348
#     4   9  20  37  64  86 115 147 202 241 289 343
#
# _framework density 27.753657
#
# number of rings (size 3 to 8) (size 9 to 14) (size 15 to 20)
#    0.000    2.000    2.500    0.375    1.750    1.000 
#   13.500    1.875    0.000    0.000    0.000    0.000 
#    0.000    0.000    0.000    0.000    0.000    0.000 
#
# Total GULP energy -198301.585671 kJ/mol
# GULP energy per Si atom -12393.849104 kJ/mol
# Density = 2.769049 g / cm^3
# Si number density = 27.753657 Si / 1000 Ang^3
#
#
#
# Elastic Constant Matrix: (Units=GPa)
#
#
# Indices 1 2 3 4 5 6 
#
# 1 182.9275 21.3323 50.6495 -7.2780 -34.5635 31.6313
# 2 21.3323 106.2955 31.2788 -15.3907 -20.5950 25.0067
# 3 50.6495 31.2788 109.9182 -28.0707 -39.1666 15.5716
# 4 -7.2780 -15.3907 -28.0707 47.4828 19.5780 -1.4455
# 5 -34.5635 -20.5950 -39.1666 19.5780 57.5493 6.6754
# 6 31.6313 25.0067 15.5716 -1.4455 6.6754 44.5070
#
#
#
# Elastic Compliance Matrix: (Units=1/GPa)
#
#
# Indices 1 2 3 4 5 6 
#
# 1 0.007859 0.001241 -0.001529 -0.001763 0.005493 -0.006629
# 2 0.001241 0.012579 -0.000723 0.001418 0.005252 -0.008439
# 3 -0.001529 -0.000723 0.014640 0.004887 0.007660 -0.004620
# 4 -0.001763 0.001418 0.004887 0.026799 -0.006409 0.000578
# 5 0.005493 0.005252 0.007660 -0.006409 0.031629 -0.014486
# 6 -0.006629 -0.008439 -0.004620 0.000578 -0.014486 0.035729
#
#
# Mechanical properties :
#
#
# Convention : Reuss Voigt Hill
#
# Bulk Modulus (GPa) = 30.24988 67.29581 48.77285
# Shear Modulus (GPa) = 35.14332 49.63319 42.38826
#
# Velocity S-wave (km/s) = 3.56231 4.23347 3.91231
# Velocity P-wave (km/s) = 5.27666 6.94238 6.16603
#
# Compressibility (1/GPa) = 0.03305799
#
# Stress axis : x y z
#
# Youngs Moduli (GPa) = 127.24075 79.49482 68.30771
#
# Poissons Ratio (x) = -0.09865 0.10441
# Poissons Ratio (y) = -0.15791 0.04935
# Poissons Ratio (z) = 0.19450 0.05744
#
# Static dielectric constant tensor:
#      x y z
#    x 5.869520 0.694320 0.126480 
#    y 0.694320 4.163400 -0.456840 
#    z 0.126480 -0.456840 5.234140 
# 
# 
# High freq. dielectric constant tensor:
#      x y z
#    x 2.146330 0.038150 0.005920 
#    y 0.038150 2.107280 0.017340 
#    z 0.005920 0.017340 2.156180 
# 
# From -- ./inp_files/327530.got.cif
#   From: 2010.06.25/outbox.cif.g09.slc.cpg/sg2_164_cif.got.tgz:327530.got - 2010.06.27 13:26:56.
