data_PCOD8004502
_publ_section_title
;
Structure prediction by ZEFSAII (Michael W. Deem and Ramdas Pophale) SiO2 
 PCOD8004502
Probable space group: P -1
;
_chemical_formula_sum "Si O2"
_cell_formula_units_Z 14
_cell_length_a 9.138497
_cell_length_b 13.441487
_cell_length_c 22.767020
_cell_angle_alpha 152.668621
_cell_angle_beta 143.330027
_cell_angle_gamma 55.655068
_cell_volume 644.852616
_symmetry_space_group_name_H-M "P -1"
_symmetry_group_IT_number 2
_symmetry_cell_setting 'triclinic'
loop_
_space_group_symop_operation_xyz
x,y,z
-x,-y,-z
loop_
_atom_site_type_symbol
_atom_site_label
_atom_site_fract_x
_atom_site_fract_y
_atom_site_fract_z
Si Si1 0.773882 0.773846 0.245871
Si Si2 0.968248 0.306815 0.604930
Si Si3 0.862436 0.330352 0.773521
Si Si4 0.558663 0.367982 0.588245
Si Si5 0.659421 0.297902 0.276501
Si Si6 0.905820 0.182434 0.831939
Si Si7 0.486023 0.742101 0.926881
O O1 0.835042 0.751686 0.321696
O O2 0.029620 0.815212 0.307602
O O3 0.500000 0.500000 0.000000
O O4 0.743015 0.020363 0.354111
O O5 0.803377 0.413953 0.644617
O O6 0.177778 0.518832 0.736734
O O7 0.636231 0.359238 0.676827
O O8 0.740181 0.166927 0.709188
O O9 0.114082 0.620788 0.027591
O O10 0.505897 0.598406 0.683734
O O11 0.258812 0.095362 0.335827
O O12 0.000000 0.500000 0.500000
O O13 0.565192 0.017373 0.122520
O O14 0.556894 0.273186 0.164039
O O15 0.246107 0.287280 0.984945
#
# Coordination Sequence:
#
# PCOD8004502 Si02
#       7
#     2   2   2   2   2   2   2
#     4  10  20  38  59  89 136 172 196 244 318 379
#     4  10  24  39  61  95 130 161 208 256 310 376
#     4  10  22  34  60  96 127 164 205 256 307 371
#     4  11  22  41  63  92 128 166 205 260 312 371
#     4  11  24  44  68  88 120 168 218 264 314 361
#     4  11  21  37  63  95 126 164 212 254 307 380
#     4  11  24  42  65  93 123 164 216 264 305 372
#
# _framework density 21.710387999999998
#
# number of rings (size 3 to 8) (size 9 to 14) (size 15 to 20)
#    0.000    1.429    2.857    2.143    2.000    7.429 
#    0.000    0.714    0.000    0.000    0.000    0.000 
#    0.000    0.000    0.000    0.000    0.000    0.000 
#
# Total GULP energy -173521.619471 kJ/mol
# GULP energy per Si atom -12394.401391 kJ/mol
# Density = 2.166097 g / cm^3
# Si number density = 21.710388 Si / 1000 Ang^3
#
#
#
# Elastic Constant Matrix: (Units=GPa)
#
#
# Indices 1 2 3 4 5 6 
#
# 1 68.3752 21.8256 17.6496 15.6363 -3.0889 -10.2830
# 2 21.8256 60.3913 17.6416 12.8435 -6.1291 -17.6422
# 3 17.6496 17.6416 90.7776 30.6874 2.5077 -3.7442
# 4 15.6363 12.8435 30.6874 41.4901 -4.2965 -2.6063
# 5 -3.0889 -6.1291 2.5077 -4.2965 37.2616 5.5182
# 6 -10.2830 -17.6422 -3.7442 -2.6063 5.5182 30.9342
#
#
#
# Elastic Compliance Matrix: (Units=1/GPa)
#
#
# Indices 1 2 3 4 5 6 
#
# 1 0.017711 -0.004321 -0.000977 -0.004442 -0.000126 0.002953
# 2 -0.004321 0.022667 -0.002172 -0.002945 0.001593 0.010696
# 3 -0.000977 -0.002172 0.015254 -0.010526 -0.002659 -0.000130
# 4 -0.004442 -0.002945 -0.010526 0.034766 0.004198 -0.002250
# 5 -0.000126 0.001593 -0.002659 0.004198 0.028368 -0.004162
# 6 0.002953 0.010696 -0.000130 -0.002250 -0.004162 0.039946
#
#
# Mechanical properties :
#
#
# Convention : Reuss Voigt Hill
#
# Bulk Modulus (GPa) = 24.57448 37.08640 30.83044
# Shear Modulus (GPa) = 26.70700 32.76565 29.73633
#
# Velocity S-wave (km/s) = 3.51115 3.88908 3.70494
# Velocity P-wave (km/s) = 5.27080 6.10622 5.70383
#
# Compressibility (1/GPa) = 0.04069262
#
# Stress axis : x y z
#
# Youngs Moduli (GPa) = 56.46264 44.11618 65.55528
#
# Poissons Ratio (x) = 0.19062 0.06403
# Poissons Ratio (y) = 0.24396 0.14241
# Poissons Ratio (z) = 0.05515 0.09584
#
# Static dielectric constant tensor:
#      x y z
#    x 3.210250 0.094570 0.085070 
#    y 0.094570 3.747110 -0.074710 
#    z 0.085070 -0.074710 3.925500 
# 
# 
# High freq. dielectric constant tensor:
#      x y z
#    x 1.842280 -0.013120 -0.019780 
#    y -0.013120 1.832980 0.009100 
#    z -0.019780 0.009100 1.872220 
# 
# From -- ./inp_files/119419.got.cif
#   From: 2010.06.25/outbox.cif.g09.slc.cpg/sg2_60_cif.got.tgz:119419.got - 2010.06.27 13:26:56.
