data_PCOD8004001
_publ_section_title
;
Structure prediction by ZEFSAII (Michael W. Deem and Ramdas Pophale) SiO2 
 PCOD8004001
Probable space group: P -1
;
_chemical_formula_sum "Si O2"
_cell_formula_units_Z 16
_cell_length_a 10.117207
_cell_length_b 16.318317
_cell_length_c 9.436760
_cell_angle_alpha 78.785719
_cell_angle_beta 71.195986
_cell_angle_gamma 34.863203
_cell_volume 835.948546
_symmetry_space_group_name_H-M "P -1"
_symmetry_group_IT_number 2
_symmetry_cell_setting 'triclinic'
loop_
_space_group_symop_operation_xyz
x,y,z
-x,-y,-z
loop_
_atom_site_type_symbol
_atom_site_label
_atom_site_fract_x
_atom_site_fract_y
_atom_site_fract_z
Si Si1 0.905118 0.778971 0.783602
Si Si2 0.829572 0.387909 0.831482
Si Si3 0.164556 0.216775 0.511477
Si Si4 0.646688 0.057567 0.441325
Si Si5 0.059706 0.956556 0.832299
Si Si6 0.728207 0.319757 0.120423
Si Si7 0.352394 0.922745 0.243044
Si Si8 0.115626 0.357278 0.953341
O O1 0.945635 0.733056 0.623435
O O2 0.165197 0.681418 0.782812
O O3 0.704837 0.951244 0.814476
O O4 0.824124 0.735567 0.908557
O O5 0.550698 0.527959 0.847019
O O6 0.955478 0.334515 0.656026
O O7 0.917771 0.419429 0.891349
O O8 0.869643 0.281389 0.941015
O O9 0.359201 0.197305 0.461460
O O10 0.278072 0.073915 0.563253
O O11 0.796873 0.035929 0.283024
O O12 0.700518 0.066200 0.576408
O O13 0.241675 0.791214 0.819991
O O14 0.816900 0.056443 0.794767
O O15 0.000000 0.000000 0.000000
O O16 0.626534 0.760341 0.174089
O O17 0.000000 0.500000 0.000000
#
# Coordination Sequence:
#
# PCOD8004001 Si02
#       8
#     2   2   2   2   2   2   2   2
#     4   9  21  39  61  86 116 154 202 239 286 353
#     4  10  20  40  61  81 120 157 194 234 297 355
#     4  10  20  37  63  86 115 153 196 239 291 353
#     4  10  21  38  58  90 118 149 196 243 294 347
#     4  11  23  36  60  89 117 150 199 245 291 336
#     4   9  21  39  58  84 117 156 195 237 286 355
#     4  10  21  41  61  82 119 161 194 240 294 349
#     4  11  23  38  59  89 122 155 195 242 297 347
#
# _framework density 19.139934
#
# number of rings (size 3 to 8) (size 9 to 14) (size 15 to 20)
#    0.000    2.000    1.250    1.500    3.500    0.500 
#    4.500    1.250    0.000    0.000    0.000    0.000 
#    0.000    0.000    0.000    0.000    0.000    0.000 
#
# Total GULP energy -198326.752205 kJ/mol
# GULP energy per Si atom -12395.422013 kJ/mol
# Density = 1.909637 g / cm^3
# Si number density = 19.139934 Si / 1000 Ang^3
#
#
#
# Elastic Constant Matrix: (Units=GPa)
#
#
# Indices 1 2 3 4 5 6 
#
# 1 111.9934 38.8498 66.9920 -4.5245 2.5682 -8.7643
# 2 38.8498 72.7204 39.5059 1.5742 0.7588 -10.2435
# 3 66.9920 39.5059 143.6511 -0.4239 -0.2920 -3.9222
# 4 -4.5245 1.5742 -0.4239 26.6859 -0.8530 3.5450
# 5 2.5682 0.7588 -0.2920 -0.8530 33.3802 -7.6234
# 6 -8.7643 -10.2435 -3.9222 3.5450 -7.6234 23.7882
#
#
#
# Elastic Compliance Matrix: (Units=1/GPa)
#
#
# Indices 1 2 3 4 5 6 
#
# 1 0.013776 -0.004329 -0.005178 0.002246 -0.000526 0.001855
# 2 -0.004329 0.018660 -0.002933 -0.002741 0.001367 0.006804
# 3 -0.005178 -0.002933 0.010145 -0.000354 0.000232 -0.001371
# 4 0.002246 -0.002741 -0.000354 0.038840 -0.000579 -0.006385
# 5 -0.000526 0.001367 0.000232 -0.000579 0.032448 0.010918
# 6 0.001855 0.006804 -0.001371 -0.006385 0.010918 0.049875
#
#
# Mechanical properties :
#
#
# Convention : Reuss Voigt Hill
#
# Bulk Modulus (GPa) = 56.48888 68.78450 62.63669
# Shear Modulus (GPa) = 25.70398 28.97200 27.33799
#
# Velocity S-wave (km/s) = 3.66860 3.89484 3.78341
# Velocity P-wave (km/s) = 6.89366 7.49947 7.20294
#
# Compressibility (1/GPa) = 0.01770260
#
# Stress axis : x y z
#
# Youngs Moduli (GPa) = 72.59109 53.58916 98.57530
#
# Poissons Ratio (x) = 0.23196 0.51040
# Poissons Ratio (y) = 0.31421 0.28910
# Poissons Ratio (z) = 0.37586 0.15717
#
# Static dielectric constant tensor:
#      x y z
#    x 3.279050 -0.324090 0.144490 
#    y -0.324090 3.167440 -0.065410 
#    z 0.144490 -0.065410 3.543250 
# 
# 
# High freq. dielectric constant tensor:
#      x y z
#    x 1.755070 -0.011080 0.005300 
#    y -0.011080 1.729180 -0.009740 
#    z 0.005300 -0.009740 1.751840 
# 
# From -- ./inp_files/202037.got.cif
#   From: 2010.06.25/outbox.cif.g09.slc.cpg/sg2_102_cif.got.tgz:202037.got - 2010.06.27 13:26:56.
