data_PCOD8004977
_publ_section_title
;
Structure prediction by ZEFSAII (Michael W. Deem and Ramdas Pophale) SiO2 
 PCOD8004977
Probable space group: P -1
;
_chemical_formula_sum "Si O2"
_cell_formula_units_Z 16
_cell_length_a 9.349103
_cell_length_b 17.252950
_cell_length_c 11.058915
_cell_angle_alpha 61.724694
_cell_angle_beta 56.491963
_cell_angle_gamma 30.973842
_cell_volume 765.457539
_symmetry_space_group_name_H-M "P -1"
_symmetry_group_IT_number 2
_symmetry_cell_setting 'triclinic'
loop_
_space_group_symop_operation_xyz
x,y,z
-x,-y,-z
loop_
_atom_site_type_symbol
_atom_site_label
_atom_site_fract_x
_atom_site_fract_y
_atom_site_fract_z
Si Si1 0.861829 0.405659 0.378298
Si Si2 0.698834 0.350587 0.945572
Si Si3 0.318442 0.406332 0.892978
Si Si4 0.424923 0.818052 0.253654
Si Si5 0.684206 0.302472 0.457943
Si Si6 0.949252 0.639986 0.305434
Si Si7 0.317111 0.313050 0.364362
Si Si8 0.108445 0.840062 0.787730
O O1 0.717812 0.497242 0.253043
O O2 0.876722 0.293710 0.449344
O O3 0.660253 0.525274 0.496140
O O4 0.183332 0.312917 0.315672
O O5 0.491068 0.368996 0.957230
O O6 0.909627 0.321184 0.782953
O O7 0.500000 0.500000 0.000000
O O8 0.901659 0.214354 0.047047
O O9 0.519743 0.248019 0.854224
O O10 0.000000 0.500000 0.000000
O O11 0.272364 0.811788 0.420612
O O12 0.738420 0.720053 0.228649
O O13 0.215170 0.988899 0.211396
O O14 0.780863 0.262757 0.302978
O O15 0.750466 0.709534 0.464163
O O16 0.200782 0.461556 0.309141
O O17 0.666530 0.172193 0.288308
#
# Coordination Sequence:
#
# PCOD8004977 Si02
#       8
#     2   2   2   2   2   2   2   2
#     4  10  21  36  66  99 121 163 222 272 311 369
#     4  12  25  39  67  98 127 167 220 271 317 378
#     4  11  23  43  66  92 131 172 214 264 323 389
#     4  11  24  43  66  92 132 175 212 262 335 383
#     4  10  20  38  63  95 125 166 215 268 314 378
#     4  11  22  39  63  98 128 164 218 265 313 382
#     4  11  20  38  66  95 125 166 217 265 313 377
#     4  12  24  42  66  94 133 175 212 263 331 391
#
# _framework density 20.902532000000001
#
# number of rings (size 3 to 8) (size 9 to 14) (size 15 to 20)
#    0.000    1.000    5.000    3.375    5.250    1.000 
#    0.000    1.875    0.000    0.000    0.000    0.000 
#    0.000    0.000    0.000    0.000    0.000    0.000 
#
# Total GULP energy -198431.128517 kJ/mol
# GULP energy per Si atom -12401.945532 kJ/mol
# Density = 2.085496 g / cm^3
# Si number density = 20.902532 Si / 1000 Ang^3
#
#
#
# Elastic Constant Matrix: (Units=GPa)
#
#
# Indices 1 2 3 4 5 6 
#
# 1 117.7576 29.5770 33.3432 -3.5195 -1.4943 -0.0231
# 2 29.5770 71.3316 29.5201 -4.1610 2.8825 -3.6536
# 3 33.3432 29.5201 97.3984 -4.2592 -7.7261 -0.8365
# 4 -3.5195 -4.1610 -4.2592 23.8811 -1.7222 -0.0437
# 5 -1.4943 2.8825 -7.7261 -1.7222 41.5192 3.4744
# 6 -0.0231 -3.6536 -0.8365 -0.0437 3.4744 16.0418
#
#
#
# Elastic Compliance Matrix: (Units=1/GPa)
#
#
# Indices 1 2 3 4 5 6 
#
# 1 0.009992 -0.003162 -0.002430 0.000503 0.000221 -0.000879
# 2 -0.003162 0.017529 -0.004314 0.001652 -0.002424 0.004292
# 3 -0.002430 -0.004314 0.012672 0.001343 0.002702 -0.000907
# 4 0.000503 0.001652 0.001343 0.042614 0.001908 0.000150
# 5 0.000221 -0.002424 0.002702 0.001908 0.025337 -0.005893
# 6 -0.000879 0.004292 -0.000907 0.000150 -0.005893 0.064543
#
#
# Mechanical properties :
#
#
# Convention : Reuss Voigt Hill
#
# Bulk Modulus (GPa) = 49.06445 52.37423 50.71934
# Shear Modulus (GPa) = 25.08882 29.22491 27.15687
#
# Velocity S-wave (km/s) = 3.46826 3.74324 3.60837
# Velocity P-wave (km/s) = 6.28986 6.61765 6.45584
#
# Compressibility (1/GPa) = 0.02038136
#
# Stress axis : x y z
#
# Youngs Moduli (GPa) = 100.07988 57.04677 78.91553
#
# Poissons Ratio (x) = 0.18038 0.19179
# Poissons Ratio (y) = 0.31645 0.34041
# Poissons Ratio (z) = 0.24323 0.24608
#
# Static dielectric constant tensor:
#      x y z
#    x 4.003740 -0.108700 -0.127770 
#    y -0.108700 3.355600 -0.007870 
#    z -0.127770 -0.007870 4.043560 
# 
# 
# High freq. dielectric constant tensor:
#      x y z
#    x 1.829590 -0.012740 -0.002520 
#    y -0.012740 1.776320 -0.000920 
#    z -0.002520 -0.000920 1.825920 
# 
# From -- ./inp_files/402006.got.cif
#   From: 2010.06.25/outbox.cif.g09.slc.cpg/sg2_202_cif.got.tgz:402006.got - 2010.06.27 13:26:56.
