data_PCOD8004333
_publ_section_title
;
Structure prediction by ZEFSAII (Michael W. Deem and Ramdas Pophale) SiO2 
 PCOD8004333
Probable space group: P -1
;
_chemical_formula_sum "Si O2"
_cell_formula_units_Z 16
_cell_length_a 9.242377
_cell_length_b 8.792572
_cell_length_c 22.658409
_cell_angle_alpha 117.894589
_cell_angle_beta 127.916052
_cell_angle_gamma 31.898282
_cell_volume 761.158888
_symmetry_space_group_name_H-M "P -1"
_symmetry_group_IT_number 2
_symmetry_cell_setting 'triclinic'
loop_
_space_group_symop_operation_xyz
x,y,z
-x,-y,-z
loop_
_atom_site_type_symbol
_atom_site_label
_atom_site_fract_x
_atom_site_fract_y
_atom_site_fract_z
Si Si1 0.193043 0.329109 0.575901
Si Si2 0.810493 0.984103 0.838110
Si Si3 0.293288 0.328542 0.252653
Si Si4 0.506823 0.480590 0.929181
Si Si5 0.223426 0.018323 0.783709
Si Si6 0.263392 0.896743 0.283591
Si Si7 0.640671 0.738413 0.952133
Si Si8 0.258273 0.280557 0.366491
O O1 0.407087 0.338905 0.641591
O O2 0.000000 0.500000 0.500000
O O3 0.975486 0.449090 0.599015
O O4 0.415382 0.993888 0.566831
O O5 0.678739 0.893197 0.797837
O O6 0.168955 0.690614 0.859853
O O7 0.741000 0.151852 0.908588
O O8 0.664570 0.198058 0.784463
O O9 0.315511 0.342593 0.331472
O O10 0.970939 0.657704 0.211008
O O11 0.590781 0.179472 0.264949
O O12 0.606706 0.585968 0.948525
O O13 0.500000 0.500000 0.000000
O O14 0.971677 0.059789 0.739139
O O15 0.481012 0.846391 0.867670
O O16 0.113531 0.202323 0.300472
O O17 0.000000 0.500000 0.000000
O O18 0.500000 0.000000 0.000000
#
# Coordination Sequence:
#
# PCOD8004333 Si02
#       8
#     2   2   2   2   2   2   2   2
#     4  10  20  37  70 102 131 167 214 265 315 373
#     4  11  24  44  65  91 120 167 219 270 314 379
#     4  11  25  40  67  97 128 166 214 272 324 381
#     4  12  27  44  66  87 124 165 216 269 332 385
#     4  12  25  42  66  94 126 171 215 272 330 385
#     4   9  24  38  69  94 127 165 223 263 315 373
#     4  12  28  46  61  89 128 165 214 270 336 391
#     4   9  21  40  63  97 132 163 215 262 306 382
#
# _framework density 21.020578
#
# number of rings (size 3 to 8) (size 9 to 14) (size 15 to 20)
#    0.750    0.500    1.250    3.750   12.250    0.000 
#    0.000    0.000    0.000    4.500    0.000    0.000 
#    0.000    0.000    0.000    0.000    0.000    0.000 
#
# Total GULP energy -198274.620403 kJ/mol
# GULP energy per Si atom -12392.163775 kJ/mol
# Density = 2.097273 g / cm^3
# Si number density = 21.020578 Si / 1000 Ang^3
#
#
#
# Elastic Constant Matrix: (Units=GPa)
#
#
# Indices 1 2 3 4 5 6 
#
# 1 115.5485 37.5205 56.2938 -13.5405 -22.5234 -17.6145
# 2 37.5205 100.9204 23.9394 -13.4489 -5.9331 -21.2018
# 3 56.2938 23.9394 116.3157 -26.8880 -16.5995 -13.1321
# 4 -13.5405 -13.4489 -26.8880 36.5879 -3.7913 -3.4038
# 5 -22.5234 -5.9331 -16.5995 -3.7913 25.6041 -1.6492
# 6 -17.6145 -21.2018 -13.1321 -3.4038 -1.6492 37.0415
#
#
#
# Elastic Compliance Matrix: (Units=1/GPa)
#
#
# Indices 1 2 3 4 5 6 
#
# 1 0.014416 -0.002382 -0.003641 0.003344 0.010585 0.004980
# 2 -0.002382 0.013010 0.001012 0.005624 0.002880 0.007318
# 3 -0.003641 0.001012 0.014523 0.011073 0.008434 0.005390
# 4 0.003344 0.005624 0.011073 0.041938 0.018497 0.013412
# 5 0.010585 0.002880 0.008434 0.018497 0.058141 0.013960
# 6 0.004980 0.007318 0.005390 0.013412 0.013960 0.037318
#
#
# Mechanical properties :
#
#
# Convention : Reuss Voigt Hill
#
# Bulk Modulus (GPa) = 31.32034 63.14354 47.23194
# Shear Modulus (GPa) = 24.99887 34.18210 29.59048
#
# Velocity S-wave (km/s) = 3.45230 4.03690 3.75599
# Velocity P-wave (km/s) = 5.55188 7.19950 6.42870
#
# Compressibility (1/GPa) = 0.03192813
#
# Stress axis : x y z
#
# Youngs Moduli (GPa) = 69.36832 76.86147 68.85776
#
# Poissons Ratio (x) = 0.18307 0.25070
# Poissons Ratio (y) = 0.16522 -0.06971
# Poissons Ratio (z) = 0.25256 -0.07781
#
# Static dielectric constant tensor:
#      x y z
#    x 3.746580 -0.088600 -0.139930 
#    y -0.088600 3.893010 -0.157050 
#    z -0.139930 -0.157050 3.704940 
# 
# 
# High freq. dielectric constant tensor:
#      x y z
#    x 1.824300 -0.015810 -0.015590 
#    y -0.015810 1.831490 -0.012240 
#    z -0.015590 -0.012240 1.808420 
# 
# From -- ./inp_files/606421.got.cif
#   From: 2010.06.25/outbox.cif.g09.slc.cpg/sg2_304_cif.got.tgz:606421.got - 2010.06.27 13:26:56.
