data_PCOD8004174
_publ_section_title
;
Structure prediction by ZEFSAII (Michael W. Deem and Ramdas Pophale) SiO2 
 PCOD8004174
Probable space group: P -1
;
_chemical_formula_sum "Si O2"
_cell_formula_units_Z 16
_cell_length_a 11.037878
_cell_length_b 6.850968
_cell_length_c 11.901050
_cell_angle_alpha 78.644275
_cell_angle_beta 46.908832
_cell_angle_gamma 77.092070
_cell_volume 639.362136
_symmetry_space_group_name_H-M "P -1"
_symmetry_group_IT_number 2
_symmetry_cell_setting 'triclinic'
loop_
_space_group_symop_operation_xyz
x,y,z
-x,-y,-z
loop_
_atom_site_type_symbol
_atom_site_label
_atom_site_fract_x
_atom_site_fract_y
_atom_site_fract_z
Si Si1 0.520253 0.155248 0.756502
Si Si2 0.739073 0.159582 0.836222
Si Si3 0.248635 0.349620 0.425025
Si Si4 0.341904 0.949668 0.536958
Si Si5 0.106767 0.816770 0.891632
Si Si6 0.180868 0.270132 0.051097
Si Si7 0.407824 0.724562 0.862284
Si Si8 0.076693 0.481888 0.309986
O O1 0.645406 0.116405 0.786159
O O2 0.606050 0.215079 0.578122
O O3 0.454441 0.947175 0.783159
O O4 0.357858 0.307586 0.878854
O O5 0.885931 0.294226 0.702132
O O6 0.811403 0.952440 0.874710
O O7 0.612031 0.291824 0.988549
O O8 0.250740 0.148412 0.515529
O O9 0.432756 0.423199 0.274831
O O10 0.168995 0.318702 0.355861
O O11 0.124665 0.518535 0.551395
O O12 0.500000 0.000000 0.500000
O O13 0.208613 0.872219 0.712333
O O14 0.234974 0.694002 0.911445
O O15 0.966091 0.685465 0.951913
O O16 0.000000 0.000000 0.000000
O O17 0.142851 0.438714 0.149142
#
# Coordination Sequence:
#
# PCOD8004174 Si02
#       8
#     2   2   2   2   2   2   2   2
#     4  10  20  37  65 103 129 170 227 276 333 399
#     4  11  22  41  72  98 131 180 225 276 343 392
#     4  10  22  41  64  94 144 173 215 280 341 385
#     4  11  20  39  70 101 130 180 224 273 337 400
#     4  12  21  39  69 101 131 177 230 274 331 404
#     4  11  22  41  67  99 135 178 228 272 332 403
#     4  10  20  40  66  99 134 178 224 275 331 401
#     4  11  25  43  66 102 142 173 223 287 327 400
#
# _framework density 25.024944000000001
#
# number of rings (size 3 to 8) (size 9 to 14) (size 15 to 20)
#    0.000    1.250    5.000    4.500    0.000    4.000 
#    0.000    7.500    2.750    0.000    0.000    0.000 
#    0.000    0.000    0.000    0.000    0.000    0.000 
#
# Total GULP energy -198293.689731 kJ/mol
# GULP energy per Si atom -12393.355608 kJ/mol
# Density = 2.496799 g / cm^3
# Si number density = 25.024944 Si / 1000 Ang^3
#
#
#
# Elastic Constant Matrix: (Units=GPa)
#
#
# Indices 1 2 3 4 5 6 
#
# 1 159.0334 32.4459 62.7732 28.3471 -0.9071 -12.9777
# 2 32.4459 38.0395 17.8232 7.4840 -0.8326 -14.9298
# 3 62.7732 17.8232 188.9469 31.5993 13.3178 -13.2766
# 4 28.3471 7.4840 31.5993 34.0877 -4.5516 -6.1689
# 5 -0.9071 -0.8326 13.3178 -4.5516 47.8474 2.6313
# 6 -12.9777 -14.9298 -13.2766 -6.1689 2.6313 31.3269
#
#
#
# Elastic Compliance Matrix: (Units=1/GPa)
#
#
# Indices 1 2 3 4 5 6 
#
# 1 0.009005 -0.006334 -0.001686 -0.004687 0.000135 -0.000937
# 2 -0.006334 0.037855 -0.000389 0.000057 -0.000188 0.015279
# 3 -0.001686 -0.000389 0.007017 -0.005123 -0.002550 0.001295
# 4 -0.004687 0.000057 -0.005123 0.039207 0.004891 0.003224
# 5 0.000135 -0.000188 -0.002550 0.004891 0.022185 -0.002015
# 6 -0.000937 0.015279 0.001295 0.003224 -0.002015 0.040168
#
#
# Mechanical properties :
#
#
# Convention : Reuss Voigt Hill
#
# Bulk Modulus (GPa) = 26.98397 68.01159 47.49778
# Shear Modulus (GPa) = 27.08440 40.85090 33.96765
#
# Velocity S-wave (km/s) = 3.29340 4.04469 3.68822
# Velocity P-wave (km/s) = 5.02675 7.00351 6.09579
#
# Compressibility (1/GPa) = 0.03705904
#
# Stress axis : x y z
#
# Youngs Moduli (GPa) = 111.04433 26.41681 142.51274
#
# Poissons Ratio (x) = 0.16732 0.24027
# Poissons Ratio (y) = 0.70334 0.05547
# Poissons Ratio (z) = 0.18721 0.01028
#
# Static dielectric constant tensor:
#      x y z
#    x 6.878280 -0.683820 2.294110 
#    y -0.683820 4.289750 -0.389960 
#    z 2.294110 -0.389960 8.184340 
# 
# 
# High freq. dielectric constant tensor:
#      x y z
#    x 2.001860 -0.007120 -0.003820 
#    y -0.007120 1.968760 0.004000 
#    z -0.003820 0.004000 2.025450 
# 
# From -- ./inp_files/414596.got.cif
#   From: 2010.06.25/outbox.cif.g09.slc.cpg/sg2_208_cif.got.tgz:414596.got - 2010.06.27 13:26:56.
