data_PCOD8004812
_publ_section_title
;
Structure prediction by ZEFSAII (Michael W. Deem and Ramdas Pophale) SiO2 
 PCOD8004812
Probable space group: P -1
;
_chemical_formula_sum "Si O2"
_cell_formula_units_Z 16
_cell_length_a 13.160147
_cell_length_b 12.956231
_cell_length_c 9.276164
_cell_angle_alpha 64.451863
_cell_angle_beta 112.229931
_cell_angle_gamma 148.700562
_cell_volume 741.175484
_symmetry_space_group_name_H-M "P -1"
_symmetry_group_IT_number 2
_symmetry_cell_setting 'triclinic'
loop_
_space_group_symop_operation_xyz
x,y,z
-x,-y,-z
loop_
_atom_site_type_symbol
_atom_site_label
_atom_site_fract_x
_atom_site_fract_y
_atom_site_fract_z
Si Si1 0.160113 0.271891 0.812679
Si Si2 0.288721 0.787480 0.075571
Si Si3 0.743791 0.809497 0.842061
Si Si4 0.580185 0.914233 0.693585
Si Si5 0.046079 0.682830 0.232868
Si Si6 0.242549 0.734624 0.776872
Si Si7 0.501693 0.418975 0.415035
Si Si8 0.512520 0.848854 0.380779
O O1 0.288465 0.404984 0.658988
O O2 0.105904 0.343560 0.821487
O O3 0.282952 0.302637 0.974248
O O4 0.969141 0.037574 0.802653
O O5 0.168803 0.789249 0.083184
O O6 0.326104 0.723580 0.258049
O O7 0.173899 0.642818 0.958628
O O8 0.500000 0.000000 0.000000
O O9 0.612940 0.808456 0.807043
O O10 0.664652 0.686300 0.725161
O O11 0.453344 0.858276 0.786869
O O12 0.463033 0.832971 0.531235
O O13 0.790307 0.161997 0.647758
O O14 0.923782 0.457577 0.305223
O O15 0.283462 0.906596 0.689412
O O16 0.500000 0.500000 0.500000
O O17 0.446254 0.248942 0.556139
#
# Coordination Sequence:
#
# PCOD8004812 Si02
#       8
#     2   2   2   2   2   2   2   2
#     4  10  22  42  66  94 121 162 216 254 300 369
#     4  10  21  40  59  87 128 162 204 251 306 362
#     4   9  21  42  65  94 122 161 213 257 302 358
#     4  10  20  38  62  90 126 158 200 254 303 364
#     4  11  21  37  65  92 120 160 210 250 302 363
#     4  11  22  38  61  89 127 160 207 251 301 368
#     4  11  24  43  64  92 127 163 203 254 317 369
#     4  10  22  41  58  90 125 162 201 249 311 366
#
# _framework density 21.587330999999999
#
# number of rings (size 3 to 8) (size 9 to 14) (size 15 to 20)
#    0.000    1.750    2.500    2.625    0.000    3.000 
#   13.500    0.000    0.000    0.000    0.000    0.000 
#    0.000    0.000    0.000    0.000    0.000    0.000 
#
# Total GULP energy -198245.952210 kJ/mol
# GULP energy per Si atom -12390.372013 kJ/mol
# Density = 2.153820 g / cm^3
# Si number density = 21.587331 Si / 1000 Ang^3
#
#
#
# Elastic Constant Matrix: (Units=GPa)
#
#
# Indices 1 2 3 4 5 6 
#
# 1 116.7672 54.6980 74.2689 -0.6307 -17.5144 -7.2694
# 2 54.6980 86.3969 31.4903 -6.9074 -7.6700 -19.3144
# 3 74.2689 31.4903 112.3661 7.6593 -3.2595 -9.1006
# 4 -0.6307 -6.9074 7.6593 33.6683 -1.9962 -5.2300
# 5 -17.5144 -7.6700 -3.2595 -1.9962 28.4201 -1.8170
# 6 -7.2694 -19.3144 -9.1006 -5.2300 -1.8170 37.3326
#
#
#
# Elastic Compliance Matrix: (Units=1/GPa)
#
#
# Indices 1 2 3 4 5 6 
#
# 1 0.021466 -0.008977 -0.011709 0.001366 0.009389 -0.002670
# 2 -0.008977 0.019490 0.000899 0.005119 0.000786 0.009310
# 3 -0.011709 0.000899 0.016617 -0.003904 -0.005250 0.001433
# 4 0.001366 0.005119 -0.003904 0.032991 0.004528 0.006805
# 5 0.009389 0.000786 -0.005250 0.004528 0.041130 0.003591
# 6 -0.002670 0.009310 0.001433 0.006805 0.003591 0.032560
#
#
# Mechanical properties :
#
#
# Convention : Reuss Voigt Hill
#
# Bulk Modulus (GPa) = 55.55892 70.71607 63.13750
# Shear Modulus (GPa) = 23.82904 30.22242 27.02573
#
# Velocity S-wave (km/s) = 3.32602 3.74573 3.54209
# Velocity P-wave (km/s) = 6.36730 7.17890 6.78524
#
# Compressibility (1/GPa) = 0.01799891
#
# Stress axis : x y z
#
# Youngs Moduli (GPa) = 46.58516 51.30786 60.17978
#
# Poissons Ratio (x) = 0.46057 0.70467
# Poissons Ratio (y) = 0.41817 -0.05409
# Poissons Ratio (z) = 0.54549 -0.04612
#
# Static dielectric constant tensor:
#      x y z
#    x 3.800550 -0.124800 -0.069910 
#    y -0.124800 4.307450 0.313430 
#    z -0.069910 0.313430 4.209380 
# 
# 
# High freq. dielectric constant tensor:
#      x y z
#    x 1.830880 -0.002630 -0.007660 
#    y -0.002630 1.866690 0.007680 
#    z -0.007660 0.007680 1.836000 
# 
# From -- ./inp_files/312835.got.cif
#   From: 2010.06.25/outbox.cif.g09.slc.cpg/sg2_157_cif.got.tgz:312835.got - 2010.06.27 13:26:56.
