data_PCOD8004372
_publ_section_title
;
Structure prediction by ZEFSAII (Michael W. Deem and Ramdas Pophale) SiO2 
 PCOD8004372
Probable space group: P -1
;
_chemical_formula_sum "Si O2"
_cell_formula_units_Z 16
_cell_length_a 9.597411
_cell_length_b 9.040499
_cell_length_c 21.228974
_cell_angle_alpha 31.361591
_cell_angle_beta 60.237143
_cell_angle_gamma 56.665348
_cell_volume 799.333471
_symmetry_space_group_name_H-M "P -1"
_symmetry_group_IT_number 2
_symmetry_cell_setting 'triclinic'
loop_
_space_group_symop_operation_xyz
x,y,z
-x,-y,-z
loop_
_atom_site_type_symbol
_atom_site_label
_atom_site_fract_x
_atom_site_fract_y
_atom_site_fract_z
Si Si1 0.853195 0.872548 0.349727
Si Si2 0.443824 0.150256 0.024183
Si Si3 0.480551 0.789796 0.759534
Si Si4 0.406419 0.843996 0.888051
Si Si5 0.852635 0.744167 0.662092
Si Si6 0.997251 0.210434 0.520839
Si Si7 0.082177 0.156280 0.109670
Si Si8 0.973796 0.904294 0.109910
O O1 0.883067 0.918225 0.400196
O O2 0.882633 0.533175 0.447009
O O3 0.658524 0.024690 0.324432
O O4 0.982233 0.005011 0.234592
O O5 0.569897 0.001378 0.107195
O O6 0.273019 0.101500 0.107034
O O7 0.429080 0.493125 0.893923
O O8 0.500000 0.000000 0.000000
O O9 0.479310 0.955009 0.767690
O O10 0.663744 0.723535 0.713507
O O11 0.210627 0.922711 0.889257
O O12 0.500000 0.500000 0.000000
O O13 0.885556 0.788131 0.565647
O O14 0.984492 0.449733 0.766282
O O15 0.874375 0.010400 0.604073
O O16 0.095799 0.011864 0.089994
O O17 0.000000 0.500000 0.000000
O O18 0.000000 0.000000 0.000000
#
# Coordination Sequence:
#
# PCOD8004372 Si02
#       8
#     2   2   2   2   2   2   2   2
#     4  11  23  45  67  92 126 169 218 266 311 380
#     4  11  23  36  57  97 134 162 202 254 323 385
#     4  11  22  41  63  92 128 164 211 266 314 378
#     4  10  20  38  56  89 129 167 200 247 309 385
#     4  11  24  44  67  94 127 167 215 266 317 376
#     4  10  25  45  68  89 121 175 220 262 316 372
#     4  12  22  39  64  95 127 168 207 254 321 386
#     4  12  23  39  65  95 132 167 205 259 324 378
#
# _framework density 20.016677999999999
#
# number of rings (size 3 to 8) (size 9 to 14) (size 15 to 20)
#    0.000    1.000    3.750    3.750    3.500    2.000 
#    0.000    0.000    0.000    0.000    0.000    0.000 
#    0.000    0.000    0.000    0.000    0.000    0.000 
#
# Total GULP energy -198349.279455 kJ/mol
# GULP energy per Si atom -12396.829966 kJ/mol
# Density = 1.997112 g / cm^3
# Si number density = 20.016678 Si / 1000 Ang^3
#
#
#
# Elastic Constant Matrix: (Units=GPa)
#
#
# Indices 1 2 3 4 5 6 
#
# 1 128.4405 49.4381 51.6589 5.3014 11.0197 -2.4466
# 2 49.4381 95.7221 42.3848 8.6416 5.6776 10.0282
# 3 51.6589 42.3848 103.8358 2.3876 8.3093 5.3573
# 4 5.3014 8.6416 2.3876 32.6087 4.8761 3.3234
# 5 11.0197 5.6776 8.3093 4.8761 35.0791 7.9980
# 6 -2.4466 10.0282 5.3573 3.3234 7.9980 51.0475
#
#
#
# Elastic Compliance Matrix: (Units=1/GPa)
#
#
# Indices 1 2 3 4 5 6 
#
# 1 0.011156 -0.004148 -0.003770 -0.000300 -0.002386 0.002139
# 2 -0.004148 0.014767 -0.003828 -0.002811 0.000813 -0.002642
# 3 -0.003770 -0.003828 0.013185 0.000924 -0.001295 -0.000670
# 4 -0.000300 -0.002811 0.000924 0.032080 -0.003892 -0.001038
# 5 -0.002386 0.000813 -0.001295 -0.003892 0.031056 -0.004751
# 6 0.002139 -0.002642 -0.000670 -0.001038 -0.004751 0.021093
#
#
# Mechanical properties :
#
#
# Convention : Reuss Voigt Hill
#
# Bulk Modulus (GPa) = 64.03297 68.32912 66.18105
# Shear Modulus (GPa) = 32.88700 36.04815 34.46757
#
# Velocity S-wave (km/s) = 4.05777 4.24831 4.15413
# Velocity P-wave (km/s) = 7.34937 7.63377 7.49292
#
# Compressibility (1/GPa) = 0.01561696
#
# Stress axis : x y z
#
# Youngs Moduli (GPa) = 89.63458 67.71971 75.84112
#
# Poissons Ratio (x) = 0.28092 0.28589
# Poissons Ratio (y) = 0.37184 0.29031
# Poissons Ratio (z) = 0.33788 0.25923
#
# Static dielectric constant tensor:
#      x y z
#    x 4.253760 0.143090 -0.007430 
#    y 0.143090 3.572350 -0.000470 
#    z -0.007430 -0.000470 3.767500 
# 
# 
# High freq. dielectric constant tensor:
#      x y z
#    x 1.791930 0.008910 0.008210 
#    y 0.008910 1.793680 0.007990 
#    z 0.008210 0.007990 1.771660 
# 
# From -- ./inp_files/178721.got.cif
#   From: 2010.06.25/outbox.cif.g09.slc.cpg/sg2_90_cif.got.tgz:178721.got - 2010.06.27 13:26:56.
