data_PCOD8004815
_publ_section_title
;
Structure prediction by ZEFSAII (Michael W. Deem and Ramdas Pophale) SiO2 
 PCOD8004815
Probable space group: P -1
;
_chemical_formula_sum "Si O2"
_cell_formula_units_Z 14
_cell_length_a 15.876926
_cell_length_b 15.893386
_cell_length_c 9.187711
_cell_angle_alpha 114.389831
_cell_angle_beta 132.711265
_cell_angle_gamma 27.019667
_cell_volume 634.172315
_symmetry_space_group_name_H-M "P -1"
_symmetry_group_IT_number 2
_symmetry_cell_setting 'triclinic'
loop_
_space_group_symop_operation_xyz
x,y,z
-x,-y,-z
loop_
_atom_site_type_symbol
_atom_site_label
_atom_site_fract_x
_atom_site_fract_y
_atom_site_fract_z
Si Si1 0.797298 0.170216 0.020792
Si Si2 0.222999 0.098599 0.453624
Si Si3 0.301112 0.254577 0.013667
Si Si4 0.196328 0.136544 0.882443
Si Si5 0.140469 0.354512 0.420099
Si Si6 0.826587 0.316657 0.356327
Si Si7 0.304926 0.956355 0.164896
O O1 0.501333 0.433289 0.812411
O O2 0.732447 0.120820 0.989537
O O3 0.916900 0.151529 0.271506
O O4 0.000000 0.000000 0.000000
O O5 0.279379 0.154463 0.481129
O O6 0.945125 0.308105 0.378234
O O7 0.493914 0.866397 0.700375
O O8 0.150101 0.078694 0.227133
O O9 0.486495 0.098806 0.975590
O O10 0.110979 0.306121 0.877217
O O11 0.077058 0.495408 0.865030
O O12 0.992492 0.210723 0.624151
O O13 0.187649 0.115888 0.025932
O O14 0.375548 0.253652 0.573139
O O15 0.000000 0.500000 0.500000
#
# Coordination Sequence:
#
# PCOD8004815 Si02
#       7
#     2   2   2   2   2   2   2
#     4  11  23  45  69  94 122 176 225 276 328 386
#     4  11  23  41  62 100 133 172 216 271 327 400
#     4  10  20  38  62  90 141 171 212 259 334 393
#     4  10  20  39  61  97 127 173 211 271 324 397
#     4  12  21  37  64  96 129 178 214 261 330 397
#     4  10  23  44  71  88 131 172 219 274 337 384
#     4  12  23  39  65  96 133 166 226 272 320 392
#
# _framework density 22.076018999999999
#
# number of rings (size 3 to 8) (size 9 to 14) (size 15 to 20)
#    0.000    1.143    4.286    3.857    0.000    1.143 
#    2.571    0.714    0.000    0.000    0.000    0.000 
#    0.000    0.000    0.000    0.000    0.000    0.000 
#
# Total GULP energy -173468.557018 kJ/mol
# GULP energy per Si atom -12390.611216 kJ/mol
# Density = 2.202577 g / cm^3
# Si number density = 22.076019 Si / 1000 Ang^3
#
#
#
# Elastic Constant Matrix: (Units=GPa)
#
#
# Indices 1 2 3 4 5 6 
#
# 1 76.9836 24.9794 43.4442 -2.8502 -10.3462 4.0656
# 2 24.9794 64.7421 32.4758 3.9085 -5.4453 -7.5995
# 3 43.4442 32.4758 135.0579 2.9278 -15.0312 0.7480
# 4 -2.8502 3.9085 2.9278 33.9204 2.6377 2.3387
# 5 -10.3462 -5.4453 -15.0312 2.6377 43.5649 2.4912
# 6 4.0656 -7.5995 0.7480 2.3387 2.4912 37.2186
#
#
#
# Elastic Compliance Matrix: (Units=1/GPa)
#
#
# Indices 1 2 3 4 5 6 
#
# 1 0.017543 -0.004979 -0.004247 0.002467 0.002109 -0.003144
# 2 -0.004979 0.019647 -0.003078 -0.002754 0.000105 0.004783
# 3 -0.004247 -0.003078 0.009763 -0.000975 0.002059 -0.000437
# 4 0.002467 -0.002754 -0.000975 0.030408 -0.001787 -0.002603
# 5 0.002109 0.000105 0.002059 -0.001787 0.024388 -0.001771
# 6 -0.003144 0.004783 -0.000437 -0.002603 -0.001771 0.028479
#
#
# Mechanical properties :
#
#
# Convention : Reuss Voigt Hill
#
# Bulk Modulus (GPa) = 44.75120 53.17582 48.96351
# Shear Modulus (GPa) = 30.80991 34.66638 32.73815
#
# Velocity S-wave (km/s) = 3.73986 3.96702 3.85512
# Velocity P-wave (km/s) = 6.24213 6.71736 6.48410
#
# Compressibility (1/GPa) = 0.02234577
#
# Stress axis : x y z
#
# Youngs Moduli (GPa) = 57.00331 50.89742 102.42409
#
# Poissons Ratio (x) = 0.25340 0.43502
# Poissons Ratio (y) = 0.28380 0.31527
# Poissons Ratio (z) = 0.24211 0.15666
#
# Static dielectric constant tensor:
#      x y z
#    x 4.106440 -0.125320 0.085150 
#    y -0.125320 4.492050 0.288180 
#    z 0.085150 0.288180 4.022650 
# 
# 
# High freq. dielectric constant tensor:
#      x y z
#    x 1.864690 -0.008870 0.002230 
#    y -0.008870 1.852990 0.011130 
#    z 0.002230 0.011130 1.867530 
# 
# From -- ./inp_files/315688.got.cif
#   From: 2010.06.25/outbox.cif.g09.slc.cpg/sg2_158_cif.got.tgz:315688.got - 2010.06.27 13:26:56.
