data_PCOD8004324
_publ_section_title
;
Structure prediction by ZEFSAII (Michael W. Deem and Ramdas Pophale) SiO2 
 PCOD8004324
Probable space group: P -1
;
_chemical_formula_sum "Si O2"
_cell_formula_units_Z 16
_cell_length_a 13.312718
_cell_length_b 20.249625
_cell_length_c 9.290286
_cell_angle_alpha 136.280282
_cell_angle_beta 136.078387
_cell_angle_gamma 27.693061
_cell_volume 778.835696
_symmetry_space_group_name_H-M "P -1"
_symmetry_group_IT_number 2
_symmetry_cell_setting 'triclinic'
loop_
_space_group_symop_operation_xyz
x,y,z
-x,-y,-z
loop_
_atom_site_type_symbol
_atom_site_label
_atom_site_fract_x
_atom_site_fract_y
_atom_site_fract_z
Si Si1 0.030537 0.620245 0.479225
Si Si2 0.454327 0.412966 0.786074
Si Si3 0.390726 0.996542 0.755305
Si Si4 0.063002 0.317474 0.841429
Si Si5 0.663881 0.929663 0.690040
Si Si6 0.498507 0.790705 0.940744
Si Si7 0.729425 0.588716 0.119079
Si Si8 0.739369 0.139023 0.470544
O O1 0.264006 0.491180 0.594745
O O2 0.069571 0.610934 0.333708
O O3 0.914255 0.775678 0.662188
O O4 0.868102 0.613919 0.339631
O O5 0.388789 0.393389 0.834474
O O6 0.677920 0.256452 0.699496
O O7 0.500000 0.500000 0.000000
O O8 0.575160 0.899307 0.668196
O O9 0.346977 0.912553 0.625397
O O10 0.163245 0.161853 0.726333
O O11 0.500000 0.000000 0.000000
O O12 0.261698 0.295395 0.007396
O O13 0.895999 0.425657 0.968797
O O14 0.500000 0.000000 0.500000
O O15 0.658934 0.039798 0.918290
O O16 0.377001 0.788562 0.690998
O O17 0.534660 0.709746 0.993478
O O18 0.000000 0.000000 0.500000
#
# Coordination Sequence:
#
# PCOD8004324 Si02
#       8
#     2   2   2   2   2   2   2   2
#     4  11  22  40  69  96 131 167 213 270 331 379
#     4  12  30  46  62  95 135 173 222 270 319 386
#     4  11  22  38  67  99 130 166 220 264 324 378
#     4  10  20  37  69 100 126 164 209 272 328 388
#     4  11  19  37  67 104 132 158 213 276 323 382
#     4  10  21  41  65  99 131 164 214 271 323 387
#     4  11  22  41  71  94 127 164 219 270 334 377
#     4  12  27  47  66  91 134 180 219 262 321 394
#
# _framework density 20.543485
#
# number of rings (size 3 to 8) (size 9 to 14) (size 15 to 20)
#    0.000    1.000    6.250    4.125    5.250    0.000 
#    2.250    1.875    0.000    0.000    0.000    0.000 
#    0.000    0.000    0.000    0.000    0.000    0.000 
#
# Total GULP energy -198438.843603 kJ/mol
# GULP energy per Si atom -12402.427725 kJ/mol
# Density = 2.049673 g / cm^3
# Si number density = 20.543485 Si / 1000 Ang^3
#
#
#
# Elastic Constant Matrix: (Units=GPa)
#
#
# Indices 1 2 3 4 5 6 
#
# 1 75.2464 42.8485 54.4042 -5.8458 -19.0937 3.5071
# 2 42.8485 108.7938 42.0240 3.1891 -15.2918 -3.7622
# 3 54.4042 42.0240 112.3583 4.1655 -14.1586 0.0477
# 4 -5.8458 3.1891 4.1655 45.5039 2.0958 -12.8043
# 5 -19.0937 -15.2918 -14.1586 2.0958 31.9256 9.0200
# 6 3.5071 -3.7622 0.0477 -12.8043 9.0200 36.3662
#
#
#
# Elastic Compliance Matrix: (Units=1/GPa)
#
#
# Indices 1 2 3 4 5 6 
#
# 1 0.026263 -0.005516 -0.009506 0.002896 0.009941 -0.004537
# 2 -0.005516 0.012317 -0.001681 -0.001223 0.001662 0.000966
# 3 -0.009506 -0.001681 0.014225 -0.002446 0.000019 -0.000142
# 4 0.002896 -0.001223 -0.002446 0.025584 -0.004354 0.009685
# 5 0.009941 0.001662 0.000019 -0.004354 0.041954 -0.012726
# 6 -0.004537 0.000966 -0.000142 0.009685 -0.012726 0.034602
#
#
# Mechanical properties :
#
#
# Convention : Reuss Voigt Hill
#
# Bulk Modulus (GPa) = 51.55435 63.88353 57.71894
# Shear Modulus (GPa) = 25.66513 33.23391 29.44952
#
# Velocity S-wave (km/s) = 3.53839 4.02647 3.79029
# Velocity P-wave (km/s) = 6.46864 7.26504 6.87838
#
# Compressibility (1/GPa) = 0.01939700
#
# Stress axis : x y z
#
# Youngs Moduli (GPa) = 38.07666 81.19147 70.29908
#
# Poissons Ratio (x) = 0.44787 0.66828
# Poissons Ratio (y) = 0.21004 0.11819
# Poissons Ratio (z) = 0.36196 0.13650
#
# Static dielectric constant tensor:
#      x y z
#    x 3.878520 -0.096590 -0.679090 
#    y -0.096590 4.390640 0.504670 
#    z -0.679090 0.504670 4.196220 
# 
# 
# High freq. dielectric constant tensor:
#      x y z
#    x 1.787280 0.012510 -0.031020 
#    y 0.012510 1.816310 0.012310 
#    z -0.031020 0.012310 1.801340 
# 
# From -- ./inp_files/279982.got.cif
#   From: 2010.06.25/outbox.cif.g09.slc.cpg/sg2_140_cif.got.tgz:279982.got - 2010.06.27 13:26:56.
