data_PCOD8004938
_publ_section_title
;
Structure prediction by ZEFSAII (Michael W. Deem and Ramdas Pophale) SiO2 
 PCOD8004938
Probable space group: P -1
;
_chemical_formula_sum "Si O2"
_cell_formula_units_Z 16
_cell_length_a 14.183418
_cell_length_b 11.158250
_cell_length_c 9.697693
_cell_angle_alpha 71.426389
_cell_angle_beta 47.713008
_cell_angle_gamma 46.520514
_cell_volume 793.479714
_symmetry_space_group_name_H-M "P -1"
_symmetry_group_IT_number 2
_symmetry_cell_setting 'triclinic'
loop_
_space_group_symop_operation_xyz
x,y,z
-x,-y,-z
loop_
_atom_site_type_symbol
_atom_site_label
_atom_site_fract_x
_atom_site_fract_y
_atom_site_fract_z
Si Si1 0.040197 0.828504 0.499152
Si Si2 0.255589 0.633085 0.620076
Si Si3 0.359082 0.278052 0.048975
Si Si4 0.620437 0.309012 0.282197
Si Si5 0.187579 0.417463 0.890673
Si Si6 0.320247 0.583394 0.082935
Si Si7 0.684509 0.960910 0.700529
Si Si8 0.523252 0.107558 0.525258
O O1 0.107093 0.734921 0.614902
O O2 0.173520 0.716341 0.286771
O O3 0.870607 0.866235 0.611834
O O4 0.000000 0.000000 0.500000
O O5 0.437683 0.501869 0.410337
O O6 0.264740 0.749164 0.669773
O O7 0.214798 0.547800 0.796582
O O8 0.326915 0.428792 0.107280
O O9 0.349198 0.165343 0.200888
O O10 0.211001 0.366842 0.046140
O O11 0.548697 0.145768 0.841362
O O12 0.585390 0.183291 0.341158
O O13 0.714729 0.309201 0.058701
O O14 0.332536 0.251426 0.720170
O O15 0.000000 0.500000 0.000000
O O16 0.500000 0.500000 0.000000
O O17 0.669080 0.993799 0.540575
O O18 0.500000 0.000000 0.500000
#
# Coordination Sequence:
#
# PCOD8004938 Si02
#       8
#     2   2   2   2   2   2   2   2
#     4  12  25  41  62  95 131 165 208 263 319 369
#     4  10  20  39  66  88 123 163 203 258 311 368
#     4  10  22  42  66  91 125 166 210 256 312 377
#     4  10  21  41  66  91 120 165 213 254 305 375
#     4  10  20  38  63  92 120 158 209 252 309 367
#     4  12  24  40  66  95 124 167 215 258 308 378
#     4  10  23  42  63  93 130 166 202 260 320 372
#     4  10  23  40  62  87 126 168 202 251 317 373
#
# _framework density 20.164345000000001
#
# number of rings (size 3 to 8) (size 9 to 14) (size 15 to 20)
#    0.000    1.500    2.500    2.250    3.500    1.500 
#    4.500    1.250    0.000    0.000    0.000    0.000 
#    0.000    0.000    0.000    0.000    0.000    0.000 
#
# Total GULP energy -198388.729512 kJ/mol
# GULP energy per Si atom -12399.295594 kJ/mol
# Density = 2.011845 g / cm^3
# Si number density = 20.164345 Si / 1000 Ang^3
#
#
#
# Elastic Constant Matrix: (Units=GPa)
#
#
# Indices 1 2 3 4 5 6 
#
# 1 140.1461 56.7852 40.6835 16.6037 2.2457 -1.9160
# 2 56.7852 104.4873 42.0073 -1.4539 15.3307 10.0555
# 3 40.6835 42.0073 71.1196 1.5480 6.6775 2.4830
# 4 16.6037 -1.4539 1.5480 28.7242 -5.1129 0.5415
# 5 2.2457 15.3307 6.6775 -5.1129 26.5667 5.8845
# 6 -1.9160 10.0555 2.4830 0.5415 5.8845 56.6533
#
#
#
# Elastic Compliance Matrix: (Units=1/GPa)
#
#
# Indices 1 2 3 4 5 6 
#
# 1 0.010825 -0.004961 -0.003298 -0.006123 0.001307 0.001314
# 2 -0.004961 0.015787 -0.005897 0.002924 -0.006181 -0.002097
# 3 -0.003298 -0.005897 0.019529 0.000337 -0.001207 0.000201
# 4 -0.006123 0.002924 0.000337 0.039727 0.006796 -0.001826
# 5 0.001307 -0.006181 -0.001207 0.006796 0.043459 -0.003385
# 6 0.001314 -0.002097 0.000201 -0.001826 -0.003385 0.018428
#
#
# Mechanical properties :
#
#
# Convention : Reuss Voigt Hill
#
# Bulk Modulus (GPa) = 56.08347 66.07832 61.08090
# Shear Modulus (GPa) = 27.47122 34.14064 30.80593
#
# Velocity S-wave (km/s) = 3.69503 4.11922 3.91288
# Velocity P-wave (km/s) = 6.78807 7.44748 7.12541
#
# Compressibility (1/GPa) = 0.01783057
#
# Stress axis : x y z
#
# Youngs Moduli (GPa) = 92.37760 63.34462 51.20538
#
# Poissons Ratio (x) = 0.31423 0.16886
# Poissons Ratio (y) = 0.45826 0.30195
# Poissons Ratio (z) = 0.30463 0.37353
#
# Static dielectric constant tensor:
#      x y z
#    x 4.302850 -0.221930 -0.150040 
#    y -0.221930 3.616390 -0.302860 
#    z -0.150040 -0.302860 3.338110 
# 
# 
# High freq. dielectric constant tensor:
#      x y z
#    x 1.801640 -0.001000 0.000550 
#    y -0.001000 1.792300 -0.014790 
#    z 0.000550 -0.014790 1.776080 
# 
# From -- ./inp_files/306909.got.cif
#   From: 2010.06.25/outbox.cif.g09.slc.cpg/sg2_154_cif.got.tgz:306909.got - 2010.06.27 13:26:56.
