data_PCOD8004355
_publ_section_title
;
Structure prediction by ZEFSAII (Michael W. Deem and Ramdas Pophale) SiO2 
 PCOD8004355
Probable space group: P -1
;
_chemical_formula_sum "Si O2"
_cell_formula_units_Z 16
_cell_length_a 27.459320
_cell_length_b 23.583552
_cell_length_c 9.194921
_cell_angle_alpha 146.012619
_cell_angle_beta 28.239029
_cell_angle_gamma 164.021989
_cell_volume 768.272711
_symmetry_space_group_name_H-M "P -1"
_symmetry_group_IT_number 2
_symmetry_cell_setting 'triclinic'
loop_
_space_group_symop_operation_xyz
x,y,z
-x,-y,-z
loop_
_atom_site_type_symbol
_atom_site_label
_atom_site_fract_x
_atom_site_fract_y
_atom_site_fract_z
Si Si1 0.554090 0.885154 0.848443
Si Si2 0.998923 0.004071 0.760930
Si Si3 0.528158 0.911058 0.675648
Si Si4 0.797173 0.691367 0.380850
Si Si5 0.803498 0.314842 0.462997
Si Si6 0.037632 0.697174 0.759112
Si Si7 0.324819 0.224431 0.619429
Si Si8 0.229611 0.735769 0.878196
O O1 0.480997 0.791276 0.676725
O O2 0.608281 0.835551 0.697597
O O3 0.376860 0.805975 0.209837
O O4 0.752658 0.132878 0.831341
O O5 0.895140 0.829533 0.559423
O O6 0.813541 0.883266 0.098713
O O7 0.098857 0.176144 0.759510
O O8 0.190895 0.130575 0.626580
O O9 0.366155 0.765068 0.658837
O O10 0.754478 0.073153 0.363236
O O11 0.500000 0.000000 0.000000
O O12 0.539698 0.477718 0.599193
O O13 0.852535 0.620262 0.097424
O O14 0.918647 0.314174 0.221771
O O15 0.700975 0.201404 0.338295
O O16 0.970532 0.550466 0.511748
O O17 0.000000 0.500000 0.000000
#
# Coordination Sequence:
#
# PCOD8004355 Si02
#       8
#     2   2   2   2   2   2   2   2
#     4  11  22  40  63  88 125 170 209 254 322 383
#     4  10  25  44  70  98 130 167 222 284 331 393
#     4  10  20  38  55  81 126 167 200 253 306 371
#     4  11  23  44  71  98 130 173 220 271 339 391
#     4  11  22  37  59  92 126 165 207 254 303 381
#     4  11  22  37  65  88 128 169 208 254 325 379
#     4  11  23  45  70  97 132 169 218 279 337 388
#     4  11  24  36  56  86 130 170 211 256 302 373
#
# _framework density 20.825937
#
# number of rings (size 3 to 8) (size 9 to 14) (size 15 to 20)
#    0.000    1.250    3.750    3.375    3.500    0.000 
#    0.000    0.000    5.500    0.000    0.000    0.000 
#    0.000    0.000    0.000    0.000    0.000    0.000 
#
# Total GULP energy -198277.824235 kJ/mol
# GULP energy per Si atom -12392.364015 kJ/mol
# Density = 2.077854 g / cm^3
# Si number density = 20.825937 Si / 1000 Ang^3
#
#
#
# Elastic Constant Matrix: (Units=GPa)
#
#
# Indices 1 2 3 4 5 6 
#
# 1 161.4237 50.3705 48.5236 0.3930 -2.6720 13.6094
# 2 50.3705 102.4832 34.6746 -23.3687 -3.7809 2.2129
# 3 48.5236 34.6746 73.3867 -14.5466 -9.1175 1.2563
# 4 0.3930 -23.3687 -14.5466 34.1551 -3.5192 -2.3526
# 5 -2.6720 -3.7809 -9.1175 -3.5192 33.5649 -1.7478
# 6 13.6094 2.2129 1.2563 -2.3526 -1.7478 34.1200
#
#
#
# Elastic Compliance Matrix: (Units=1/GPa)
#
#
# Indices 1 2 3 4 5 6 
#
# 1 0.009463 -0.004036 -0.005682 -0.005763 -0.002047 -0.003806
# 2 -0.004036 0.014670 -0.002193 0.009437 0.001802 0.001482
# 3 -0.005682 -0.002193 0.020733 0.008178 0.005921 0.002512
# 4 -0.005763 0.009437 0.008178 0.040349 0.007293 0.004541
# 5 -0.002047 0.001802 0.005921 0.007293 0.032344 0.002641
# 6 -0.003806 0.001482 0.002512 0.004541 0.002641 0.031086
#
#
# Mechanical properties :
#
#
# Convention : Reuss Voigt Hill
#
# Bulk Modulus (GPa) = 47.52039 67.15896 57.33967
# Shear Modulus (GPa) = 27.85787 33.94965 30.90376
#
# Velocity S-wave (km/s) = 3.66136 4.04191 3.85633
# Velocity P-wave (km/s) = 6.38291 7.35530 6.88629
#
# Compressibility (1/GPa) = 0.02104360
#
# Stress axis : x y z
#
# Youngs Moduli (GPa) = 105.67149 68.16566 48.23191
#
# Poissons Ratio (x) = 0.27515 0.27403
# Poissons Ratio (y) = 0.42653 0.10580
# Poissons Ratio (z) = 0.60038 0.14952
#
# Static dielectric constant tensor:
#      x y z
#    x 0.016120 -0.634690 -1.354080 
#    y -0.634690 3.863840 -0.451410 
#    z -1.354080 -0.451410 3.088640 
# 
# 
# High freq. dielectric constant tensor:
#      x y z
#    x 1.835870 0.001960 0.002580 
#    y 0.001960 1.816210 -0.025530 
#    z 0.002580 -0.025530 1.795390 
# 
# From -- ./inp_files/355292.got.cif
#   From: 2010.06.25/outbox.cif.g09.slc.cpg/sg2_178_cif.got.tgz:355292.got - 2010.06.27 13:26:56.
