data_PCOD8004403
_publ_section_title
;
Structure prediction by ZEFSAII (Michael W. Deem and Ramdas Pophale) SiO2 
 PCOD8004403
Probable space group: P -1
;
_chemical_formula_sum "Si O2"
_cell_formula_units_Z 14
_cell_length_a 19.793132
_cell_length_b 16.757822
_cell_length_c 8.267853
_cell_angle_alpha 53.574273
_cell_angle_beta 40.865154
_cell_angle_gamma 21.640788
_cell_volume 590.108593
_symmetry_space_group_name_H-M "P -1"
_symmetry_group_IT_number 2
_symmetry_cell_setting 'triclinic'
loop_
_space_group_symop_operation_xyz
x,y,z
-x,-y,-z
loop_
_atom_site_type_symbol
_atom_site_label
_atom_site_fract_x
_atom_site_fract_y
_atom_site_fract_z
Si Si1 0.480260 0.427568 0.797484
Si Si2 0.885014 0.682674 0.627190
Si Si3 0.936292 0.838674 0.172984
Si Si4 0.239299 0.309359 0.684131
Si Si5 0.263137 0.815125 0.694496
Si Si6 0.456525 0.951949 0.910053
Si Si7 0.586197 0.165294 0.135832
O O1 0.477052 0.549344 0.690477
O O2 0.705970 0.202149 0.535237
O O3 0.514689 0.341785 0.010858
O O4 0.218168 0.629656 0.939655
O O5 0.930532 0.727850 0.360059
O O6 0.717492 0.739554 0.792248
O O7 0.144870 0.399933 0.557331
O O8 0.768668 0.836135 0.810785
O O9 0.727956 0.083915 0.360217
O O10 0.857460 0.920850 0.027819
O O11 0.383776 0.288249 0.474540
O O12 0.434661 0.049690 0.682943
O O13 0.000000 0.500000 0.000000
O O14 0.000000 0.000000 0.000000
O O15 0.420060 0.877850 0.980907
#
# Coordination Sequence:
#
# PCOD8004403 Si02
#       7
#     2   2   2   2   2   2   2
#     4  10  22  44  66  93 119 159 201 249 313 369
#     4  10  20  38  58  81 120 169 207 246 302 347
#     4  11  22  39  62  95 124 158 202 254 305 363
#     4  10  21  37  55  84 123 166 206 248 295 347
#     4   9  21  45  71  88 123 155 196 254 313 374
#     4  10  22  37  56  82 123 167 209 251 290 352
#     4  12  23  38  59  92 126 158 208 252 298 361
#
# _framework density 23.724447000000001
#
# number of rings (size 3 to 8) (size 9 to 14) (size 15 to 20)
#    0.000    1.714    2.857    1.286    0.000    2.286 
#    5.143    6.429    0.000    0.000    0.000    0.000 
#    0.000    0.000    0.000    0.000    0.000    0.000 
#
# Total GULP energy -173457.690899 kJ/mol
# GULP energy per Si atom -12389.835064 kJ/mol
# Density = 2.367045 g / cm^3
# Si number density = 23.724447 Si / 1000 Ang^3
#
#
#
# Elastic Constant Matrix: (Units=GPa)
#
#
# Indices 1 2 3 4 5 6 
#
# 1 72.6233 32.3382 -1.3355 11.2915 10.3087 0.4673
# 2 32.3382 152.8925 24.5935 -25.1254 -10.4699 -27.6388
# 3 -1.3355 24.5935 83.1456 -11.7505 6.9977 -0.1460
# 4 11.2915 -25.1254 -11.7505 37.4332 -0.4356 -5.2238
# 5 10.3087 -10.4699 6.9977 -0.4356 25.6843 3.6428
# 6 0.4673 -27.6388 -0.1460 -5.2238 3.6428 44.6865
#
#
#
# Elastic Compliance Matrix: (Units=1/GPa)
#
#
# Indices 1 2 3 4 5 6 
#
# 1 0.021630 -0.009039 0.002219 -0.012920 -0.012293 -0.006318
# 2 -0.009039 0.013101 -0.003059 0.011899 0.008746 0.008866
# 3 0.002219 -0.003059 0.013627 0.001314 -0.005650 -0.001257
# 4 -0.012920 0.011899 0.001314 0.040724 0.008731 0.011548
# 5 -0.012293 0.008746 -0.005650 0.008731 0.048757 0.002566
# 6 -0.006318 0.008866 -0.001257 0.011548 0.002566 0.029064
#
#
# Mechanical properties :
#
#
# Convention : Reuss Voigt Hill
#
# Bulk Modulus (GPa) = 34.96645 46.65042 40.80844
# Shear Modulus (GPa) = 25.48485 38.43180 31.95833
#
# Velocity S-wave (km/s) = 3.28106 4.02919 3.67422
# Velocity P-wave (km/s) = 5.39670 6.43055 5.93618
#
# Compressibility (1/GPa) = 0.02859884
#
# Stress axis : x y z
#
# Youngs Moduli (GPa) = 46.23261 76.32718 73.38593
#
# Poissons Ratio (x) = 0.68991 -0.16282
# Poissons Ratio (y) = 0.41789 0.22452
# Poissons Ratio (z) = -0.10258 0.23351
#
# Static dielectric constant tensor:
#      x y z
#    x 4.303190 0.167650 0.111630 
#    y 0.167650 4.924550 -0.113060 
#    z 0.111630 -0.113060 4.350820 
# 
# 
# High freq. dielectric constant tensor:
#      x y z
#    x 1.917590 0.005260 0.011390 
#    y 0.005260 1.955820 -0.005560 
#    z 0.011390 -0.005560 1.948580 
# 
# From -- ./inp_files/348305.got.cif
#   From: 2010.06.25/outbox.cif.g09.slc.cpg/sg2_175_cif.got.tgz:348305.got - 2010.06.27 13:26:56.
