data_PCOD8004850
_publ_section_title
;
Structure prediction by ZEFSAII (Michael W. Deem and Ramdas Pophale) SiO2 
 PCOD8004850
Probable space group: P -1
;
_chemical_formula_sum "Si O2"
_cell_formula_units_Z 12
_cell_length_a 16.299344
_cell_length_b 12.825009
_cell_length_c 15.864806
_cell_angle_alpha 26.258344
_cell_angle_beta 26.100500
_cell_angle_gamma 24.463742
_cell_volume 543.800896
_symmetry_space_group_name_H-M "P -1"
_symmetry_group_IT_number 2
_symmetry_cell_setting 'triclinic'
loop_
_space_group_symop_operation_xyz
x,y,z
-x,-y,-z
loop_
_atom_site_type_symbol
_atom_site_label
_atom_site_fract_x
_atom_site_fract_y
_atom_site_fract_z
Si Si1 0.648838 0.204368 0.153298
Si Si2 0.798651 0.802803 0.680991
Si Si3 0.396379 0.815929 0.974505
Si Si4 0.239118 0.209358 0.085469
Si Si5 0.018829 0.834256 0.789495
Si Si6 0.014732 0.333883 0.689886
O O1 0.555283 0.150960 0.192299
O O2 0.738330 0.944906 0.323691
O O3 0.467544 0.492044 0.158839
O O4 0.844780 0.234990 0.913146
O O5 0.546336 0.889141 0.838600
O O6 0.865037 0.747608 0.757367
O O7 0.967567 0.520654 0.680273
O O8 0.820381 0.052768 0.446589
O O9 0.142741 0.024363 0.083637
O O10 0.129904 0.088182 0.213560
O O11 0.183005 0.504701 0.887649
O O12 0.500000 0.000000 0.000000
O O13 0.000000 0.500000 0.500000
#
# Coordination Sequence:
#
# PCOD8004850 Si02
#       6
#     2   2   2   2   2   2
#     4   9  20  38  61  88 137 169 206 266 312 376
#     4  11  23  41  66  98 126 167 217 261 320 382
#     4  10  20  41  65  96 129 175 213 260 326 378
#     4  11  24  47  67  93 129 168 215 268 328 383
#     4  11  24  44  68  92 132 166 213 272 322 379
#     4  10  20  38  62  93 129 171 215 255 318 381
#
# _framework density 22.066901000000001
#
# number of rings (size 3 to 8) (size 9 to 14) (size 15 to 20)
#    0.000    1.667    1.667    2.500    0.000    3.333 
#    6.000   13.333    0.000    0.000    0.000    0.000 
#    0.000    0.000    0.000    0.000    0.000    0.000 
#
# Total GULP energy -148828.622497 kJ/mol
# GULP energy per Si atom -12402.385208 kJ/mol
# Density = 2.201668 g / cm^3
# Si number density = 22.066901 Si / 1000 Ang^3
#
#
#
# Elastic Constant Matrix: (Units=GPa)
#
#
# Indices 1 2 3 4 5 6 
#
# 1 95.4807 41.4057 31.8469 -4.4399 7.4353 4.2478
# 2 41.4057 119.3169 20.9062 -9.4461 10.9439 -9.1342
# 3 31.8469 20.9062 72.1461 -14.9627 9.3116 0.7438
# 4 -4.4399 -9.4461 -14.9627 27.9189 0.6334 8.8461
# 5 7.4353 10.9439 9.3116 0.6334 28.6830 -6.9377
# 6 4.2478 -9.1342 0.7438 8.8461 -6.9377 39.0254
#
#
#
# Elastic Compliance Matrix: (Units=1/GPa)
#
#
# Indices 1 2 3 4 5 6 
#
# 1 0.014117 -0.004186 -0.005112 -0.001154 -0.000939 -0.002324
# 2 -0.004186 0.010445 -0.000487 0.002011 -0.002291 0.002047
# 3 -0.005112 -0.000487 0.019216 0.010507 -0.005765 -0.003330
# 4 -0.001154 0.002011 0.010507 0.045706 -0.007626 -0.011320
# 5 -0.000939 -0.002291 -0.005765 -0.007626 0.040085 0.008530
# 6 -0.002324 0.002047 -0.003330 -0.011320 0.008530 0.030502
#
#
# Mechanical properties :
#
#
# Convention : Reuss Voigt Hill
#
# Bulk Modulus (GPa) = 41.31166 52.80682 47.05924
# Shear Modulus (GPa) = 26.63665 31.97778 29.30721
#
# Velocity S-wave (km/s) = 3.47808 3.81087 3.64827
# Velocity P-wave (km/s) = 5.90687 6.58376 6.25448
#
# Compressibility (1/GPa) = 0.02420624
#
# Stress axis : x y z
#
# Youngs Moduli (GPa) = 70.83741 95.73825 52.03971
#
# Poissons Ratio (x) = 0.40078 0.26605
# Poissons Ratio (y) = 0.29654 0.02536
# Poissons Ratio (z) = 0.36216 0.04665
#
# Static dielectric constant tensor:
#      x y z
#    x 4.222040 0.006150 -0.098960 
#    y 0.006150 4.053200 -0.108420 
#    z -0.098960 -0.108420 3.753000 
# 
# 
# High freq. dielectric constant tensor:
#      x y z
#    x 1.881850 0.002790 -0.005320 
#    y 0.002790 1.871070 -0.005580 
#    z -0.005320 -0.005580 1.850540 
# 
# From -- ./inp_files/119519.got.cif
#   From: 2010.06.25/outbox.cif.g09.slc.cpg/sg2_60_cif.got.tgz:119519.got - 2010.06.27 13:26:56.
