data_PCOD8004639
_publ_section_title
;
Structure prediction by ZEFSAII (Michael W. Deem and Ramdas Pophale) SiO2 
 PCOD8004639
Probable space group: P -1
;
_chemical_formula_sum "Si O2"
_cell_formula_units_Z 14
_cell_length_a 19.839204
_cell_length_b 6.243509
_cell_length_c 6.746521
_cell_angle_alpha 93.281800
_cell_angle_beta 103.517020
_cell_angle_gamma 121.797195
_cell_volume 673.917937
_symmetry_space_group_name_H-M "P -1"
_symmetry_group_IT_number 2
_symmetry_cell_setting 'triclinic'
loop_
_space_group_symop_operation_xyz
x,y,z
-x,-y,-z
loop_
_atom_site_type_symbol
_atom_site_label
_atom_site_fract_x
_atom_site_fract_y
_atom_site_fract_z
Si Si1 0.672326 0.412119 0.944847
Si Si2 0.405269 0.086866 0.905320
Si Si3 0.108209 0.697174 0.382975
Si Si4 0.821167 0.377911 0.968442
Si Si5 0.758799 0.951323 0.218168
Si Si6 0.960640 0.727936 0.355326
Si Si7 0.465863 0.538146 0.276936
O O1 0.734138 0.355024 0.870580
O O2 0.617726 0.459558 0.754152
O O3 0.728354 0.661078 0.133143
O O4 0.608378 0.176106 0.033654
O O5 0.317274 0.028114 0.769965
O O6 0.464763 0.188430 0.760058
O O7 0.445658 0.300822 0.114955
O O8 0.141104 0.629796 0.212179
O O9 0.078308 0.470577 0.504257
O O10 0.031591 0.722164 0.281099
O O11 0.181216 0.964759 0.546544
O O12 0.887117 0.648084 0.141447
O O13 0.805865 0.136234 0.071882
O O14 0.000000 0.000000 0.500000
O O15 0.500000 0.500000 0.500000
#
# Coordination Sequence:
#
# PCOD8004639 Si02
#       7
#     2   2   2   2   2   2   2
#     4  10  20  38  61  84 116 154 194 240 289 346
#     4   9  20  38  58  83 115 151 192 238 287 342
#     4  10  21  37  57  82 116 151 186 236 287 335
#     4  10  21  37  56  85 117 149 192 237 286 342
#     4   9  20  37  56  81 115 151 190 235 285 341
#     4  10  21  37  58  84 113 150 193 233 281 341
#     4  10  21  38  58  84 117 151 191 241 292 341
#
# _framework density 20.774042999999999
#
# number of rings (size 3 to 8) (size 9 to 14) (size 15 to 20)
#    0.000    2.286    0.000    1.714    0.000    5.714 
#    0.000   14.286    0.000    0.000    0.000    0.000 
#    0.000    0.000    0.000    0.000    0.000    0.000 
#
# Total GULP energy -173582.431992 kJ/mol
# GULP energy per Si atom -12398.745142 kJ/mol
# Density = 2.072676 g / cm^3
# Si number density = 20.774043 Si / 1000 Ang^3
#
#
#
# Elastic Constant Matrix: (Units=GPa)
#
#
# Indices 1 2 3 4 5 6 
#
# 1 120.2241 38.2794 71.1638 -12.5390 0.2310 7.4466
# 2 38.2794 111.0345 47.2278 16.7022 1.7165 3.8142
# 3 71.1638 47.2278 104.0517 -3.2484 4.1624 7.8502
# 4 -12.5390 16.7022 -3.2484 17.6100 -1.5855 6.4938
# 5 0.2310 1.7165 4.1624 -1.5855 33.2459 3.5637
# 6 7.4466 3.8142 7.8502 6.4938 3.5637 28.4133
#
#
#
# Elastic Compliance Matrix: (Units=1/GPa)
#
#
# Indices 1 2 3 4 5 6 
#
# 1 0.017128 -0.004640 -0.008739 0.017344 0.002658 -0.005749
# 2 -0.004640 0.015802 -0.005020 -0.021445 -0.001779 0.005606
# 3 -0.008739 -0.005020 0.018199 0.002668 -0.001566 -0.002477
# 4 0.017344 -0.021445 0.002668 0.100447 0.008273 -0.026398
# 5 0.002658 -0.001779 -0.001566 0.008273 0.031370 -0.005850
# 6 -0.005749 0.005606 -0.002477 -0.026398 -0.005850 0.043400
#
#
# Mechanical properties :
#
#
# Convention : Reuss Voigt Hill
#
# Bulk Modulus (GPa) = 69.78452 72.07247 70.92850
# Shear Modulus (GPa) = 18.66213 27.76314 23.21263
#
# Velocity S-wave (km/s) = 3.00048 3.65969 3.34636
# Velocity P-wave (km/s) = 6.75788 7.25442 7.01055
#
# Compressibility (1/GPa) = 0.01432983
#
# Stress axis : x y z
#
# Youngs Moduli (GPa) = 58.38284 63.28355 54.94786
#
# Poissons Ratio (x) = 0.29366 0.48021
# Poissons Ratio (y) = 0.27092 0.27583
# Poissons Ratio (z) = 0.51023 0.31768
#
# Static dielectric constant tensor:
#      x y z
#    x 4.014200 0.241150 0.265390 
#    y 0.241150 3.914580 0.171710 
#    z 0.265390 0.171710 3.533940 
# 
# 
# High freq. dielectric constant tensor:
#      x y z
#    x 1.827100 0.011470 0.014130 
#    y 0.011470 1.817330 0.012030 
#    z 0.014130 0.012030 1.790720 
# 
# From -- ./inp_files/7688.got.cif
#   From: 2010.06.25/outbox.cif.g09.slc.cpg/sg2_4_cif.got.tgz:7688.got - 2010.06.27 13:26:56.
