data_PCOD8004036
_publ_section_title
;
Structure prediction by ZEFSAII (Michael W. Deem and Ramdas Pophale) SiO2 
 PCOD8004036
Probable space group: P -1
;
_chemical_formula_sum "Si O2"
_cell_formula_units_Z 16
_cell_length_a 8.217333
_cell_length_b 24.732827
_cell_length_c 8.327172
_cell_angle_alpha 45.708216
_cell_angle_beta 102.408117
_cell_angle_gamma 134.891657
_cell_volume 717.782531
_symmetry_space_group_name_H-M "P -1"
_symmetry_group_IT_number 2
_symmetry_cell_setting 'triclinic'
loop_
_space_group_symop_operation_xyz
x,y,z
-x,-y,-z
loop_
_atom_site_type_symbol
_atom_site_label
_atom_site_fract_x
_atom_site_fract_y
_atom_site_fract_z
Si Si1 0.242873 0.601644 0.961164
Si Si2 0.371267 0.837605 0.102262
Si Si3 0.286854 0.954639 0.676317
Si Si4 0.534440 0.852081 0.453722
Si Si5 0.702792 0.679500 0.712995
Si Si6 0.964280 0.076314 0.605202
Si Si7 0.865965 0.562138 0.495599
Si Si8 0.454651 0.512164 0.721166
O O1 0.304904 0.712507 0.766588
O O2 0.510902 0.662207 0.816273
O O3 0.166837 0.536370 0.250609
O O4 0.000000 0.500000 0.000000
O O5 0.407964 0.846602 0.282222
O O6 0.183703 0.700953 0.283766
O O7 0.212332 0.858558 0.979208
O O8 0.665751 0.935932 0.875303
O O9 0.029158 0.893495 0.644130
O O10 0.500000 0.000000 0.500000
O O11 0.420365 0.069888 0.564271
O O12 0.818632 0.912414 0.344584
O O13 0.594475 0.629021 0.613707
O O14 0.982174 0.830238 0.462926
O O15 0.727989 0.606997 0.953867
O O16 0.695181 0.554177 0.595843
O O17 0.755979 0.525929 0.367024
#
# Coordination Sequence:
#
# PCOD8004036 Si02
#       8
#     2   2   2   2   2   2   2   2
#     4  10  20  40  59  85 117 160 205 249 305 362
#     4  11  22  39  63  96 129 160 209 260 308 372
#     4  10  23  41  61  93 124 162 212 258 307 367
#     4  11  22  41  67  88 127 170 206 255 319 372
#     4   9  19  37  61  84 120 161 201 253 304 373
#     4  10  22  41  62  90 129 166 205 253 316 380
#     4  10  20  37  63  90 126 158 202 260 307 371
#     4   9  19  37  60  92 118 160 207 253 315 363
#
# _framework density 22.290875
#
# number of rings (size 3 to 8) (size 9 to 14) (size 15 to 20)
#    0.000    2.000    1.250    1.875    0.000    4.000 
#    9.000    6.875    0.000    0.000    0.000    0.000 
#    0.000    0.000    0.000    0.000    0.000    0.000 
#
# Total GULP energy -198377.092650 kJ/mol
# GULP energy per Si atom -12398.568291 kJ/mol
# Density = 2.224014 g / cm^3
# Si number density = 22.290875 Si / 1000 Ang^3
#
#
#
# Elastic Constant Matrix: (Units=GPa)
#
#
# Indices 1 2 3 4 5 6 
#
# 1 38.5402 32.2223 31.4770 1.1792 14.2073 -6.5125
# 2 32.2223 181.0490 64.9163 13.1793 15.0108 -9.8574
# 3 31.4770 64.9163 122.6538 -7.9776 15.9063 -6.1782
# 4 1.1792 13.1793 -7.9776 36.5424 11.5961 4.0495
# 5 14.2073 15.0108 15.9063 11.5961 26.4540 -4.8142
# 6 -6.5125 -9.8574 -6.1782 4.0495 -4.8142 34.1808
#
#
#
# Elastic Compliance Matrix: (Units=1/GPa)
#
#
# Indices 1 2 3 4 5 6 
#
# 1 0.040627 -0.003893 -0.005695 0.004114 -0.017510 0.002635
# 2 -0.003893 0.007717 -0.003538 -0.004244 0.001996 0.001628
# 3 -0.005695 -0.003538 0.012505 0.006027 -0.005334 -0.001310
# 4 0.004114 -0.004244 0.006027 0.037527 -0.021108 -0.006769
# 5 -0.017510 0.001996 -0.005334 -0.021108 0.059843 0.007205
# 6 0.002635 0.001628 -0.001310 -0.006769 0.007205 0.031808
#
#
# Mechanical properties :
#
#
# Convention : Reuss Voigt Hill
#
# Bulk Modulus (GPa) = 28.90424 66.60826 47.75625
# Shear Modulus (GPa) = 21.94804 33.67728 27.81266
#
# Velocity S-wave (km/s) = 3.14127 3.89113 3.53613
# Velocity P-wave (km/s) = 5.11388 7.08055 6.17600
#
# Compressibility (1/GPa) = 0.03459700
#
# Stress axis : x y z
#
# Youngs Moduli (GPa) = 24.61424 129.58574 79.96954
#
# Poissons Ratio (x) = 0.50448 0.45540
# Poissons Ratio (y) = 0.09582 0.28294
# Poissons Ratio (z) = 0.14017 0.45848
#
# Static dielectric constant tensor:
#      x y z
#    x 3.716460 0.221920 0.408260 
#    y 0.221920 4.388660 0.150550 
#    z 0.408260 0.150550 4.295180 
# 
# 
# High freq. dielectric constant tensor:
#      x y z
#    x 1.852530 0.011230 0.016280 
#    y 0.011230 1.894910 -0.001590 
#    z 0.016280 -0.001590 1.880850 
# 
# From -- ./inp_files/227719.got.cif
#   From: 2010.06.25/outbox.cif.g09.slc.cpg/sg2_114_cif.got.tgz:227719.got - 2010.06.27 13:26:56.
