data_PCOD8004759
_publ_section_title
;
Structure prediction by ZEFSAII (Michael W. Deem and Ramdas Pophale) SiO2 
 PCOD8004759
Probable space group: P -1
;
_chemical_formula_sum "Si O2"
_cell_formula_units_Z 16
_cell_length_a 23.091594
_cell_length_b 11.405183
_cell_length_c 11.917262
_cell_angle_alpha 43.997086
_cell_angle_beta 21.615807
_cell_angle_gamma 43.654263
_cell_volume 784.528773
_symmetry_space_group_name_H-M "P -1"
_symmetry_group_IT_number 2
_symmetry_cell_setting 'triclinic'
loop_
_space_group_symop_operation_xyz
x,y,z
-x,-y,-z
loop_
_atom_site_type_symbol
_atom_site_label
_atom_site_fract_x
_atom_site_fract_y
_atom_site_fract_z
Si Si1 0.780859 0.720651 0.745133
Si Si2 0.187035 0.993984 0.661425
Si Si3 0.598797 0.308769 0.962654
Si Si4 0.078499 0.588819 0.450223
Si Si5 0.873805 0.477458 0.336619
Si Si6 0.331024 0.811272 0.834906
Si Si7 0.671956 0.844873 0.494686
Si Si8 0.459155 0.702664 0.444316
O O1 0.798531 0.911262 0.546695
O O2 0.808735 0.585294 0.684244
O O3 0.903497 0.636058 0.678764
O O4 0.602114 0.766530 0.082923
O O5 0.251424 0.107346 0.561772
O O6 0.292180 0.797348 0.617204
O O7 0.000000 0.000000 0.000000
O O8 0.779452 0.320895 0.587639
O O9 0.500000 0.500000 0.000000
O O10 0.590897 0.258902 0.141392
O O11 0.516899 0.171004 0.136856
O O12 0.046800 0.561011 0.657468
O O13 0.165214 0.746997 0.160374
O O14 0.752319 0.659687 0.430749
O O15 0.000000 0.500000 0.000000
O O16 0.452207 0.747100 0.557743
O O17 0.301581 0.019140 0.742279
O O18 0.500000 0.500000 0.500000
#
# Coordination Sequence:
#
# PCOD8004759 Si02
#       8
#     2   2   2   2   2   2   2   2
#     4  11  21  38  61  90 131 162 212 258 317 376
#     4  11  24  42  64  91 131 174 209 255 328 385
#     4   9  20  37  61  86 116 162 205 255 319 373
#     4  10  21  38  63  89 125 173 201 259 328 377
#     4  10  21  40  63  93 120 163 219 260 311 378
#     4  10  20  39  60  87 123 164 209 254 326 381
#     4  10  20  38  62  86 122 164 206 260 318 383
#     4  11  23  37  62  98 126 160 216 265 307 381
#
# _framework density 20.394409
#
# number of rings (size 3 to 8) (size 9 to 14) (size 15 to 20)
#    0.000    1.750    2.500    2.250    1.750    2.000 
#    0.000    8.750    0.000    0.000    0.000    0.000 
#    0.000    0.000    0.000    0.000    0.000    0.000 
#
# Total GULP energy -198239.849457 kJ/mol
# GULP energy per Si atom -12389.990591 kJ/mol
# Density = 2.034799 g / cm^3
# Si number density = 20.394409 Si / 1000 Ang^3
#
#
#
# Elastic Constant Matrix: (Units=GPa)
#
#
# Indices 1 2 3 4 5 6 
#
# 1 103.6536 32.1732 69.1113 -4.9771 -4.5652 -10.7980
# 2 32.1732 111.1412 47.1195 -14.9791 -4.1652 -21.5796
# 3 69.1113 47.1195 166.5024 -8.8365 2.9878 -9.3710
# 4 -4.9771 -14.9791 -8.8365 38.2585 -2.3206 0.9922
# 5 -4.5652 -4.1652 2.9878 -2.3206 39.0080 -6.9632
# 6 -10.7980 -21.5796 -9.3710 0.9922 -6.9632 31.9715
#
#
#
# Elastic Compliance Matrix: (Units=1/GPa)
#
#
# Indices 1 2 3 4 5 6 
#
# 1 0.013988 -0.001075 -0.005368 0.000232 0.002475 0.002957
# 2 -0.001075 0.012593 -0.002503 0.004193 0.003078 0.007943
# 3 -0.005368 -0.002503 0.008918 0.000306 -0.001790 -0.001288
# 4 0.000232 0.004193 0.000306 0.027968 0.002597 0.002696
# 5 0.002475 0.003078 -0.001790 0.002597 0.028048 0.008417
# 6 0.002957 0.007943 -0.001288 0.002696 0.008417 0.039010
#
#
# Mechanical properties :
#
#
# Convention : Reuss Voigt Hill
#
# Bulk Modulus (GPa) = 56.79475 75.34503 66.06989
# Shear Modulus (GPa) = 32.40725 37.37381 34.89053
#
# Velocity S-wave (km/s) = 3.99058 4.28548 4.14066
# Velocity P-wave (km/s) = 7.01011 7.84291 7.43818
#
# Compressibility (1/GPa) = 0.01760726
#
# Stress axis : x y z
#
# Youngs Moduli (GPa) = 71.48784 79.41078 112.13154
#
# Poissons Ratio (x) = 0.08541 0.60187
# Poissons Ratio (y) = 0.07688 0.28066
# Poissons Ratio (z) = 0.38371 0.19876
#
# Static dielectric constant tensor:
#      x y z
#    x 3.869660 0.186460 -0.883770 
#    y 0.186460 4.561220 -2.304620 
#    z -0.883770 -2.304620 8.286710 
# 
# 
# High freq. dielectric constant tensor:
#      x y z
#    x 1.793090 -0.022220 -0.006530 
#    y -0.022220 1.794170 -0.027890 
#    z -0.006530 -0.027890 1.804310 
# 
# From -- ./inp_files/381694.got.cif
#   From: 2010.06.25/outbox.cif.g09.slc.cpg/sg2_191_cif.got.tgz:381694.got - 2010.06.27 13:26:56.
