data_PCOD8004948
_publ_section_title
;
Structure prediction by ZEFSAII (Michael W. Deem and Ramdas Pophale) SiO2 
 PCOD8004948
Probable space group: P -1
;
_chemical_formula_sum "Si O2"
_cell_formula_units_Z 16
_cell_length_a 16.143113
_cell_length_b 12.837091
_cell_length_c 9.918504
_cell_angle_alpha 65.089021
_cell_angle_beta 74.249491
_cell_angle_gamma 26.563425
_cell_volume 805.058089
_symmetry_space_group_name_H-M "P -1"
_symmetry_group_IT_number 2
_symmetry_cell_setting 'triclinic'
loop_
_space_group_symop_operation_xyz
x,y,z
-x,-y,-z
loop_
_atom_site_type_symbol
_atom_site_label
_atom_site_fract_x
_atom_site_fract_y
_atom_site_fract_z
Si Si1 0.218881 0.741775 0.498687
Si Si2 0.588255 0.189816 0.316596
Si Si3 0.983563 0.629566 0.527194
Si Si4 0.611045 0.757652 0.130242
Si Si5 0.341669 0.363881 0.538372
Si Si6 0.088090 0.430936 0.859962
Si Si7 0.598566 0.136198 0.030340
Si Si8 0.551890 0.401570 0.731573
O O1 0.231848 0.613123 0.473706
O O2 0.363289 0.568919 0.656401
O O3 0.283088 0.772318 0.359125
O O4 0.000000 0.000000 0.500000
O O5 0.487662 0.206839 0.435319
O O6 0.544918 0.217886 0.164380
O O7 0.509917 0.407878 0.270957
O O8 0.815348 0.914930 0.397303
O O9 0.000000 0.500000 0.500000
O O10 0.188714 0.447832 0.525782
O O11 0.938912 0.633335 0.695125
O O12 0.538351 0.806408 0.284756
O O13 0.828469 0.540427 0.167114
O O14 0.587197 0.687900 0.066112
O O15 0.500000 0.000000 0.000000
O O16 0.232825 0.157846 0.898457
O O17 0.000000 0.500000 0.000000
O O18 0.648145 0.200418 0.906859
#
# Coordination Sequence:
#
# PCOD8004948 Si02
#       8
#     2   2   2   2   2   2   2   2
#     4  10  20  38  63  93 120 160 206 256 305 356
#     4  11  24  40  64  89 127 168 201 254 310 373
#     4  11  23  42  60  92 123 159 210 251 309 374
#     4   9  20  37  58  84 115 152 204 249 294 358
#     4  10  22  40  61  89 120 161 205 253 305 363
#     4  10  23  38  62  90 120 160 204 260 308 359
#     4  11  21  42  59  90 127 160 205 251 311 368
#     4  10  22  38  64  92 123 164 207 251 310 366
#
# _framework density 19.874341999999999
#
# number of rings (size 3 to 8) (size 9 to 14) (size 15 to 20)
#    0.000    1.750    2.500    1.125    3.500    3.500 
#    0.000    0.000    0.000    4.500    0.000    0.000 
#    0.000    0.000    0.000    0.000    0.000    0.000 
#
# Total GULP energy -198265.306209 kJ/mol
# GULP energy per Si atom -12391.581638 kJ/mol
# Density = 1.982911 g / cm^3
# Si number density = 19.874342 Si / 1000 Ang^3
#
#
#
# Elastic Constant Matrix: (Units=GPa)
#
#
# Indices 1 2 3 4 5 6 
#
# 1 100.0696 29.7874 52.1559 7.1294 10.8821 1.2106
# 2 29.7874 72.7266 34.6939 10.0684 4.2353 -6.1105
# 3 52.1559 34.6939 161.1630 19.3419 1.3129 -6.9237
# 4 7.1294 10.0684 19.3419 33.8247 5.3564 -2.8117
# 5 10.8821 4.2353 1.3129 5.3564 35.8425 0.8226
# 6 1.2106 -6.1105 -6.9237 -2.8117 0.8226 27.5314
#
#
#
# Elastic Compliance Matrix: (Units=1/GPa)
#
#
# Indices 1 2 3 4 5 6 
#
# 1 0.013402 -0.003822 -0.003674 0.000796 -0.003552 -0.002174
# 2 -0.003822 0.016913 -0.001929 -0.002796 -0.000422 0.003164
# 3 -0.003674 -0.001929 0.008279 -0.003511 0.001532 0.001411
# 4 0.000796 -0.002796 -0.003511 0.033159 -0.004784 0.001991
# 5 -0.003552 -0.000422 0.001532 -0.004784 0.029708 -0.000928
# 6 -0.002174 0.003164 0.001411 0.001991 -0.000928 0.037706
#
#
# Mechanical properties :
#
#
# Convention : Reuss Voigt Hill
#
# Bulk Modulus (GPa) = 50.65202 63.02597 56.83899
# Shear Modulus (GPa) = 30.37682 33.92784 32.15233
#
# Velocity S-wave (km/s) = 3.91377 4.13621 4.02653
# Velocity P-wave (km/s) = 6.77975 7.38864 7.09073
#
# Compressibility (1/GPa) = 0.01974255
#
# Stress axis : x y z
#
# Youngs Moduli (GPa) = 74.61777 59.12469 120.79178
#
# Poissons Ratio (x) = 0.22599 0.44381
# Poissons Ratio (y) = 0.28521 0.23302
# Poissons Ratio (z) = 0.27416 0.11406
#
# Static dielectric constant tensor:
#      x y z
#    x 0.367570 0.420410 -2.413160 
#    y 0.420410 3.376400 0.332120 
#    z -2.413160 0.332120 2.382140 
# 
# 
# High freq. dielectric constant tensor:
#      x y z
#    x 1.787700 0.008260 -0.004900 
#    y 0.008260 1.748700 0.002630 
#    z -0.004900 0.002630 1.791740 
# 
# From -- ./inp_files/307027.got.cif
#   From: 2010.06.25/outbox.cif.g09.slc.cpg/sg2_154_cif.got.tgz:307027.got - 2010.06.27 13:26:56.
