data_PCOD8004646
_publ_section_title
;
Structure prediction by ZEFSAII (Michael W. Deem and Ramdas Pophale) SiO2 
 PCOD8004646
Probable space group: P -1
;
_chemical_formula_sum "Si O2"
_cell_formula_units_Z 10
_cell_length_a 12.515602
_cell_length_b 16.796775
_cell_length_c 13.047182
_cell_angle_alpha 24.346129
_cell_angle_beta 139.686292
_cell_angle_gamma 154.259481
_cell_volume 464.439726
_symmetry_space_group_name_H-M "P -1"
_symmetry_group_IT_number 2
_symmetry_cell_setting 'triclinic'
loop_
_space_group_symop_operation_xyz
x,y,z
-x,-y,-z
loop_
_atom_site_type_symbol
_atom_site_label
_atom_site_fract_x
_atom_site_fract_y
_atom_site_fract_z
Si Si1 0.725117 0.810114 0.188262
Si Si2 0.424658 0.156516 0.163348
Si Si3 0.639269 0.310329 0.786944
Si Si4 0.244553 0.276196 0.142927
Si Si5 0.210077 0.842355 0.589421
O O1 0.657128 0.520137 0.483003
O O2 0.499038 0.741260 0.150482
O O3 0.748404 0.889560 0.992904
O O4 0.990575 0.109755 0.088521
O O5 0.543495 0.066379 0.309876
O O6 0.239386 0.947358 0.369968
O O7 0.690060 0.515987 0.962459
O O8 0.928839 0.490167 0.809916
O O9 0.500000 0.000000 0.000000
O O10 0.205942 0.022193 0.452863
O O11 0.500000 0.500000 0.000000
#
# Coordination Sequence:
#
# PCOD8004646 Si02
#       5
#     2   2   2   2   2
#     4  10  22  38  60  86 111 149 194 228 278 343
#     4  10  20  38  61  85 113 146 189 238 279 327
#     4  10  21  39  57  82 120 151 184 233 281 335
#     4   9  19  36  56  82 114 144 183 235 279 324
#     4   9  20  37  57  85 117 146 187 235 279 335
#
# _framework density 21.531320999999998
#
# number of rings (size 3 to 8) (size 9 to 14) (size 15 to 20)
#    0.000    2.400    0.000    1.200    0.000    9.600 
#    0.000   28.000    0.000    0.000    0.000    0.000 
#    0.000    0.000    0.000    0.000    0.000    0.000 
#
# Total GULP energy -123881.719508 kJ/mol
# GULP energy per Si atom -12388.171951 kJ/mol
# Density = 2.148231 g / cm^3
# Si number density = 21.531321 Si / 1000 Ang^3
#
#
#
# Elastic Constant Matrix: (Units=GPa)
#
#
# Indices 1 2 3 4 5 6 
#
# 1 59.8660 19.4961 15.8484 -4.2961 7.0090 17.1066
# 2 19.4961 92.6522 31.7794 -13.6487 2.0557 -3.4430
# 3 15.8484 31.7794 65.3685 -12.1467 6.7357 -4.2300
# 4 -4.2961 -13.6487 -12.1467 44.3474 -0.0599 -6.3887
# 5 7.0090 2.0557 6.7357 -0.0599 28.4175 -8.0447
# 6 17.1066 -3.4430 -4.2300 -6.3887 -8.0447 26.9409
#
#
#
# Elastic Compliance Matrix: (Units=1/GPa)
#
#
# Indices 1 2 3 4 5 6 
#
# 1 0.027554 -0.005188 -0.005144 -0.003721 -0.011828 -0.023381
# 2 -0.005188 0.014246 -0.004967 0.003402 0.003156 0.006084
# 3 -0.005144 -0.004967 0.020351 0.004480 -0.001350 0.006486
# 4 -0.003721 0.003402 0.004480 0.025971 0.002620 0.010442
# 5 -0.011828 0.003156 -0.001350 0.002620 0.044306 0.021553
# 6 -0.023381 0.006084 0.006486 0.010442 0.021553 0.062672
#
#
# Mechanical properties :
#
#
# Convention : Reuss Voigt Hill
#
# Bulk Modulus (GPa) = 31.69291 39.12605 35.40948
# Shear Modulus (GPa) = 21.16715 29.99201 25.57958
#
# Velocity S-wave (km/s) = 3.13882 3.73627 3.45050
# Velocity P-wave (km/s) = 5.28088 6.06829 5.68822
#
# Compressibility (1/GPa) = 0.03155280
#
# Stress axis : x y z
#
# Youngs Moduli (GPa) = 36.29215 70.19670 49.13766
#
# Poissons Ratio (x) = 0.36420 0.25275
# Poissons Ratio (y) = 0.18829 0.24407
# Poissons Ratio (z) = 0.18668 0.34867
#
# Static dielectric constant tensor:
#      x y z
#    x 4.087630 -0.012490 0.404920 
#    y -0.012490 3.867530 -0.483060 
#    z 0.404920 -0.483060 4.252360 
# 
# 
# High freq. dielectric constant tensor:
#      x y z
#    x 1.848940 0.025680 0.018280 
#    y 0.025680 1.826230 -0.018870 
#    z 0.018280 -0.018870 1.841420 
# 
# From -- ./inp_files/18072.got.cif
#   From: 2010.06.25/outbox.cif.g09.slc.cpg/sg2_10_cif.got.tgz:18072.got - 2010.06.27 13:26:56.
