data_PCOD8004933
_publ_section_title
;
Structure prediction by ZEFSAII (Michael W. Deem and Ramdas Pophale) SiO2 
 PCOD8004933
Probable space group: P -1
;
_chemical_formula_sum "Si O2"
_cell_formula_units_Z 16
_cell_length_a 12.214377
_cell_length_b 21.415202
_cell_length_c 19.075437
_cell_angle_alpha 161.524123
_cell_angle_beta 151.825763
_cell_angle_gamma 37.169785
_cell_volume 720.470185
_symmetry_space_group_name_H-M "P -1"
_symmetry_group_IT_number 2
_symmetry_cell_setting 'triclinic'
loop_
_space_group_symop_operation_xyz
x,y,z
-x,-y,-z
loop_
_atom_site_type_symbol
_atom_site_label
_atom_site_fract_x
_atom_site_fract_y
_atom_site_fract_z
Si Si1 0.957191 0.788722 0.291167
Si Si2 0.393613 0.617206 0.352557
Si Si3 0.015146 0.042146 0.134386
Si Si4 0.423294 0.393545 0.700569
Si Si5 0.333032 0.799728 0.119346
Si Si6 0.261673 0.786507 0.222859
Si Si7 0.376083 0.013810 0.041332
Si Si8 0.856322 0.976992 0.224819
O O1 0.164475 0.691346 0.277932
O O2 0.700097 0.630720 0.957587
O O3 0.000000 0.000000 0.500000
O O4 0.978715 0.834183 0.435918
O O5 0.582961 0.680295 0.462511
O O6 0.512995 0.739305 0.620117
O O7 0.213383 0.255678 0.482934
O O8 0.093520 0.857375 0.019742
O O9 0.772373 0.073778 0.065855
O O10 0.000000 0.000000 0.000000
O O11 0.668954 0.375687 0.858237
O O12 0.393162 0.619403 0.917785
O O13 0.278073 0.714613 0.076237
O O14 0.562547 0.986835 0.434306
O O15 0.993654 0.798365 0.106782
O O16 0.594380 0.906058 0.039783
O O17 0.194924 0.960183 0.816272
#
# Coordination Sequence:
#
# PCOD8004933 Si02
#       8
#     2   2   2   2   2   2   2   2
#     4  10  21  39  65  93 123 166 212 269 326 386
#     4  10  21  39  61  92 127 162 216 268 317 388
#     4  11  22  42  65  90 136 177 216 270 326 393
#     4  11  22  37  64  95 125 176 221 270 322 393
#     4  10  22  38  61  94 126 170 222 276 323 385
#     4  10  20  38  63  91 131 167 219 278 328 381
#     4  10  21  41  65  96 132 175 218 266 335 387
#     4  10  20  39  70  90 128 176 210 273 333 387
#
# _framework density 22.207719999999998
#
# number of rings (size 3 to 8) (size 9 to 14) (size 15 to 20)
#    0.000    1.750    2.500    1.875    0.000    1.500 
#    2.250    0.625    2.750    0.000    0.000    0.000 
#    0.000    0.000    0.000    0.000    0.000    0.000 
#
# Total GULP energy -198266.446753 kJ/mol
# GULP energy per Si atom -12391.652922 kJ/mol
# Density = 2.215717 g / cm^3
# Si number density = 22.207720 Si / 1000 Ang^3
#
#
#
# Elastic Constant Matrix: (Units=GPa)
#
#
# Indices 1 2 3 4 5 6 
#
# 1 133.6139 26.2165 32.9225 -2.9237 -1.6567 -14.3781
# 2 26.2165 70.3717 22.5483 4.8291 4.5855 -8.9352
# 3 32.9225 22.5483 88.0915 0.8166 -6.8664 7.8067
# 4 -2.9237 4.8291 0.8166 31.7782 3.3076 -0.7072
# 5 -1.6567 4.5855 -6.8664 3.3076 34.8022 -8.6184
# 6 -14.3781 -8.9352 7.8067 -0.7072 -8.6184 38.6556
#
#
#
# Elastic Compliance Matrix: (Units=1/GPa)
#
#
# Indices 1 2 3 4 5 6 
#
# 1 0.009107 -0.002045 -0.003156 0.001220 0.000899 0.003775
# 2 -0.002045 0.017004 -0.004034 -0.002378 -0.002045 0.003485
# 3 -0.003156 -0.004034 0.014129 -0.000358 0.002088 -0.004501
# 4 0.001220 -0.002378 -0.000358 0.032239 -0.002776 -0.000053
# 5 0.000899 -0.002045 0.002088 -0.002776 0.031299 0.006367
# 6 0.003775 0.003485 -0.004501 -0.000053 0.006367 0.030407
#
#
# Mechanical properties :
#
#
# Convention : Reuss Voigt Hill
#
# Bulk Modulus (GPa) = 45.93541 50.60574 48.27057
# Shear Modulus (GPa) = 31.26751 35.07321 33.17036
#
# Velocity S-wave (km/s) = 3.75635 3.97838 3.86896
# Velocity P-wave (km/s) = 6.28831 6.62875 6.46077
#
# Compressibility (1/GPa) = 0.02176970
#
# Stress axis : x y z
#
# Youngs Moduli (GPa) = 109.80399 58.81124 70.77656
#
# Poissons Ratio (x) = 0.12024 0.22338
# Poissons Ratio (y) = 0.22450 0.28554
# Poissons Ratio (z) = 0.34655 0.23727
#
# Static dielectric constant tensor:
#      x y z
#    x 4.234430 -0.169600 -0.022040 
#    y -0.169600 3.836890 -0.195360 
#    z -0.022040 -0.195360 4.177460 
# 
# 
# High freq. dielectric constant tensor:
#      x y z
#    x 1.889320 -0.017180 -0.013300 
#    y -0.017180 1.853090 -0.014920 
#    z -0.013300 -0.014920 1.858340 
# 
# From -- ./inp_files/438353.got.cif
#   From: 2010.06.25/outbox.cif.g09.slc.cpg/sg2_220_cif.got.tgz:438353.got - 2010.06.27 13:26:56.
