data_PCOD8004898
_publ_section_title
;
Structure prediction by ZEFSAII (Michael W. Deem and Ramdas Pophale) SiO2 
 PCOD8004898
Probable space group: P -1
;
_chemical_formula_sum "Si O2"
_cell_formula_units_Z 12
_cell_length_a 8.608519
_cell_length_b 14.804924
_cell_length_c 5.269333
_cell_angle_alpha 101.374412
_cell_angle_beta 55.571018
_cell_angle_gamma 111.851925
_cell_volume 514.051148
_symmetry_space_group_name_H-M "P -1"
_symmetry_group_IT_number 2
_symmetry_cell_setting 'triclinic'
loop_
_space_group_symop_operation_xyz
x,y,z
-x,-y,-z
loop_
_atom_site_type_symbol
_atom_site_label
_atom_site_fract_x
_atom_site_fract_y
_atom_site_fract_z
Si Si1 0.409995 0.354282 0.423312
Si Si2 0.510463 0.836443 0.674798
Si Si3 0.888252 0.014694 0.362300
Si Si4 0.207553 0.484020 0.915900
Si Si5 0.072684 0.391566 0.490083
Si Si6 0.743821 0.191420 0.605490
O O1 0.376078 0.243439 0.471507
O O2 0.345431 0.412788 0.742818
O O3 0.643895 0.405288 0.173208
O O4 0.266923 0.356284 0.317553
O O5 0.350332 0.811646 0.585897
O O6 0.665441 0.940979 0.527014
O O7 0.416206 0.841941 0.039927
O O8 0.882657 0.123963 0.433180
O O9 0.000000 0.000000 0.500000
O O10 0.000000 0.000000 0.000000
O O11 0.050701 0.450999 0.802063
O O12 0.097411 0.465718 0.275973
O O13 0.875513 0.301649 0.592921
#
# Coordination Sequence:
#
# PCOD8004898 Si02
#       6
#     2   2   2   2   2   2
#     4   9  22  37  67  88 125 167 225 250 310 357
#     4  12  26  42  65  97 134 164 201 263 331 373
#     4  12  26  46  73  95 119 168 220 255 305 385
#     4   9  20  36  66  89 122 164 226 266 283 358
#     4  10  20  38  63  87 124 170 214 254 304 366
#     4  12  26  43  63  97 138 162 197 267 330 371
#
# _framework density 23.343983000000001
#
# number of rings (size 3 to 8) (size 9 to 14) (size 15 to 20)
#    1.000    0.333    0.000    5.500    4.667    0.000 
#    0.000    5.000    0.000    0.000    0.000    0.000 
#    0.000    0.000    0.000    0.000    0.000    0.000 
#
# Total GULP energy -148840.565829 kJ/mol
# GULP energy per Si atom -12403.380486 kJ/mol
# Density = 2.329085 g / cm^3
# Si number density = 23.343983 Si / 1000 Ang^3
#
#
#
# Elastic Constant Matrix: (Units=GPa)
#
#
# Indices 1 2 3 4 5 6 
#
# 1 128.8028 17.6911 26.2210 5.7708 25.0833 0.3804
# 2 17.6911 75.8174 39.1558 -0.4413 -0.4179 14.2317
# 3 26.2210 39.1558 149.7614 1.0273 15.9818 -5.6751
# 4 5.7708 -0.4413 1.0273 39.9985 0.7136 -13.0911
# 5 25.0833 -0.4179 15.9818 0.7136 35.9326 -7.8904
# 6 0.3804 14.2317 -5.6751 -13.0911 -7.8904 43.2318
#
#
#
# Elastic Compliance Matrix: (Units=1/GPa)
#
#
# Indices 1 2 3 4 5 6 
#
# 1 0.009487 -0.001740 -0.000534 -0.001683 -0.006659 -0.001306
# 2 -0.001740 0.017186 -0.004644 -0.001551 0.002120 -0.006335
# 3 -0.000534 -0.004644 0.008379 0.000611 -0.002918 0.002286
# 4 -0.001683 -0.001551 0.000611 0.028318 0.002436 0.009625
# 5 -0.006659 0.002120 -0.002918 0.002436 0.035097 0.006121
# 6 -0.001306 -0.006335 0.002286 0.009625 0.006121 0.029560
#
#
# Mechanical properties :
#
#
# Convention : Reuss Voigt Hill
#
# Bulk Modulus (GPa) = 47.13192 57.83525 52.48359
# Shear Modulus (GPa) = 33.57198 41.92017 37.74608
#
# Velocity S-wave (km/s) = 3.79640 4.24224 4.02550
# Velocity P-wave (km/s) = 6.28099 6.98745 6.64362
#
# Compressibility (1/GPa) = 0.02121704
#
# Stress axis : x y z
#
# Youngs Moduli (GPa) = 105.40284 58.18758 119.34796
#
# Poissons Ratio (x) = 0.10122 0.06368
# Poissons Ratio (y) = 0.18336 0.55429
# Poissons Ratio (z) = 0.05624 0.27024
#
# Static dielectric constant tensor:
#      x y z
#    x 4.294580 -0.047250 -0.057170 
#    y -0.047250 4.263260 0.124520 
#    z -0.057170 0.124520 4.220530 
# 
# 
# High freq. dielectric constant tensor:
#      x y z
#    x 1.945110 -0.008430 -0.004190 
#    y -0.008430 1.933700 0.009810 
#    z -0.004190 0.009810 1.932820 
# 
# From -- ./inp_files/30248.got.cif
#   From: 2010.06.25/outbox.cif.g09.slc.cpg/sg2_16_cif.got.tgz:30248.got - 2010.06.27 13:26:56.
