data_PCOD8004955
_publ_section_title
;
Structure prediction by ZEFSAII (Michael W. Deem and Ramdas Pophale) SiO2 
 PCOD8004955
Probable space group: P -1
;
_chemical_formula_sum "Si O2"
_cell_formula_units_Z 14
_cell_length_a 14.483025
_cell_length_b 10.515523
_cell_length_c 14.320078
_cell_angle_alpha 120.078618
_cell_angle_beta 20.179204
_cell_angle_gamma 116.309359
_cell_volume 648.299760
_symmetry_space_group_name_H-M "P -1"
_symmetry_group_IT_number 2
_symmetry_cell_setting 'triclinic'
loop_
_space_group_symop_operation_xyz
x,y,z
-x,-y,-z
loop_
_atom_site_type_symbol
_atom_site_label
_atom_site_fract_x
_atom_site_fract_y
_atom_site_fract_z
Si Si1 0.786849 0.308406 0.159147
Si Si2 0.304717 0.954543 0.983290
Si Si3 0.743831 0.136106 0.601902
Si Si4 0.308859 0.398692 0.760237
Si Si5 0.226525 0.866823 0.220405
Si Si6 0.819159 0.446153 0.567928
Si Si7 0.259188 0.538752 0.056398
O O1 0.567298 0.294652 0.442986
O O2 0.741817 0.464875 0.210322
O O3 0.784329 0.185616 0.037251
O O4 0.067016 0.294846 0.943558
O O5 0.411006 0.909755 0.972453
O O6 0.047715 0.069502 0.282569
O O7 0.531426 0.022282 0.729005
O O8 0.634888 0.165403 0.822653
O O9 0.725574 0.283889 0.613784
O O10 0.354556 0.456218 0.841404
O O11 0.126365 0.706956 0.228551
O O12 0.000000 0.000000 0.500000
O O13 0.000000 0.500000 0.500000
O O14 0.020175 0.449563 0.291030
O O15 0.532824 0.543061 0.860752
#
# Coordination Sequence:
#
# PCOD8004955 Si02
#       7
#     2   2   2   2   2   2   2
#     4  10  20  38  63  93 128 157 206 257 326 383
#     4  11  22  40  64  93 129 166 198 264 325 377
#     4  11  24  40  61  90 130 168 215 250 306 382
#     4  10  21  38  62  96 124 161 204 263 317 380
#     4  10  23  40  62  98 133 166 200 256 323 393
#     4  12  26  43  65  90 127 179 222 257 298 367
#     4  12  24  42  69  92 133 168 211 264 316 368
#
# _framework density 21.594949
#
# number of rings (size 3 to 8) (size 9 to 14) (size 15 to 20)
#    0.000    1.143    2.857    3.429    2.000    2.286 
#    0.000    0.000    0.000   17.143    0.000    0.000 
#    0.000    0.000    0.000    0.000    0.000    0.000 
#
# Total GULP energy -173458.722238 kJ/mol
# GULP energy per Si atom -12389.908731 kJ/mol
# Density = 2.154580 g / cm^3
# Si number density = 21.594949 Si / 1000 Ang^3
#
#
#
# Elastic Constant Matrix: (Units=GPa)
#
#
# Indices 1 2 3 4 5 6 
#
# 1 55.0107 25.3209 44.2927 5.4435 4.5492 0.2653
# 2 25.3209 59.2189 52.0779 -5.7978 3.7397 -8.5255
# 3 44.2927 52.0779 113.3831 -18.8945 -3.7800 -13.9089
# 4 5.4435 -5.7978 -18.8945 39.9321 7.3990 5.3954
# 5 4.5492 3.7397 -3.7800 7.3990 32.3509 -4.8447
# 6 0.2653 -8.5255 -13.9089 5.3954 -4.8447 26.3854
#
#
#
# Elastic Compliance Matrix: (Units=1/GPa)
#
#
# Indices 1 2 3 4 5 6 
#
# 1 0.032067 -0.003485 -0.013576 -0.009418 -0.004667 -0.007536
# 2 -0.003485 0.029623 -0.012154 -0.000622 -0.003819 0.002626
# 3 -0.013576 -0.012154 0.022186 0.008713 0.004967 0.007035
# 4 -0.009418 -0.000622 0.008713 0.031741 -0.005291 -0.002975
# 5 -0.004667 -0.003819 0.004967 -0.005291 0.035142 0.008966
# 6 -0.007536 0.002626 0.007035 -0.002975 0.008966 0.044787
#
#
# Mechanical properties :
#
#
# Convention : Reuss Voigt Hill
#
# Bulk Modulus (GPa) = 39.29660 52.33288 45.81474
# Shear Modulus (GPa) = 19.05073 26.79508 22.92291
#
# Velocity S-wave (km/s) = 2.97338 3.52633 3.26159
# Velocity P-wave (km/s) = 5.47947 6.39268 5.95361
#
# Compressibility (1/GPa) = 0.02544750
#
# Stress axis : x y z
#
# Youngs Moduli (GPa) = 31.18428 33.75776 45.07395
#
# Poissons Ratio (x) = 0.11764 0.61192
# Poissons Ratio (y) = 0.10867 0.54781
# Poissons Ratio (z) = 0.42336 0.41028
#
# Static dielectric constant tensor:
#      x y z
#    x 3.878280 -0.112890 0.155310 
#    y -0.112890 3.970170 -0.195480 
#    z 0.155310 -0.195480 4.088570 
# 
# 
# High freq. dielectric constant tensor:
#      x y z
#    x 1.826910 0.005380 0.008830 
#    y 0.005380 1.847260 -0.007810 
#    z 0.008830 -0.007810 1.856740 
# 
# From -- ./inp_files/72257.got.cif
#   From: 2010.06.25/outbox.cif.g09.slc.cpg/sg2_37_cif.got.tgz:72257.got - 2010.06.27 13:26:56.
