data_PCOD8004121
_publ_section_title
;
Structure prediction by ZEFSAII (Michael W. Deem and Ramdas Pophale) SiO2 
 PCOD8004121
Probable space group: P -1
;
_chemical_formula_sum "Si O2"
_cell_formula_units_Z 14
_cell_length_a 15.257905
_cell_length_b 5.206312
_cell_length_c 11.430042
_cell_angle_alpha 69.058369
_cell_angle_beta 46.488922
_cell_angle_gamma 85.006385
_cell_volume 597.809896
_symmetry_space_group_name_H-M "P -1"
_symmetry_group_IT_number 2
_symmetry_cell_setting 'triclinic'
loop_
_space_group_symop_operation_xyz
x,y,z
-x,-y,-z
loop_
_atom_site_type_symbol
_atom_site_label
_atom_site_fract_x
_atom_site_fract_y
_atom_site_fract_z
Si Si1 0.566685 0.660728 0.297792
Si Si2 0.284718 0.705198 0.918962
Si Si3 0.783285 0.337019 0.760640
Si Si4 0.990369 0.866124 0.406258
Si Si5 0.920559 0.229804 0.054240
Si Si6 0.662460 0.302951 0.642527
Si Si7 0.790495 0.942545 0.423593
O O1 0.500000 0.500000 0.500000
O O2 0.663825 0.495507 0.183921
O O3 0.474883 0.680773 0.271022
O O4 0.634312 0.976531 0.220176
O O5 0.140105 0.689177 0.022529
O O6 0.283942 0.587337 0.072776
O O7 0.888135 0.571290 0.561089
O O8 0.676083 0.222829 0.780375
O O9 0.866697 0.122522 0.762657
O O10 0.929851 0.031845 0.337513
O O11 0.000000 0.000000 0.500000
O O12 0.799837 0.100112 0.266176
O O13 0.000000 0.500000 0.000000
O O14 0.000000 0.000000 0.000000
O O15 0.749892 0.610485 0.487617
O O16 0.696068 0.052472 0.576399
#
# Coordination Sequence:
#
# PCOD8004121 Si02
#       7
#     2   2   2   2   2   2   2
#     4  12  26  47  70  92 128 174 227 273 327 372
#     4  12  27  44  69  98 133 169 216 277 320 389
#     4  10  24  39  62 101 132 170 217 258 333 384
#     4  10  20  37  64  90 135 171 205 257 317 397
#     4  12  25  41  64  95 132 166 208 264 326 389
#     4  11  23  42  66  92 124 171 219 270 312 385
#     4  11  22  39  65  92 126 168 220 259 322 385
#
# _framework density 23.418817000000001
#
# number of rings (size 3 to 8) (size 9 to 14) (size 15 to 20)
#    0.000    0.857    1.429    5.571    4.000    1.143 
#    0.000    0.000    0.000    0.000    0.000    0.000 
#    0.000    0.000    0.000    0.000    0.000    0.000 
#
# Total GULP energy -173507.662569 kJ/mol
# GULP energy per Si atom -12393.404469 kJ/mol
# Density = 2.336551 g / cm^3
# Si number density = 23.418817 Si / 1000 Ang^3
#
#
#
# Elastic Constant Matrix: (Units=GPa)
#
#
# Indices 1 2 3 4 5 6 
#
# 1 148.2984 19.3696 19.4090 8.7668 -13.7033 -5.3360
# 2 19.3696 89.1149 8.7955 11.1745 -5.9057 2.2027
# 3 19.4090 8.7955 73.9494 10.2299 16.8646 -1.8812
# 4 8.7668 11.1745 10.2299 39.8885 4.5407 -7.0593
# 5 -13.7033 -5.9057 16.8646 4.5407 39.6408 4.8181
# 6 -5.3360 2.2027 -1.8812 -7.0593 4.8181 36.5762
#
#
#
# Elastic Compliance Matrix: (Units=1/GPa)
#
#
# Indices 1 2 3 4 5 6 
#
# 1 0.007626 -0.001037 -0.002551 -0.001084 0.003649 0.000354
# 2 -0.001037 0.012249 -0.001363 -0.003513 0.002691 -0.001992
# 3 -0.002551 -0.001363 0.016511 -0.002169 -0.008006 0.001195
# 4 -0.001084 -0.003513 -0.002169 0.028347 -0.003943 0.005932
# 5 0.003649 0.002691 -0.008006 -0.003943 0.031346 -0.004932
# 6 0.000354 -0.001992 0.001195 0.005932 -0.004932 0.029368
#
#
# Mechanical properties :
#
#
# Convention : Reuss Voigt Hill
#
# Bulk Modulus (GPa) = 37.75895 45.16789 41.46342
# Shear Modulus (GPa) = 34.67919 40.80700 37.74310
#
# Velocity S-wave (km/s) = 3.85232 4.17884 4.01890
# Velocity P-wave (km/s) = 5.99546 6.52782 6.26730
#
# Compressibility (1/GPa) = 0.02648379
#
# Stress axis : x y z
#
# Youngs Moduli (GPa) = 131.12217 81.63650 60.56621
#
# Poissons Ratio (x) = 0.08465 0.15453
# Poissons Ratio (y) = 0.13596 0.08256
# Poissons Ratio (z) = 0.33455 0.11128
#
# Static dielectric constant tensor:
#      x y z
#    x 4.695330 -0.378020 0.550410 
#    y -0.378020 4.036810 0.430210 
#    z 0.550410 0.430210 3.119750 
# 
# 
# High freq. dielectric constant tensor:
#      x y z
#    x 1.954100 0.001420 0.008780 
#    y 0.001420 1.928010 0.007130 
#    z 0.008780 0.007130 1.909070 
# 
# From -- ./inp_files/101275.got.cif
#   From: 2010.06.25/outbox.cif.g09.slc.cpg/sg2_51_cif.got.tgz:101275.got - 2010.06.27 13:26:56.
