data_PCOD8004326
_publ_section_title
;
Structure prediction by ZEFSAII (Michael W. Deem and Ramdas Pophale) SiO2 
 PCOD8004326
Probable space group: P -1
;
_chemical_formula_sum "Si O2"
_cell_formula_units_Z 14
_cell_length_a 9.475495
_cell_length_b 14.415215
_cell_length_c 8.159555
_cell_angle_alpha 139.958815
_cell_angle_beta 103.092205
_cell_angle_gamma 54.642766
_cell_volume 532.663900
_symmetry_space_group_name_H-M "P -1"
_symmetry_group_IT_number 2
_symmetry_cell_setting 'triclinic'
loop_
_space_group_symop_operation_xyz
x,y,z
-x,-y,-z
loop_
_atom_site_type_symbol
_atom_site_label
_atom_site_fract_x
_atom_site_fract_y
_atom_site_fract_z
Si Si1 0.252894 0.352947 0.550859
Si Si2 0.930791 0.809587 0.793749
Si Si3 0.341035 0.370539 0.249970
Si Si4 0.356021 0.035573 0.795616
Si Si5 0.865999 0.984977 0.548162
Si Si6 0.123807 0.560500 0.120921
Si Si7 0.739275 0.207136 0.129415
O O1 0.112862 0.303826 0.483645
O O2 0.206740 0.450268 0.489242
O O3 0.468799 0.154239 0.323370
O O4 0.236490 0.479891 0.865109
O O5 0.835422 0.022044 0.012126
O O6 0.842896 0.831636 0.977766
O O7 0.159301 0.699543 0.695687
O O8 0.251824 0.484415 0.211738
O O9 0.416202 0.160699 0.943980
O O10 0.518852 0.358824 0.324952
O O11 0.305203 0.983936 0.548070
O O12 0.998674 0.784752 0.404183
O O13 0.757482 0.156687 0.876687
O O14 0.000000 0.000000 0.500000
O O15 0.000000 0.500000 0.000000
#
# Coordination Sequence:
#
# PCOD8004326 Si02
#       7
#     2   2   2   2   2   2   2
#     4  11  23  45  73 109 147 180 244 302 359 425
#     4  10  20  37  69 105 140 184 236 287 352 432
#     4  11  23  44  74 111 143 186 242 303 357 423
#     4  11  20  43  73 104 140 189 239 289 360 427
#     4  12  26  46  72 100 146 192 239 297 363 435
#     4  12  27  46  72 111 144 190 244 303 362 422
#     4  11  21  40  72 105 138 187 245 284 355 440
#
# _framework density 26.282992
#
# number of rings (size 3 to 8) (size 9 to 14) (size 15 to 20)
#    0.000    0.857    5.714    2.571    0.000    1.714 
#    2.571    2.857    0.000   11.143    0.000    0.000 
#    0.000    0.000    0.000    0.000    0.000    0.000 
#
# Total GULP energy -173580.775718 kJ/mol
# GULP energy per Si atom -12398.626837 kJ/mol
# Density = 2.622317 g / cm^3
# Si number density = 26.282992 Si / 1000 Ang^3
#
#
#
# Elastic Constant Matrix: (Units=GPa)
#
#
# Indices 1 2 3 4 5 6 
#
# 1 174.9701 46.8849 29.3982 3.0040 5.4343 -17.4449
# 2 46.8849 117.1408 15.4530 -19.9996 19.6417 3.6461
# 3 29.3982 15.4530 109.3964 -30.4916 12.4878 2.1069
# 4 3.0040 -19.9996 -30.4916 41.3835 3.4248 0.9697
# 5 5.4343 19.6417 12.4878 3.4248 42.7524 5.3862
# 6 -17.4449 3.6461 2.1069 0.9697 5.3862 45.1722
#
#
#
# Elastic Compliance Matrix: (Units=1/GPa)
#
#
# Indices 1 2 3 4 5 6 
#
# 1 0.007649 -0.003886 -0.003153 -0.004976 0.001715 0.003317
# 2 -0.003886 0.012372 0.002474 0.008657 -0.006349 -0.002044
# 3 -0.003153 0.002474 0.013627 0.011956 -0.005465 -0.001658
# 4 -0.004976 0.008657 0.011956 0.038376 -0.009551 -0.002863
# 5 0.001715 -0.006349 -0.005465 -0.009551 0.028675 -0.001785
# 6 0.003317 -0.002044 -0.001658 -0.002863 -0.001785 0.023935
#
#
# Mechanical properties :
#
#
# Convention : Reuss Voigt Hill
#
# Bulk Modulus (GPa) = 40.78779 64.99774 52.89276
# Shear Modulus (GPa) = 35.22651 46.51305 40.86978
#
# Velocity S-wave (km/s) = 3.66495 4.21135 3.94761
# Velocity P-wave (km/s) = 5.78460 6.95923 6.39892
#
# Compressibility (1/GPa) = 0.02451714
#
# Stress axis : x y z
#
# Youngs Moduli (GPa) = 130.73156 80.82843 73.38212
#
# Poissons Ratio (x) = 0.31410 0.23140
# Poissons Ratio (y) = 0.50802 -0.18152
# Poissons Ratio (z) = 0.41224 -0.19994
#
# Static dielectric constant tensor:
#      x y z
#    x 5.123600 0.009060 0.059800 
#    y 0.009060 4.739300 -0.196020 
#    z 0.059800 -0.196020 5.323400 
# 
# 
# High freq. dielectric constant tensor:
#      x y z
#    x 2.060920 0.008780 0.005040 
#    y 0.008780 2.061430 0.002690 
#    z 0.005040 0.002690 2.076610 
# 
# From -- ./inp_files/209420.got.cif
#   From: 2010.06.25/outbox.cif.g09.slc.cpg/sg2_105_cif.got.tgz:209420.got - 2010.06.27 13:26:56.
