data_PCOD8004958
_publ_section_title
;
Structure prediction by ZEFSAII (Michael W. Deem and Ramdas Pophale) SiO2 
 PCOD8004958
Probable space group: P -1
;
_chemical_formula_sum "Si O2"
_cell_formula_units_Z 14
_cell_length_a 19.485090
_cell_length_b 9.333084
_cell_length_c 12.775896
_cell_angle_alpha 130.996836
_cell_angle_beta 149.571403
_cell_angle_gamma 34.611383
_cell_volume 656.653849
_symmetry_space_group_name_H-M "P -1"
_symmetry_group_IT_number 2
_symmetry_cell_setting 'triclinic'
loop_
_space_group_symop_operation_xyz
x,y,z
-x,-y,-z
loop_
_atom_site_type_symbol
_atom_site_label
_atom_site_fract_x
_atom_site_fract_y
_atom_site_fract_z
Si Si1 0.017191 0.396089 0.757612
Si Si2 0.867282 0.296070 0.695125
Si Si3 0.911135 0.911264 0.902794
Si Si4 0.415546 0.103817 0.110572
Si Si5 0.959993 0.798326 0.520944
Si Si6 0.489641 0.687241 0.500247
Si Si7 0.718440 0.666609 0.168263
O O1 0.914237 0.417088 0.733773
O O2 0.964653 0.664893 0.797498
O O3 0.959153 0.330006 0.548067
O O4 0.236458 0.169200 0.953067
O O5 0.662965 0.528364 0.576205
O O6 0.874114 0.087505 0.546606
O O7 0.013311 0.165683 0.917620
O O8 0.692183 0.143355 0.728177
O O9 0.000000 0.000000 0.000000
O O10 0.515493 0.121962 0.342591
O O11 0.552421 0.816561 0.105302
O O12 0.354227 0.303677 0.030559
O O13 0.129143 0.632831 0.746059
O O14 0.803193 0.799009 0.349071
O O15 0.500000 0.500000 0.500000
#
# Coordination Sequence:
#
# PCOD8004958 Si02
#       7
#     2   2   2   2   2   2   2
#     4  11  24  46  65  95 140 174 213 277 328 389
#     4  12  26  44  67  98 140 173 214 272 336 388
#     4  12  26  44  71  98 129 173 225 273 323 392
#     4  10  20  38  63  93 133 167 220 268 327 379
#     4  10  22  39  68  91 132 171 225 260 333 381
#     4  12  24  40  69  97 131 169 223 273 326 386
#     4   9  20  37  66  97 122 172 221 275 312 385
#
# _framework density 21.320214
#
# number of rings (size 3 to 8) (size 9 to 14) (size 15 to 20)
#    0.000    1.143    2.857    2.571    8.000    0.571 
#    2.571    0.714    0.000    0.000    0.000    0.000 
#    0.000    0.000    0.000    0.000    0.000    0.000 
#
# Total GULP energy -173641.625702 kJ/mol
# GULP energy per Si atom -12402.973264 kJ/mol
# Density = 2.127169 g / cm^3
# Si number density = 21.320214 Si / 1000 Ang^3
#
#
#
# Elastic Constant Matrix: (Units=GPa)
#
#
# Indices 1 2 3 4 5 6 
#
# 1 137.5903 44.8112 39.5841 -8.5620 15.0002 -17.9535
# 2 44.8112 96.9588 40.8099 -4.4786 6.8150 -12.0937
# 3 39.5841 40.8099 102.5608 -20.6214 -4.4285 -9.0870
# 4 -8.5620 -4.4786 -20.6214 44.9549 -9.2579 2.0330
# 5 15.0002 6.8150 -4.4285 -9.2579 36.6146 -2.6679
# 6 -17.9535 -12.0937 -9.0870 2.0330 -2.6679 30.0142
#
#
#
# Elastic Compliance Matrix: (Units=1/GPa)
#
#
# Indices 1 2 3 4 5 6 
#
# 1 0.009751 -0.002711 -0.002629 -0.000542 -0.003679 0.003654
# 2 -0.002711 0.013965 -0.004779 -0.001918 -0.002371 0.002478
# 3 -0.002629 -0.004779 0.014321 0.006676 0.005450 0.000870
# 4 -0.000542 -0.001918 0.006676 0.026693 0.008124 -0.000162
# 5 -0.003679 -0.002371 0.005450 0.008124 0.032031 0.000791
# 6 0.003654 0.002478 0.000870 -0.000162 0.000791 0.036847
#
#
# Mechanical properties :
#
#
# Convention : Reuss Voigt Hill
#
# Bulk Modulus (GPa) = 56.17927 65.28003 60.72965
# Shear Modulus (GPa) = 31.29324 36.44370 33.86847
#
# Velocity S-wave (km/s) = 3.83531 4.13891 3.99000
# Velocity P-wave (km/s) = 6.78382 7.31615 7.05501
#
# Compressibility (1/GPa) = 0.01780016
#
# Stress axis : x y z
#
# Youngs Moduli (GPa) = 102.54923 71.60686 69.82663
#
# Poissons Ratio (x) = 0.19412 0.18357
# Poissons Ratio (y) = 0.27800 0.33370
# Poissons Ratio (z) = 0.26959 0.34221
#
# Static dielectric constant tensor:
#      x y z
#    x 3.768530 -0.155890 -0.048660 
#    y -0.155890 3.849710 -0.148730 
#    z -0.048660 -0.148730 4.091420 
# 
# 
# High freq. dielectric constant tensor:
#      x y z
#    x 1.826440 -0.022240 -0.006080 
#    y -0.022240 1.831660 -0.007440 
#    z -0.006080 -0.007440 1.843490 
# 
# From -- ./inp_files/245900.got.cif
#   From: 2010.06.25/outbox.cif.g09.slc.cpg/sg2_123_cif.got.tgz:245900.got - 2010.06.27 13:26:56.
