data_PCOD8004677
_publ_section_title
;
Structure prediction by ZEFSAII (Michael W. Deem and Ramdas Pophale) SiO2 
 PCOD8004677
Probable space group: P -1
;
_chemical_formula_sum "Si O2"
_cell_formula_units_Z 16
_cell_length_a 6.879788
_cell_length_b 10.689569
_cell_length_c 13.528361
_cell_angle_alpha 54.016322
_cell_angle_beta 79.731390
_cell_angle_gamma 66.504707
_cell_volume 736.210609
_symmetry_space_group_name_H-M "P -1"
_symmetry_group_IT_number 2
_symmetry_cell_setting 'triclinic'
loop_
_space_group_symop_operation_xyz
x,y,z
-x,-y,-z
loop_
_atom_site_type_symbol
_atom_site_label
_atom_site_fract_x
_atom_site_fract_y
_atom_site_fract_z
Si Si1 0.159770 0.195865 0.132428
Si Si2 0.296111 0.804530 0.622758
Si Si3 0.129776 0.927428 0.377049
Si Si4 0.371293 0.344253 0.184729
Si Si5 0.182432 0.571965 0.464573
Si Si6 0.492690 0.173870 0.955810
Si Si7 0.725228 0.300874 0.011923
Si Si8 0.441828 0.460042 0.682512
O O1 0.176673 0.295057 0.185004
O O2 0.925158 0.246028 0.089685
O O3 0.238497 0.000234 0.247485
O O4 0.295585 0.240425 0.016624
O O5 0.288639 0.883166 0.477763
O O6 0.511765 0.778434 0.677623
O O7 0.306641 0.616191 0.691577
O O8 0.091519 0.921482 0.647403
O O9 0.088136 0.767135 0.414628
O O10 0.530168 0.331523 0.087419
O O11 0.286152 0.540132 0.128710
O O12 0.327186 0.461018 0.589153
O O13 0.321422 0.544955 0.363872
O O14 0.000000 0.500000 0.500000
O O15 0.449877 0.293976 0.811326
O O16 0.710008 0.164565 0.996966
O O17 0.500000 0.000000 0.000000
#
# Coordination Sequence:
#
# PCOD8004677 Si02
#       8
#     2   2   2   2   2   2   2   2
#     4  11  23  38  62  94 129 175 207 263 332 382
#     4  10  20  42  64  92 130 167 212 282 311 370
#     4  10  22  41  65  97 134 164 220 272 316 386
#     4  10  20  38  61  88 126 172 207 263 332 372
#     4  10  23  45  68  91 124 177 210 262 329 384
#     4  11  24  40  64  95 127 176 217 263 320 383
#     4  10  21  38  59  88 130 165 216 265 309 388
#     4  10  22  44  65  92 132 162 219 270 313 387
#
# _framework density 21.732911999999999
#
# number of rings (size 3 to 8) (size 9 to 14) (size 15 to 20)
#    0.000    1.750    2.500    1.125    0.000    4.000 
#   13.500    0.000    0.000    0.000    0.000    0.000 
#    0.000    0.000    0.000    0.000    0.000    0.000 
#
# Total GULP energy -198228.140266 kJ/mol
# GULP energy per Si atom -12389.258767 kJ/mol
# Density = 2.168345 g / cm^3
# Si number density = 21.732912 Si / 1000 Ang^3
#
#
#
# Elastic Constant Matrix: (Units=GPa)
#
#
# Indices 1 2 3 4 5 6 
#
# 1 124.3354 51.1850 61.2607 -10.3532 1.1156 35.3418
# 2 51.1850 114.5646 44.9595 -12.5592 0.7382 22.9527
# 3 61.2607 44.9595 155.8802 -16.6257 -0.6468 13.1206
# 4 -10.3532 -12.5592 -16.6257 24.7952 -0.1941 -2.6474
# 5 1.1156 0.7382 -0.6468 -0.1941 35.8787 7.2412
# 6 35.3418 22.9527 13.1206 -2.6474 7.2412 34.3507
#
#
#
# Elastic Compliance Matrix: (Units=1/GPa)
#
#
# Indices 1 2 3 4 5 6 
#
# 1 0.014440 -0.002424 -0.003847 0.000944 0.001981 -0.012112
# 2 -0.002424 0.011761 -0.001693 0.003322 0.000753 -0.004621
# 3 -0.003847 -0.001693 0.008616 0.003536 -0.000093 0.002091
# 4 0.000944 0.003322 0.003536 0.044654 0.000449 -0.001195
# 5 0.001981 0.000753 -0.000093 0.000449 0.029551 -0.008701
# 6 -0.012112 -0.004621 0.002091 -0.001195 -0.008701 0.045604
#
#
# Mechanical properties :
#
#
# Convention : Reuss Voigt Hill
#
# Bulk Modulus (GPa) = 52.94304 78.84341 65.89322
# Shear Modulus (GPa) = 28.27210 34.82992 31.55101
#
# Velocity S-wave (km/s) = 3.61070 4.00763 3.81433
# Velocity P-wave (km/s) = 6.46502 7.60079 7.05579
#
# Compressibility (1/GPa) = 0.01888822
#
# Stress axis : x y z
#
# Youngs Moduli (GPa) = 69.25204 85.02435 116.05977
#
# Poissons Ratio (x) = 0.20613 0.44651
# Poissons Ratio (y) = 0.16789 0.19650
# Poissons Ratio (z) = 0.26643 0.14396
#
# Static dielectric constant tensor:
#      x y z
#    x 3.232210 3.479170 3.571420 
#    y 3.479170 -10.285610 -15.555270 
#    z 3.571420 -15.555270 -12.740950 
# 
# 
# High freq. dielectric constant tensor:
#      x y z
#    x 1.837260 0.019250 0.005760 
#    y 0.019250 1.844110 0.003080 
#    z 0.005760 0.003080 1.872460 
# 
# From -- ./inp_files/482636.got.cif
#   From: 2010.06.25/outbox.cif.g09.slc.cpg/sg2_242_cif.got.tgz:482636.got - 2010.06.27 13:26:56.
