data_PCOD8004202
_publ_section_title
;
Structure prediction by ZEFSAII (Michael W. Deem and Ramdas Pophale) SiO2 
 PCOD8004202
Probable space group: P -1
;
_chemical_formula_sum "Si O2"
_cell_formula_units_Z 16
_cell_length_a 8.818995
_cell_length_b 8.898787
_cell_length_c 16.543181
_cell_angle_alpha 109.329914
_cell_angle_beta 33.129532
_cell_angle_gamma 114.050439
_cell_volume 647.818584
_symmetry_space_group_name_H-M "P -1"
_symmetry_group_IT_number 2
_symmetry_cell_setting 'triclinic'
loop_
_space_group_symop_operation_xyz
x,y,z
-x,-y,-z
loop_
_atom_site_type_symbol
_atom_site_label
_atom_site_fract_x
_atom_site_fract_y
_atom_site_fract_z
Si Si1 0.706691 0.758017 0.783885
Si Si2 0.528498 0.756039 0.207518
Si Si3 0.746148 0.697984 0.928868
Si Si4 0.591522 0.489203 0.242280
Si Si5 0.047980 0.438797 0.751735
Si Si6 0.873288 0.911812 0.349328
Si Si7 0.655387 0.054862 0.316271
Si Si8 0.941360 0.505760 0.416987
O O1 0.592839 0.747567 0.925742
O O2 0.446447 0.675607 0.824839
O O3 0.950638 0.658479 0.654206
O O4 0.852046 0.942208 0.723252
O O5 0.703183 0.647752 0.162493
O O6 0.589126 0.940728 0.246102
O O7 0.190427 0.672328 0.345127
O O8 0.618431 0.762565 0.075364
O O9 0.747546 0.500204 0.893730
O O10 0.087230 0.787397 0.788578
O O11 0.789787 0.474350 0.225934
O O12 0.282474 0.502125 0.413459
O O13 0.997247 0.244412 0.747704
O O14 0.208763 0.494650 0.604281
O O15 0.734426 0.944427 0.332765
O O16 0.628503 0.885111 0.522853
#
# Coordination Sequence:
#
# PCOD8004202 Si02
#       8
#     2   2   2   2   2   2   2   2
#     4   9  20  39  61  88 118 167 205 245 297 372
#     4  11  21  42  64  90 121 168 218 242 291 384
#     4  10  24  39  63  88 128 168 205 249 304 364
#     4  11  21  37  65  92 122 156 208 256 308 362
#     4  11  24  39  61  97 130 156 194 264 319 358
#     4  10  20  37  65  92 127 154 204 257 314 357
#     4  10  20  37  65  92 119 166 207 252 302 366
#     4  10  22  37  65  89 122 157 208 259 307 351
#
# _framework density 24.698273
#
# number of rings (size 3 to 8) (size 9 to 14) (size 15 to 20)
#    0.000    1.750    1.250    3.750    7.000    5.000 
#    2.250    1.250    0.000    4.500    0.000    0.000 
#    0.000    0.000    0.000    0.000    0.000    0.000 
#
# Total GULP energy -198390.490976 kJ/mol
# GULP energy per Si atom -12399.405686 kJ/mol
# Density = 2.464206 g / cm^3
# Si number density = 24.698273 Si / 1000 Ang^3
#
#
#
# Elastic Constant Matrix: (Units=GPa)
#
#
# Indices 1 2 3 4 5 6 
#
# 1 115.7606 32.5546 15.7671 9.8912 33.7745 14.9421
# 2 32.5546 98.9079 0.2157 17.2560 4.8771 11.9084
# 3 15.7671 0.2157 70.8848 11.7711 28.1985 -7.0701
# 4 9.8912 17.2560 11.7711 30.3154 2.6697 8.0889
# 5 33.7745 4.8771 28.1985 2.6697 37.8462 10.7833
# 6 14.9421 11.9084 -7.0701 8.0889 10.7833 33.6935
#
#
#
# Elastic Compliance Matrix: (Units=1/GPa)
#
#
# Indices 1 2 3 4 5 6 
#
# 1 0.013299 -0.003354 0.003113 -0.002691 -0.013857 0.001022
# 2 -0.003354 0.012385 0.000821 -0.005934 0.001730 -0.001847
# 3 0.003113 0.000821 0.028655 -0.014631 -0.027992 0.016813
# 4 -0.002691 -0.005934 -0.014631 0.045754 0.015302 -0.015661
# 5 -0.013857 0.001730 -0.027992 0.015302 0.065455 -0.024962
# 6 0.001022 -0.001847 0.016813 -0.015661 -0.024962 0.045155
#
#
# Mechanical properties :
#
#
# Convention : Reuss Voigt Hill
#
# Bulk Modulus (GPa) = 18.01842 42.51425 30.26634
# Shear Modulus (GPa) = 21.92582 36.17208 29.04895
#
# Velocity S-wave (km/s) = 2.98274 3.83111 3.43323
# Velocity P-wave (km/s) = 4.37876 6.06800 5.29123
#
# Compressibility (1/GPa) = 0.05549876
#
# Stress axis : x y z
#
# Youngs Moduli (GPa) = 75.19596 80.74358 34.89849
#
# Poissons Ratio (x) = 0.27083 -0.10865
# Poissons Ratio (y) = 0.25222 -0.02866
# Poissons Ratio (z) = -0.23410 -0.06632
#
# Static dielectric constant tensor:
#      x y z
#    x 4.612520 0.288280 0.350430 
#    y 0.288280 4.364040 -0.086010 
#    z 0.350430 -0.086010 4.439330 
# 
# 
# High freq. dielectric constant tensor:
#      x y z
#    x 1.984470 0.017520 0.023560 
#    y 0.017520 1.978530 -0.002720 
#    z 0.023560 -0.002720 1.978660 
# 
# From -- ./inp_files/495117.got.cif
#   From: 2010.06.25/outbox.cif.g09.slc.cpg/sg2_248_cif.got.tgz:495117.got - 2010.06.27 13:26:56.
