data_PCOD8004835
_publ_section_title
;
Structure prediction by ZEFSAII (Michael W. Deem and Ramdas Pophale) SiO2 
 PCOD8004835
Probable space group: P -1
;
_chemical_formula_sum "Si O2"
_cell_formula_units_Z 16
_cell_length_a 14.824231
_cell_length_b 7.806734
_cell_length_c 11.301283
_cell_angle_alpha 57.163263
_cell_angle_beta 56.192664
_cell_angle_gamma 46.096024
_cell_volume 755.803800
_symmetry_space_group_name_H-M "P -1"
_symmetry_group_IT_number 2
_symmetry_cell_setting 'triclinic'
loop_
_space_group_symop_operation_xyz
x,y,z
-x,-y,-z
loop_
_atom_site_type_symbol
_atom_site_label
_atom_site_fract_x
_atom_site_fract_y
_atom_site_fract_z
Si Si1 0.155085 0.986370 0.130307
Si Si2 0.326392 0.715325 0.312543
Si Si3 0.131659 0.669770 0.825616
Si Si4 0.587011 0.274430 0.260737
Si Si5 0.286885 0.838081 0.549344
Si Si6 0.627199 0.923100 0.761215
Si Si7 0.227597 0.602512 0.032933
Si Si8 0.334304 0.120689 0.826503
O O1 0.012220 0.242755 0.148205
O O2 0.195096 0.845877 0.279950
O O3 0.140350 0.823905 0.104847
O O4 0.265019 0.034278 0.997319
O O5 0.431941 0.447814 0.279245
O O6 0.302982 0.677521 0.481146
O O7 0.384404 0.885615 0.204038
O O8 0.157857 0.882008 0.692799
O O9 0.244093 0.416357 0.774294
O O10 0.137102 0.631973 0.977369
O O11 0.598478 0.294472 0.386252
O O12 0.650042 0.996620 0.271788
O O13 0.650471 0.396265 0.101426
O O14 0.290426 0.069723 0.414749
O O15 0.716082 0.651416 0.847253
O O16 0.479480 0.014018 0.806362
#
# Coordination Sequence:
#
# PCOD8004835 Si02
#       8
#     2   2   2   2   2   2   2   2
#     4  11  23  40  61  91 118 157 202 245 287 350
#     4  10  21  37  62  86 126 151 192 242 300 350
#     4  11  23  42  63  82 122 164 200 236 290 356
#     4  10  20  38  62  92 121 147 199 249 299 349
#     4   9  23  40  60  88 121 161 191 242 299 354
#     4  10  21  38  61  92 120 148 193 244 312 340
#     4  10  21  39  65  89 114 155 199 252 296 342
#     4  11  23  36  63  94 117 153 197 251 295 348
#
# _framework density 21.169515000000001
#
# number of rings (size 3 to 8) (size 9 to 14) (size 15 to 20)
#    0.750    1.000    0.000    4.875    1.750    4.500 
#    2.250    0.625    0.000    0.000    0.000    0.000 
#    0.000    0.000    0.000    0.000    0.000    0.000 
#
# Total GULP energy -198215.425776 kJ/mol
# GULP energy per Si atom -12388.464111 kJ/mol
# Density = 2.112133 g / cm^3
# Si number density = 21.169515 Si / 1000 Ang^3
#
#
#
# Elastic Constant Matrix: (Units=GPa)
#
#
# Indices 1 2 3 4 5 6 
#
# 1 74.2854 43.5928 39.4698 -5.8732 12.2422 -12.8219
# 2 43.5928 96.3978 50.6953 -8.0317 12.7358 -9.0188
# 3 39.4698 50.6953 105.4984 -17.7772 7.7434 -7.7785
# 4 -5.8732 -8.0317 -17.7772 18.4396 3.7010 1.6665
# 5 12.2422 12.7358 7.7434 3.7010 31.8628 -4.7220
# 6 -12.8219 -9.0188 -7.7785 1.6665 -4.7220 32.8191
#
#
#
# Elastic Compliance Matrix: (Units=1/GPa)
#
#
# Indices 1 2 3 4 5 6 
#
# 1 0.020805 -0.006281 -0.004080 0.000280 -0.003802 0.004874
# 2 -0.006281 0.016417 -0.005177 0.000710 -0.002917 0.000374
# 3 -0.004080 -0.005177 0.015582 0.011790 -0.001541 -0.000144
# 4 0.000280 0.000710 0.011790 0.068491 -0.011514 -0.002036
# 5 -0.003802 -0.002917 -0.001541 -0.011514 0.036188 0.003139
# 6 0.004874 0.000374 -0.000144 -0.002036 0.003139 0.032998
#
#
# Mechanical properties :
#
#
# Convention : Reuss Voigt Hill
#
# Bulk Modulus (GPa) = 46.02519 60.41083 53.21801
# Shear Modulus (GPa) = 21.85302 26.11921 23.98611
#
# Velocity S-wave (km/s) = 3.21641 3.51638 3.36973
# Velocity P-wave (km/s) = 5.96508 6.71455 6.35088
#
# Compressibility (1/GPa) = 0.02172723
#
# Stress axis : x y z
#
# Youngs Moduli (GPa) = 48.06461 60.91418 64.17569
#
# Poissons Ratio (x) = 0.38262 0.26183
# Poissons Ratio (y) = 0.30191 0.33225
# Poissons Ratio (z) = 0.19610 0.31537
#
# Static dielectric constant tensor:
#      x y z
#    x 3.811270 0.187880 0.116470 
#    y 0.187880 3.615590 0.010850 
#    z 0.116470 0.010850 3.810550 
# 
# 
# High freq. dielectric constant tensor:
#      x y z
#    x 1.826990 0.004240 0.009060 
#    y 0.004240 1.809090 -0.005820 
#    z 0.009060 -0.005820 1.827040 
# 
# From -- ./inp_files/446927.got.cif
#   From: 2010.06.25/outbox.cif.g09.slc.cpg/sg2_224_cif.got.tgz:446927.got - 2010.06.27 13:26:56.
