data_PCOD8004272
_publ_section_title
;
Structure prediction by ZEFSAII (Michael W. Deem and Ramdas Pophale) SiO2 
 PCOD8004272
Probable space group: P -1
;
_chemical_formula_sum "Si O2"
_cell_formula_units_Z 16
_cell_length_a 8.855006
_cell_length_b 11.934591
_cell_length_c 8.268337
_cell_angle_alpha 90.324925
_cell_angle_beta 128.094969
_cell_angle_gamma 90.346412
_cell_volume 687.613530
_symmetry_space_group_name_H-M "P -1"
_symmetry_group_IT_number 2
_symmetry_cell_setting 'triclinic'
loop_
_space_group_symop_operation_xyz
x,y,z
-x,-y,-z
loop_
_atom_site_type_symbol
_atom_site_label
_atom_site_fract_x
_atom_site_fract_y
_atom_site_fract_z
Si Si1 0.279651 0.119183 0.914272
Si Si2 0.109559 0.172505 0.457477
Si Si3 0.697424 0.624733 0.574513
Si Si4 0.048699 0.279416 0.998080
Si Si5 0.860249 0.084345 0.990849
Si Si6 0.705255 0.031603 0.577965
Si Si7 0.288221 0.628878 0.438721
Si Si8 0.689812 0.188763 0.277205
O O1 0.171970 0.127119 0.672959
O O2 0.171850 0.194480 0.972530
O O3 0.497618 0.167561 0.043412
O O4 0.267754 0.985977 0.961206
O O5 0.222938 0.287920 0.504345
O O6 0.878910 0.185749 0.290703
O O7 0.154397 0.077085 0.349052
O O8 0.474347 0.652188 0.452014
O O9 0.723405 0.501207 0.518731
O O10 0.808518 0.632281 0.820228
O O11 0.953733 0.208626 0.088794
O O12 0.901697 0.343868 0.787713
O O13 0.754218 0.120177 0.752403
O O14 0.000000 0.000000 0.000000
O O15 0.698582 0.085085 0.400971
O O16 0.500000 0.000000 0.500000
O O17 0.307269 0.695791 0.619975
#
# Coordination Sequence:
#
# PCOD8004272 Si02
#       8
#     2   2   2   2   2   2   2   2
#     4  11  23  42  65 101 141 179 215 270 337 404
#     4  12  27  44  64 102 141 175 224 273 337 402
#     4  11  26  44  71 101 131 175 235 280 326 399
#     4  11  21  42  71  99 131 174 230 278 330 390
#     4  10  20  37  66  96 132 177 218 267 330 396
#     4  12  23  43  68  94 135 180 220 273 327 394
#     4  11  23  46  75  97 128 179 231 281 334 389
#     4  12  23  43  69  98 142 178 215 282 339 391
#
# _framework density 23.268888
#
# number of rings (size 3 to 8) (size 9 to 14) (size 15 to 20)
#    0.000    0.750    5.000    3.750    0.000    3.000 
#    2.250    0.625    0.000    0.000    0.000    0.000 
#    0.000    0.000    0.000    0.000    0.000    0.000 
#
# Total GULP energy -198243.316345 kJ/mol
# GULP energy per Si atom -12390.207272 kJ/mol
# Density = 2.321593 g / cm^3
# Si number density = 23.268888 Si / 1000 Ang^3
#
#
#
# Elastic Constant Matrix: (Units=GPa)
#
#
# Indices 1 2 3 4 5 6 
#
# 1 128.6440 51.7122 24.0881 1.0697 11.6726 3.3897
# 2 51.7122 105.0458 3.4811 17.0746 6.4189 -4.0575
# 3 24.0881 3.4811 87.7690 13.6064 10.0563 0.0296
# 4 1.0697 17.0746 13.6064 30.2238 2.6976 0.9478
# 5 11.6726 6.4189 10.0563 2.6976 39.1546 -4.6517
# 6 3.3897 -4.0575 0.0296 0.9478 -4.6517 34.4478
#
#
#
# Elastic Compliance Matrix: (Units=1/GPa)
#
#
# Indices 1 2 3 4 5 6 
#
# 1 0.011026 -0.006053 -0.003290 0.004762 -0.002039 -0.002202
# 2 -0.006053 0.013965 0.002506 -0.008860 -0.000227 0.002452
# 3 -0.003290 0.002506 0.013587 -0.007220 -0.002365 0.000487
# 4 0.004762 -0.008860 -0.007220 0.041378 -0.001298 -0.002820
# 5 -0.002039 -0.000227 -0.002365 -0.001298 0.027346 0.003904
# 6 -0.002202 0.002452 0.000487 -0.002820 0.003904 0.030139
#
#
# Mechanical properties :
#
#
# Convention : Reuss Voigt Hill
#
# Bulk Modulus (GPa) = 40.15322 53.33575 46.74449
# Shear Modulus (GPa) = 31.36423 36.91040 34.13731
#
# Velocity S-wave (km/s) = 3.67536 3.98710 3.83440
# Velocity P-wave (km/s) = 5.94178 6.64584 6.30365
#
# Compressibility (1/GPa) = 0.02490460
#
# Stress axis : x y z
#
# Youngs Moduli (GPa) = 90.69318 71.60597 73.59901
#
# Poissons Ratio (x) = 0.43346 0.24213
# Poissons Ratio (y) = 0.54900 -0.18445
# Poissons Ratio (z) = 0.29836 -0.17946
#
# Static dielectric constant tensor:
#      x y z
#    x 4.306640 0.046630 0.388850 
#    y 0.046630 4.231900 0.050370 
#    z 0.388850 0.050370 4.844660 
# 
# 
# High freq. dielectric constant tensor:
#      x y z
#    x 1.926830 0.003190 0.004370 
#    y 0.003190 1.911820 0.016680 
#    z 0.004370 0.016680 1.951220 
# 
# From -- ./inp_files/187086.got.cif
#   From: 2010.06.25/outbox.cif.g09.slc.cpg/sg2_94_cif.got.tgz:187086.got - 2010.06.27 13:26:56.
