data_PCOD8004806
_publ_section_title
;
Structure prediction by ZEFSAII (Michael W. Deem and Ramdas Pophale) SiO2 
 PCOD8004806
Probable space group: P -1
;
_chemical_formula_sum "Si O2"
_cell_formula_units_Z 14
_cell_length_a 8.644760
_cell_length_b 21.503729
_cell_length_c 11.101189
_cell_angle_alpha 29.971126
_cell_angle_beta 43.432928
_cell_angle_gamma 38.390163
_cell_volume 632.767489
_symmetry_space_group_name_H-M "P -1"
_symmetry_group_IT_number 2
_symmetry_cell_setting 'triclinic'
loop_
_space_group_symop_operation_xyz
x,y,z
-x,-y,-z
loop_
_atom_site_type_symbol
_atom_site_label
_atom_site_fract_x
_atom_site_fract_y
_atom_site_fract_z
Si Si1 0.396302 0.387700 0.384054
Si Si2 0.453445 0.517067 0.637126
Si Si3 0.895112 0.349391 0.044281
Si Si4 0.981784 0.813855 0.397445
Si Si5 0.804116 0.986544 0.977970
Si Si6 0.197969 0.350080 0.092701
Si Si7 0.251152 0.170441 0.942685
O O1 0.352231 0.468232 0.403667
O O2 0.687183 0.321086 0.284034
O O3 0.300036 0.272024 0.651718
O O4 0.227581 0.493401 0.200067
O O5 0.500000 0.500000 0.500000
O O6 0.204664 0.661562 0.550026
O O7 0.449625 0.371123 0.919581
O O8 0.124259 0.331293 0.030339
O O9 0.018516 0.242738 0.043733
O O10 0.923411 0.856984 0.219686
O O11 0.753103 0.789067 0.625248
O O12 0.035242 0.926622 0.251449
O O13 0.820366 0.931326 0.926179
O O14 0.511404 0.084391 0.013849
O O15 0.000000 0.500000 0.000000
#
# Coordination Sequence:
#
# PCOD8004806 Si02
#       7
#     2   2   2   2   2   2   2
#     4  11  23  40  62  97 129 156 201 270 313 376
#     4  11  22  37  67  94 125 157 203 262 326 366
#     4  11  23  39  64  93 129 158 207 262 321 369
#     4  10  21  42  64  86 127 158 212 257 306 366
#     4  10  23  41  64  87 123 175 207 257 295 372
#     4  10  20  38  62  90 120 157 197 260 314 362
#     4  11  23  42  64  88 124 169 214 247 316 367
#
# _framework density 22.125032000000001
#
# number of rings (size 3 to 8) (size 9 to 14) (size 15 to 20)
#    0.000    1.429    4.286    1.286    6.000    0.000 
#    0.000    7.143    3.143    0.000    0.000    0.000 
#    0.000    0.000    0.000    0.000    0.000    0.000 
#
# Total GULP energy -173448.635194 kJ/mol
# GULP energy per Si atom -12389.188228 kJ/mol
# Density = 2.207467 g / cm^3
# Si number density = 22.125032 Si / 1000 Ang^3
#
#
#
# Elastic Constant Matrix: (Units=GPa)
#
#
# Indices 1 2 3 4 5 6 
#
# 1 51.6225 4.2488 29.9345 -4.3547 -5.0158 15.5004
# 2 4.2488 82.5320 15.5855 6.8461 -8.7566 22.6503
# 3 29.9345 15.5855 136.5960 4.8678 -9.6871 14.8076
# 4 -4.3547 6.8461 4.8678 21.6275 -0.4109 5.8571
# 5 -5.0158 -8.7566 -9.6871 -0.4109 32.7655 -3.1459
# 6 15.5004 22.6503 14.8076 5.8571 -3.1459 23.1901
#
#
#
# Elastic Compliance Matrix: (Units=1/GPa)
#
#
# Indices 1 2 3 4 5 6 
#
# 1 0.030771 0.005636 -0.004862 0.012540 0.002459 -0.025801
# 2 0.005636 0.017885 -0.000850 0.001296 0.003434 -0.020554
# 3 -0.004862 -0.000850 0.008753 -0.002467 0.001520 -0.000680
# 4 0.012540 0.001296 -0.002467 0.054843 0.000121 -0.021908
# 5 0.002459 0.003434 0.001520 0.000121 0.032107 -0.001643
# 6 -0.025801 -0.020554 -0.000680 -0.021908 -0.001643 0.086187
#
#
# Mechanical properties :
#
#
# Convention : Reuss Voigt Hill
#
# Bulk Modulus (GPa) = 17.46569 41.14311 29.30440
# Shear Modulus (GPa) = 20.01740 30.24875 25.13307
#
# Velocity S-wave (km/s) = 3.01115 3.70154 3.37405
# Velocity P-wave (km/s) = 4.47220 6.07492 5.33410
#
# Compressibility (1/GPa) = 0.05725509
#
# Stress axis : x y z
#
# Youngs Moduli (GPa) = 32.49844 55.91409 114.25054
#
# Poissons Ratio (x) = -0.31511 0.55547
# Poissons Ratio (y) = -0.18315 0.09713
# Poissons Ratio (z) = 0.15800 0.04754
#
# Static dielectric constant tensor:
#      x y z
#    x 3.668860 -0.157680 0.140890 
#    y -0.157680 3.313250 -0.050240 
#    z 0.140890 -0.050240 3.925500 
# 
# 
# High freq. dielectric constant tensor:
#      x y z
#    x 1.875160 0.016420 -0.003210 
#    y 0.016420 1.841870 0.004310 
#    z -0.003210 0.004310 1.880110 
# 
# From -- ./inp_files/190765.got.cif
#   From: 2010.06.25/outbox.cif.g09.slc.cpg/sg2_96_cif.got.tgz:190765.got - 2010.06.27 13:26:56.
