data_PCOD8004300
_publ_section_title
;
Structure prediction by ZEFSAII (Michael W. Deem and Ramdas Pophale) SiO2 
 PCOD8004300
Probable space group: P -1
;
_chemical_formula_sum "Si O2"
_cell_formula_units_Z 14
_cell_length_a 11.900274
_cell_length_b 13.538494
_cell_length_c 8.399839
_cell_angle_alpha 60.391064
_cell_angle_beta 116.888452
_cell_angle_gamma 147.500583
_cell_volume 630.340232
_symmetry_space_group_name_H-M "P -1"
_symmetry_group_IT_number 2
_symmetry_cell_setting 'triclinic'
loop_
_space_group_symop_operation_xyz
x,y,z
-x,-y,-z
loop_
_atom_site_type_symbol
_atom_site_label
_atom_site_fract_x
_atom_site_fract_y
_atom_site_fract_z
Si Si1 0.072422 0.288264 0.596417
Si Si2 0.227317 0.049465 0.572369
Si Si3 0.665448 0.411822 0.982009
Si Si4 0.009369 0.601343 0.293070
Si Si5 0.126309 0.197182 0.226480
Si Si6 0.686029 0.332604 0.720272
Si Si7 0.315915 0.299520 0.952343
O O1 0.960579 0.256701 0.710580
O O2 0.195477 0.475927 0.434679
O O3 0.234565 0.307422 0.738745
O O4 0.899960 0.112148 0.511596
O O5 0.248358 0.196298 0.418534
O O6 0.453315 0.155921 0.642916
O O7 0.113191 0.963027 0.740147
O O8 0.763084 0.602588 0.842000
O O9 0.678474 0.336627 0.902207
O O10 0.421348 0.256391 0.999401
O O11 0.791008 0.446586 0.180358
O O12 0.000000 0.500000 0.500000
O O13 0.200033 0.705602 0.214502
O O14 0.129961 0.151500 0.082899
O O15 0.500000 0.500000 0.000000
#
# Coordination Sequence:
#
# PCOD8004300 Si02
#       7
#     2   2   2   2   2   2   2
#     4  11  22  43  67  96 136 164 217 277 314 385
#     4  11  25  40  64 102 133 174 207 261 337 386
#     4  11  21  42  70  95 129 173 215 272 323 382
#     4  10  23  42  68  94 125 173 227 269 315 378
#     4  10  22  41  60  96 142 154 215 265 323 395
#     4  11  24  42  68  92 131 180 217 258 322 391
#     4  10  20  37  67  95 127 167 208 263 334 373
#
# _framework density 22.210225999999999
#
# number of rings (size 3 to 8) (size 9 to 14) (size 15 to 20)
#    0.000    1.429    4.286    2.143    6.000    2.286 
#    0.000    0.714    0.000    0.000    0.000    0.000 
#    0.000    0.000    0.000    0.000    0.000    0.000 
#
# Total GULP energy -173566.672778 kJ/mol
# GULP energy per Si atom -12397.619484 kJ/mol
# Density = 2.215967 g / cm^3
# Si number density = 22.210226 Si / 1000 Ang^3
#
#
#
# Elastic Constant Matrix: (Units=GPa)
#
#
# Indices 1 2 3 4 5 6 
#
# 1 174.1159 41.1565 56.2380 24.1520 -14.4244 28.2847
# 2 41.1565 79.5608 44.3937 26.0115 2.0189 3.7707
# 3 56.2380 44.3937 107.0085 24.1964 -5.5642 3.8962
# 4 24.1520 26.0115 24.1964 34.8265 3.6742 1.2995
# 5 -14.4244 2.0189 -5.5642 3.6742 40.9771 9.1539
# 6 28.2847 3.7707 3.8962 1.2995 9.1539 19.7125
#
#
#
# Elastic Compliance Matrix: (Units=1/GPa)
#
#
# Indices 1 2 3 4 5 6 
#
# 1 0.011788 -0.002158 -0.003101 -0.004587 0.008622 -0.019590
# 2 -0.002158 0.019535 -0.004997 -0.009485 -0.001972 0.001889
# 3 -0.003101 -0.004997 0.013892 -0.003951 0.000829 0.002535
# 4 -0.004587 -0.009485 -0.003951 0.042164 -0.007692 0.009970
# 5 0.008622 -0.001972 0.000829 -0.007692 0.034522 -0.027682
# 6 -0.019590 0.001889 0.002535 0.009970 -0.027682 0.090173
#
#
# Mechanical properties :
#
#
# Convention : Reuss Voigt Hill
#
# Bulk Modulus (GPa) = 40.48071 71.58462 56.03266
# Shear Modulus (GPa) = 20.76238 33.69636 27.22937
#
# Velocity S-wave (km/s) = 3.06079 3.89929 3.50520
# Velocity P-wave (km/s) = 5.54589 7.25073 6.45484
#
# Compressibility (1/GPa) = 0.02470312
#
# Stress axis : x y z
#
# Youngs Moduli (GPa) = 84.83258 51.19032 71.98413
#
# Poissons Ratio (x) = 0.11048 0.22322
# Poissons Ratio (y) = 0.18308 0.35969
# Poissons Ratio (z) = 0.26306 0.25579
#
# Static dielectric constant tensor:
#      x y z
#    x 5.048320 0.368570 -0.313890 
#    y 0.368570 3.750510 -0.065940 
#    z -0.313890 -0.065940 4.068850 
# 
# 
# High freq. dielectric constant tensor:
#      x y z
#    x 1.893520 0.011430 -0.014090 
#    y 0.011430 1.844030 0.012140 
#    z -0.014090 0.012140 1.877140 
# 
# From -- ./inp_files/269861.got.cif
#   From: 2010.06.25/outbox.cif.g09.slc.cpg/sg2_135_cif.got.tgz:269861.got - 2010.06.27 13:26:56.
