data_PCOD8004567
_publ_section_title
;
Structure prediction by ZEFSAII (Michael W. Deem and Ramdas Pophale) SiO2 
 PCOD8004567
Probable space group: P -1
;
_chemical_formula_sum "Si O2"
_cell_formula_units_Z 16
_cell_length_a 12.827682
_cell_length_b 9.478116
_cell_length_c 14.059028
_cell_angle_alpha 94.936061
_cell_angle_beta 107.641631
_cell_angle_gamma 31.131311
_cell_volume 788.299450
_symmetry_space_group_name_H-M "P -1"
_symmetry_group_IT_number 2
_symmetry_cell_setting 'triclinic'
loop_
_space_group_symop_operation_xyz
x,y,z
-x,-y,-z
loop_
_atom_site_type_symbol
_atom_site_label
_atom_site_fract_x
_atom_site_fract_y
_atom_site_fract_z
Si Si1 0.458859 0.407024 0.046764
Si Si2 0.952703 0.314683 0.117403
Si Si3 0.306530 0.133655 0.899947
Si Si4 0.407101 0.665453 0.208549
Si Si5 0.157020 0.642903 0.699026
Si Si6 0.691970 0.890591 0.520401
Si Si7 0.321981 0.781169 0.405996
Si Si8 0.195183 0.294264 0.662388
O O1 0.428064 0.492452 0.151153
O O2 0.671592 0.056911 0.074937
O O3 0.500000 0.500000 0.000000
O O4 0.230973 0.580063 0.973903
O O5 0.913991 0.529313 0.104765
O O6 0.936150 0.309222 0.224223
O O7 0.200516 0.994066 0.128732
O O8 0.319147 0.121239 0.786901
O O9 0.500000 0.000000 0.000000
O O10 0.640065 0.480387 0.242031
O O11 0.365605 0.676069 0.306149
O O12 0.231265 0.418912 0.649574
O O13 0.931395 0.970844 0.611921
O O14 0.697035 0.912746 0.408532
O O15 0.928310 0.561983 0.607151
O O16 0.500000 0.000000 0.500000
O O17 0.634013 0.101645 0.569489
O O18 0.500000 0.500000 0.500000
#
# Coordination Sequence:
#
# PCOD8004567 Si02
#       8
#     2   2   2   2   2   2   2   2
#     4  11  21  37  62  90 120 158 197 244 302 355
#     4   9  19  39  60  84 118 154 201 239 284 360
#     4   9  20  38  62  87 123 158 196 249 299 354
#     4  11  21  36  65  82 117 163 195 240 304 349
#     4   9  18  37  60  84 114 156 192 238 296 350
#     4  10  20  38  60  87 114 153 199 246 288 347
#     4  10  23  38  55  87 121 150 195 243 294 359
#     4   9  19  36  63  83 116 156 196 240 299 346
#
# _framework density 20.296854
#
# number of rings (size 3 to 8) (size 9 to 14) (size 15 to 20)
#    0.000    2.250    1.250    1.875    1.750    0.500 
#    2.250    0.625   11.000    0.000    0.000    0.000 
#    0.000    0.000    0.000    0.000    0.000    0.000 
#
# Total GULP energy -198211.927557 kJ/mol
# GULP energy per Si atom -12388.245472 kJ/mol
# Density = 2.025066 g / cm^3
# Si number density = 20.296854 Si / 1000 Ang^3
#
#
#
# Elastic Constant Matrix: (Units=GPa)
#
#
# Indices 1 2 3 4 5 6 
#
# 1 81.8057 61.3059 33.8045 -12.1892 11.4539 7.1223
# 2 61.3059 116.4670 39.6321 -16.1512 11.5332 18.9660
# 3 33.8045 39.6321 118.9683 -0.6536 9.1720 5.8552
# 4 -12.1892 -16.1512 -0.6536 41.6398 1.6129 4.4143
# 5 11.4539 11.5332 9.1720 1.6129 28.6705 -3.4021
# 6 7.1223 18.9660 5.8552 4.4143 -3.4021 29.9848
#
#
#
# Elastic Compliance Matrix: (Units=1/GPa)
#
#
# Indices 1 2 3 4 5 6 
#
# 1 0.021507 -0.009857 -0.002557 0.002494 -0.003852 0.000821
# 2 -0.009857 0.016991 -0.002110 0.004775 -0.003570 -0.009102
# 3 -0.002557 -0.002110 0.009918 -0.001371 -0.001217 0.000069
# 4 0.002494 0.004775 -0.001371 0.027615 -0.004978 -0.007975
# 5 -0.003852 -0.003570 -0.001217 -0.004978 0.039548 0.008631
# 6 0.000821 -0.009102 0.000069 -0.007975 0.008631 0.041052
#
#
# Mechanical properties :
#
#
# Convention : Reuss Voigt Hill
#
# Bulk Modulus (GPa) = 51.63317 65.19177 58.41247
# Shear Modulus (GPa) = 26.02344 32.22558 29.12451
#
# Velocity S-wave (km/s) = 3.58459 3.98893 3.79215
# Velocity P-wave (km/s) = 6.52890 7.30783 6.92932
#
# Compressibility (1/GPa) = 0.01936739
#
# Stress axis : x y z
#
# Youngs Moduli (GPa) = 46.49559 58.85622 100.82709
#
# Poissons Ratio (x) = 0.58016 0.25784
# Poissons Ratio (y) = 0.45832 0.21272
# Poissons Ratio (z) = 0.11890 0.12417
#
# Static dielectric constant tensor:
#      x y z
#    x 3.256340 0.224480 0.195760 
#    y 0.224480 4.175800 -0.060490 
#    z 0.195760 -0.060490 4.041050 
# 
# 
# High freq. dielectric constant tensor:
#      x y z
#    x 1.752250 0.011910 0.022620 
#    y 0.011910 1.801460 0.005280 
#    z 0.022620 0.005280 1.812150 
# 
# From -- ./inp_files/81200.got.cif
#   From: 2010.06.25/outbox.cif.g09.slc.cpg/sg2_41_cif.got.tgz:81200.got - 2010.06.27 13:26:56.
