data_PCOD8004382
_publ_section_title
;
Structure prediction by ZEFSAII (Michael W. Deem and Ramdas Pophale) SiO2 
 PCOD8004382
Probable space group: P -1
;
_chemical_formula_sum "Si O2"
_cell_formula_units_Z 16
_cell_length_a 17.919793
_cell_length_b 9.295544
_cell_length_c 11.762471
_cell_angle_alpha 128.525193
_cell_angle_beta 110.100613
_cell_angle_gamma 110.982014
_cell_volume 903.040722
_symmetry_space_group_name_H-M "P -1"
_symmetry_group_IT_number 2
_symmetry_cell_setting 'triclinic'
loop_
_space_group_symop_operation_xyz
x,y,z
-x,-y,-z
loop_
_atom_site_type_symbol
_atom_site_label
_atom_site_fract_x
_atom_site_fract_y
_atom_site_fract_z
Si Si1 0.816072 0.168382 0.652179
Si Si2 0.672644 0.274060 0.619465
Si Si3 0.388746 0.765027 0.172181
Si Si4 0.836649 0.511354 0.197694
Si Si5 0.987626 0.273021 0.419599
Si Si6 0.103109 0.070389 0.021073
Si Si7 0.202617 0.162216 0.708332
Si Si8 0.906438 0.280056 0.994691
O O1 0.710836 0.131321 0.552761
O O2 0.813719 0.100253 0.749011
O O3 0.785818 0.936507 0.447302
O O4 0.950321 0.506687 0.862014
O O5 0.662522 0.293626 0.756954
O O6 0.537665 0.060975 0.382671
O O7 0.768973 0.584439 0.760449
O O8 0.315307 0.772900 0.049796
O O9 0.345426 0.477740 0.976806
O O10 0.877747 0.546505 0.366286
O O11 0.879181 0.797496 0.333393
O O12 0.908653 0.492002 0.148034
O O13 0.000000 0.500000 0.500000
O O14 0.957391 0.082339 0.207470
O O15 0.871732 0.077784 0.351030
O O16 0.138983 0.948366 0.047287
O O17 0.000000 0.000000 0.000000
#
# Coordination Sequence:
#
# PCOD8004382 Si02
#       8
#     2   2   2   2   2   2   2   2
#     4  11  21  34  61  88 118 153 192 255 280 355
#     4  11  21  41  61  83 122 154 207 234 288 358
#     4   9  22  39  63  81 114 168 201 235 278 354
#     4  10  20  38  57  82 117 152 197 238 286 353
#     4  12  22  35  58  90 122 149 193 242 299 353
#     4  12  24  37  59  92 121 157 183 253 306 342
#     4  10  21  36  60  86 112 159 196 242 295 331
#     4  11  22  35  55  93 121 146 192 243 312 336
#
# _framework density 17.717915999999999
#
# number of rings (size 3 to 8) (size 9 to 14) (size 15 to 20)
#    0.750    0.500    6.250    0.375    1.750    0.500 
#    0.000    0.625    2.750    1.500    0.000    0.000 
#    0.000    0.000    0.000    0.000    0.000    0.000 
#
# Total GULP energy -198289.557364 kJ/mol
# GULP energy per Si atom -12393.097335 kJ/mol
# Density = 1.767759 g / cm^3
# Si number density = 17.717916 Si / 1000 Ang^3
#
#
#
# Elastic Constant Matrix: (Units=GPa)
#
#
# Indices 1 2 3 4 5 6 
#
# 1 74.4029 39.5405 41.4522 2.2886 -10.1579 5.9340
# 2 39.5405 105.4101 57.4827 -3.6347 0.4184 -4.6024
# 3 41.4522 57.4827 122.5109 -8.4321 3.2357 5.9639
# 4 2.2886 -3.6347 -8.4321 30.1326 1.2809 -4.1096
# 5 -10.1579 0.4184 3.2357 1.2809 43.6754 -2.7528
# 6 5.9340 -4.6024 5.9639 -4.1096 -2.7528 20.2040
#
#
#
# Elastic Compliance Matrix: (Units=1/GPa)
#
#
# Indices 1 2 3 4 5 6 
#
# 1 0.020116 -0.005650 -0.004287 -0.004456 0.004791 -0.006183
# 2 -0.005650 0.014825 -0.005241 0.001713 -0.000687 0.006838
# 3 -0.004287 -0.005241 0.012486 0.002824 -0.002165 -0.003341
# 4 -0.004456 0.001713 0.002824 0.035673 -0.001812 0.007875
# 5 0.004791 -0.000687 -0.002165 -0.001812 0.024358 0.002026
# 6 -0.006183 0.006838 -0.003341 0.007875 0.002026 0.055733
#
#
# Mechanical properties :
#
#
# Convention : Reuss Voigt Hill
#
# Bulk Modulus (GPa) = 58.58268 64.36386 61.47327
# Shear Modulus (GPa) = 25.09554 29.72564 27.41059
#
# Velocity S-wave (km/s) = 3.76758 4.10044 3.93753
# Velocity P-wave (km/s) = 7.21541 7.66968 7.44601
#
# Compressibility (1/GPa) = 0.01706989
#
# Stress axis : x y z
#
# Youngs Moduli (GPa) = 49.71119 67.45555 80.08697
#
# Poissons Ratio (x) = 0.38115 0.34337
# Poissons Ratio (y) = 0.28089 0.41972
# Poissons Ratio (z) = 0.21313 0.35352
#
# Static dielectric constant tensor:
#      x y z
#    x 3.163480 -0.071890 -0.083670 
#    y -0.071890 3.241850 -0.199700 
#    z -0.083670 -0.199700 3.372210 
# 
# 
# High freq. dielectric constant tensor:
#      x y z
#    x 1.679040 -0.009660 -0.016300 
#    y -0.009660 1.673030 -0.014760 
#    z -0.016300 -0.014760 1.690240 
# 
# From -- ./inp_files/462460.got.cif
#   From: 2010.06.25/outbox.cif.g09.slc.cpg/sg2_232_cif.got.tgz:462460.got - 2010.06.27 13:26:56.
