data_PCOD8004336
_publ_section_title
;
Structure prediction by ZEFSAII (Michael W. Deem and Ramdas Pophale) SiO2 
 PCOD8004336
Probable space group: P -1
;
_chemical_formula_sum "Si O2"
_cell_formula_units_Z 14
_cell_length_a 24.077533
_cell_length_b 12.032510
_cell_length_c 15.378033
_cell_angle_alpha 153.238679
_cell_angle_beta 18.861516
_cell_angle_gamma 152.578667
_cell_volume 619.997829
_symmetry_space_group_name_H-M "P -1"
_symmetry_group_IT_number 2
_symmetry_cell_setting 'triclinic'
loop_
_space_group_symop_operation_xyz
x,y,z
-x,-y,-z
loop_
_atom_site_type_symbol
_atom_site_label
_atom_site_fract_x
_atom_site_fract_y
_atom_site_fract_z
Si Si1 0.110564 0.332891 0.390677
Si Si2 0.525092 0.661336 0.204437
Si Si3 0.737329 0.972082 0.697865
Si Si4 0.181682 0.932249 0.667186
Si Si5 0.573339 0.772740 0.631200
Si Si6 0.733682 0.843595 0.802785
Si Si7 0.490470 0.903958 0.588875
O O1 0.141519 0.632462 0.537383
O O2 0.129095 0.259249 0.413912
O O3 0.913436 0.177330 0.540147
O O4 0.257822 0.242605 0.053951
O O5 0.460465 0.373159 0.060867
O O6 0.444665 0.843269 0.391387
O O7 0.448837 0.659388 0.414382
O O8 0.649361 0.750344 0.601041
O O9 0.803519 0.871873 0.619845
O O10 0.593140 0.114119 0.038305
O O11 0.340298 0.109169 0.614991
O O12 0.258161 0.017927 0.517487
O O13 0.000000 0.000000 0.000000
O O14 0.500000 0.500000 0.500000
O O15 0.683902 0.092063 0.091372
#
# Coordination Sequence:
#
# PCOD8004336 Si02
#       7
#     2   2   2   2   2   2   2
#     4  11  22  43  67 102 131 164 219 276 322 382
#     4  10  20  37  70  92 131 164 212 270 325 378
#     4  11  25  42  66  96 131 175 216 257 330 390
#     4  12  24  42  68  94 130 168 219 276 315 379
#     4  11  26  48  63  89 135 179 215 262 320 391
#     4  11  20  43  68  96 134 168 210 271 328 384
#     4  10  20  38  63  97 123 167 214 261 322 374
#
# _framework density 22.580725000000001
#
# number of rings (size 3 to 8) (size 9 to 14) (size 15 to 20)
#    0.000    1.143    4.286    2.143    4.000    0.571 
#    0.000    0.000    0.000    6.000    0.000    0.000 
#    0.000    0.000    0.000    0.000    0.000    0.000 
#
# Total GULP energy -173482.799571 kJ/mol
# GULP energy per Si atom -12391.628541 kJ/mol
# Density = 2.252933 g / cm^3
# Si number density = 22.580725 Si / 1000 Ang^3
#
#
#
# Elastic Constant Matrix: (Units=GPa)
#
#
# Indices 1 2 3 4 5 6 
#
# 1 123.5173 42.1816 39.3294 11.6377 21.7483 -6.1966
# 2 42.1816 62.4916 27.3921 -9.2446 -1.5330 7.2906
# 3 39.3294 27.3921 113.5352 -7.6480 -5.8576 5.8776
# 4 11.6377 -9.2446 -7.6480 34.8660 4.2140 1.2342
# 5 21.7483 -1.5330 -5.8576 4.2140 30.7175 7.6377
# 6 -6.1966 7.2906 5.8776 1.2342 7.6377 31.9904
#
#
#
# Elastic Compliance Matrix: (Units=1/GPa)
#
#
# Indices 1 2 3 4 5 6 
#
# 1 0.018971 -0.013678 -0.005415 -0.009539 -0.016867 0.012182
# 2 -0.013678 0.028716 -0.000135 0.011060 0.012715 -0.012631
# 3 -0.005415 -0.000135 0.011565 0.003666 0.006747 -0.004895
# 4 -0.009539 0.011060 0.003666 0.035260 0.005060 -0.007610
# 5 -0.016867 0.012715 0.006747 0.005060 0.050618 -0.019685
# 6 0.012182 -0.012631 -0.004895 -0.007610 -0.019685 0.042390
#
#
# Mechanical properties :
#
#
# Convention : Reuss Voigt Hill
#
# Bulk Modulus (GPa) = 48.08807 57.48337 52.78572
# Shear Modulus (GPa) = 21.46763 32.22418 26.84591
#
# Velocity S-wave (km/s) = 3.08670 3.78175 3.45176
# Velocity P-wave (km/s) = 5.83489 6.67690 6.27004
#
# Compressibility (1/GPa) = 0.02079518
#
# Stress axis : x y z
#
# Youngs Moduli (GPa) = 52.71124 34.82418 86.46964
#
# Poissons Ratio (x) = 0.47633 0.46825
# Poissons Ratio (y) = 0.72099 0.01167
# Poissons Ratio (z) = 0.28544 0.00470
#
# Static dielectric constant tensor:
#      x y z
#    x 4.472350 -0.058220 0.079780 
#    y -0.058220 3.963950 -0.024140 
#    z 0.079780 -0.024140 4.038340 
# 
# 
# High freq. dielectric constant tensor:
#      x y z
#    x 1.905860 -0.005610 0.004670 
#    y -0.005610 1.874390 -0.003080 
#    z 0.004670 -0.003080 1.883160 
# 
# From -- ./inp_files/304784.got.cif
#   From: 2010.06.25/outbox.cif.g09.slc.cpg/sg2_153_cif.got.tgz:304784.got - 2010.06.27 13:26:56.
