data_PCOD8004844
_publ_section_title
;
Structure prediction by ZEFSAII (Michael W. Deem and Ramdas Pophale) SiO2 
 PCOD8004844
Probable space group: P -1
;
_chemical_formula_sum "Si O2"
_cell_formula_units_Z 16
_cell_length_a 13.860535
_cell_length_b 9.988794
_cell_length_c 7.800439
_cell_angle_alpha 89.745482
_cell_angle_beta 118.247425
_cell_angle_gamma 57.526181
_cell_volume 752.463012
_symmetry_space_group_name_H-M "P -1"
_symmetry_group_IT_number 2
_symmetry_cell_setting 'triclinic'
loop_
_space_group_symop_operation_xyz
x,y,z
-x,-y,-z
loop_
_atom_site_type_symbol
_atom_site_label
_atom_site_fract_x
_atom_site_fract_y
_atom_site_fract_z
Si Si1 0.853991 0.933029 0.814784
Si Si2 0.588629 0.995285 0.727453
Si Si3 0.921035 0.410566 0.545249
Si Si4 0.672243 0.655619 0.910983
Si Si5 0.616301 0.677208 0.239295
Si Si6 0.985005 0.410565 0.232134
Si Si7 0.619685 0.510832 0.569246
Si Si8 0.897300 0.180358 0.739438
O O1 0.698287 0.025207 0.752872
O O2 0.905697 0.753087 0.786785
O O3 0.861642 0.048996 0.679486
O O4 0.953239 0.912800 0.048246
O O5 0.670080 0.817535 0.896032
O O6 0.500000 0.000000 0.500000
O O7 0.486436 0.131582 0.783369
O O8 0.777349 0.597570 0.388627
O O9 0.013786 0.348258 0.453979
O O10 0.903301 0.266267 0.572267
O O11 0.988421 0.447551 0.758739
O O12 0.598615 0.651681 0.679299
O O13 0.591209 0.666105 0.015230
O O14 0.830852 0.488173 0.045459
O O15 0.600740 0.562324 0.353217
O O16 0.500000 0.500000 0.500000
O O17 0.768986 0.335249 0.740339
#
# Coordination Sequence:
#
# PCOD8004844 Si02
#       8
#     2   2   2   2   2   2   2   2
#     4  11  23  37  62  89 122 163 204 252 308 376
#     4  12  23  38  62  93 126 163 206 259 317 367
#     4   9  20  38  63  88 124 159 201 261 304 366
#     4  11  23  39  65  90 120 165 207 262 310 368
#     4  10  22  41  60  92 125 158 207 258 306 375
#     4  10  20  38  62  93 119 160 209 250 312 370
#     4  11  22  41  65  88 125 165 209 258 311 375
#     4  10  22  39  59  90 122 162 204 251 313 368
#
# _framework density 21.263501999999999
#
# number of rings (size 3 to 8) (size 9 to 14) (size 15 to 20)
#    0.000    1.500    2.500    2.625    1.750    2.000 
#    0.000    1.250    0.000    0.000    0.000    0.000 
#    0.000    0.000    0.000    0.000    0.000    0.000 
#
# Total GULP energy -198264.798380 kJ/mol
# GULP energy per Si atom -12391.549899 kJ/mol
# Density = 2.121511 g / cm^3
# Si number density = 21.263502 Si / 1000 Ang^3
#
#
#
# Elastic Constant Matrix: (Units=GPa)
#
#
# Indices 1 2 3 4 5 6 
#
# 1 120.2434 22.5844 36.6258 2.3449 -2.7542 7.5832
# 2 22.5844 62.7391 15.1418 -11.8541 -4.3513 2.9068
# 3 36.6258 15.1418 52.3650 -3.3439 -2.4278 6.5537
# 4 2.3449 -11.8541 -3.3439 24.0146 1.8630 -1.8783
# 5 -2.7542 -4.3513 -2.4278 1.8630 31.1280 -2.8606
# 6 7.5832 2.9068 6.5537 -1.8783 -2.8606 40.5507
#
#
#
# Elastic Compliance Matrix: (Units=1/GPa)
#
#
# Indices 1 2 3 4 5 6 
#
# 1 0.011149 -0.002938 -0.007060 -0.003604 0.000159 -0.000889
# 2 -0.002938 0.019602 -0.002954 0.009433 0.001702 0.000179
# 3 -0.007060 -0.002954 0.025379 0.002532 0.000569 -0.002412
# 4 -0.003604 0.009433 0.002532 0.047248 -0.001477 0.001673
# 5 0.000159 0.001702 0.000569 -0.001477 0.032693 0.001994
# 6 -0.000889 0.000179 -0.002412 0.001673 0.001994 0.025422
#
#
# Mechanical properties :
#
#
# Convention : Reuss Voigt Hill
#
# Bulk Modulus (GPa) = 33.08482 42.67238 37.87860
# Shear Modulus (GPa) = 25.32021 29.87170 27.59596
#
# Velocity S-wave (km/s) = 3.45452 3.75218 3.60642
# Velocity P-wave (km/s) = 5.61291 6.23568 5.93247
#
# Compressibility (1/GPa) = 0.03022534
#
# Stress axis : x y z
#
# Youngs Moduli (GPa) = 89.69700 51.01594 39.40323
#
# Poissons Ratio (x) = 0.14989 0.27817
# Poissons Ratio (y) = 0.26354 0.11640
# Poissons Ratio (z) = 0.63323 0.15071
#
# Static dielectric constant tensor:
#      x y z
#    x 3.924230 0.032910 -0.217170 
#    y 0.032910 3.919590 -0.040550 
#    z -0.217170 -0.040550 3.732750 
# 
# 
# High freq. dielectric constant tensor:
#      x y z
#    x 1.843530 -0.000330 -0.001010 
#    y -0.000330 1.824940 -0.017610 
#    z -0.001010 -0.017610 1.819150 
# 
# From -- ./inp_files/239346.got.cif
#   From: 2010.06.25/outbox.cif.g09.slc.cpg/sg2_120_cif.got.tgz:239346.got - 2010.06.27 13:26:56.
