data_PCOD8004161
_publ_section_title
;
Structure prediction by ZEFSAII (Michael W. Deem and Ramdas Pophale) SiO2 
 PCOD8004161
Probable space group: P -1
;
_chemical_formula_sum "Si O2"
_cell_formula_units_Z 16
_cell_length_a 13.571274
_cell_length_b 11.591051
_cell_length_c 14.785521
_cell_angle_alpha 28.690245
_cell_angle_beta 41.796328
_cell_angle_gamma 48.658413
_cell_volume 744.024706
_symmetry_space_group_name_H-M "P -1"
_symmetry_group_IT_number 2
_symmetry_cell_setting 'triclinic'
loop_
_space_group_symop_operation_xyz
x,y,z
-x,-y,-z
loop_
_atom_site_type_symbol
_atom_site_label
_atom_site_fract_x
_atom_site_fract_y
_atom_site_fract_z
Si Si1 0.581137 0.177818 0.888221
Si Si2 0.168837 0.143510 0.483615
Si Si3 0.925715 0.332720 0.789813
Si Si4 0.144296 0.761721 0.899765
Si Si5 0.098067 0.927806 0.398902
Si Si6 0.774374 0.547288 0.417506
Si Si7 0.834305 0.942128 0.983027
Si Si8 0.698898 0.749944 0.868374
O O1 0.626598 0.434242 0.638525
O O2 0.478293 0.247161 0.997153
O O3 0.500000 0.000000 0.000000
O O4 0.736848 0.043583 0.897513
O O5 0.162174 0.415371 0.337397
O O6 0.270546 0.130925 0.332442
O O7 0.002562 0.051821 0.636774
O O8 0.229755 0.970204 0.641823
O O9 0.101601 0.374099 0.648669
O O10 0.861028 0.197860 0.015820
O O11 0.899763 0.171540 0.831573
O O12 0.226595 0.512065 0.994088
O O13 0.972715 0.767872 0.979786
O O14 0.150551 0.651908 0.563054
O O15 0.238521 0.099994 0.191809
O O16 0.000000 0.000000 0.500000
O O17 0.727314 0.781442 0.229792
#
# Coordination Sequence:
#
# PCOD8004161 Si02
#       8
#     2   2   2   2   2   2   2   2
#     4  12  26  43  59  89 134 172 203 245 311 383
#     4   9  19  35  62  91 121 161 201 257 315 354
#     4   9  20  39  65  98 124 148 209 277 304 352
#     4  10  20  37  64  96 118 155 215 256 305 368
#     4   9  16  33  56  85 123 158 193 253 303 346
#     4  10  20  38  62  91 124 159 206 257 304 363
#     4  11  23  40  68  94 121 163 209 260 313 360
#     4  10  22  40  56  87 135 160 206 256 299 371
#
# _framework density 21.504662
#
# number of rings (size 3 to 8) (size 9 to 14) (size 15 to 20)
#    0.000    2.000    1.250    5.250    0.000    5.000 
#    4.500    2.500    0.000    9.750    0.000    0.000 
#    0.000    0.000    0.000    0.000    0.000    0.000 
#
# Total GULP energy -198235.997338 kJ/mol
# GULP energy per Si atom -12389.749834 kJ/mol
# Density = 2.145572 g / cm^3
# Si number density = 21.504662 Si / 1000 Ang^3
#
#
#
# Elastic Constant Matrix: (Units=GPa)
#
#
# Indices 1 2 3 4 5 6 
#
# 1 54.6846 29.5639 23.3023 -8.9669 4.3225 3.9974
# 2 29.5639 69.2692 20.7984 6.7102 -12.0477 -10.4624
# 3 23.3023 20.7984 133.0074 1.7649 10.2348 0.0573
# 4 -8.9669 6.7102 1.7649 33.9177 -4.4403 -8.7170
# 5 4.3225 -12.0477 10.2348 -4.4403 31.0373 -4.0020
# 6 3.9974 -10.4624 0.0573 -8.7170 -4.0020 26.2351
#
#
#
# Elastic Compliance Matrix: (Units=1/GPa)
#
#
# Indices 1 2 3 4 5 6 
#
# 1 0.031080 -0.016754 -0.002121 0.007588 -0.010398 -0.010477
# 2 -0.016754 0.027552 -0.002491 -0.004038 0.015143 0.014514
# 3 -0.002121 -0.002491 0.008604 -0.001493 -0.003953 -0.001788
# 4 0.007588 -0.004038 -0.001493 0.035387 0.004173 0.009631
# 5 -0.010398 0.015143 -0.003953 0.004173 0.043464 0.015649
# 6 -0.010477 0.014514 -0.001788 0.009631 0.015649 0.051093
#
#
# Mechanical properties :
#
#
# Convention : Reuss Voigt Hill
#
# Bulk Modulus (GPa) = 40.80986 44.92116 42.86551
# Shear Modulus (GPa) = 20.15466 30.45779 25.30623
#
# Velocity S-wave (km/s) = 3.06473 3.76750 3.43414
# Velocity P-wave (km/s) = 5.61621 6.31346 5.97502
#
# Compressibility (1/GPa) = 0.02450388
#
# Stress axis : x y z
#
# Youngs Moduli (GPa) = 32.17475 36.29475 116.22078
#
# Poissons Ratio (x) = 0.60808 0.24655
# Poissons Ratio (y) = 0.53906 0.28951
# Poissons Ratio (z) = 0.06825 0.09041
#
# Static dielectric constant tensor:
#      x y z
#    x 3.264170 0.260780 0.331770 
#    y 0.260780 3.737880 -0.223680 
#    z 0.331770 -0.223680 3.970260 
# 
# 
# High freq. dielectric constant tensor:
#      x y z
#    x 1.806760 0.010120 0.010760 
#    y 0.010120 1.844670 -0.000560 
#    z 0.010760 -0.000560 1.858330 
# 
# From -- ./inp_files/531484.got.cif
#   From: 2010.06.25/outbox.cif.g09.slc.cpg/sg2_266_cif.got.tgz:531484.got - 2010.06.27 13:26:56.
