data_PCOD8004903
_publ_section_title
;
Structure prediction by ZEFSAII (Michael W. Deem and Ramdas Pophale) SiO2 
 PCOD8004903
Probable space group: P -1
;
_chemical_formula_sum "Si O2"
_cell_formula_units_Z 14
_cell_length_a 12.538107
_cell_length_b 13.288719
_cell_length_c 6.419739
_cell_angle_alpha 93.679881
_cell_angle_beta 59.930419
_cell_angle_gamma 52.414691
_cell_volume 617.768264
_symmetry_space_group_name_H-M "P -1"
_symmetry_group_IT_number 2
_symmetry_cell_setting 'triclinic'
loop_
_space_group_symop_operation_xyz
x,y,z
-x,-y,-z
loop_
_atom_site_type_symbol
_atom_site_label
_atom_site_fract_x
_atom_site_fract_y
_atom_site_fract_z
Si Si1 0.333623 0.638301 0.540765
Si Si2 0.146738 0.284890 0.982301
Si Si3 0.090195 0.675865 0.486508
Si Si4 0.094274 0.846948 0.178019
Si Si5 0.430891 0.146173 0.991182
Si Si6 0.709385 0.157771 0.678851
Si Si7 0.929443 0.613947 0.366722
O O1 0.500000 0.500000 0.500000
O O2 0.276426 0.584856 0.424569
O O3 0.393781 0.698891 0.352342
O O4 0.164187 0.763930 0.877723
O O5 0.075930 0.229626 0.169645
O O6 0.007901 0.460526 0.196918
O O7 0.358453 0.175245 0.828043
O O8 0.133181 0.276038 0.748290
O O9 0.046677 0.790501 0.385012
O O10 0.089242 0.572770 0.339583
O O11 0.250052 0.823384 0.127342
O O12 0.902226 0.021043 0.352172
O O13 0.591656 0.129652 0.824406
O O14 0.253965 0.294599 0.309004
O O15 0.500000 0.000000 0.000000
#
# Coordination Sequence:
#
# PCOD8004903 Si02
#       7
#     2   2   2   2   2   2   2
#     4  11  25  39  63  97 122 157 204 255 309 361
#     4  10  22  39  63  90 120 164 206 250 307 362
#     4  10  20  38  63  88 121 158 202 251 302 362
#     4  10  22  42  64  87 121 165 205 246 304 366
#     4  11  23  39  62  95 127 158 202 253 305 363
#     4  10  23  42  63  88 125 165 202 250 302 363
#     4  10  22  40  62  88 122 164 206 251 305 362
#
# _framework density 22.662220000000001
#
# number of rings (size 3 to 8) (size 9 to 14) (size 15 to 20)
#    0.000    1.714    0.000    4.714    0.000   10.857 
#    0.000    2.857    0.000    0.000    0.000    0.000 
#    0.000    0.000    0.000    0.000    0.000    0.000 
#
# Total GULP energy -173503.861081 kJ/mol
# GULP energy per Si atom -12393.132934 kJ/mol
# Density = 2.261064 g / cm^3
# Si number density = 22.662220 Si / 1000 Ang^3
#
#
#
# Elastic Constant Matrix: (Units=GPa)
#
#
# Indices 1 2 3 4 5 6 
#
# 1 139.5174 50.3834 57.2936 -20.8185 -14.8892 -15.6282
# 2 50.3834 107.4591 30.2731 -18.3427 -9.2566 -20.7310
# 3 57.2936 30.2731 66.3265 -21.7487 0.0728 -0.4989
# 4 -20.8185 -18.3427 -21.7487 41.7863 4.1739 0.2319
# 5 -14.8892 -9.2566 0.0728 4.1739 38.0105 -10.6566
# 6 -15.6282 -20.7310 -0.4989 0.2319 -10.6566 32.8271
#
#
#
# Elastic Compliance Matrix: (Units=1/GPa)
#
#
# Indices 1 2 3 4 5 6 
#
# 1 0.014065 -0.001098 -0.011720 -0.000383 0.007635 0.008306
# 2 -0.001098 0.013924 -0.004474 0.002635 0.005472 0.009960
# 3 -0.011720 -0.004474 0.030089 0.008905 -0.009859 -0.011211
# 4 -0.000383 0.002635 0.008905 0.029792 -0.002643 0.000548
# 5 0.007635 0.005472 -0.009859 -0.002643 0.036186 0.018706
# 6 0.008306 0.009960 -0.011211 0.000548 0.018706 0.046605
#
#
# Mechanical properties :
#
#
# Convention : Reuss Voigt Hill
#
# Bulk Modulus (GPa) = 42.56384 65.46703 54.01544
# Shear Modulus (GPa) = 23.46586 34.21497 28.84042
#
# Velocity S-wave (km/s) = 3.22135 3.88980 3.57125
# Velocity P-wave (km/s) = 5.71478 7.00892 6.39468
#
# Compressibility (1/GPa) = 0.02349412
#
# Stress axis : x y z
#
# Youngs Moduli (GPa) = 71.09882 71.81996 33.23489
#
# Poissons Ratio (x) = 0.07888 0.38951
# Poissons Ratio (y) = 0.07809 0.14868
# Poissons Ratio (z) = 0.83326 0.32130
#
# Static dielectric constant tensor:
#      x y z
#    x 4.367840 -0.180050 0.178620 
#    y -0.180050 4.232940 -0.405100 
#    z 0.178620 -0.405100 4.118030 
# 
# 
# High freq. dielectric constant tensor:
#      x y z
#    x 1.900030 -0.007810 0.002760 
#    y -0.007810 1.901460 -0.024790 
#    z 0.002760 -0.024790 1.881130 
# 
# From -- ./inp_files/77759.got.cif
#   From: 2010.06.25/outbox.cif.g09.slc.cpg/sg2_39_cif.got.tgz:77759.got - 2010.06.27 13:26:56.
