data_PCOD8004665
_publ_section_title
;
Structure prediction by ZEFSAII (Michael W. Deem and Ramdas Pophale) SiO2 
 PCOD8004665
Probable space group: P -1
;
_chemical_formula_sum "Si O2"
_cell_formula_units_Z 16
_cell_length_a 12.082022
_cell_length_b 9.166021
_cell_length_c 11.415320
_cell_angle_alpha 127.206793
_cell_angle_beta 54.309114
_cell_angle_gamma 106.820063
_cell_volume 813.813005
_symmetry_space_group_name_H-M "P -1"
_symmetry_group_IT_number 2
_symmetry_cell_setting 'triclinic'
loop_
_space_group_symop_operation_xyz
x,y,z
-x,-y,-z
loop_
_atom_site_type_symbol
_atom_site_label
_atom_site_fract_x
_atom_site_fract_y
_atom_site_fract_z
Si Si1 0.730289 0.472867 0.875703
Si Si2 0.117007 0.487554 0.820665
Si Si3 0.510052 0.987351 0.350045
Si Si4 0.431304 0.382453 0.582141
Si Si5 0.959366 0.186213 0.685222
Si Si6 0.047913 0.883164 0.072959
Si Si7 0.459468 0.599131 0.224806
Si Si8 0.189077 0.133127 0.945168
O O1 0.824836 0.287656 0.757717
O O2 0.679541 0.480548 0.774015
O O3 0.594740 0.473668 0.039293
O O4 0.811860 0.647832 0.935630
O O5 0.274302 0.444812 0.745411
O O6 0.078715 0.327868 0.677304
O O7 0.110625 0.695415 0.875405
O O8 0.000000 0.500000 0.000000
O O9 0.449629 0.798056 0.261069
O O10 0.664344 0.977322 0.205832
O O11 0.500000 0.000000 0.500000
O O12 0.432222 0.172160 0.432350
O O13 0.500000 0.500000 0.500000
O O14 0.532269 0.388170 0.634191
O O15 0.929145 0.129017 0.808818
O O16 0.000000 0.000000 0.500000
O O17 0.887638 0.907981 0.148880
O O18 0.116557 0.058047 0.067426
#
# Coordination Sequence:
#
# PCOD8004665 Si02
#       8
#     2   2   2   2   2   2   2   2
#     4  10  20  39  60  84 116 157 204 240 298 357
#     4  10  21  38  65  86 117 163 207 241 287 367
#     4   9  20  32  57  87 114 150 192 246 292 349
#     4  11  22  37  59  92 122 151 196 252 308 348
#     4  11  24  37  59  91 121 157 200 254 298 357
#     4  10  21  38  64  86 114 162 202 247 294 358
#     4   9  20  37  60  84 114 158 196 244 290 365
#     4  10  20  38  61  87 118 152 206 244 298 363
#
# _framework density 19.660534999999999
#
# number of rings (size 3 to 8) (size 9 to 14) (size 15 to 20)
#    0.000    2.000    1.250    2.250   10.500    1.000 
#    2.250    0.625    0.000    5.250    0.000    0.000 
#    0.000    0.000    0.000    0.000    0.000    0.000 
#
# Total GULP energy -198242.976439 kJ/mol
# GULP energy per Si atom -12390.186027 kJ/mol
# Density = 1.961579 g / cm^3
# Si number density = 19.660535 Si / 1000 Ang^3
#
#
#
# Elastic Constant Matrix: (Units=GPa)
#
#
# Indices 1 2 3 4 5 6 
#
# 1 102.4530 45.3633 37.5474 -8.2467 4.1734 -2.5122
# 2 45.3633 98.9863 45.1073 4.0847 -5.8547 -6.9048
# 3 37.5474 45.1073 92.7188 16.7824 -3.4311 -1.9236
# 4 -8.2467 4.0847 16.7824 26.5959 -4.0623 -3.8025
# 5 4.1734 -5.8547 -3.4311 -4.0623 32.3448 3.8949
# 6 -2.5122 -6.9048 -1.9236 -3.8025 3.8949 28.8833
#
#
#
# Elastic Compliance Matrix: (Units=1/GPa)
#
#
# Indices 1 2 3 4 5 6 
#
# 1 0.014528 -0.004706 -0.005158 0.008292 -0.002378 0.001207
# 2 -0.004706 0.014984 -0.005298 0.000324 0.002494 0.002526
# 3 -0.005158 -0.005298 0.017620 -0.012169 0.000311 -0.002186
# 4 0.008292 0.000324 -0.012169 0.049143 0.003143 0.006034
# 5 -0.002378 0.002494 0.000311 0.003143 0.032532 -0.003563
# 6 0.001207 0.002526 -0.002186 0.006034 -0.003563 0.036460
#
#
# Mechanical properties :
#
#
# Convention : Reuss Voigt Hill
#
# Bulk Modulus (GPa) = 59.49203 61.13267 60.31235
# Shear Modulus (GPa) = 24.85174 28.64081 26.74627
#
# Velocity S-wave (km/s) = 3.55919 3.82090 3.69237
# Velocity P-wave (km/s) = 6.87137 7.11529 6.99439
#
# Compressibility (1/GPa) = 0.01680897
#
# Stress axis : x y z
#
# Youngs Moduli (GPa) = 68.83036 66.73931 56.75375
#
# Poissons Ratio (x) = 0.31410 0.29271
# Poissons Ratio (y) = 0.32394 0.30066
# Poissons Ratio (z) = 0.35500 0.35356
#
# Static dielectric constant tensor:
#      x y z
#    x 3.654860 0.075500 0.017960 
#    y 0.075500 3.853620 0.523560 
#    z 0.017960 0.523560 3.561190 
# 
# 
# High freq. dielectric constant tensor:
#      x y z
#    x 1.769110 0.000120 -0.010030 
#    y 0.000120 1.761520 0.025860 
#    z -0.010030 0.025860 1.752490 
# 
# From -- ./inp_files/419954.got.cif
#   From: 2010.06.25/outbox.cif.g09.slc.cpg/sg2_210_cif.got.tgz:419954.got - 2010.06.27 13:26:56.
