data_PCOD8004723
_publ_section_title
;
Structure prediction by ZEFSAII (Michael W. Deem and Ramdas Pophale) SiO2 
 PCOD8004723
Probable space group: P -1
;
_chemical_formula_sum "Si O2"
_cell_formula_units_Z 14
_cell_length_a 7.833312
_cell_length_b 8.725802
_cell_length_c 11.668732
_cell_angle_alpha 79.517950
_cell_angle_beta 87.275632
_cell_angle_gamma 50.249447
_cell_volume 600.472784
_symmetry_space_group_name_H-M "P -1"
_symmetry_group_IT_number 2
_symmetry_cell_setting 'triclinic'
loop_
_space_group_symop_operation_xyz
x,y,z
-x,-y,-z
loop_
_atom_site_type_symbol
_atom_site_label
_atom_site_fract_x
_atom_site_fract_y
_atom_site_fract_z
Si Si1 0.629968 0.659721 0.692939
Si Si2 0.561656 0.632762 0.941184
Si Si3 0.980074 0.240309 0.635730
Si Si4 0.349101 0.733242 0.502431
Si Si5 0.325643 0.201555 0.909598
Si Si6 0.908536 0.942640 0.109638
Si Si7 0.540359 0.910766 0.333823
O O1 0.687307 0.545335 0.828284
O O2 0.821959 0.485052 0.624814
O O3 0.386864 0.749393 0.634540
O O4 0.635647 0.843081 0.686500
O O5 0.346572 0.862250 0.884939
O O6 0.500000 0.500000 0.000000
O O7 0.709631 0.618970 0.041671
O O8 0.900331 0.176159 0.540527
O O9 0.964318 0.133429 0.762570
O O10 0.224926 0.163558 0.612347
O O11 0.500000 0.500000 0.500000
O O12 0.437033 0.833792 0.420516
O O13 0.096191 0.235900 0.907902
O O14 0.420707 0.178751 0.782846
O O15 0.500000 0.000000 0.000000
O O16 0.000000 0.000000 0.000000
#
# Coordination Sequence:
#
# PCOD8004723 Si02
#       7
#     2   2   2   2   2   2   2
#     4  11  22  42  64  97 126 169 224 258 324 389
#     4  11  22  38  66  94 131 167 209 273 317 385
#     4  10  23  43  65  93 132 171 213 270 319 383
#     4  10  25  41  69  95 127 176 216 266 328 381
#     4   9  19  37  62  86 125 172 196 264 330 367
#     4  10  20  38  61  93 130 169 213 260 324 384
#     4  11  22  45  65  93 133 165 220 268 321 384
#
# _framework density 23.314962000000001
#
# number of rings (size 3 to 8) (size 9 to 14) (size 15 to 20)
#    0.000    1.714    4.286    1.286    8.000    2.857 
#    0.000   12.143    0.000    0.000    0.000    0.000 
#    0.000    0.000    0.000    0.000    0.000    0.000 
#
# Total GULP energy -173433.721066 kJ/mol
# GULP energy per Si atom -12388.122933 kJ/mol
# Density = 2.326190 g / cm^3
# Si number density = 23.314962 Si / 1000 Ang^3
#
#
#
# Elastic Constant Matrix: (Units=GPa)
#
#
# Indices 1 2 3 4 5 6 
#
# 1 103.3531 27.6037 34.5026 1.3831 6.8438 24.5557
# 2 27.6037 66.3161 25.3200 5.8875 2.3007 28.5202
# 3 34.5026 25.3200 104.3180 10.1158 19.9294 26.3052
# 4 1.3831 5.8875 10.1158 35.7729 7.8597 4.8938
# 5 6.8438 2.3007 19.9294 7.8597 43.9132 -3.4694
# 6 24.5557 28.5202 26.3052 4.8938 -3.4694 40.7544
#
#
#
# Elastic Compliance Matrix: (Units=1/GPa)
#
#
# Indices 1 2 3 4 5 6 
#
# 1 0.012196 -0.002350 -0.002176 0.001471 -0.001416 -0.004596
# 2 -0.002350 0.022422 -0.000849 -0.001203 -0.001289 -0.013692
# 3 -0.002176 -0.000849 0.013646 -0.001288 -0.006153 -0.007272
# 4 0.001471 -0.001203 -0.001288 0.030053 -0.005218 -0.003266
# 5 -0.001416 -0.001289 -0.006153 -0.005218 0.027474 0.008693
# 6 -0.004596 -0.013692 -0.007272 -0.003266 0.008693 0.042714
#
#
# Mechanical properties :
#
#
# Convention : Reuss Voigt Hill
#
# Bulk Modulus (GPa) = 26.65822 49.87107 38.26464
# Shear Modulus (GPa) = 29.11032 36.52549 32.81791
#
# Velocity S-wave (km/s) = 3.53734 3.96234 3.75586
# Velocity P-wave (km/s) = 5.30495 6.50923 5.93770
#
# Compressibility (1/GPa) = 0.03751189
#
# Stress axis : x y z
#
# Youngs Moduli (GPa) = 81.99473 44.59938 73.28092
#
# Poissons Ratio (x) = 0.10483 0.15949
# Poissons Ratio (y) = 0.19272 0.06223
# Poissons Ratio (z) = 0.17845 0.03787
#
# Static dielectric constant tensor:
#      x y z
#    x 4.932600 0.563130 0.784310 
#    y 0.563130 4.393210 0.186730 
#    z 0.784310 0.186730 4.962690 
# 
# 
# High freq. dielectric constant tensor:
#      x y z
#    x 1.903780 0.016160 0.021370 
#    y 0.016160 1.928540 -0.002450 
#    z 0.021370 -0.002450 1.931650 
# 
# From -- ./inp_files/187923.got.cif
#   From: 2010.06.25/outbox.cif.g09.slc.cpg/sg2_94_cif.got.tgz:187923.got - 2010.06.27 13:26:56.
