data_PCOD8004446
_publ_section_title
;
Structure prediction by ZEFSAII (Michael W. Deem and Ramdas Pophale) SiO2 
 PCOD8004446
Probable space group: P -1
;
_chemical_formula_sum "Si O2"
_cell_formula_units_Z 16
_cell_length_a 9.762767
_cell_length_b 15.737288
_cell_length_c 15.016334
_cell_angle_alpha 138.947960
_cell_angle_beta 138.842937
_cell_angle_gamma 35.149776
_cell_volume 813.652867
_symmetry_space_group_name_H-M "P -1"
_symmetry_group_IT_number 2
_symmetry_cell_setting 'triclinic'
loop_
_space_group_symop_operation_xyz
x,y,z
-x,-y,-z
loop_
_atom_site_type_symbol
_atom_site_label
_atom_site_fract_x
_atom_site_fract_y
_atom_site_fract_z
Si Si1 0.718039 0.780713 0.850568
Si Si2 0.489256 0.065800 0.450819
Si Si3 0.944730 0.373502 0.393802
Si Si4 0.171926 0.845500 0.403737
Si Si5 0.588409 0.109823 0.862574
Si Si6 0.276892 0.144083 0.891536
Si Si7 0.571011 0.574793 0.518043
Si Si8 0.084364 0.779116 0.905519
O O1 0.693292 0.651943 0.689581
O O2 0.986247 0.741907 0.916197
O O3 0.467987 0.953558 0.840896
O O4 0.742776 0.764854 0.956421
O O5 0.200314 0.206828 0.407074
O O6 0.667070 0.126233 0.565990
O O7 0.500000 0.000000 0.500000
O O8 0.565509 0.922374 0.308292
O O9 0.819721 0.353003 0.229124
O O10 0.000000 0.500000 0.500000
O O11 0.769177 0.426429 0.436223
O O12 0.344749 0.702228 0.443357
O O13 0.001483 0.807836 0.233468
O O14 0.000000 0.000000 0.500000
O O15 0.393726 0.200606 0.920948
O O16 0.845678 0.947775 0.889586
O O17 0.672244 0.218492 0.949279
O O18 0.500000 0.500000 0.500000
#
# Coordination Sequence:
#
# PCOD8004446 Si02
#       8
#     2   2   2   2   2   2   2   2
#     4  10  20  38  58  96 119 166 212 253 307 379
#     4  11  24  38  66  96 122 161 213 258 310 373
#     4  11  21  42  63  86 125 169 205 257 311 374
#     4  12  22  43  63  92 132 167 204 269 318 358
#     4   9  18  35  54  91 118 155 199 257 303 357
#     4  10  21  35  65  87 131 160 204 262 316 364
#     4  12  26  41  67  94 125 169 217 256 315 385
#     4   9  18  34  60  82 120 156 205 252 302 359
#
# _framework density 19.664406
#
# number of rings (size 3 to 8) (size 9 to 14) (size 15 to 20)
#    0.000    1.500    5.000    0.750    5.250    0.000 
#    0.000    0.625    2.750    2.250    0.000    0.000 
#    0.000    0.000    0.000    0.000    0.000    0.000 
#
# Total GULP energy -198322.238487 kJ/mol
# GULP energy per Si atom -12395.139905 kJ/mol
# Density = 1.961965 g / cm^3
# Si number density = 19.664406 Si / 1000 Ang^3
#
#
#
# Elastic Constant Matrix: (Units=GPa)
#
#
# Indices 1 2 3 4 5 6 
#
# 1 181.1541 38.7530 61.5023 -2.5857 -1.1115 2.1678
# 2 38.7530 45.5392 27.3846 -3.3731 1.0369 3.6570
# 3 61.5023 27.3846 118.3683 -7.6718 1.1129 -6.8480
# 4 -2.5857 -3.3731 -7.6718 24.7278 -3.6754 -4.2569
# 5 -1.1115 1.0369 1.1129 -3.6754 41.3684 6.2544
# 6 2.1678 3.6570 -6.8480 -4.2569 6.2544 32.2575
#
#
#
# Elastic Compliance Matrix: (Units=1/GPa)
#
#
# Indices 1 2 3 4 5 6 
#
# 1 0.007507 -0.004632 -0.002933 -0.000828 0.000444 -0.000797
# 2 -0.004632 0.028961 -0.004413 0.001452 -0.000042 -0.003709
# 3 -0.002933 -0.004413 0.011415 0.003180 -0.000544 0.003646
# 4 -0.000828 0.001452 0.003180 0.042935 0.002811 0.005687
# 5 0.000444 -0.000042 -0.000544 0.002811 0.025153 -0.004647
# 6 -0.000797 -0.003709 0.003646 0.005687 -0.004647 0.033900
#
#
# Mechanical properties :
#
#
# Convention : Reuss Voigt Hill
#
# Bulk Modulus (GPa) = 41.79437 66.70458 54.24948
# Shear Modulus (GPa) = 27.50196 34.16550 30.83373
#
# Velocity S-wave (km/s) = 3.74380 4.17277 3.96409
# Velocity P-wave (km/s) = 6.32360 7.56380 6.97134
#
# Compressibility (1/GPa) = 0.02392667
#
# Stress axis : x y z
#
# Youngs Moduli (GPa) = 133.20362 34.52860 87.60153
#
# Poissons Ratio (x) = 0.15995 0.25693
# Poissons Ratio (y) = 0.61704 0.38663
# Poissons Ratio (z) = 0.39068 0.15239
#
# Static dielectric constant tensor:
#      x y z
#    x 3.535910 0.429930 0.527780 
#    y 0.429930 2.589460 -0.628920 
#    z 0.527780 -0.628920 3.357720 
# 
# 
# High freq. dielectric constant tensor:
#      x y z
#    x 1.785700 -0.007510 -0.001150 
#    y -0.007510 1.728650 0.004320 
#    z -0.001150 0.004320 1.773750 
# 
# From -- ./inp_files/397379.got.cif
#   From: 2010.06.25/outbox.cif.g09.slc.cpg/sg2_199_cif.got.tgz:397379.got - 2010.06.27 13:26:56.
