data_PCOD8004660
_publ_section_title
;
Structure prediction by ZEFSAII (Michael W. Deem and Ramdas Pophale) SiO2 
 PCOD8004660
Probable space group: P -1
;
_chemical_formula_sum "Si O2"
_cell_formula_units_Z 16
_cell_length_a 8.868603
_cell_length_b 9.020687
_cell_length_c 14.699977
_cell_angle_alpha 63.762276
_cell_angle_beta 85.328909
_cell_angle_gamma 49.077383
_cell_volume 758.512337
_symmetry_space_group_name_H-M "P -1"
_symmetry_group_IT_number 2
_symmetry_cell_setting 'triclinic'
loop_
_space_group_symop_operation_xyz
x,y,z
-x,-y,-z
loop_
_atom_site_type_symbol
_atom_site_label
_atom_site_fract_x
_atom_site_fract_y
_atom_site_fract_z
Si Si1 0.884819 0.548874 0.899547
Si Si2 0.480737 0.708230 0.958322
Si Si3 0.418691 0.330750 0.828204
Si Si4 0.038959 0.205614 0.287890
Si Si5 0.305906 0.421402 0.502954
Si Si6 0.644740 0.264976 0.664072
Si Si7 0.166619 0.215355 0.822634
Si Si8 0.069907 0.373217 0.412812
O O1 0.658708 0.646918 0.902298
O O2 0.856812 0.743621 0.799004
O O3 0.015908 0.325138 0.888976
O O4 0.000000 0.500000 0.000000
O O5 0.259882 0.960416 0.869183
O O6 0.500000 0.500000 0.000000
O O7 0.502943 0.732554 0.056228
O O8 0.600284 0.267846 0.771981
O O9 0.364057 0.185377 0.842036
O O10 0.212762 0.602097 0.754843
O O11 0.123825 0.188394 0.388766
O O12 0.122186 0.965451 0.316058
O O13 0.481188 0.275008 0.612144
O O14 0.368957 0.531316 0.409606
O O15 0.078731 0.603392 0.512513
O O16 0.284099 0.278920 0.475395
O O17 0.042981 0.382846 0.696393
#
# Coordination Sequence:
#
# PCOD8004660 Si02
#       8
#     2   2   2   2   2   2   2   2
#     4  10  20  38  61  86 113 160 203 227 284 365
#     4  12  25  37  60  94 122 153 197 245 296 346
#     4  10  21  40  58  89 123 151 197 245 284 353
#     4  10  21  37  64  86 117 154 201 237 290 351
#     4  10  21  39  62  87 119 153 196 243 300 343
#     4  11  22  37  64  90 114 155 197 245 294 346
#     4  10  21  39  65  83 120 162 195 238 291 354
#     4   9  20  42  59  86 122 154 193 246 292 349
#
# _framework density 21.093921000000002
#
# number of rings (size 3 to 8) (size 9 to 14) (size 15 to 20)
#    0.000    2.000    5.000    1.125    1.750    4.500 
#    0.000    0.000    0.000    0.000    0.000    0.000 
#    0.000    0.000    0.000    0.000    0.000    0.000 
#
# Total GULP energy -198302.864596 kJ/mol
# GULP energy per Si atom -12393.929037 kJ/mol
# Density = 2.104591 g / cm^3
# Si number density = 21.093921 Si / 1000 Ang^3
#
#
#
# Elastic Constant Matrix: (Units=GPa)
#
#
# Indices 1 2 3 4 5 6 
#
# 1 42.7166 11.1592 14.6441 9.8263 1.8706 -9.4903
# 2 11.1592 91.2014 9.0856 -2.5986 -18.7974 -14.9728
# 3 14.6441 9.0856 54.2780 23.8231 -12.5587 -6.9195
# 4 9.8263 -2.5986 23.8231 33.9293 -5.2255 -7.3256
# 5 1.8706 -18.7974 -12.5587 -5.2255 24.0963 3.7370
# 6 -9.4903 -14.9728 -6.9195 -7.3256 3.7370 18.1766
#
#
#
# Elastic Compliance Matrix: (Units=1/GPa)
#
#
# Indices 1 2 3 4 5 6 
#
# 1 0.030680 -0.003643 -0.007477 -0.003271 -0.011572 0.011231
# 2 -0.003643 0.016073 -0.000461 0.006977 0.012320 0.011441
# 3 -0.007477 -0.000461 0.031246 -0.018348 0.012905 -0.002436
# 4 -0.003271 0.006977 -0.018348 0.047812 0.004102 0.015481
# 5 -0.011572 0.012320 0.012905 0.004102 0.059879 -0.001638
# 6 0.011231 0.011441 -0.002436 0.015481 -0.001638 0.075953
#
#
# Mechanical properties :
#
#
# Convention : Reuss Voigt Hill
#
# Bulk Modulus (GPa) = 18.23622 28.66374 23.44998
# Shear Modulus (GPa) = 16.49706 25.46093 20.97899
#
# Velocity S-wave (km/s) = 2.79960 3.47800 3.15707
# Velocity P-wave (km/s) = 4.37199 5.45406 4.94273
#
# Compressibility (1/GPa) = 0.05483593
#
# Stress axis : x y z
#
# Youngs Moduli (GPa) = 32.59466 62.21685 32.00361
#
# Poissons Ratio (x) = 0.22669 0.23930
# Poissons Ratio (y) = 0.11876 0.01474
# Poissons Ratio (z) = 0.24372 0.02867
#
# Static dielectric constant tensor:
#      x y z
#    x 3.679280 -0.072630 -0.052630 
#    y -0.072630 3.737090 0.241820 
#    z -0.052630 0.241820 4.018630 
# 
# 
# High freq. dielectric constant tensor:
#      x y z
#    x 1.808040 -0.009620 -0.007530 
#    y -0.009620 1.816990 0.017760 
#    z -0.007530 0.017760 1.831730 
# 
# From -- ./inp_files/200623.got.cif
#   From: 2010.06.25/outbox.cif.g09.slc.cpg/sg2_101_cif.got.tgz:200623.got - 2010.06.27 13:26:56.
