data_PCOD8004930
_publ_section_title
;
Structure prediction by ZEFSAII (Michael W. Deem and Ramdas Pophale) SiO2 
 PCOD8004930
Probable space group: P -1
;
_chemical_formula_sum "Si O2"
_cell_formula_units_Z 16
_cell_length_a 17.527039
_cell_length_b 6.551039
_cell_length_c 11.467020
_cell_angle_alpha 56.547703
_cell_angle_beta 55.089549
_cell_angle_gamma 94.319974
_cell_volume 739.445305
_symmetry_space_group_name_H-M "P -1"
_symmetry_group_IT_number 2
_symmetry_cell_setting 'triclinic'
loop_
_space_group_symop_operation_xyz
x,y,z
-x,-y,-z
loop_
_atom_site_type_symbol
_atom_site_label
_atom_site_fract_x
_atom_site_fract_y
_atom_site_fract_z
Si Si1 0.556089 0.888679 0.065204
Si Si2 0.516187 0.682167 0.611457
Si Si3 0.665577 0.706938 0.281773
Si Si4 0.255222 0.837996 0.355800
Si Si5 0.097455 0.147607 0.708620
Si Si6 0.907058 0.186877 0.968065
Si Si7 0.577167 0.095580 0.634099
Si Si8 0.949285 0.123890 0.415984
O O1 0.474241 0.526810 0.238912
O O2 0.539827 0.977991 0.181988
O O3 0.500000 0.000000 0.000000
O O4 0.685292 0.040935 0.861211
O O5 0.598312 0.802996 0.390272
O O6 0.389432 0.425662 0.755138
O O7 0.537611 0.957354 0.581703
O O8 0.666843 0.450298 0.428654
O O9 0.788964 0.003362 0.060328
O O10 0.200907 0.489102 0.524219
O O11 0.353203 0.001686 0.320121
O O12 0.161990 0.911344 0.423281
O O13 0.114391 0.929089 0.841977
O O14 0.088688 0.066245 0.607536
O O15 0.982854 0.104370 0.861993
O O16 0.956243 0.533353 0.808196
O O17 0.000000 0.000000 0.500000
#
# Coordination Sequence:
#
# PCOD8004930 Si02
#       8
#     2   2   2   2   2   2   2   2
#     4   9  21  38  57  87 126 164 209 256 307 374
#     4  10  22  36  59  94 129 163 207 254 315 382
#     4  10  21  39  60  90 127 164 205 266 316 364
#     4  10  22  39  65  92 126 170 209 261 319 373
#     4  10  22  42  66  94 124 164 220 271 315 381
#     4  10  22  42  67  91 125 169 215 264 324 380
#     4  10  20  38  63  91 125 165 214 257 310 381
#     4  11  26  42  64  99 129 164 216 268 325 394
#
# _framework density 21.637843
#
# number of rings (size 3 to 8) (size 9 to 14) (size 15 to 20)
#    0.000    2.000    1.250    0.750    1.750    8.000 
#    0.000    2.500    0.000    0.000    0.000    0.000 
#    0.000    0.000    0.000    0.000    0.000    0.000 
#
# Total GULP energy -198236.464230 kJ/mol
# GULP energy per Si atom -12389.779014 kJ/mol
# Density = 2.158859 g / cm^3
# Si number density = 21.637843 Si / 1000 Ang^3
#
#
#
# Elastic Constant Matrix: (Units=GPa)
#
#
# Indices 1 2 3 4 5 6 
#
# 1 82.0823 49.4612 30.3261 6.5236 -1.7168 15.3232
# 2 49.4612 123.9288 45.8593 14.7771 -0.7237 18.1763
# 3 30.3261 45.8593 110.0188 8.0708 -5.2605 7.8727
# 4 6.5236 14.7771 8.0708 18.5790 0.6386 1.6249
# 5 -1.7168 -0.7237 -5.2605 0.6386 36.1278 -8.2116
# 6 15.3232 18.1763 7.8727 1.6249 -8.2116 29.1707
#
#
#
# Elastic Compliance Matrix: (Units=1/GPa)
#
#
# Indices 1 2 3 4 5 6 
#
# 1 0.017144 -0.005198 -0.002181 -0.000439 -0.000823 -0.005385
# 2 -0.005198 0.012711 -0.003141 -0.006494 -0.001324 -0.004353
# 3 -0.002181 -0.003141 0.011156 -0.001695 0.001635 0.000647
# 4 -0.000439 -0.006494 -0.001695 0.059829 -0.001214 0.001060
# 5 -0.000823 -0.001324 0.001635 -0.001214 0.029993 0.009327
# 6 -0.005385 -0.004353 0.000647 0.001060 0.009327 0.042215
#
#
# Mechanical properties :
#
#
# Convention : Reuss Voigt Hill
#
# Bulk Modulus (GPa) = 50.07133 63.03590 56.55361
# Shear Modulus (GPa) = 24.90733 29.46771 27.18752
#
# Velocity S-wave (km/s) = 3.39647 3.69434 3.54853
# Velocity P-wave (km/s) = 6.21065 6.88426 6.55611
#
# Compressibility (1/GPa) = 0.01997151
#
# Stress axis : x y z
#
# Youngs Moduli (GPa) = 58.33029 78.67145 89.63789
#
# Poissons Ratio (x) = 0.40892 0.19548
# Poissons Ratio (y) = 0.30319 0.28156
# Poissons Ratio (z) = 0.12720 0.24711
#
# Static dielectric constant tensor:
#      x y z
#    x 4.190460 0.050160 0.939650 
#    y 0.050160 4.033860 0.733670 
#    z 0.939650 0.733670 7.005600 
# 
# 
# High freq. dielectric constant tensor:
#      x y z
#    x 1.853120 -0.005940 0.013240 
#    y -0.005940 1.841120 0.001100 
#    z 0.013240 0.001100 1.854740 
# 
# From -- ./inp_files/70335.got.cif
#   From: 2010.06.25/outbox.cif.g09.slc.cpg/sg2_36_cif.got.tgz:70335.got - 2010.06.27 13:26:56.
