data_PCOD8004794
_publ_section_title
;
Structure prediction by ZEFSAII (Michael W. Deem and Ramdas Pophale) SiO2 
 PCOD8004794
Probable space group: P -1
;
_chemical_formula_sum "Si O2"
_cell_formula_units_Z 16
_cell_length_a 13.129516
_cell_length_b 19.528751
_cell_length_c 12.584007
_cell_angle_alpha 144.609918
_cell_angle_beta 135.004102
_cell_angle_gamma 26.333277
_cell_volume 825.446088
_symmetry_space_group_name_H-M "P -1"
_symmetry_group_IT_number 2
_symmetry_cell_setting 'triclinic'
loop_
_space_group_symop_operation_xyz
x,y,z
-x,-y,-z
loop_
_atom_site_type_symbol
_atom_site_label
_atom_site_fract_x
_atom_site_fract_y
_atom_site_fract_z
Si Si1 0.210759 0.285355 0.851861
Si Si2 0.730074 0.381291 0.281856
Si Si3 0.029987 0.971422 0.656236
Si Si4 0.876031 0.335181 0.564399
Si Si5 0.503859 0.304902 0.108209
Si Si6 0.892217 0.898328 0.964360
Si Si7 0.523778 0.963014 0.846477
Si Si8 0.622178 0.202142 0.488887
O O1 0.120559 0.246720 0.651235
O O2 0.315254 0.156557 0.871432
O O3 0.395370 0.261231 0.909065
O O4 0.000000 0.500000 0.000000
O O5 0.795826 0.398917 0.464681
O O6 0.605334 0.334334 0.138238
O O7 0.555621 0.578632 0.341021
O O8 0.962933 0.217410 0.180305
O O9 0.091729 0.823525 0.591552
O O10 0.253834 0.856755 0.606186
O O11 0.811433 0.072880 0.555884
O O12 0.957332 0.138304 0.876777
O O13 0.681224 0.513069 0.722336
O O14 0.706032 0.122194 0.097160
O O15 0.770882 0.854135 0.852743
O O16 0.524683 0.823285 0.650461
O O17 0.500000 0.000000 0.000000
#
# Coordination Sequence:
#
# PCOD8004794 Si02
#       8
#     2   2   2   2   2   2   2   2
#     4   9  21  36  61  93 118 147 197 253 294 341
#     4  12  24  38  62  89 122 159 202 243 303 352
#     4  11  21  39  63  90 120 152 205 247 297 350
#     4  11  20  38  64  92 117 154 204 250 289 359
#     4  10  20  38  62  89 117 153 202 247 292 347
#     4  11  24  40  60  89 121 161 197 248 301 355
#     4  11  22  40  63  87 121 157 196 244 299 357
#     4  11  24  39  63  91 118 160 198 250 292 358
#
# _framework density 19.383458000000001
#
# number of rings (size 3 to 8) (size 9 to 14) (size 15 to 20)
#    0.000    1.250    5.000    1.500    3.500    1.000 
#    0.000    3.750    0.000    0.000    0.000    0.000 
#    0.000    0.000    0.000    0.000    0.000    0.000 
#
# Total GULP energy -198357.235622 kJ/mol
# GULP energy per Si atom -12397.327226 kJ/mol
# Density = 1.933934 g / cm^3
# Si number density = 19.383458 Si / 1000 Ang^3
#
#
#
# Elastic Constant Matrix: (Units=GPa)
#
#
# Indices 1 2 3 4 5 6 
#
# 1 119.5852 32.5327 57.9722 -5.0322 23.2286 -20.3509
# 2 32.5327 54.2726 24.2513 1.4328 4.4814 -4.5190
# 3 57.9722 24.2513 79.5695 -11.5163 23.2985 -17.1701
# 4 -5.0322 1.4328 -11.5163 14.5011 -1.3776 11.6902
# 5 23.2286 4.4814 23.2985 -1.3776 39.4629 -0.5816
# 6 -20.3509 -4.5190 -17.1701 11.6902 -0.5816 25.3754
#
#
#
# Elastic Compliance Matrix: (Units=1/GPa)
#
#
# Indices 1 2 3 4 5 6 
#
# 1 0.015590 -0.004352 -0.007862 -0.009373 -0.004211 0.010630
# 2 -0.004352 0.023842 -0.006166 -0.009171 0.003188 0.000881
# 3 -0.007862 -0.006166 0.025680 0.015155 -0.009264 0.002779
# 4 -0.009373 -0.009171 0.015155 0.123836 0.001110 -0.055920
# 5 -0.004211 0.003188 -0.009264 0.001110 0.032835 -0.008837
# 6 0.010630 0.000881 0.002779 -0.055920 -0.008837 0.075530
#
#
# Mechanical properties :
#
#
# Convention : Reuss Voigt Hill
#
# Bulk Modulus (GPa) = 35.27038 53.65998 44.46518
# Shear Modulus (GPa) = 14.55504 25.11261 19.83382
#
# Velocity S-wave (km/s) = 2.74323 3.60331 3.20227
# Velocity P-wave (km/s) = 5.31689 6.71232 6.05494
#
# Compressibility (1/GPa) = 0.02835241
#
# Stress axis : x y z
#
# Youngs Moduli (GPa) = 64.14407 41.94303 38.94010
#
# Poissons Ratio (x) = 0.18253 0.30613
# Poissons Ratio (y) = 0.27915 0.24012
# Poissons Ratio (z) = 0.50428 0.25864
#
# Static dielectric constant tensor:
#      x y z
#    x 3.964160 -0.204700 0.473420 
#    y -0.204700 3.732260 -0.313520 
#    z 0.473420 -0.313520 3.708930 
# 
# 
# High freq. dielectric constant tensor:
#      x y z
#    x 1.746360 -0.001300 0.032160 
#    y -0.001300 1.759200 -0.011820 
#    z 0.032160 -0.011820 1.753350 
# 
# From -- ./inp_files/207807.got.cif
#   From: 2010.06.25/outbox.cif.g09.slc.cpg/sg2_104_cif.got.tgz:207807.got - 2010.06.27 13:26:56.
