data_PCOD8004033
_publ_section_title
;
Structure prediction by ZEFSAII (Michael W. Deem and Ramdas Pophale) SiO2 
 PCOD8004033
Probable space group: P -1
;
_chemical_formula_sum "Si O2"
_cell_formula_units_Z 16
_cell_length_a 11.138987
_cell_length_b 11.233037
_cell_length_c 21.111867
_cell_angle_alpha 45.249200
_cell_angle_beta 137.442092
_cell_angle_gamma 154.058785
_cell_volume 773.771291
_symmetry_space_group_name_H-M "P -1"
_symmetry_group_IT_number 2
_symmetry_cell_setting 'triclinic'
loop_
_space_group_symop_operation_xyz
x,y,z
-x,-y,-z
loop_
_atom_site_type_symbol
_atom_site_label
_atom_site_fract_x
_atom_site_fract_y
_atom_site_fract_z
Si Si1 0.588147 0.791476 0.800328
Si Si2 0.920126 0.048232 0.619714
Si Si3 0.285386 0.610995 0.492720
Si Si4 0.593401 0.386433 0.597709
Si Si5 0.593007 0.244951 0.116136
Si Si6 0.023883 0.161212 0.000833
Si Si7 0.008807 0.283580 0.690102
Si Si8 0.131244 0.878633 0.700350
O O1 0.491677 0.798308 0.826847
O O2 0.317500 0.536850 0.747957
O O3 0.790636 0.776890 0.892438
O O4 0.771501 0.069765 0.731584
O O5 0.095563 0.302189 0.545710
O O6 0.029050 0.150484 0.695965
O O7 0.573947 0.825686 0.567600
O O8 0.977893 0.899900 0.677776
O O9 0.386414 0.704441 0.424331
O O10 0.083838 0.622616 0.422527
O O11 0.500000 0.500000 0.500000
O O12 0.902551 0.615102 0.665667
O O13 0.363877 0.138248 0.648908
O O14 0.821430 0.559000 0.070569
O O15 0.726062 0.160832 0.186958
O O16 0.310471 0.044661 0.035215
O O17 0.000000 0.000000 0.000000
#
# Coordination Sequence:
#
# PCOD8004033 Si02
#       8
#     2   2   2   2   2   2   2   2
#     4  11  21  39  60  87 115 142 186 236 295 340
#     4  12  24  40  56  78 117 161 195 233 278 330
#     4  12  23  39  58  81 113 152 201 241 283 327
#     4  12  21  37  58  83 116 152 193 237 292 330
#     4  11  21  37  62  93 118 143 186 233 293 355
#     4  10  20  37  63  90 120 145 174 236 303 351
#     4  12  24  38  58  83 113 154 199 238 272 336
#     4  12  23  38  58  87 118 155 191 233 287 344
#
# _framework density 20.677945000000001
#
# number of rings (size 3 to 8) (size 9 to 14) (size 15 to 20)
#    0.000    0.500    2.500    9.375    0.000    0.000 
#    0.000    0.000    0.000    4.500    0.000    0.000 
#    0.000    0.000    0.000    0.000    0.000    0.000 
#
# Total GULP energy -198443.461243 kJ/mol
# GULP energy per Si atom -12402.716328 kJ/mol
# Density = 2.063088 g / cm^3
# Si number density = 20.677945 Si / 1000 Ang^3
#
#
#
# Elastic Constant Matrix: (Units=GPa)
#
#
# Indices 1 2 3 4 5 6 
#
# 1 53.3860 10.4315 4.5796 14.6524 -4.7761 -23.8615
# 2 10.4315 148.0489 47.7988 16.5128 7.1913 -1.6270
# 3 4.5796 47.7988 143.4506 4.4061 39.9659 8.5094
# 4 14.6524 16.5128 4.4061 53.8543 0.8832 -4.0499
# 5 -4.7761 7.1913 39.9659 0.8832 31.6536 8.8923
# 6 -23.8615 -1.6270 8.5094 -4.0499 8.8923 29.8599
#
#
#
# Elastic Compliance Matrix: (Units=1/GPa)
#
#
# Indices 1 2 3 4 5 6 
#
# 1 0.032190 -0.000520 -0.002490 -0.006524 0.001235 0.025152
# 2 -0.000520 0.007941 -0.003174 -0.002070 0.002186 -0.000010
# 3 -0.002490 -0.003174 0.012298 0.000804 -0.014889 -0.001125
# 4 -0.006524 -0.002070 0.000804 0.020763 -0.001461 -0.002304
# 5 0.001235 0.002186 -0.014889 -0.001461 0.053118 -0.010667
# 6 0.025152 -0.000010 -0.001125 -0.002304 -0.010667 0.056773
#
#
# Mechanical properties :
#
#
# Convention : Reuss Voigt Hill
#
# Bulk Modulus (GPa) = 24.96258 52.27835 38.62047
# Shear Modulus (GPa) = 23.94581 41.87861 32.91221
#
# Velocity S-wave (km/s) = 3.40669 4.50519 3.99389
# Velocity P-wave (km/s) = 5.25093 7.23874 6.32344
#
# Compressibility (1/GPa) = 0.04005996
#
# Stress axis : x y z
#
# Youngs Moduli (GPa) = 31.06594 125.93612 81.31218
#
# Poissons Ratio (x) = 0.06550 0.20248
# Poissons Ratio (y) = 0.01616 0.25808
# Poissons Ratio (z) = 0.07736 0.39972
#
# Static dielectric constant tensor:
#      x y z
#    x 3.550650 0.098540 0.398450 
#    y 0.098540 3.625540 0.405970 
#    z 0.398450 0.405970 3.968020 
# 
# 
# High freq. dielectric constant tensor:
#      x y z
#    x 1.781260 0.006270 0.013910 
#    y 0.006270 1.833590 0.003160 
#    z 0.013910 0.003160 1.812200 
# 
# From -- ./inp_files/437337.got.cif
#   From: 2010.06.25/outbox.cif.g09.slc.cpg/sg2_219_cif.got.tgz:437337.got - 2010.06.27 13:26:56.
