data_PCOD8004069
_publ_section_title
;
Structure prediction by ZEFSAII (Michael W. Deem and Ramdas Pophale) SiO2 
 PCOD8004069
Probable space group: P -1
;
_chemical_formula_sum "Si O2"
_cell_formula_units_Z 14
_cell_length_a 10.848974
_cell_length_b 9.691401
_cell_length_c 8.086055
_cell_angle_alpha 73.014037
_cell_angle_beta 118.623091
_cell_angle_gamma 74.470918
_cell_volume 623.918704
_symmetry_space_group_name_H-M "P -1"
_symmetry_group_IT_number 2
_symmetry_cell_setting 'triclinic'
loop_
_space_group_symop_operation_xyz
x,y,z
-x,-y,-z
loop_
_atom_site_type_symbol
_atom_site_label
_atom_site_fract_x
_atom_site_fract_y
_atom_site_fract_z
Si Si1 0.043902 0.469983 0.308433
Si Si2 0.474569 0.316249 0.968699
Si Si3 0.705435 0.832528 0.585734
Si Si4 0.172075 0.612473 0.586761
Si Si5 0.411488 0.839401 0.238681
Si Si6 0.303069 0.832175 0.526058
Si Si7 0.728811 0.807102 0.969689
O O1 0.134585 0.347076 0.259309
O O2 0.178480 0.500262 0.474352
O O3 0.979846 0.366154 0.412078
O O4 0.903447 0.651278 0.107489
O O5 0.344911 0.510816 0.825777
O O6 0.574280 0.269878 0.875789
O O7 0.576631 0.273048 0.214719
O O8 0.368927 0.221995 0.938420
O O9 0.574218 0.853285 0.358695
O O10 0.633173 0.841973 0.719718
O O11 0.757682 0.974457 0.552586
O O12 0.156021 0.789187 0.462767
O O13 0.378298 0.769049 0.412272
O O14 0.264734 0.025239 0.042920
#
# Coordination Sequence:
#
# PCOD8004069 Si02
#       7
#     2   2   2   2   2   2   2
#     4  10  22  40  62  86 122 169 203 237 306 373
#     4  11  20  37  64  90 123 159 202 248 307 353
#     4  11  20  40  63  94 121 158 208 247 300 364
#     4  10  23  40  58  90 127 161 201 252 301 361
#     4  11  21  38  64  97 119 159 204 249 305 359
#     4  11  23  39  62  94 127 150 204 264 296 350
#     4  10  20  37  63  93 121 157 205 249 296 361
#
# _framework density 22.43882
#
# number of rings (size 3 to 8) (size 9 to 14) (size 15 to 20)
#    0.000    1.429    4.286    2.143    0.000    1.143 
#    0.000    4.286    0.000    0.000    0.000    0.000 
#    0.000    0.000    0.000    0.000    0.000    0.000 
#
# Total GULP energy -173442.225216 kJ/mol
# GULP energy per Si atom -12388.730373 kJ/mol
# Density = 2.238775 g / cm^3
# Si number density = 22.438820 Si / 1000 Ang^3
#
#
#
# Elastic Constant Matrix: (Units=GPa)
#
#
# Indices 1 2 3 4 5 6 
#
# 1 66.1613 43.1222 21.9718 -0.4397 -7.9900 6.2624
# 2 43.1222 73.8638 19.1825 -13.7648 -7.9435 1.2993
# 3 21.9718 19.1825 74.8768 -4.0190 -13.8115 -0.5600
# 4 -0.4397 -13.7648 -4.0190 22.1700 -13.0512 -6.8529
# 5 -7.9900 -7.9435 -13.8115 -13.0512 26.8102 1.1558
# 6 6.2624 1.2993 -0.5600 -6.8529 1.1558 30.5041
#
#
#
# Elastic Compliance Matrix: (Units=1/GPa)
#
#
# Indices 1 2 3 4 5 6 
#
# 1 0.031524 -0.022533 -0.007383 -0.025863 -0.013203 -0.010958
# 2 -0.022533 0.035817 0.004519 0.041404 0.025885 0.011504
# 3 -0.007383 0.004519 0.018474 0.017537 0.016979 0.004959
# 4 -0.025863 0.041404 0.017537 0.125889 0.073611 0.029360
# 5 -0.013203 0.025885 0.016979 0.073611 0.084958 0.015237
# 6 -0.010958 0.011504 0.004959 0.029360 0.015237 0.040652
#
#
# Mechanical properties :
#
#
# Convention : Reuss Voigt Hill
#
# Bulk Modulus (GPa) = 28.55427 42.60609 35.58018
# Shear Modulus (GPa) = 12.50684 24.60521 18.55602
#
# Velocity S-wave (km/s) = 2.36344 3.31501 2.87881
# Velocity P-wave (km/s) = 4.49453 5.80355 5.19048
#
# Compressibility (1/GPa) = 0.03502103
#
# Stress axis : x y z
#
# Youngs Moduli (GPa) = 31.72190 27.91960 54.12948
#
# Poissons Ratio (x) = 0.62912 0.39964
# Poissons Ratio (y) = 0.71480 -0.24463
# Poissons Ratio (z) = 0.23421 -0.12618
#
# Static dielectric constant tensor:
#      x y z
#    x 3.882530 0.045670 -0.212850 
#    y 0.045670 3.957940 -0.142530 
#    z -0.212850 -0.142530 4.070220 
# 
# 
# High freq. dielectric constant tensor:
#      x y z
#    x 1.860390 -0.004440 -0.015070 
#    y -0.004440 1.878310 -0.008500 
#    z -0.015070 -0.008500 1.884710 
# 
# From -- ./inp_files/218004.got.cif
#   From: 2010.06.25/outbox.cif.g09.slc.cpg/sg2_110_cif.got.tgz:218004.got - 2010.06.27 13:26:56.
