data_PCOD8004605
_publ_section_title
;
Structure prediction by ZEFSAII (Michael W. Deem and Ramdas Pophale) SiO2 
 PCOD8004605
Probable space group: P -1
;
_chemical_formula_sum "Si O2"
_cell_formula_units_Z 16
_cell_length_a 8.496220
_cell_length_b 15.100654
_cell_length_c 10.851570
_cell_angle_alpha 45.959455
_cell_angle_beta 60.259936
_cell_angle_gamma 84.269751
_cell_volume 799.241479
_symmetry_space_group_name_H-M "P -1"
_symmetry_group_IT_number 2
_symmetry_cell_setting 'triclinic'
loop_
_space_group_symop_operation_xyz
x,y,z
-x,-y,-z
loop_
_atom_site_type_symbol
_atom_site_label
_atom_site_fract_x
_atom_site_fract_y
_atom_site_fract_z
Si Si1 0.585958 0.104683 0.540709
Si Si2 0.802966 0.390591 0.778779
Si Si3 0.808623 0.819353 0.045694
Si Si4 0.755913 0.149425 0.169416
Si Si5 0.523002 0.567557 0.292568
Si Si6 0.016373 0.318096 0.560007
Si Si7 0.712489 0.065070 0.792114
Si Si8 0.393619 0.292866 0.513889
O O1 0.727302 0.122519 0.351873
O O2 0.705062 0.093681 0.623796
O O3 0.522734 0.229479 0.452158
O O4 0.388727 0.972853 0.735514
O O5 0.657861 0.396990 0.719644
O O6 0.962872 0.344537 0.694794
O O7 0.906213 0.532148 0.674642
O O8 0.705158 0.277855 0.029632
O O9 0.714884 0.706707 0.084074
O O10 0.666625 0.774213 0.263314
O O11 0.026864 0.831217 0.975296
O O12 0.822784 0.964652 0.858329
O O13 0.500000 0.500000 0.500000
O O14 0.531917 0.452050 0.310223
O O15 0.832408 0.209108 0.667696
O O16 0.192900 0.266634 0.543027
O O17 0.500000 0.000000 0.000000
#
# Coordination Sequence:
#
# PCOD8004605 Si02
#       8
#     2   2   2   2   2   2   2   2
#     4  11  25  41  59  88 125 160 196 251 302 355
#     4  10  20  38  61  88 122 159 195 242 304 355
#     4  11  21  36  63  89 119 157 203 246 298 353
#     4  11  24  42  61  85 124 165 198 238 306 366
#     4   9  20  35  58  94 125 150 192 256 300 341
#     4  10  21  35  61  92 117 150 203 253 288 349
#     4  12  23  36  60  92 121 152 203 255 299 342
#     4  10  20  38  60  90 119 152 203 249 293 350
#
# _framework density 20.018982000000001
#
# number of rings (size 3 to 8) (size 9 to 14) (size 15 to 20)
#    0.000    1.500    2.500    3.000    3.500    1.500 
#    0.000    6.250    0.000    0.000    0.000    0.000 
#    0.000    0.000    0.000    0.000    0.000    0.000 
#
# Total GULP energy -198327.376972 kJ/mol
# GULP energy per Si atom -12395.461061 kJ/mol
# Density = 1.997342 g / cm^3
# Si number density = 20.018982 Si / 1000 Ang^3
#
#
#
# Elastic Constant Matrix: (Units=GPa)
#
#
# Indices 1 2 3 4 5 6 
#
# 1 86.6363 31.9358 35.6904 -18.6767 8.9553 4.9584
# 2 31.9358 80.5615 32.4965 -31.7362 1.5936 4.2432
# 3 35.6904 32.4965 74.6890 -31.3554 5.5608 9.1941
# 4 -18.6767 -31.7362 -31.3554 34.7065 4.2422 -3.5335
# 5 8.9553 1.5936 5.5608 4.2422 31.9980 -8.6420
# 6 4.9584 4.2432 9.1941 -3.5335 -8.6420 33.9022
#
#
#
# Elastic Compliance Matrix: (Units=1/GPa)
#
#
# Indices 1 2 3 4 5 6 
#
# 1 0.015635 -0.003703 -0.005108 0.000737 -0.003757 -0.001319
# 2 -0.003703 0.020741 0.000471 0.017623 -0.002694 -0.001032
# 3 -0.005108 0.000471 0.025919 0.021409 -0.007567 -0.006039
# 4 0.000737 0.017623 0.021409 0.065975 -0.014914 -0.005045
# 5 -0.003757 -0.002694 -0.007567 -0.014914 0.038773 0.011268
# 6 -0.001319 -0.001032 -0.006039 -0.005045 0.011268 0.033803
#
#
# Mechanical properties :
#
#
# Convention : Reuss Voigt Hill
#
# Bulk Modulus (GPa) = 21.92277 49.12580 35.52429
# Shear Modulus (GPa) = 21.48400 29.57228 25.52814
#
# Velocity S-wave (km/s) = 3.27950 3.84762 3.57486
# Velocity P-wave (km/s) = 5.03139 6.65821 5.90113
#
# Compressibility (1/GPa) = 0.04561466
#
# Stress axis : x y z
#
# Youngs Moduli (GPa) = 63.96009 48.21462 38.58127
#
# Poissons Ratio (x) = 0.17854 0.19708
# Poissons Ratio (y) = 0.23684 -0.01818
# Poissons Ratio (z) = 0.32673 -0.02272
#
# Static dielectric constant tensor:
#      x y z
#    x 3.616840 0.062840 0.038420 
#    y 0.062840 3.551240 -0.493780 
#    z 0.038420 -0.493780 3.774790 
# 
# 
# High freq. dielectric constant tensor:
#      x y z
#    x 1.787680 0.000290 0.005390 
#    y 0.000290 1.767220 -0.039440 
#    z 0.005390 -0.039440 1.773970 
# 
# From -- ./inp_files/272814.got.cif
#   From: 2010.06.25/outbox.cif.g09.slc.cpg/sg2_137_cif.got.tgz:272814.got - 2010.06.27 13:26:56.
