data_PCOD8004516
_publ_section_title
;
Structure prediction by ZEFSAII (Michael W. Deem and Ramdas Pophale) SiO2 
 PCOD8004516
Probable space group: P -1
;
_chemical_formula_sum "Si O2"
_cell_formula_units_Z 16
_cell_length_a 9.006742
_cell_length_b 14.338412
_cell_length_c 8.884246
_cell_angle_alpha 46.520286
_cell_angle_beta 68.007660
_cell_angle_gamma 75.134317
_cell_volume 771.944597
_symmetry_space_group_name_H-M "P -1"
_symmetry_group_IT_number 2
_symmetry_cell_setting 'triclinic'
loop_
_space_group_symop_operation_xyz
x,y,z
-x,-y,-z
loop_
_atom_site_type_symbol
_atom_site_label
_atom_site_fract_x
_atom_site_fract_y
_atom_site_fract_z
Si Si1 0.305356 0.166606 0.737725
Si Si2 0.693548 0.890846 0.862233
Si Si3 0.682563 0.107705 0.000263
Si Si4 0.316441 0.834436 0.398474
Si Si5 0.681731 0.378365 0.771019
Si Si6 0.812969 0.602338 0.663220
Si Si7 0.683736 0.637362 0.989131
Si Si8 0.826092 0.411272 0.356894
O O1 0.494954 0.191487 0.624876
O O2 0.209995 0.284192 0.573276
O O3 0.256132 0.033690 0.815045
O O4 0.245586 0.153926 0.946794
O O5 0.505475 0.902915 0.934561
O O6 0.739119 0.784139 0.840128
O O7 0.746492 0.037173 0.630893
O O8 0.744668 0.138250 0.777093
O O9 0.729938 0.228456 0.955180
O O10 0.226745 0.700462 0.619094
O O11 0.784618 0.466416 0.744242
O O12 0.714923 0.412291 0.546725
O O13 0.493196 0.396947 0.848115
O O14 0.688948 0.619224 0.828174
O O15 0.991238 0.607962 0.648902
O O16 0.808225 0.545158 0.128249
#
# Coordination Sequence:
#
# PCOD8004516 Si02
#       8
#     2   2   2   2   2   2   2   2
#     4   9  16  33  58  81 104 138 180 222 260 311
#     4   8  15  32  58  80  99 135 185 222 253 310
#     4   7  14  30  56  83 102 128 181 230 255 298
#     4   8  15  32  58  80  99 135 185 222 253 310
#     4  10  20  38  60  80 100 139 190 223 252 313
#     4  12  24  35  50  84 119 139 167 223 279 312
#     4  11  22  38  56  78 108 145 181 218 263 319
#     4  11  22  38  56  78 108 145 181 218 263 319
#
# _framework density 20.726875
#
# number of rings (size 3 to 8) (size 9 to 14) (size 15 to 20)
#    0.000    2.500    0.000    5.250    0.000    0.000 
#    0.000   14.375    0.000    0.000    0.000    0.000 
#    0.000    0.000    0.000    0.000    0.000    0.000 
#
# Total GULP energy -198225.341227 kJ/mol
# GULP energy per Si atom -12389.083827 kJ/mol
# Density = 2.067970 g / cm^3
# Si number density = 20.726875 Si / 1000 Ang^3
#
#
#
# Elastic Constant Matrix: (Units=GPa)
#
#
# Indices 1 2 3 4 5 6 
#
# 1 39.9445 8.6096 1.4344 -19.4129 -3.4619 1.1418
# 2 8.6096 98.5355 30.6440 -29.3790 -12.7156 27.3183
# 3 1.4344 30.6440 22.7768 -5.5498 -3.8838 6.8172
# 4 -19.4129 -29.3790 -5.5498 37.6607 5.0408 -9.6083
# 5 -3.4619 -12.7156 -3.8838 5.0408 11.6741 -0.5683
# 6 1.1418 27.3183 6.8172 -9.6083 -0.5683 24.8516
#
#
#
# Elastic Compliance Matrix: (Units=1/GPa)
#
#
# Indices 1 2 3 4 5 6 
#
# 1 0.034586 0.003330 -0.001880 0.020357 0.004626 0.003242
# 2 0.003330 0.031358 -0.029695 0.014115 0.018167 -0.020605
# 3 -0.001880 -0.029695 0.079042 -0.010479 -0.001743 0.006955
# 4 0.020357 0.014115 -0.010479 0.048132 -0.002617 0.004973
# 5 0.004626 0.018167 -0.001743 -0.002617 0.106480 -0.018281
# 6 0.003242 -0.020605 0.006955 0.004973 -0.018281 0.062337
#
#
# Mechanical properties :
#
#
# Convention : Reuss Voigt Hill
#
# Bulk Modulus (GPa) = 11.29978 26.95918 19.12948
# Shear Modulus (GPa) = 11.16262 22.87517 17.01890
#
# Velocity S-wave (km/s) = 2.32320 3.32572 2.86860
# Velocity P-wave (km/s) = 3.55808 5.27090 4.49679
#
# Compressibility (1/GPa) = 0.08849726
#
# Stress axis : x y z
#
# Youngs Moduli (GPa) = 28.91332 31.88987 12.65146
#
# Poissons Ratio (x) = -0.10621 0.02379
# Poissons Ratio (y) = -0.09630 0.37568
# Poissons Ratio (z) = 0.05436 0.94696
#
# Static dielectric constant tensor:
#      x y z
#    x 3.374700 0.272390 -0.163870 
#    y 0.272390 4.198730 -0.469580 
#    z -0.163870 -0.469580 3.761910 
# 
# 
# High freq. dielectric constant tensor:
#      x y z
#    x 1.779410 0.011930 -0.006620 
#    y 0.011930 1.819800 -0.035370 
#    z -0.006620 -0.035370 1.792140 
# 
# From -- ./inp_files/205010.got.cif
#   From: 2010.06.25/outbox.cif.g09.slc.cpg/sg2_103_cif.got.tgz:205010.got - 2010.06.27 13:26:56.
