data_PCOD8004095
_publ_section_title
;
Structure prediction by ZEFSAII (Michael W. Deem and Ramdas Pophale) SiO2 
 PCOD8004095
Probable space group: P -1
;
_chemical_formula_sum "Si O2"
_cell_formula_units_Z 16
_cell_length_a 13.980343
_cell_length_b 13.432627
_cell_length_c 11.555043
_cell_angle_alpha 43.380660
_cell_angle_beta 149.113744
_cell_angle_gamma 135.860383
_cell_volume 737.446372
_symmetry_space_group_name_H-M "P -1"
_symmetry_group_IT_number 2
_symmetry_cell_setting 'triclinic'
loop_
_space_group_symop_operation_xyz
x,y,z
-x,-y,-z
loop_
_atom_site_type_symbol
_atom_site_label
_atom_site_fract_x
_atom_site_fract_y
_atom_site_fract_z
Si Si1 0.182996 0.852705 0.806111
Si Si2 0.899966 0.049899 0.963461
Si Si3 0.295484 0.704826 0.444320
Si Si4 0.503755 0.124669 0.706439
Si Si5 0.122483 0.127606 0.367567
Si Si6 0.410656 0.250357 0.084798
Si Si7 0.710202 0.210084 0.261055
Si Si8 0.910796 0.588851 0.425142
O O1 0.256837 0.747815 0.878038
O O2 0.997670 0.779060 0.758992
O O3 0.115691 0.972350 0.556640
O O4 0.365325 0.922303 0.019186
O O5 0.035999 0.094663 0.177664
O O6 0.839640 0.195401 0.731277
O O7 0.709786 0.922007 0.911789
O O8 0.000000 0.000000 0.000000
O O9 0.360499 0.762710 0.335343
O O10 0.479782 0.726894 0.699332
O O11 0.171561 0.530761 0.456188
O O12 0.350742 0.213343 0.521614
O O13 0.373747 0.968171 0.649749
O O14 0.563738 0.293309 0.100217
O O15 0.271476 0.359589 0.854542
O O16 0.925477 0.264774 0.490459
O O17 0.000000 0.500000 0.500000
#
# Coordination Sequence:
#
# PCOD8004095 Si02
#       8
#     2   2   2   2   2   2   2   2
#     4  10  21  39  65  99 131 170 227 277 320 389
#     4  12  24  39  68 105 135 168 223 281 336 386
#     4  12  25  42  65  98 141 171 212 284 337 390
#     4  11  22  41  66 102 129 168 225 282 325 378
#     4  10  20  37  63  96 137 169 210 276 340 375
#     4  12  24  42  68  95 132 175 227 266 330 402
#     4  11  23  41  71  94 128 176 228 265 325 395
#     4  12  27  46  64  97 140 180 218 262 341 416
#
# _framework density 21.696493
#
# number of rings (size 3 to 8) (size 9 to 14) (size 15 to 20)
#    0.000    0.750    3.750    5.250    3.500    3.000 
#    0.000    0.625    0.000    1.500    0.000    0.000 
#    0.000    0.000    0.000    0.000    0.000    0.000 
#
# Total GULP energy -198241.254715 kJ/mol
# GULP energy per Si atom -12390.078420 kJ/mol
# Density = 2.164711 g / cm^3
# Si number density = 21.696493 Si / 1000 Ang^3
#
#
#
# Elastic Constant Matrix: (Units=GPa)
#
#
# Indices 1 2 3 4 5 6 
#
# 1 148.4527 2.2768 55.8942 8.0480 8.3116 4.0500
# 2 2.2768 52.3735 38.2608 -3.0158 -1.8029 12.6446
# 3 55.8942 38.2608 142.3089 2.4567 12.9116 -1.1210
# 4 8.0480 -3.0158 2.4567 21.7031 5.0654 -0.3934
# 5 8.3116 -1.8029 12.9116 5.0654 36.0669 5.7657
# 6 4.0500 12.6446 -1.1210 -0.3934 5.7657 21.4907
#
#
#
# Elastic Compliance Matrix: (Units=1/GPa)
#
#
# Indices 1 2 3 4 5 6 
#
# 1 0.008561 0.003836 -0.004464 -0.002415 0.000856 -0.004377
# 2 0.003836 0.033231 -0.011408 0.002145 0.008243 -0.023043
# 3 -0.004464 -0.011408 0.012426 0.000137 -0.005559 0.009695
# 4 -0.002415 0.002145 0.000137 0.048813 -0.006536 0.001848
# 5 0.000856 0.008243 -0.005559 -0.006536 0.033137 -0.014312
# 6 -0.004377 -0.023043 0.009695 0.001848 -0.014312 0.065294
#
#
# Mechanical properties :
#
#
# Convention : Reuss Voigt Hill
#
# Bulk Modulus (GPa) = 33.17155 59.55544 46.36349
# Shear Modulus (GPa) = 21.22408 32.29902 26.76155
#
# Velocity S-wave (km/s) = 3.13105 3.86252 3.51586
# Velocity P-wave (km/s) = 5.32855 6.88484 6.15607
#
# Compressibility (1/GPa) = 0.03014632
#
# Stress axis : x y z
#
# Youngs Moduli (GPa) = 116.81497 30.09227 80.47795
#
# Poissons Ratio (x) = -0.11544 0.35927
# Poissons Ratio (y) = -0.44814 0.91807
# Poissons Ratio (z) = 0.52148 0.34328
#
# Static dielectric constant tensor:
#      x y z
#    x 4.790060 0.182340 0.319470 
#    y 0.182340 3.794220 0.159220 
#    z 0.319470 0.159220 4.081510 
# 
# 
# High freq. dielectric constant tensor:
#      x y z
#    x 1.879680 0.016070 0.014710 
#    y 0.016070 1.804250 0.020140 
#    z 0.014710 0.020140 1.860930 
# 
# From -- ./inp_files/454576.got.cif
#   From: 2010.06.25/outbox.cif.g09.slc.cpg/sg2_228_cif.got.tgz:454576.got - 2010.06.27 13:26:56.
