data_PCOD8004061
_publ_section_title
;
Structure prediction by ZEFSAII (Michael W. Deem and Ramdas Pophale) SiO2 
 PCOD8004061
Probable space group: P -1
;
_chemical_formula_sum "Si O2"
_cell_formula_units_Z 16
_cell_length_a 20.821547
_cell_length_b 11.824097
_cell_length_c 14.322504
_cell_angle_alpha 150.985548
_cell_angle_beta 29.579154
_cell_angle_gamma 151.443552
_cell_volume 734.947713
_symmetry_space_group_name_H-M "P -1"
_symmetry_group_IT_number 2
_symmetry_cell_setting 'triclinic'
loop_
_space_group_symop_operation_xyz
x,y,z
-x,-y,-z
loop_
_atom_site_type_symbol
_atom_site_label
_atom_site_fract_x
_atom_site_fract_y
_atom_site_fract_z
Si Si1 0.604840 0.753064 0.927652
Si Si2 0.820270 0.735882 0.065408
Si Si3 0.428562 0.831828 0.058345
Si Si4 0.119693 0.281789 0.506509
Si Si5 0.035740 0.530784 0.622835
Si Si6 0.211384 0.871101 0.489695
Si Si7 0.644566 0.201861 0.342381
Si Si8 0.384591 0.200999 0.765398
O O1 0.764226 0.768076 0.736330
O O2 0.472643 0.452958 0.908846
O O3 0.553366 0.774136 0.903253
O O4 0.623660 0.007736 0.144027
O O5 0.765065 0.816577 0.098969
O O6 0.801393 0.870356 0.279617
O O7 0.713837 0.422114 0.986877
O O8 0.985449 0.763420 0.865687
O O9 0.371918 0.959868 0.303777
O O10 0.500000 0.000000 0.000000
O O11 0.049460 0.407986 0.614804
O O12 0.208159 0.501683 0.635564
O O13 0.000000 0.000000 0.500000
O O14 0.187348 0.688810 0.482605
O O15 0.917843 0.284457 0.533781
O O16 0.496934 0.231612 0.560462
O O17 0.668414 0.077585 0.317447
#
# Coordination Sequence:
#
# PCOD8004061 Si02
#       8
#     2   2   2   2   2   2   2   2
#     4  10  22  38  62  88 118 160 204 252 310 372
#     4  10  20  37  63  92 124 160 199 252 314 367
#     4  10  23  40  61  91 126 154 200 260 310 364
#     4  11  26  42  59  85 131 169 209 252 300 368
#     4  10  23  40  60  92 128 162 205 260 293 363
#     4  10  21  39  65  94 120 159 208 252 312 368
#     4  10  20  38  63  91 123 160 202 251 312 373
#     4   9  19  36  63  98 125 148 195 265 315 363
#
# _framework density 21.770256
#
# number of rings (size 3 to 8) (size 9 to 14) (size 15 to 20)
#    0.000    2.000    0.000    2.250    3.500    8.000 
#    2.250    0.000    0.000    0.000    0.000    0.000 
#    0.000    0.000    0.000    0.000    0.000    0.000 
#
# Total GULP energy -198269.687487 kJ/mol
# GULP energy per Si atom -12391.855468 kJ/mol
# Density = 2.172071 g / cm^3
# Si number density = 21.770256 Si / 1000 Ang^3
#
#
#
# Elastic Constant Matrix: (Units=GPa)
#
#
# Indices 1 2 3 4 5 6 
#
# 1 63.3413 29.0475 46.4140 -3.8863 -9.1203 -2.2132
# 2 29.0475 91.9843 38.8457 -2.0030 2.4558 6.4697
# 3 46.4140 38.8457 137.7362 12.3567 5.7597 7.9409
# 4 -3.8863 -2.0030 12.3567 32.6891 13.7699 9.0465
# 5 -9.1203 2.4558 5.7597 13.7699 38.5240 8.3476
# 6 -2.2132 6.4697 7.9409 9.0465 8.3476 33.0321
#
#
#
# Elastic Compliance Matrix: (Units=1/GPa)
#
#
# Indices 1 2 3 4 5 6 
#
# 1 0.024592 -0.004864 -0.007504 0.002338 0.005927 0.002266
# 2 -0.004864 0.013644 -0.002211 0.002712 -0.002078 -0.002684
# 3 -0.007504 -0.002211 0.010919 -0.004194 -0.001517 -0.001163
# 4 0.002338 0.002712 -0.004194 0.039490 -0.011533 -0.007267
# 5 0.005927 -0.002078 -0.001517 -0.011533 0.032695 -0.003935
# 6 0.002266 -0.002684 -0.001163 -0.007267 -0.003935 0.034215
#
#
# Mechanical properties :
#
#
# Convention : Reuss Voigt Hill
#
# Bulk Modulus (GPa) = 50.00150 57.96404 53.98277
# Shear Modulus (GPa) = 26.12620 32.76602 29.44611
#
# Velocity S-wave (km/s) = 3.46799 3.88375 3.68174
# Velocity P-wave (km/s) = 6.24928 6.84065 6.55164
#
# Compressibility (1/GPa) = 0.01999940
#
# Stress axis : x y z
#
# Youngs Moduli (GPa) = 40.66302 73.29070 91.58326
#
# Poissons Ratio (x) = 0.35647 0.68720
# Poissons Ratio (y) = 0.19778 0.20246
# Poissons Ratio (z) = 0.30512 0.16202
#
# Static dielectric constant tensor:
#      x y z
#    x 3.821650 0.391600 -0.201290 
#    y 0.391600 4.198760 0.062820 
#    z -0.201290 0.062820 4.314850 
# 
# 
# High freq. dielectric constant tensor:
#      x y z
#    x 1.841900 0.026980 -0.007410 
#    y 0.026980 1.851360 0.018820 
#    z -0.007410 0.018820 1.862810 
# 
# From -- ./inp_files/541005.got.cif
#   From: 2010.06.25/outbox.cif.g09.slc.cpg/sg2_271_cif.got.tgz:541005.got - 2010.06.27 13:26:56.
