data_PCOD8004397
_publ_section_title
;
Structure prediction by ZEFSAII (Michael W. Deem and Ramdas Pophale) SiO2 
 PCOD8004397
Probable space group: P -1
;
_chemical_formula_sum "Si O2"
_cell_formula_units_Z 12
_cell_length_a 14.125463
_cell_length_b 15.933397
_cell_length_c 5.243230
_cell_angle_alpha 52.065703
_cell_angle_beta 109.287948
_cell_angle_gamma 140.163915
_cell_volume 572.285211
_symmetry_space_group_name_H-M "P -1"
_symmetry_group_IT_number 2
_symmetry_cell_setting 'triclinic'
loop_
_space_group_symop_operation_xyz
x,y,z
-x,-y,-z
loop_
_atom_site_type_symbol
_atom_site_label
_atom_site_fract_x
_atom_site_fract_y
_atom_site_fract_z
Si Si1 0.664634 0.546016 0.758736
Si Si2 0.318244 0.855305 0.124143
Si Si3 0.662856 0.753633 0.104326
Si Si4 0.837746 0.089062 0.865818
Si Si5 0.829102 0.704786 0.117964
Si Si6 0.845623 0.309218 0.224062
O O1 0.633429 0.648836 0.512174
O O2 0.500349 0.353869 0.977686
O O3 0.764896 0.587889 0.525071
O O4 0.756951 0.594778 0.006601
O O5 0.259680 0.930780 0.960030
O O6 0.259785 0.740799 0.533042
O O7 0.248423 0.745410 0.015502
O O8 0.500000 0.000000 0.000000
O O9 0.780531 0.790376 0.942245
O O10 0.731395 0.918332 0.952248
O O11 0.887749 0.217919 0.460561
O O12 0.986923 0.153228 0.999659
O O13 0.000000 0.500000 0.000000
#
# Coordination Sequence:
#
# PCOD8004397 Si02
#       6
#     2   2   2   2   2   2
#     4   9  21  36  59  80 135 158 198 239 300 349
#     4  10  23  44  66  90 122 159 207 259 315 363
#     4   9  20  39  57  90 124 162 197 246 293 364
#     4  10  24  37  66  91 122 158 208 246 310 362
#     4  10  20  38  57  89 122 164 196 244 294 360
#     4  10  23  45  66  88 125 158 207 259 314 365
#
# _framework density 20.968564000000001
#
# number of rings (size 3 to 8) (size 9 to 14) (size 15 to 20)
#    2.000    0.333    0.000    2.000    2.333    2.000 
#    3.000    0.000    0.000    0.000    0.000    0.000 
#    0.000    0.000    0.000    0.000    0.000    0.000 
#
# Total GULP energy -148696.474752 kJ/mol
# GULP energy per Si atom -12391.372896 kJ/mol
# Density = 2.092084 g / cm^3
# Si number density = 20.968564 Si / 1000 Ang^3
#
#
#
# Elastic Constant Matrix: (Units=GPa)
#
#
# Indices 1 2 3 4 5 6 
#
# 1 97.5854 63.7020 33.9947 -7.7520 -26.0601 12.9867
# 2 63.7020 221.1298 80.6502 -3.3626 -19.7528 12.4296
# 3 33.9947 80.6502 83.8402 -5.3189 -23.2429 -3.8176
# 4 -7.7520 -3.3626 -5.3189 46.4145 -7.8234 -14.9095
# 5 -26.0601 -19.7528 -23.2429 -7.8234 25.8919 -1.4030
# 6 12.9867 12.4296 -3.8176 -14.9095 -1.4030 21.2309
#
#
#
# Elastic Compliance Matrix: (Units=1/GPa)
#
#
# Indices 1 2 3 4 5 6 
#
# 1 0.017766 -0.003728 0.001253 0.004389 0.017259 -0.004237
# 2 -0.003728 0.009022 -0.010205 -0.005483 -0.008187 -0.009228
# 3 0.001253 -0.010205 0.030615 0.014828 0.026680 0.022889
# 4 0.004389 -0.005483 0.014828 0.038356 0.026864 0.031902
# 5 0.017259 -0.008187 0.026680 0.026864 0.083081 0.023389
# 6 -0.004237 -0.009228 0.022889 0.031902 0.023389 0.083160
#
#
# Mechanical properties :
#
#
# Convention : Reuss Voigt Hill
#
# Bulk Modulus (GPa) = 31.20804 84.36103 57.78453
# Shear Modulus (GPa) = 16.77617 33.65468 25.21542
#
# Velocity S-wave (km/s) = 2.83161 4.01060 3.47152
# Velocity P-wave (km/s) = 5.06026 7.85914 6.60955
#
# Compressibility (1/GPa) = 0.03204302
#
# Stress axis : x y z
#
# Youngs Moduli (GPa) = 56.28680 110.83805 32.66359
#
# Poissons Ratio (x) = 0.41326 -0.04093
# Poissons Ratio (y) = 0.20986 0.33333
# Poissons Ratio (z) = -0.07053 1.13108
#
# Static dielectric constant tensor:
#      x y z
#    x 3.566520 0.022290 -0.168790 
#    y 0.022290 3.858030 0.213250 
#    z -0.168790 0.213250 3.515660 
# 
# 
# High freq. dielectric constant tensor:
#      x y z
#    x 1.806180 0.009510 -0.018020 
#    y 0.009510 1.831890 0.004720 
#    z -0.018020 0.004720 1.790820 
# 
# From -- ./inp_files/97506.got.cif
#   From: 2010.06.25/outbox.cif.g09.slc.cpg/sg2_49_cif.got.tgz:97506.got - 2010.06.27 13:26:56.
