data_PCOD8004842
_publ_section_title
;
Structure prediction by ZEFSAII (Michael W. Deem and Ramdas Pophale) SiO2 
 PCOD8004842
Probable space group: P -1
;
_chemical_formula_sum "Si O2"
_cell_formula_units_Z 16
_cell_length_a 12.710742
_cell_length_b 22.262770
_cell_length_c 6.286995
_cell_angle_alpha 56.776962
_cell_angle_beta 134.786832
_cell_angle_gamma 141.126142
_cell_volume 792.457688
_symmetry_space_group_name_H-M "P -1"
_symmetry_group_IT_number 2
_symmetry_cell_setting 'triclinic'
loop_
_space_group_symop_operation_xyz
x,y,z
-x,-y,-z
loop_
_atom_site_type_symbol
_atom_site_label
_atom_site_fract_x
_atom_site_fract_y
_atom_site_fract_z
Si Si1 0.947128 0.911490 0.969746
Si Si2 0.024945 0.608267 0.261397
Si Si3 0.141740 0.516019 0.350334
Si Si4 0.329819 0.141143 0.686629
Si Si5 0.372301 0.028283 0.302611
Si Si6 0.404307 0.259976 0.935758
Si Si7 0.622780 0.467509 0.712438
Si Si8 0.399832 0.794574 0.431449
O O1 0.871814 0.916601 0.624467
O O2 0.783207 0.807688 0.042766
O O3 0.000000 0.000000 0.000000
O O4 0.148974 0.930100 0.219504
O O5 0.962272 0.579894 0.474050
O O6 0.171120 0.590331 0.419016
O O7 0.159899 0.724150 0.211562
O O8 0.832785 0.551879 0.952454
O O9 0.337496 0.547167 0.447444
O O10 0.000000 0.500000 0.000000
O O11 0.336479 0.215526 0.690427
O O12 0.520790 0.201601 0.692408
O O13 0.344931 0.074298 0.979125
O O14 0.479456 0.097857 0.524261
O O15 0.500000 0.000000 0.500000
O O16 0.495716 0.368488 0.853675
O O17 0.573133 0.259639 0.251575
O O18 0.500000 0.500000 0.500000
#
# Coordination Sequence:
#
# PCOD8004842 Si02
#       8
#     2   2   2   2   2   2   2   2
#     4  11  20  42  65  92 118 163 214 250 295 379
#     4  10  20  38  63  86 117 157 208 253 296 356
#     4   9  18  35  63  83 112 151 203 246 299 350
#     4  10  20  38  69  87 123 162 212 244 307 364
#     4  11  24  40  58  96 131 155 197 263 314 361
#     4  10  21  37  64  88 119 160 213 249 293 369
#     4  11  24  41  56  92 131 161 201 254 314 368
#     4  10  20  38  62  93 116 158 213 249 297 368
#
# _framework density 20.190351
#
# number of rings (size 3 to 8) (size 9 to 14) (size 15 to 20)
#    0.000    1.750    3.750    3.375    0.000    5.000 
#    6.750    0.000    0.000    0.000    0.000    0.000 
#    0.000    0.000    0.000    0.000    0.000    0.000 
#
# Total GULP energy -198215.096251 kJ/mol
# GULP energy per Si atom -12388.443516 kJ/mol
# Density = 2.014440 g / cm^3
# Si number density = 20.190351 Si / 1000 Ang^3
#
#
#
# Elastic Constant Matrix: (Units=GPa)
#
#
# Indices 1 2 3 4 5 6 
#
# 1 116.2247 37.1163 48.2258 -2.1469 11.1972 14.0270
# 2 37.1163 111.1940 38.5806 17.8720 13.0517 21.4965
# 3 48.2258 38.5806 69.8623 17.8243 1.7568 -1.0934
# 4 -2.1469 17.8720 17.8243 28.3173 0.0804 3.3027
# 5 11.1972 13.0517 1.7568 0.0804 39.5550 -0.6406
# 6 14.0270 21.4965 -1.0934 3.3027 -0.6406 32.1044
#
#
#
# Elastic Compliance Matrix: (Units=1/GPa)
#
#
# Indices 1 2 3 4 5 6 
#
# 1 0.016011 -0.000215 -0.013781 0.011031 -0.004010 -0.008536
# 2 -0.000215 0.014425 -0.006924 -0.003639 -0.004538 -0.009516
# 3 -0.013781 -0.006924 0.032530 -0.018774 0.005002 0.013796
# 4 0.011031 -0.003639 -0.018774 0.051239 -0.001327 -0.008320
# 5 -0.004010 -0.004538 0.005002 -0.001327 0.027786 0.005652
# 6 -0.008536 -0.009516 0.013796 -0.008320 0.005652 0.042688
#
#
# Mechanical properties :
#
#
# Convention : Reuss Voigt Hill
#
# Bulk Modulus (GPa) = 47.33260 60.56959 53.95109
# Shear Modulus (GPa) = 21.40771 31.55256 26.48014
#
# Velocity S-wave (km/s) = 3.25975 3.95746 3.62543
# Velocity P-wave (km/s) = 6.13694 7.13767 6.65614
#
# Compressibility (1/GPa) = 0.02112709
#
# Stress axis : x y z
#
# Youngs Moduli (GPa) = 62.45675 69.32515 30.74055
#
# Poissons Ratio (x) = 0.01492 0.42363
# Poissons Ratio (y) = 0.01344 0.21284
# Poissons Ratio (z) = 0.86070 0.47999
#
# Static dielectric constant tensor:
#      x y z
#    x 4.162410 0.321680 -0.210400 
#    y 0.321680 3.984130 0.317220 
#    z -0.210400 0.317220 3.632590 
# 
# 
# High freq. dielectric constant tensor:
#      x y z
#    x 1.781540 0.019510 -0.023400 
#    y 0.019510 1.790350 0.020130 
#    z -0.023400 0.020130 1.775620 
# 
# From -- ./inp_files/83112.got.cif
#   From: 2010.06.25/outbox.cif.g09.slc.cpg/sg2_42_cif.got.tgz:83112.got - 2010.06.27 13:26:56.
