data_PCOD8004219
_publ_section_title
;
Structure prediction by ZEFSAII (Michael W. Deem and Ramdas Pophale) SiO2 
 PCOD8004219
Probable space group: P -1
;
_chemical_formula_sum "Si O2"
_cell_formula_units_Z 16
_cell_length_a 20.025357
_cell_length_b 8.939837
_cell_length_c 11.282817
_cell_angle_alpha 90.536408
_cell_angle_beta 31.784596
_cell_angle_gamma 112.045550
_cell_volume 762.344401
_symmetry_space_group_name_H-M "P -1"
_symmetry_group_IT_number 2
_symmetry_cell_setting 'triclinic'
loop_
_space_group_symop_operation_xyz
x,y,z
-x,-y,-z
loop_
_atom_site_type_symbol
_atom_site_label
_atom_site_fract_x
_atom_site_fract_y
_atom_site_fract_z
Si Si1 0.886342 0.691357 0.478151
Si Si2 0.680375 0.300302 0.631533
Si Si3 0.244793 0.844548 0.949905
Si Si4 0.345817 0.483537 0.769573
Si Si5 0.974957 0.064666 0.415297
Si Si6 0.729361 0.376713 0.918439
Si Si7 0.297648 0.906789 0.213910
Si Si8 0.618467 0.234804 0.457852
O O1 0.774135 0.526121 0.541131
O O2 0.844586 0.589245 0.671428
O O3 0.860678 0.849753 0.509793
O O4 0.094896 0.839753 0.147539
O O5 0.760582 0.219198 0.575385
O O6 0.711915 0.309294 0.444803
O O7 0.471678 0.149496 0.972912
O O8 0.319510 0.858527 0.709521
O O9 0.403140 0.052370 0.788995
O O10 0.162714 0.635577 0.147181
O O11 0.500000 0.500000 0.500000
O O12 0.313771 0.559558 0.704569
O O13 0.403646 0.632856 0.798657
O O14 0.163091 0.250161 0.072667
O O15 0.862953 0.126394 0.595704
O O16 0.000000 0.000000 0.500000
O O17 0.640172 0.182070 0.964529
#
# Coordination Sequence:
#
# PCOD8004219 Si02
#       8
#     2   2   2   2   2   2   2   2
#     4  11  23  38  66  99 130 177 220 276 343 388
#     4  10  23  42  66  98 135 180 219 281 332 411
#     4  10  20  37  65  97 131 166 235 274 327 397
#     4  11  25  40  65 104 139 171 222 281 345 391
#     4  12  25  43  69 101 136 178 225 287 330 395
#     4  10  20  37  68  98 125 171 217 286 319 389
#     4  10  23  42  69  98 132 171 235 271 338 397
#     4  10  22  39  65  94 132 184 217 278 337 394
#
# _framework density 20.98789
#
# number of rings (size 3 to 8) (size 9 to 14) (size 15 to 20)
#    0.000    1.500    2.500    1.875    8.750    1.000 
#    0.000    3.125    0.000    0.000    0.000    0.000 
#    0.000    0.000    0.000    0.000    0.000    0.000 
#
# Total GULP energy -198259.201413 kJ/mol
# GULP energy per Si atom -12391.200088 kJ/mol
# Density = 2.094012 g / cm^3
# Si number density = 20.987890 Si / 1000 Ang^3
#
#
#
# Elastic Constant Matrix: (Units=GPa)
#
#
# Indices 1 2 3 4 5 6 
#
# 1 128.1015 56.2542 41.4317 3.7420 15.4032 10.5049
# 2 56.2542 129.7013 51.7869 -2.9053 2.1758 4.3098
# 3 41.4317 51.7869 90.5042 0.5022 2.5324 -3.5638
# 4 3.7420 -2.9053 0.5022 37.3966 -6.9813 3.5754
# 5 15.4032 2.1758 2.5324 -6.9813 31.5109 0.5772
# 6 10.5049 4.3098 -3.5638 3.5754 0.5772 30.7407
#
#
#
# Elastic Compliance Matrix: (Units=1/GPa)
#
#
# Indices 1 2 3 4 5 6 
#
# 1 0.011367 -0.003506 -0.003168 -0.002058 -0.005453 -0.003418
# 2 -0.003506 0.011251 -0.004938 0.001729 0.001739 -0.001185
# 3 -0.003168 -0.004938 0.015457 -0.000534 0.000463 0.003620
# 4 -0.002058 0.001729 -0.000534 0.028756 0.007357 -0.003084
# 5 -0.005453 0.001739 0.000463 0.007357 0.035871 0.000144
# 6 -0.003418 -0.001185 0.003620 -0.003084 0.000144 0.034640
#
#
# Mechanical properties :
#
#
# Convention : Reuss Voigt Hill
#
# Bulk Modulus (GPa) = 67.33282 71.91696 69.62489
# Shear Modulus (GPa) = 30.20842 33.18525 31.69683
#
# Velocity S-wave (km/s) = 3.79796 3.98070 3.89040
# Velocity P-wave (km/s) = 7.16827 7.44770 7.30932
#
# Compressibility (1/GPa) = 0.01485160
#
# Stress axis : x y z
#
# Youngs Moduli (GPa) = 87.97627 88.87889 64.69357
#
# Poissons Ratio (x) = 0.31162 0.20494
# Poissons Ratio (y) = 0.30846 0.31945
# Poissons Ratio (z) = 0.27870 0.43887
#
# Static dielectric constant tensor:
#      x y z
#    x 3.746580 -0.032840 0.306750 
#    y -0.032840 4.195560 -0.068010 
#    z 0.306750 -0.068010 3.708830 
# 
# 
# High freq. dielectric constant tensor:
#      x y z
#    x 1.807720 0.001210 0.022860 
#    y 0.001210 1.830170 -0.008300 
#    z 0.022860 -0.008300 1.812260 
# 
# From -- ./inp_files/469400.got.cif
#   From: 2010.06.25/outbox.cif.g09.slc.cpg/sg2_235_cif.got.tgz:469400.got - 2010.06.27 13:26:56.
