data_PCOD8004777
_publ_section_title
;
Structure prediction by ZEFSAII (Michael W. Deem and Ramdas Pophale) SiO2 
 PCOD8004777
Probable space group: P -1
;
_chemical_formula_sum "Si O2"
_cell_formula_units_Z 16
_cell_length_a 19.911395
_cell_length_b 9.697109
_cell_length_c 12.186736
_cell_angle_alpha 113.720282
_cell_angle_beta 156.081906
_cell_angle_gamma 68.031161
_cell_volume 873.275846
_symmetry_space_group_name_H-M "P -1"
_symmetry_group_IT_number 2
_symmetry_cell_setting 'triclinic'
loop_
_space_group_symop_operation_xyz
x,y,z
-x,-y,-z
loop_
_atom_site_type_symbol
_atom_site_label
_atom_site_fract_x
_atom_site_fract_y
_atom_site_fract_z
Si Si1 0.750963 0.274263 0.894218
Si Si2 0.866142 0.575217 0.246138
Si Si3 0.634509 0.828257 0.053859
Si Si4 0.841562 0.102634 0.780652
Si Si5 0.718050 0.147412 0.374970
Si Si6 0.811957 0.052986 0.102803
Si Si7 0.495739 0.907818 0.641517
Si Si8 0.956586 0.209279 0.578388
O O1 0.854232 0.249046 0.926419
O O2 0.560912 0.222958 0.570444
O O3 0.746076 0.446974 0.979233
O O4 0.844391 0.168516 0.090025
O O5 0.765230 0.690304 0.211146
O O6 0.000000 0.500000 0.500000
O O7 0.950153 0.649830 0.288865
O O8 0.720311 0.977646 0.275397
O O9 0.470042 0.793796 0.867843
O O10 0.597517 0.838556 0.872949
O O11 0.823816 0.153928 0.645835
O O12 0.674033 0.012752 0.538888
O O13 0.000000 0.000000 0.000000
O O14 0.810942 0.256173 0.462155
O O15 0.864588 0.122645 0.317683
O O16 0.914814 0.896512 0.194343
O O17 0.614151 0.024373 0.795353
#
# Coordination Sequence:
#
# PCOD8004777 Si02
#       8
#     2   2   2   2   2   2   2   2
#     4  10  23  36  59  86 126 153 196 241 303 363
#     4  12  24  40  59  90 122 162 195 246 307 360
#     4  10  20  38  62  88 117 157 203 245 299 354
#     4   9  20  35  57  88 120 158 194 245 302 349
#     4  10  20  38  63  88 115 156 205 251 286 354
#     4  11  18  37  58  94 116 147 206 257 290 336
#     4   9  19  35  58  87 116 153 196 248 294 342
#     4  11  21  34  66  86 118 153 205 251 289 348
#
# _framework density 18.321815999999998
#
# number of rings (size 3 to 8) (size 9 to 14) (size 15 to 20)
#    0.750    1.000    3.750    1.875    1.750    0.500 
#    0.000    1.250    2.750    0.000    0.000    0.000 
#    0.000    0.000    0.000    0.000    0.000    0.000 
#
# Total GULP energy -198251.066483 kJ/mol
# GULP energy per Si atom -12390.691655 kJ/mol
# Density = 1.828011 g / cm^3
# Si number density = 18.321816 Si / 1000 Ang^3
#
#
#
# Elastic Constant Matrix: (Units=GPa)
#
#
# Indices 1 2 3 4 5 6 
#
# 1 111.6699 43.8616 36.9482 -1.5100 0.7071 6.0136
# 2 43.8616 90.9901 39.1746 -0.2404 3.0691 -1.6348
# 3 36.9482 39.1746 83.1632 -0.2452 2.2520 -1.1566
# 4 -1.5100 -0.2404 -0.2452 28.1522 -3.3540 3.5047
# 5 0.7071 3.0691 2.2520 -3.3540 19.2608 6.7090
# 6 6.0136 -1.6348 -1.1566 3.5047 6.7090 26.5258
#
#
#
# Elastic Compliance Matrix: (Units=1/GPa)
#
#
# Indices 1 2 3 4 5 6 
#
# 1 0.012045 -0.004512 -0.003338 0.001333 0.002258 -0.003902
# 2 -0.004512 0.015544 -0.005211 -0.000797 -0.002729 0.002549
# 3 -0.003338 -0.005211 0.016025 -0.000467 -0.001556 0.001589
# 4 0.001333 -0.000797 -0.000467 0.037660 0.009380 -0.007720
# 5 0.002258 -0.002729 -0.001556 0.009380 0.060071 -0.017181
# 6 -0.003902 0.002549 0.001589 -0.007720 -0.017181 0.044176
#
#
# Mechanical properties :
#
#
# Convention : Reuss Voigt Hill
#
# Bulk Modulus (GPa) = 57.16326 58.42135 57.79230
# Shear Modulus (GPa) = 22.99132 25.84368 24.41750
#
# Velocity S-wave (km/s) = 3.54624 3.75979 3.65458
# Velocity P-wave (km/s) = 6.93074 7.12766 7.02989
#
# Compressibility (1/GPa) = 0.01749375
#
# Stress axis : x y z
#
# Youngs Moduli (GPa) = 83.01905 64.33173 62.40369
#
# Poissons Ratio (x) = 0.29028 0.20827
# Poissons Ratio (y) = 0.37461 0.32516
# Poissons Ratio (z) = 0.27708 0.33520
#
# Static dielectric constant tensor:
#      x y z
#    x 3.523400 -0.010380 -0.002940 
#    y -0.010380 3.079430 0.041840 
#    z -0.002940 0.041840 3.570010 
# 
# 
# High freq. dielectric constant tensor:
#      x y z
#    x 1.716440 0.000300 -0.004760 
#    y 0.000300 1.661540 -0.002710 
#    z -0.004760 -0.002710 1.725330 
# 
# From -- ./inp_files/542571.got.cif
#   From: 2010.06.25/outbox.cif.g09.slc.cpg/sg2_272_cif.got.tgz:542571.got - 2010.06.27 13:26:56.
