data_PCOD8004156
_publ_section_title
;
Structure prediction by ZEFSAII (Michael W. Deem and Ramdas Pophale) SiO2 
 PCOD8004156
Probable space group: P -1
;
_chemical_formula_sum "Si O2"
_cell_formula_units_Z 16
_cell_length_a 9.440174
_cell_length_b 22.262736
_cell_length_c 9.312327
_cell_angle_alpha 118.587122
_cell_angle_beta 63.192012
_cell_angle_gamma 154.083569
_cell_volume 750.012625
_symmetry_space_group_name_H-M "P -1"
_symmetry_group_IT_number 2
_symmetry_cell_setting 'triclinic'
loop_
_space_group_symop_operation_xyz
x,y,z
-x,-y,-z
loop_
_atom_site_type_symbol
_atom_site_label
_atom_site_fract_x
_atom_site_fract_y
_atom_site_fract_z
Si Si1 0.592413 0.603867 0.922451
Si Si2 0.798845 0.909626 0.626006
Si Si3 0.304013 0.357180 0.754341
Si Si4 0.667065 0.367796 0.082894
Si Si5 0.275076 0.089599 0.867654
Si Si6 0.689275 0.155224 0.181918
Si Si7 0.578423 0.069885 0.814769
Si Si8 0.657466 0.383882 0.446591
O O1 0.313002 0.443307 0.830768
O O2 0.574573 0.665508 0.906203
O O3 0.925767 0.690635 0.829378
O O4 0.563754 0.613663 0.114376
O O5 0.484870 0.839213 0.702805
O O6 0.638694 0.775115 0.548631
O O7 0.000000 0.000000 0.500000
O O8 0.098056 0.034515 0.737408
O O9 0.526048 0.408424 0.585726
O O10 0.933651 0.193129 0.725975
O O11 0.705596 0.394457 0.265845
O O12 0.554823 0.249377 0.958522
O O13 0.000000 0.500000 0.000000
O O14 0.399063 0.058272 0.785608
O O15 0.000000 0.000000 0.000000
O O16 0.603214 0.071619 0.258177
O O17 0.564619 0.086256 0.004858
O O18 0.000000 0.500000 0.500000
#
# Coordination Sequence:
#
# PCOD8004156 Si02
#       8
#     2   2   2   2   2   2   2   2
#     4  10  22  41  68  94 128 179 225 273 334 401
#     4  12  27  44  68 103 137 181 223 283 342 397
#     4  10  22  42  65  94 134 173 223 275 335 403
#     4  12  26  43  71 101 133 182 229 278 337 403
#     4  12  23  45  71  98 137 175 232 279 333 403
#     4  10  20  37  64  94 130 168 223 264 334 398
#     4  10  20  37  66  94 125 175 215 275 326 395
#     4  12  26  45  68  98 140 178 225 283 340 399
#
# _framework density 21.332974
#
# number of rings (size 3 to 8) (size 9 to 14) (size 15 to 20)
#    0.000    1.000    2.500    3.750    7.000    2.500 
#    2.250    1.250    0.000    0.000    0.000    0.000 
#    0.000    0.000    0.000    0.000    0.000    0.000 
#
# Total GULP energy -198302.670911 kJ/mol
# GULP energy per Si atom -12393.916932 kJ/mol
# Density = 2.128442 g / cm^3
# Si number density = 21.332974 Si / 1000 Ang^3
#
#
#
# Elastic Constant Matrix: (Units=GPa)
#
#
# Indices 1 2 3 4 5 6 
#
# 1 113.8926 15.1835 40.9979 -2.3043 3.3566 -3.3369
# 2 15.1835 107.9591 37.4184 -7.9876 10.2798 -4.2441
# 3 40.9979 37.4184 96.0580 -8.4884 15.9322 10.6098
# 4 -2.3043 -7.9876 -8.4884 33.6205 -0.6534 -5.2504
# 5 3.3566 10.2798 15.9322 -0.6534 33.6251 -5.3541
# 6 -3.3369 -4.2441 10.6098 -5.2504 -5.3541 34.1156
#
#
#
# Elastic Compliance Matrix: (Units=1/GPa)
#
#
# Indices 1 2 3 4 5 6 
#
# 1 0.010689 0.000278 -0.005313 -0.000036 0.001845 0.003016
# 2 0.000278 0.011112 -0.004470 0.001981 -0.000794 0.002980
# 3 -0.005313 -0.004470 0.016497 0.001497 -0.007017 -0.007077
# 4 -0.000036 0.001981 0.001497 0.031309 0.000029 0.004600
# 5 0.001845 -0.000794 -0.007017 0.000029 0.034343 0.007658
# 6 0.003016 0.002980 -0.007077 0.004600 0.007658 0.034089
#
#
# Mechanical properties :
#
#
# Convention : Reuss Voigt Hill
#
# Bulk Modulus (GPa) = 51.84168 56.12325 53.98246
# Shear Modulus (GPa) = 30.58532 35.22624 32.90578
#
# Velocity S-wave (km/s) = 3.79055 4.06798 3.93171
# Velocity P-wave (km/s) = 6.59633 6.95916 6.78017
#
# Compressibility (1/GPa) = 0.01928950
#
# Stress axis : x y z
#
# Youngs Moduli (GPa) = 93.55577 89.99164 60.61713
#
# Poissons Ratio (x) = -0.02505 0.32204
# Poissons Ratio (y) = -0.02604 0.27095
# Poissons Ratio (z) = 0.49704 0.40225
#
# Static dielectric constant tensor:
#      x y z
#    x 4.155810 -0.170560 -0.111840 
#    y -0.170560 3.955620 -0.037650 
#    z -0.111840 -0.037650 3.744390 
# 
# 
# High freq. dielectric constant tensor:
#      x y z
#    x 1.839810 -0.003170 -0.007830 
#    y -0.003170 1.854410 -0.009690 
#    z -0.007830 -0.009690 1.826980 
# 
# From -- ./inp_files/223790.got.cif
#   From: 2010.06.25/outbox.cif.g09.slc.cpg/sg2_112_cif.got.tgz:223790.got - 2010.06.27 13:26:56.
