data_PCOD8004466
_publ_section_title
;
Structure prediction by ZEFSAII (Michael W. Deem and Ramdas Pophale) SiO2 
 PCOD8004466
Probable space group: P -1
;
_chemical_formula_sum "Si O2"
_cell_formula_units_Z 16
_cell_length_a 7.470208
_cell_length_b 14.751305
_cell_length_c 14.204920
_cell_angle_alpha 29.784021
_cell_angle_beta 72.822427
_cell_angle_gamma 89.491697
_cell_volume 633.884356
_symmetry_space_group_name_H-M "P -1"
_symmetry_group_IT_number 2
_symmetry_cell_setting 'triclinic'
loop_
_space_group_symop_operation_xyz
x,y,z
-x,-y,-z
loop_
_atom_site_type_symbol
_atom_site_label
_atom_site_fract_x
_atom_site_fract_y
_atom_site_fract_z
Si Si1 0.202714 0.177274 0.524398
Si Si2 0.419678 0.957737 0.289395
Si Si3 0.962767 0.302026 0.300277
Si Si4 0.100964 0.820103 0.287843
Si Si5 0.380620 0.157562 0.786447
Si Si6 0.436193 0.370595 0.893163
Si Si7 0.963728 0.255740 0.123670
Si Si8 0.704954 0.486713 0.566356
O O1 0.434470 0.399701 0.283333
O O2 0.058696 0.194093 0.448403
O O3 0.085559 0.135462 0.681806
O O4 0.232860 0.975947 0.675524
O O5 0.296198 0.807847 0.533637
O O6 0.260538 0.867984 0.305383
O O7 0.609782 0.919174 0.253756
O O8 0.494519 0.202067 0.081601
O O9 0.987562 0.251809 0.235151
O O10 0.080211 0.557995 0.067782
O O11 0.941799 0.568356 0.506566
O O12 0.222992 0.952307 0.057103
O O13 0.630303 0.295302 0.673393
O O14 0.280091 0.307735 0.670257
O O15 0.499782 0.386501 0.760117
O O16 0.180170 0.281752 0.019238
#
# Coordination Sequence:
#
# PCOD8004466 Si02
#       8
#     2   2   2   2   2   2   2   2
#     4  10  22  42  63  92 125 161 203 250 305 366
#     4  11  22  40  60  88 126 160 205 253 300 363
#     4  10  23  42  65  96 117 161 206 251 310 363
#     4  10  20  38  59  84 117 161 202 244 303 353
#     4  11  21  38  58  85 122 158 205 254 299 355
#     4  11  22  41  62  89 125 166 199 251 310 361
#     4  11  21  44  68  87 128 157 200 257 308 364
#     4  10  22  37  59  87 119 160 206 250 303 358
#
# _framework density 25.241195999999999
#
# number of rings (size 3 to 8) (size 9 to 14) (size 15 to 20)
#    0.000    1.500    3.750    1.875    0.000    2.000 
#   11.250    1.250    0.000    0.000    0.000    0.000 
#    0.000    0.000    0.000    0.000    0.000    0.000 
#
# Total GULP energy -198280.396427 kJ/mol
# GULP energy per Si atom -12392.524777 kJ/mol
# Density = 2.518375 g / cm^3
# Si number density = 25.241196 Si / 1000 Ang^3
#
#
#
# Elastic Constant Matrix: (Units=GPa)
#
#
# Indices 1 2 3 4 5 6 
#
# 1 -14.9720 -31.4089 2.4919 -16.4490 -10.9542 -12.2281
# 2 -31.4089 76.0043 47.2545 -33.7596 -7.9619 -17.3492
# 3 2.4919 47.2545 121.4837 -19.9904 -5.1584 -12.8345
# 4 -16.4490 -33.7596 -19.9904 55.9661 -2.5186 2.3562
# 5 -10.9542 -7.9619 -5.1584 -2.5186 32.5820 -10.1899
# 6 -12.2281 -17.3492 -12.8345 2.3562 -10.1899 16.0934
#
#
#
# Elastic Compliance Matrix: (Units=1/GPa)
#
#
# Indices 1 2 3 4 5 6 
#
# 1 -0.004505 -0.012315 0.000633 -0.008118 -0.012150 -0.022698
# 2 -0.012315 0.008993 -0.003945 0.000439 -0.004279 -0.005582
# 3 0.000633 -0.003945 0.010844 0.001542 0.003167 0.006656
# 4 -0.008118 0.000439 0.001542 0.016513 -0.004057 -0.009452
# 5 -0.012150 -0.004279 0.003167 -0.004057 0.027924 0.006955
# 6 -0.022698 -0.005582 0.006656 -0.009452 0.006955 0.049969
#
#
# Mechanical properties :
#
#
# Convention : Reuss Voigt Hill
#
# Bulk Modulus (GPa) = -62.81115 24.35457 -19.22829
# Shear Modulus (GPa) = 36.84999 31.87354 34.36177
#
# Velocity S-wave (km/s) = 3.82503 3.55739 3.69363
# Velocity P-wave (km/s) = 2.33037 5.15199 3.24903
#
# Compressibility (1/GPa) = -0.01592074
#
# Stress axis : x y z
#
# Youngs Moduli (GPa) = -221.98552 111.19724 92.21339
#
# Poissons Ratio (x) = 1.36938 -0.05836
# Poissons Ratio (y) = -2.73372 0.36375
# Poissons Ratio (z) = 0.14049 0.43864
#
# Static dielectric constant tensor:
#      x y z
#    x 4.701090 -0.106580 -0.285740 
#    y -0.106580 4.830320 -0.139190 
#    z -0.285740 -0.139190 4.864960 
# 
# 
# High freq. dielectric constant tensor:
#      x y z
#    x 1.993220 -0.008490 -0.003030 
#    y -0.008490 2.018070 -0.011940 
#    z -0.003030 -0.011940 2.015110 
# 
# From -- ./inp_files/315262.got.cif
#   From: 2010.06.25/outbox.cif.g09.slc.cpg/sg2_158_cif.got.tgz:315262.got - 2010.06.27 13:26:56.
