data_PCOD8004023
_publ_section_title
;
Structure prediction by ZEFSAII (Michael W. Deem and Ramdas Pophale) SiO2 
 PCOD8004023
Probable space group: P -1
;
_chemical_formula_sum "Si O2"
_cell_formula_units_Z 16
_cell_length_a 15.299562
_cell_length_b 16.575544
_cell_length_c 9.833411
_cell_angle_alpha 31.686092
_cell_angle_beta 133.550124
_cell_angle_gamma 141.169855
_cell_volume 818.725864
_symmetry_space_group_name_H-M "P -1"
_symmetry_group_IT_number 2
_symmetry_cell_setting 'triclinic'
loop_
_space_group_symop_operation_xyz
x,y,z
-x,-y,-z
loop_
_atom_site_type_symbol
_atom_site_label
_atom_site_fract_x
_atom_site_fract_y
_atom_site_fract_z
Si Si1 0.626888 0.968471 0.200078
Si Si2 0.624313 0.691885 0.387316
Si Si3 0.078148 0.175761 0.538034
Si Si4 0.963347 0.327713 0.410010
Si Si5 0.075245 0.732045 0.970413
Si Si6 0.613439 0.930913 0.830249
Si Si7 0.352719 0.954479 0.587864
Si Si8 0.083974 0.828031 0.130458
O O1 0.600306 0.792461 0.343625
O O2 0.757467 0.146495 0.024448
O O3 0.646182 0.947142 0.412845
O O4 0.500000 0.000000 0.000000
O O5 0.500000 0.500000 0.500000
O O6 0.771581 0.700970 0.550077
O O7 0.638078 0.779022 0.130537
O O8 0.058128 0.278129 0.493436
O O9 0.972219 0.152752 0.336377
O O10 0.056512 0.991503 0.840161
O O11 0.800436 0.217292 0.350942
O O12 0.992814 0.288152 0.652086
O O13 0.018509 0.533739 0.139987
O O14 0.021677 0.706090 0.105524
O O15 0.472519 0.901513 0.793215
O O16 0.604267 0.909956 0.687282
O O17 0.752477 0.114326 0.759335
#
# Coordination Sequence:
#
# PCOD8004023 Si02
#       8
#     2   2   2   2   2   2   2   2
#     4  12  23  40  66  89 119 161 204 254 305 365
#     4  11  25  41  63  89 124 159 200 252 313 364
#     4  11  23  40  60  89 125 164 198 253 307 367
#     4  11  24  36  64  90 124 162 207 254 298 367
#     4  12  23  38  62  96 122 155 210 259 296 361
#     4   9  19  39  61  86 119 161 196 253 295 364
#     4  10  20  37  63  89 118 157 208 241 305 354
#     4  10  21  42  59  87 124 168 201 246 319 356
#
# _framework density 19.542560000000002
#
# number of rings (size 3 to 8) (size 9 to 14) (size 15 to 20)
#    0.000    1.250    5.000    1.500    3.500    0.000 
#    0.000    0.625    0.000    0.000    0.000    0.000 
#    0.000    0.000    0.000    0.000    0.000    0.000 
#
# Total GULP energy -198257.211691 kJ/mol
# GULP energy per Si atom -12391.075731 kJ/mol
# Density = 1.949808 g / cm^3
# Si number density = 19.542560 Si / 1000 Ang^3
#
#
#
# Elastic Constant Matrix: (Units=GPa)
#
#
# Indices 1 2 3 4 5 6 
#
# 1 127.2684 54.6285 30.3373 3.4353 4.3928 -16.3402
# 2 54.6285 100.8842 34.8915 -5.9167 0.8749 -13.7858
# 3 30.3373 34.8915 69.5391 14.2168 -2.4953 -9.4758
# 4 3.4353 -5.9167 14.2168 33.0099 -5.3011 -6.2644
# 5 4.3928 0.8749 -2.4953 -5.3011 34.2149 11.3811
# 6 -16.3402 -13.7858 -9.4758 -6.2644 11.3811 34.7881
#
#
#
# Elastic Compliance Matrix: (Units=1/GPa)
#
#
# Indices 1 2 3 4 5 6 
#
# 1 0.010930 -0.004892 -0.001729 -0.001055 -0.002705 0.003420
# 2 -0.004892 0.015758 -0.006708 0.006823 -0.000360 0.003466
# 3 -0.001729 -0.006708 0.020546 -0.009774 0.000287 0.000272
# 4 -0.001055 0.006823 -0.009774 0.037352 0.003309 0.005190
# 5 -0.002705 -0.000360 0.000287 0.003309 0.034071 -0.011886
# 6 0.003420 0.003466 0.000272 0.005190 -0.011886 0.036622
#
#
# Mechanical properties :
#
#
# Convention : Reuss Voigt Hill
#
# Bulk Modulus (GPa) = 48.60008 59.71183 54.15595
# Shear Modulus (GPa) = 26.48346 32.25819 29.37082
#
# Velocity S-wave (km/s) = 3.68525 4.06724 3.88095
# Velocity P-wave (km/s) = 6.55980 7.25794 6.91768
#
# Compressibility (1/GPa) = 0.02057610
#
# Stress axis : x y z
#
# Youngs Moduli (GPa) = 91.48918 63.45929 48.67080
#
# Poissons Ratio (x) = 0.31042 0.08417
# Poissons Ratio (y) = 0.44754 0.32649
# Poissons Ratio (z) = 0.15823 0.42569
#
# Static dielectric constant tensor:
#      x y z
#    x 3.202510 -0.334980 0.298680 
#    y -0.334980 3.407060 0.557030 
#    z 0.298680 0.557030 3.331850 
# 
# 
# High freq. dielectric constant tensor:
#      x y z
#    x 1.773510 0.001020 -0.008540 
#    y 0.001020 1.754840 0.026920 
#    z -0.008540 0.026920 1.757640 
# 
# From -- ./inp_files/272813.got.cif
#   From: 2010.06.25/outbox.cif.g09.slc.cpg/sg2_137_cif.got.tgz:272813.got - 2010.06.27 13:26:56.
