data_PCOD8004705
_publ_section_title
;
Structure prediction by ZEFSAII (Michael W. Deem and Ramdas Pophale) SiO2 
 PCOD8004705
Probable space group: P -1
;
_chemical_formula_sum "Si O2"
_cell_formula_units_Z 16
_cell_length_a 7.702631
_cell_length_b 9.142724
_cell_length_c 23.487034
_cell_angle_alpha 148.978588
_cell_angle_beta 117.544878
_cell_angle_gamma 69.305972
_cell_volume 752.452592
_symmetry_space_group_name_H-M "P -1"
_symmetry_group_IT_number 2
_symmetry_cell_setting 'triclinic'
loop_
_space_group_symop_operation_xyz
x,y,z
-x,-y,-z
loop_
_atom_site_type_symbol
_atom_site_label
_atom_site_fract_x
_atom_site_fract_y
_atom_site_fract_z
Si Si1 0.137056 0.189303 0.367541
Si Si2 0.975135 0.122771 0.975203
Si Si3 0.258651 0.477893 0.994860
Si Si4 0.280467 0.783140 0.638592
Si Si5 0.570312 0.203693 0.762236
Si Si6 0.400281 0.240144 0.098325
Si Si7 0.046255 0.907404 0.804099
Si Si8 0.444859 0.934902 0.829021
O O1 0.246571 0.460027 0.505168
O O2 0.925574 0.095544 0.333810
O O3 0.097350 0.262718 0.319701
O O4 0.275490 0.933269 0.302153
O O5 0.803951 0.329641 0.004704
O O6 0.953951 0.866791 0.839514
O O7 0.191635 0.286649 0.052650
O O8 0.000000 0.000000 0.000000
O O9 0.336193 0.692434 0.128243
O O10 0.568419 0.722427 0.066080
O O11 0.070882 0.254049 0.909698
O O12 0.431331 0.786138 0.716017
O O13 0.382747 0.976160 0.668922
O O14 0.483276 0.453631 0.795334
O O15 0.373120 0.150199 0.132137
O O16 0.500000 0.000000 0.000000
O O17 0.262931 0.798736 0.795729
#
# Coordination Sequence:
#
# PCOD8004705 Si02
#       8
#     2   2   2   2   2   2   2   2
#     4  10  21  43  66  92 128 166 229 267 306 376
#     4  12  23  33  56  95 129 162 205 255 324 391
#     4  10  20  38  61  90 126 171 209 254 335 394
#     4  10  24  40  67  97 118 176 227 262 307 388
#     4  12  22  38  70  90 130 169 221 259 330 382
#     4  12  22  40  56  94 136 166 196 270 331 385
#     4   9  17  37  61  79 124 170 193 256 319 375
#     4   9  21  39  60  88 129 163 206 261 322 377
#
# _framework density 21.263798000000001
#
# number of rings (size 3 to 8) (size 9 to 14) (size 15 to 20)
#    0.750    0.750    5.000    1.500    1.750    1.500 
#    0.000    0.625    0.000    8.250    0.000    0.000 
#    0.000    0.000    0.000    0.000    0.000    0.000 
#
# Total GULP energy -198211.350261 kJ/mol
# GULP energy per Si atom -12388.209391 kJ/mol
# Density = 2.121540 g / cm^3
# Si number density = 21.263798 Si / 1000 Ang^3
#
#
#
# Elastic Constant Matrix: (Units=GPa)
#
#
# Indices 1 2 3 4 5 6 
#
# 1 63.9248 28.1785 26.8621 3.5315 -13.5441 -14.7647
# 2 28.1785 138.5773 38.9262 0.8515 -6.3677 -6.3589
# 3 26.8621 38.9262 102.6128 -8.5979 -18.0923 -5.9868
# 4 3.5315 0.8515 -8.5979 26.1222 3.6378 -3.8857
# 5 -13.5441 -6.3677 -18.0923 3.6378 26.8705 -2.8745
# 6 -14.7647 -6.3589 -5.9868 -3.8857 -2.8745 28.7523
#
#
#
# Elastic Compliance Matrix: (Units=1/GPa)
#
#
# Indices 1 2 3 4 5 6 
#
# 1 0.023184 -0.002914 -0.002700 -0.003768 0.010894 0.011278
# 2 -0.002914 0.008514 -0.002772 -0.000680 -0.001269 -0.000409
# 3 -0.002700 -0.002772 0.013102 0.004158 0.006448 0.001935
# 4 -0.003768 -0.000680 0.004158 0.041385 -0.004443 0.003929
# 5 0.010894 -0.001269 0.006448 -0.004443 0.048515 0.010906
# 6 0.011278 -0.000409 0.001935 0.003929 0.010906 0.042505
#
#
# Mechanical properties :
#
#
# Convention : Reuss Voigt Hill
#
# Bulk Modulus (GPa) = 35.67976 54.78318 45.23147
# Shear Modulus (GPa) = 24.59165 30.42555 27.50860
#
# Velocity S-wave (km/s) = 3.40443 3.78678 3.60068
# Velocity P-wave (km/s) = 5.68063 6.70366 6.21324
#
# Compressibility (1/GPa) = 0.02802710
#
# Stress axis : x y z
#
# Youngs Moduli (GPa) = 43.13311 117.44752 76.32518
#
# Poissons Ratio (x) = 0.34230 0.20612
# Poissons Ratio (y) = 0.12571 0.21155
# Poissons Ratio (z) = 0.11648 0.32552
#
# Static dielectric constant tensor:
#      x y z
#    x 4.288210 -0.165810 0.078630 
#    y -0.165810 3.864000 -0.174550 
#    z 0.078630 -0.174550 3.730090 
# 
# 
# High freq. dielectric constant tensor:
#      x y z
#    x 1.851480 0.001050 0.002650 
#    y 0.001050 1.815150 -0.017250 
#    z 0.002650 -0.017250 1.809530 
# 
# From -- ./inp_files/187446.got.cif
#   From: 2010.06.25/outbox.cif.g09.slc.cpg/sg2_94_cif.got.tgz:187446.got - 2010.06.27 13:26:56.
