data_PCOD8004674
_publ_section_title
;
Structure prediction by ZEFSAII (Michael W. Deem and Ramdas Pophale) SiO2 
 PCOD8004674
Probable space group: P -1
;
_chemical_formula_sum "Si O2"
_cell_formula_units_Z 12
_cell_length_a 13.521506
_cell_length_b 6.803913
_cell_length_c 6.700586
_cell_angle_alpha 76.707493
_cell_angle_beta 88.449887
_cell_angle_gamma 53.431318
_cell_volume 477.042583
_symmetry_space_group_name_H-M "P -1"
_symmetry_group_IT_number 2
_symmetry_cell_setting 'triclinic'
loop_
_space_group_symop_operation_xyz
x,y,z
-x,-y,-z
loop_
_atom_site_type_symbol
_atom_site_label
_atom_site_fract_x
_atom_site_fract_y
_atom_site_fract_z
Si Si1 0.335670 0.592864 0.340192
Si Si2 0.405486 0.911096 0.428428
Si Si3 0.674185 0.923220 0.164149
Si Si4 0.065144 0.235216 0.947434
Si Si5 0.067871 0.856945 0.328694
Si Si6 0.596734 0.705727 0.948464
O O1 0.324860 0.843484 0.332266
O O2 0.455617 0.344763 0.492303
O O3 0.212711 0.631757 0.420319
O O4 0.339746 0.563255 0.102498
O O5 0.334155 0.045219 0.606726
O O6 0.588321 0.888448 0.735293
O O7 0.793650 0.889188 0.085515
O O8 0.676409 0.685015 0.139167
O O9 0.546007 0.170635 0.009996
O O10 0.992313 0.267684 0.739866
O O11 0.000000 0.500000 0.000000
O O12 0.062638 0.050033 0.135364
O O13 0.000000 0.000000 0.500000
#
# Coordination Sequence:
#
# PCOD8004674 Si02
#       6
#     2   2   2   2   2   2
#     4  10  20  38  61  88 119 155 200 246 299 359
#     4  10  21  38  61  89 122 156 195 249 306 363
#     4  10  20  38  61  88 119 155 200 246 299 359
#     4  11  25  43  63  90 124 164 209 254 302 362
#     4  11  25  43  63  90 124 164 209 254 302 362
#     4  10  21  38  61  89 122 156 195 249 306 363
#
# _framework density 25.154986999999998
#
# number of rings (size 3 to 8) (size 9 to 14) (size 15 to 20)
#    0.000    1.667    0.000    5.000    0.000    3.333 
#    0.000   41.667    0.000    0.000    0.000    0.000 
#    0.000    0.000    0.000    0.000    0.000    0.000 
#
# Total GULP energy -148744.079399 kJ/mol
# GULP energy per Si atom -12395.339950 kJ/mol
# Density = 2.509773 g / cm^3
# Si number density = 25.154987 Si / 1000 Ang^3
#
#
#
# Elastic Constant Matrix: (Units=GPa)
#
#
# Indices 1 2 3 4 5 6 
#
# 1 201.1281 66.7415 66.3336 43.5081 24.9065 -17.7271
# 2 66.7415 91.9147 54.9157 39.2152 12.0616 -4.2088
# 3 66.3336 54.9157 110.0917 49.9318 18.4084 2.2744
# 4 43.5081 39.2152 49.9318 53.4794 14.0766 2.9712
# 5 24.9065 12.0616 18.4084 14.0766 47.0154 18.1816
# 6 -17.7271 -4.2088 2.2744 2.9712 18.1816 49.3379
#
#
#
# Elastic Compliance Matrix: (Units=1/GPa)
#
#
# Indices 1 2 3 4 5 6 
#
# 1 0.007803 -0.003244 -0.001887 -0.001460 -0.003697 0.004064
# 2 -0.003244 0.018915 -0.004163 -0.007494 0.000371 0.000954
# 3 -0.001887 -0.004163 0.017806 -0.011703 -0.001115 -0.000738
# 4 -0.001460 -0.007494 -0.011703 0.037251 -0.003225 -0.001679
# 5 -0.003697 0.000371 -0.001115 -0.003225 0.029087 -0.011770
# 6 0.004064 0.000954 -0.000738 -0.001679 -0.011770 0.026282
#
#
# Mechanical properties :
#
#
# Convention : Reuss Voigt Hill
#
# Bulk Modulus (GPa) = 38.55638 86.56845 62.56241
# Shear Modulus (GPa) = 30.41775 44.30946 37.36361
#
# Velocity S-wave (km/s) = 3.48115 4.20153 3.85819
# Velocity P-wave (km/s) = 5.61415 7.61747 6.69121
#
# Compressibility (1/GPa) = 0.02593604
#
# Stress axis : x y z
#
# Youngs Moduli (GPa) = 128.16277 52.86739 56.16009
#
# Poissons Ratio (x) = 0.17152 0.10595
# Poissons Ratio (y) = 0.41580 0.23380
# Poissons Ratio (z) = 0.24179 0.22009
#
# Static dielectric constant tensor:
#      x y z
#    x 5.169720 -0.026580 0.442380 
#    y -0.026580 4.924860 1.024680 
#    z 0.442380 1.024680 5.248620 
# 
# 
# High freq. dielectric constant tensor:
#      x y z
#    x 2.021890 0.003210 0.016000 
#    y 0.003210 1.988410 0.038110 
#    z 0.016000 0.038110 2.008920 
# 
# From -- ./inp_files/90423.got.cif
#   From: 2010.06.25/outbox.cif.g09.slc.cpg/sg2_46_cif.got.tgz:90423.got - 2010.06.27 13:26:56.
