data_PCOD8004524
_publ_section_title
;
Structure prediction by ZEFSAII (Michael W. Deem and Ramdas Pophale) SiO2 
 PCOD8004524
Probable space group: P -1
;
_chemical_formula_sum "Si O2"
_cell_formula_units_Z 16
_cell_length_a 9.039399
_cell_length_b 21.891579
_cell_length_c 17.972959
_cell_angle_alpha 19.880788
_cell_angle_beta 58.296052
_cell_angle_gamma 47.418334
_cell_volume 798.647534
_symmetry_space_group_name_H-M "P -1"
_symmetry_group_IT_number 2
_symmetry_cell_setting 'triclinic'
loop_
_space_group_symop_operation_xyz
x,y,z
-x,-y,-z
loop_
_atom_site_type_symbol
_atom_site_label
_atom_site_fract_x
_atom_site_fract_y
_atom_site_fract_z
Si Si1 0.905682 0.196737 0.075558
Si Si2 0.986598 0.476358 0.333827
Si Si3 0.620784 0.980118 0.175256
Si Si4 0.123916 0.994127 0.402911
Si Si5 0.479107 0.302826 0.722125
Si Si6 0.758359 0.678768 0.013889
Si Si7 0.616229 0.186492 0.654039
Si Si8 0.576194 0.487956 0.202452
O O1 0.949003 0.122668 0.234806
O O2 0.888999 0.417536 0.807769
O O3 0.661830 0.276019 0.031281
O O4 0.112313 0.984540 0.215451
O O5 0.145112 0.220936 0.618294
O O6 0.757785 0.618709 0.277561
O O7 0.944385 0.488197 0.242546
O O8 0.463670 0.916790 0.262953
O O9 0.667577 0.080309 0.977451
O O10 0.482566 0.176864 0.048247
O O11 0.324572 0.725611 0.636094
O O12 0.208424 0.140250 0.231917
O O13 0.000000 0.000000 0.500000
O O14 0.500000 0.500000 0.500000
O O15 0.506756 0.228293 0.714944
O O16 0.747348 0.545691 0.100201
O O17 0.540292 0.424685 0.366228
#
# Coordination Sequence:
#
# PCOD8004524 Si02
#       8
#     2   2   2   2   2   2   2   2
#     4  10  20  39  63  87 112 156 202 238 299 355
#     4  10  20  38  60  81 116 164 200 245 302 345
#     4  11  20  37  60  82 113 160 203 244 295 347
#     4  10  22  42  63  90 126 155 189 240 294 359
#     4  11  24  36  50  85 124 155 204 254 296 344
#     4  10  21  40  61  90 124 152 199 246 287 354
#     4  11  20  37  59  84 116 153 204 250 290 350
#     4  11  22  39  64  90 116 157 199 241 297 354
#
# _framework density 20.03387
#
# number of rings (size 3 to 8) (size 9 to 14) (size 15 to 20)
#    0.000    1.500    6.250    1.875    0.000    6.000 
#    0.000    0.625    0.000    0.000    0.000    0.000 
#    0.000    0.000    0.000    0.000    0.000    0.000 
#
# Total GULP energy -198328.565561 kJ/mol
# GULP energy per Si atom -12395.535348 kJ/mol
# Density = 1.998827 g / cm^3
# Si number density = 20.033870 Si / 1000 Ang^3
#
#
#
# Elastic Constant Matrix: (Units=GPa)
#
#
# Indices 1 2 3 4 5 6 
#
# 1 94.4044 22.3754 48.0726 -4.6604 0.2883 -6.0605
# 2 22.3754 86.7984 29.2945 16.5783 1.8515 -4.7175
# 3 48.0726 29.2945 102.2013 1.9921 9.5395 -1.3909
# 4 -4.6604 16.5783 1.9921 25.2110 -5.9701 -0.7804
# 5 0.2883 1.8515 9.5395 -5.9701 39.9546 -5.7197
# 6 -6.0605 -4.7175 -1.3909 -0.7804 -5.7197 11.5201
#
#
#
# Elastic Compliance Matrix: (Units=1/GPa)
#
#
# Indices 1 2 3 4 5 6 
#
# 1 0.015588 -0.002460 -0.006989 0.006230 0.003844 0.008680
# 2 -0.002460 0.015335 -0.002888 -0.010462 -0.001081 0.003392
# 3 -0.006989 -0.002888 0.014255 -0.001689 -0.004239 -0.005357
# 4 0.006230 -0.010462 -0.001689 0.050250 0.009329 0.006825
# 5 0.003844 -0.001081 -0.004239 0.009329 0.029819 0.016505
# 6 0.008680 0.003392 -0.005357 0.006825 0.016505 0.100770
#
#
# Mechanical properties :
#
#
# Convention : Reuss Voigt Hill
#
# Bulk Modulus (GPa) = 48.76731 53.65436 51.21083
# Shear Modulus (GPa) = 19.41554 27.58126 23.49840
#
# Velocity S-wave (km/s) = 3.11647 3.71446 3.42853
# Velocity P-wave (km/s) = 6.11107 6.72579 6.42578
#
# Compressibility (1/GPa) = 0.02050554
#
# Stress axis : x y z
#
# Youngs Moduli (GPa) = 64.15309 65.20961 70.14872
#
# Poissons Ratio (x) = 0.16039 0.49027
# Poissons Ratio (y) = 0.15779 0.20257
# Poissons Ratio (z) = 0.44837 0.18830
#
# Static dielectric constant tensor:
#      x y z
#    x 3.490180 0.038220 -0.008480 
#    y 0.038220 3.461510 0.096770 
#    z -0.008480 0.096770 3.893540 
# 
# 
# High freq. dielectric constant tensor:
#      x y z
#    x 1.771850 0.001470 -0.000730 
#    y 0.001470 1.754150 0.004280 
#    z -0.000730 0.004280 1.797300 
# 
# From -- ./inp_files/314966.got.cif
#   From: 2010.06.25/outbox.cif.g09.slc.cpg/sg2_158_cif.got.tgz:314966.got - 2010.06.27 13:26:56.
