data_PCOD8004638
_publ_section_title
;
Structure prediction by ZEFSAII (Michael W. Deem and Ramdas Pophale) SiO2 
 PCOD8004638
Probable space group: P -1
;
_chemical_formula_sum "Si O2"
_cell_formula_units_Z 16
_cell_length_a 21.823071
_cell_length_b 9.834150
_cell_length_c 13.471207
_cell_angle_alpha 50.327237
_cell_angle_beta 39.039731
_cell_angle_gamma 27.469135
_cell_volume 827.050814
_symmetry_space_group_name_H-M "P -1"
_symmetry_group_IT_number 2
_symmetry_cell_setting 'triclinic'
loop_
_space_group_symop_operation_xyz
x,y,z
-x,-y,-z
loop_
_atom_site_type_symbol
_atom_site_label
_atom_site_fract_x
_atom_site_fract_y
_atom_site_fract_z
Si Si1 0.001920 0.244318 0.681683
Si Si2 0.374934 0.158478 0.672596
Si Si3 0.733098 0.908186 0.663788
Si Si4 0.542227 0.875520 0.200337
Si Si5 0.298563 0.892230 0.975301
Si Si6 0.435627 0.785355 0.060229
Si Si7 0.973654 0.206987 0.161088
Si Si8 0.080741 0.694432 0.034346
O O1 0.177758 0.047546 0.510050
O O2 0.855052 0.561656 0.662492
O O3 0.992528 0.311542 0.779403
O O4 0.981457 0.065312 0.774974
O O5 0.458913 0.124195 0.679226
O O6 0.204203 0.507423 0.696467
O O7 0.500000 0.000000 0.500000
O O8 0.339000 0.005894 0.808161
O O9 0.575510 0.105272 0.700746
O O10 0.680521 0.022559 0.788722
O O11 0.724221 0.572708 0.070887
O O12 0.479948 0.153427 0.104671
O O13 0.319795 0.891011 0.066495
O O14 0.420120 0.563292 0.935176
O O15 0.110721 0.108441 0.096567
O O16 0.960698 0.321621 0.015118
O O17 0.000000 0.000000 0.000000
#
# Coordination Sequence:
#
# PCOD8004638 Si02
#       8
#     2   2   2   2   2   2   2   2
#     4  10  22  38  55  91 119 143 190 239 292 336
#     4  10  23  41  58  86 119 147 192 243 279 341
#     4  11  22  36  61  86 121 148 182 246 292 332
#     4  10  20  38  61  84 112 154 193 229 288 338
#     4  10  22  39  62  85 110 157 198 228 284 339
#     4  10  21  37  62  86 116 145 201 238 270 348
#     4  10  21  40  62  81 114 155 193 232 283 343
#     4   9  19  35  56  82 112 146 190 229 270 345
#
# _framework density 19.345849999999999
#
# number of rings (size 3 to 8) (size 9 to 14) (size 15 to 20)
#    0.000    2.000    1.250    1.500    5.250    1.000 
#    4.500    6.250    0.000    0.000    0.000    0.000 
#    0.000    0.000    0.000    0.000    0.000    0.000 
#
# Total GULP energy -198397.756540 kJ/mol
# GULP energy per Si atom -12399.859784 kJ/mol
# Density = 1.930182 g / cm^3
# Si number density = 19.345850 Si / 1000 Ang^3
#
#
#
# Elastic Constant Matrix: (Units=GPa)
#
#
# Indices 1 2 3 4 5 6 
#
# 1 106.7904 33.7088 57.7674 15.1400 -9.2677 -11.3587
# 2 33.7088 95.0084 30.5960 7.6149 -0.7483 0.2901
# 3 57.7674 30.5960 117.0069 19.1848 8.9221 -3.5781
# 4 15.1400 7.6149 19.1848 30.9258 5.5120 0.9622
# 5 -9.2677 -0.7483 8.9221 5.5120 22.6504 2.5978
# 6 -11.3587 0.2901 -3.5781 0.9622 2.5978 24.6220
#
#
#
# Elastic Compliance Matrix: (Units=1/GPa)
#
#
# Indices 1 2 3 4 5 6 
#
# 1 0.016263 -0.003066 -0.007020 -0.004781 0.009832 0.005668
# 2 -0.003066 0.012191 -0.001667 -0.000431 0.000116 -0.001796
# 3 -0.007020 -0.001667 0.013531 -0.003211 -0.007437 -0.000342
# 4 -0.004781 -0.000431 -0.003211 0.038608 -0.009740 -0.003148
# 5 0.009832 0.000116 -0.007437 -0.009740 0.053685 -0.001830
# 6 0.005668 -0.001796 -0.000342 -0.003148 -0.001830 0.043517
#
#
# Mechanical properties :
#
#
# Convention : Reuss Voigt Hill
#
# Bulk Modulus (GPa) = 54.11506 62.55001 58.33253
# Shear Modulus (GPa) = 24.10083 28.75520 26.42802
#
# Velocity S-wave (km/s) = 3.53340 3.85954 3.70006
# Velocity P-wave (km/s) = 6.68429 7.22939 6.96218
#
# Compressibility (1/GPa) = 0.01847914
#
# Stress axis : x y z
#
# Youngs Moduli (GPa) = 61.48796 82.02721 73.90226
#
# Poissons Ratio (x) = 0.25151 0.51880
# Poissons Ratio (y) = 0.18853 0.12320
# Poissons Ratio (z) = 0.43165 0.13674
#
# Static dielectric constant tensor:
#      x y z
#    x 3.539360 -0.007860 0.254090 
#    y -0.007860 3.741750 -0.035950 
#    z 0.254090 -0.035950 3.593930 
# 
# 
# High freq. dielectric constant tensor:
#      x y z
#    x 1.745190 -0.002430 0.008570 
#    y -0.002430 1.770690 0.001740 
#    z 0.008570 0.001740 1.741500 
# 
# From -- ./inp_files/238727.got.cif
#   From: 2010.06.25/outbox.cif.g09.slc.cpg/sg2_120_cif.got.tgz:238727.got - 2010.06.27 13:26:56.
