data_PCOD8004490
_publ_section_title
;
Structure prediction by ZEFSAII (Michael W. Deem and Ramdas Pophale) SiO2 
 PCOD8004490
Probable space group: P -1
;
_chemical_formula_sum "Si O2"
_cell_formula_units_Z 14
_cell_length_a 8.875278
_cell_length_b 8.271966
_cell_length_c 17.132028
_cell_angle_alpha 42.277243
_cell_angle_beta 84.931508
_cell_angle_gamma 113.798151
_cell_volume 602.109225
_symmetry_space_group_name_H-M "P -1"
_symmetry_group_IT_number 2
_symmetry_cell_setting 'triclinic'
loop_
_space_group_symop_operation_xyz
x,y,z
-x,-y,-z
loop_
_atom_site_type_symbol
_atom_site_label
_atom_site_fract_x
_atom_site_fract_y
_atom_site_fract_z
Si Si1 0.722924 0.530764 0.299648
Si Si2 0.016826 0.850632 0.706434
Si Si3 0.042285 0.268293 0.079822
Si Si4 0.133263 0.674443 0.216664
Si Si5 0.538436 0.804758 0.422124
Si Si6 0.768523 0.744782 0.063318
Si Si7 0.820496 0.442230 0.574726
O O1 0.530909 0.241973 0.467475
O O2 0.624151 0.474347 0.236686
O O3 0.896866 0.514026 0.296284
O O4 0.827571 0.890230 0.200987
O O5 0.890550 0.744792 0.831536
O O6 0.866556 0.565572 0.750119
O O7 0.208948 0.872329 0.707320
O O8 0.105350 0.200253 0.546082
O O9 0.231189 0.417509 0.956972
O O10 0.000000 0.500000 0.000000
O O11 0.227859 0.719881 0.280477
O O12 0.284098 0.039690 0.036556
O O13 0.500000 0.500000 0.500000
O O14 0.399097 0.828415 0.366548
O O15 0.000000 0.000000 0.000000
O O16 0.000000 0.500000 0.500000
#
# Coordination Sequence:
#
# PCOD8004490 Si02
#       7
#     2   2   2   2   2   2   2
#     4  10  17  34  51  79 110 139 181 222 269 314
#     4  11  21  33  54  86 111 136 185 223 270 319
#     4  10  16  29  51  79 104 135 180 227 258 309
#     4  10  19  33  54  84 105 139 182 227 264 312
#     4  10  20  35  54  79 112 145 175 218 277 323
#     4   8  17  30  51  80 104 137 179 232 257 307
#     4  11  19  36  54  76 112 149 179 217 271 323
#
# _framework density 23.251595999999999
#
# number of rings (size 3 to 8) (size 9 to 14) (size 15 to 20)
#    0.000    2.286    4.286    3.857    0.000    0.571 
#    0.000    0.000    0.000    3.429    3.714   22.000 
#    0.000    0.000    0.000    0.000    0.000    0.000 
#
# Total GULP energy -173502.099366 kJ/mol
# GULP energy per Si atom -12393.007098 kJ/mol
# Density = 2.319867 g / cm^3
# Si number density = 23.251596 Si / 1000 Ang^3
#
#
#
# Elastic Constant Matrix: (Units=GPa)
#
#
# Indices 1 2 3 4 5 6 
#
# 1 64.5627 28.0199 19.9436 11.5947 12.9008 2.3076
# 2 28.0199 121.8277 46.9920 41.7551 5.4024 -10.5482
# 3 19.9436 46.9920 104.4662 53.3245 24.9856 5.7110
# 4 11.5947 41.7551 53.3245 55.1382 -0.8710 8.8375
# 5 12.9008 5.4024 24.9856 -0.8710 33.9193 5.2583
# 6 2.3076 -10.5482 5.7110 8.8375 5.2583 27.4818
#
#
#
# Elastic Compliance Matrix: (Units=1/GPa)
#
#
# Indices 1 2 3 4 5 6 
#
# 1 0.018629 -0.003829 0.000634 -0.001515 -0.006766 -0.001384
# 2 -0.003829 0.014000 0.001147 -0.012593 -0.003520 0.010180
# 3 0.000634 0.001147 0.032088 -0.034009 -0.026439 0.009714
# 4 -0.001515 -0.012593 -0.034009 0.065417 0.033193 -0.025027
# 5 -0.006766 -0.003520 -0.026439 0.033193 0.055515 -0.016585
# 6 -0.001384 0.010180 0.009714 -0.025027 -0.016585 0.049614
#
#
# Mechanical properties :
#
#
# Convention : Reuss Voigt Hill
#
# Bulk Modulus (GPa) = 16.49642 53.41864 34.95753
# Shear Modulus (GPa) = 19.26284 36.36793 27.81539
#
# Velocity S-wave (km/s) = 2.88141 3.95917 3.46248
# Velocity P-wave (km/s) = 4.26382 6.62752 5.57244
#
# Compressibility (1/GPa) = 0.06061921
#
# Stress axis : x y z
#
# Youngs Moduli (GPa) = 53.68081 71.42657 31.16440
#
# Poissons Ratio (x) = 0.27351 -0.01975
# Poissons Ratio (y) = 0.20556 -0.03574
# Poissons Ratio (z) = -0.03402 -0.08191
#
# Static dielectric constant tensor:
#      x y z
#    x 4.083940 -0.140900 0.123580 
#    y -0.140900 4.628690 0.686460 
#    z 0.123580 0.686460 4.740780 
# 
# 
# High freq. dielectric constant tensor:
#      x y z
#    x 1.872590 -0.029260 0.023760 
#    y -0.029260 1.929520 0.024770 
#    z 0.023760 0.024770 1.919560 
# 
# From -- ./inp_files/554904.got.cif
#   From: 2010.06.25/outbox.cif.g09.slc.cpg/sg2_278_cif.got.tgz:554904.got - 2010.06.27 13:26:56.
