data_PCOD8004230
_publ_section_title
;
Structure prediction by ZEFSAII (Michael W. Deem and Ramdas Pophale) SiO2 
 PCOD8004230
Probable space group: P -1
;
_chemical_formula_sum "Si O2"
_cell_formula_units_Z 12
_cell_length_a 5.162098
_cell_length_b 15.649943
_cell_length_c 10.971902
_cell_angle_alpha 123.854091
_cell_angle_beta 87.561749
_cell_angle_gamma 66.084622
_cell_volume 629.455102
_symmetry_space_group_name_H-M "P -1"
_symmetry_group_IT_number 2
_symmetry_cell_setting 'triclinic'
loop_
_space_group_symop_operation_xyz
x,y,z
-x,-y,-z
loop_
_atom_site_type_symbol
_atom_site_label
_atom_site_fract_x
_atom_site_fract_y
_atom_site_fract_z
Si Si1 0.083310 0.644938 0.058392
Si Si2 0.240184 0.479822 0.139821
Si Si3 0.802704 0.184286 0.143944
Si Si4 0.183265 0.998890 0.168184
Si Si5 0.170271 0.112931 0.852335
Si Si6 0.686401 0.544215 0.606192
O O1 0.420909 0.606310 0.982736
O O2 0.942556 0.589355 0.925565
O O3 0.076132 0.602992 0.162996
O O4 0.887083 0.790064 0.173847
O O5 0.242664 0.513440 0.306545
O O6 0.503053 0.312072 0.269046
O O7 0.704108 0.090826 0.023397
O O8 0.977950 0.135231 0.230707
O O9 0.027140 0.188585 0.041494
O O10 0.472433 0.982441 0.220517
O O11 0.989256 0.964030 0.234743
O O12 0.500000 0.500000 0.500000
O O13 0.000000 0.500000 0.500000
#
# Coordination Sequence:
#
# PCOD8004230 Si02
#       6
#     2   2   2   2   2   2
#     4  10  18  31  58  73 104 132 165 241 259 300
#     4  10  20  35  48  77 101 140 183 204 266 302
#     4   9  20  32  49  73 107 128 178 205 263 308
#     4   9  19  28  53  73 104 127 160 232 261 303
#     4  10  16  29  49  79  97 124 157 215 284 296
#     4  12  25  35  52  74 112 155 171 201 248 327
#
# _framework density 19.064108000000001
#
# number of rings (size 3 to 8) (size 9 to 14) (size 15 to 20)
#    1.000    1.000    1.667    3.500    2.333    0.000 
#    0.000    0.000    0.000    0.000    0.000    7.000 
#    0.000    0.000    0.000    0.000    0.000    0.000 
#
# Total GULP energy -148739.263255 kJ/mol
# GULP energy per Si atom -12394.938605 kJ/mol
# Density = 1.902072 g / cm^3
# Si number density = 19.064108 Si / 1000 Ang^3
#
#
#
# Elastic Constant Matrix: (Units=GPa)
#
#
# Indices 1 2 3 4 5 6 
#
# 1 111.1085 30.9910 17.1187 -0.8842 -11.2533 -12.0363
# 2 30.9910 127.1126 24.6709 -11.2222 -6.3345 -6.3093
# 3 17.1187 24.6709 44.6360 -9.4721 -0.0281 -4.6057
# 4 -0.8842 -11.2222 -9.4721 23.0689 -6.4245 -0.5482
# 5 -11.2533 -6.3345 -0.0281 -6.4245 20.6083 -0.7024
# 6 -12.0363 -6.3093 -4.6057 -0.5482 -0.7024 27.2063
#
#
#
# Elastic Compliance Matrix: (Units=1/GPa)
#
#
# Indices 1 2 3 4 5 6 
#
# 1 0.010905 -0.001611 -0.002834 0.000139 0.005639 0.004119
# 2 -0.001611 0.009551 -0.003698 0.004021 0.003340 0.001043
# 3 -0.002834 -0.003698 0.027894 0.009749 0.000489 0.002820
# 4 0.000139 0.004021 0.009749 0.054559 0.018478 0.004221
# 5 0.005639 0.003340 0.000489 0.018478 0.058570 0.005237
# 6 0.004119 0.001043 0.002820 0.004221 0.005237 0.039518
#
#
# Mechanical properties :
#
#
# Convention : Reuss Voigt Hill
#
# Bulk Modulus (GPa) = 31.18689 47.60202 39.39446
# Shear Modulus (GPa) = 21.93271 28.18179 25.05725
#
# Velocity S-wave (km/s) = 3.39554 3.84899 3.62935
# Velocity P-wave (km/s) = 5.63626 6.69153 6.18644
#
# Compressibility (1/GPa) = 0.03206475
#
# Stress axis : x y z
#
# Youngs Moduli (GPa) = 91.70417 104.70384 35.84964
#
# Poissons Ratio (x) = 0.16866 0.10158
# Poissons Ratio (y) = 0.14772 0.13257
# Poissons Ratio (z) = 0.25985 0.38719
#
# Static dielectric constant tensor:
#      x y z
#    x 3.477980 -0.075340 -0.068440 
#    y -0.075340 3.750550 -0.098950 
#    z -0.068440 -0.098950 2.864160 
# 
# 
# High freq. dielectric constant tensor:
#      x y z
#    x 1.754360 -0.005420 -0.012390 
#    y -0.005420 1.762140 -0.001310 
#    z -0.012390 -0.001310 1.659630 
# 
# From -- ./inp_files/34492.got.cif
#   From: 2010.06.25/outbox.cif.g09.slc.cpg/sg2_18_cif.got.tgz:34492.got - 2010.06.27 13:26:56.
