data_PCOD8004599
_publ_section_title
;
Structure prediction by ZEFSAII (Michael W. Deem and Ramdas Pophale) SiO2 
 PCOD8004599
Probable space group: P -1
;
_chemical_formula_sum "Si O2"
_cell_formula_units_Z 16
_cell_length_a 12.168714
_cell_length_b 9.985948
_cell_length_c 22.269603
_cell_angle_alpha 144.842394
_cell_angle_beta 143.755405
_cell_angle_gamma 63.414844
_cell_volume 721.205773
_symmetry_space_group_name_H-M "P -1"
_symmetry_group_IT_number 2
_symmetry_cell_setting 'triclinic'
loop_
_space_group_symop_operation_xyz
x,y,z
-x,-y,-z
loop_
_atom_site_type_symbol
_atom_site_label
_atom_site_fract_x
_atom_site_fract_y
_atom_site_fract_z
Si Si1 0.576859 0.940864 0.950669
Si Si2 0.129846 0.225781 0.694657
Si Si3 0.059248 0.450368 0.286143
Si Si4 0.465892 0.076681 0.268354
Si Si5 0.711933 0.069361 0.734417
Si Si6 0.583705 0.853238 0.135338
Si Si7 0.240253 0.413633 0.111172
Si Si8 0.298146 0.409455 0.271658
O O1 0.584322 0.665378 0.858132
O O2 0.384879 0.895841 0.801582
O O3 0.500000 0.000000 0.000000
O O4 0.836581 0.217808 0.144227
O O5 0.164831 0.079373 0.713900
O O6 0.968714 0.321461 0.675527
O O7 0.394977 0.524571 0.902823
O O8 0.000000 0.000000 0.500000
O O9 0.279414 0.623423 0.491156
O O10 0.096347 0.297944 0.192367
O O11 0.347405 0.174276 0.208482
O O12 0.310221 0.902705 0.194272
O O13 0.483606 0.855238 0.156928
O O14 0.644968 0.257374 0.740493
O O15 0.534897 0.735011 0.511369
O O16 0.979887 0.188136 0.883144
O O17 0.206248 0.405162 0.164347
#
# Coordination Sequence:
#
# PCOD8004599 Si02
#       8
#     2   2   2   2   2   2   2   2
#     4  11  24  44  63  91 131 177 218 268 324 384
#     4  10  20  38  60  89 129 157 206 270 308 368
#     4  10  22  39  68  96 125 168 217 266 322 383
#     4  11  20  40  70  97 129 162 218 271 319 382
#     4  10  24  39  63 102 131 167 206 268 329 382
#     4  10  22  38  64  91 120 170 219 259 315 383
#     4  11  23  42  66  91 135 171 210 260 328 390
#     4  11  22  41  69  98 128 166 215 269 320 382
#
# _framework density 22.185068999999999
#
# number of rings (size 3 to 8) (size 9 to 14) (size 15 to 20)
#    0.000    1.500    2.500    3.375    3.500    4.000 
#    2.250    0.625    2.750    0.000    0.000    0.000 
#    0.000    0.000    0.000    0.000    0.000    0.000 
#
# Total GULP energy -198317.333471 kJ/mol
# GULP energy per Si atom -12394.833342 kJ/mol
# Density = 2.213458 g / cm^3
# Si number density = 22.185069 Si / 1000 Ang^3
#
#
#
# Elastic Constant Matrix: (Units=GPa)
#
#
# Indices 1 2 3 4 5 6 
#
# 1 93.6446 27.0482 17.1506 4.0226 -7.5165 -1.4554
# 2 27.0482 172.3872 19.7076 -9.8579 -1.5736 -10.3204
# 3 17.1506 19.7076 64.3926 -8.5290 -4.8198 3.4705
# 4 4.0226 -9.8579 -8.5290 31.6049 3.0851 -0.5701
# 5 -7.5165 -1.5736 -4.8198 3.0851 28.1392 1.3624
# 6 -1.4554 -10.3204 3.4705 -0.5701 1.3624 36.1268
#
#
#
# Elastic Compliance Matrix: (Units=1/GPa)
#
#
# Indices 1 2 3 4 5 6 
#
# 1 0.012078 -0.001710 -0.002893 -0.003139 0.002974 0.000114
# 2 -0.001710 0.006454 -0.001416 0.001947 -0.000647 0.001966
# 3 -0.002893 -0.001416 0.017576 0.004456 0.001777 -0.002206
# 4 -0.003139 0.001947 0.004456 0.034229 -0.003752 0.000683
# 5 0.002974 -0.000647 0.001777 -0.003752 0.037094 -0.001694
# 6 0.000114 0.001966 -0.002206 0.000683 -0.001694 0.028533
#
#
# Mechanical properties :
#
#
# Convention : Reuss Voigt Hill
#
# Bulk Modulus (GPa) = 41.54649 50.91524 46.23087
# Shear Modulus (GPa) = 32.04618 36.94204 34.49411
#
# Velocity S-wave (km/s) = 3.80477 4.08508 3.94742
# Velocity P-wave (km/s) = 6.17006 6.72686 6.45446
#
# Compressibility (1/GPa) = 0.02406942
#
# Stress axis : x y z
#
# Youngs Moduli (GPa) = 82.79731 154.93664 56.89615
#
# Poissons Ratio (x) = 0.26492 0.16460
# Poissons Ratio (y) = 0.14157 0.08059
# Poissons Ratio (z) = 0.23953 0.21946
#
# Static dielectric constant tensor:
#      x y z
#    x 3.844240 -0.306940 -0.093880 
#    y -0.306940 4.609660 -0.180150 
#    z -0.093880 -0.180150 3.891820 
# 
# 
# High freq. dielectric constant tensor:
#      x y z
#    x 1.849060 -0.020660 -0.015890 
#    y -0.020660 1.899630 -0.014370 
#    z -0.015890 -0.014370 1.866030 
# 
# From -- ./inp_files/594267.got.cif
#   From: 2010.06.25/outbox.cif.g09.slc.cpg/sg2_298_cif.got.tgz:594267.got - 2010.06.27 13:26:56.
