data_PCOD8004198
_publ_section_title
;
Structure prediction by ZEFSAII (Michael W. Deem and Ramdas Pophale) SiO2 
 PCOD8004198
Probable space group: P -1
;
_chemical_formula_sum "Si O2"
_cell_formula_units_Z 16
_cell_length_a 17.700545
_cell_length_b 13.819406
_cell_length_c 23.314655
_cell_angle_alpha 157.694927
_cell_angle_beta 160.221867
_cell_angle_gamma 32.130786
_cell_volume 719.777937
_symmetry_space_group_name_H-M "P -1"
_symmetry_group_IT_number 2
_symmetry_cell_setting 'triclinic'
loop_
_space_group_symop_operation_xyz
x,y,z
-x,-y,-z
loop_
_atom_site_type_symbol
_atom_site_label
_atom_site_fract_x
_atom_site_fract_y
_atom_site_fract_z
Si Si1 0.899771 0.937560 0.332645
Si Si2 0.003102 0.741433 0.729646
Si Si3 0.011624 0.169884 0.418041
Si Si4 0.590872 0.681091 0.488107
Si Si5 0.152725 0.883372 0.266228
Si Si6 0.844927 0.457889 0.747347
Si Si7 0.462187 0.083019 0.081988
Si Si8 0.636416 0.833691 0.727385
O O1 0.942890 0.659789 0.190048
O O2 0.640890 0.949396 0.171044
O O3 0.000000 0.000000 0.500000
O O4 0.990146 0.135133 0.452717
O O5 0.809355 0.680292 0.605416
O O6 0.072041 0.472175 0.611366
O O7 0.889213 0.882508 0.675737
O O8 0.242371 0.898762 0.010439
O O9 0.177822 0.994911 0.411227
O O10 0.790418 0.051591 0.156389
O O11 0.391991 0.793723 0.374654
O O12 0.493946 0.390635 0.281931
O O13 0.676561 0.854823 0.699813
O O14 0.944425 0.639561 0.972013
O O15 0.761204 0.612955 0.720533
O O16 0.634790 0.231340 0.490286
O O17 0.500000 0.000000 0.000000
#
# Coordination Sequence:
#
# PCOD8004198 Si02
#       8
#     2   2   2   2   2   2   2   2
#     4  11  22  38  63  98 126 160 209 266 316 373
#     4  11  24  42  63  89 136 171 209 249 322 385
#     4  11  23  43  65  94 130 167 208 262 321 376
#     4  12  21  41  66  93 127 163 216 265 314 373
#     4  11  24  41  68  97 123 168 217 266 309 371
#     4  10  22  41  66  95 127 161 223 263 309 375
#     4  10  20  37  65  91 123 162 204 266 317 359
#     4  10  23  41  64  92 127 176 205 259 321 376
#
# _framework density 22.229078999999999
#
# number of rings (size 3 to 8) (size 9 to 14) (size 15 to 20)
#    0.000    1.250    2.500    4.875    0.000    3.500 
#    0.000    2.500    0.000    0.000    0.000    0.000 
#    0.000    0.000    0.000    0.000    0.000    0.000 
#
# Total GULP energy -198244.402274 kJ/mol
# GULP energy per Si atom -12390.275142 kJ/mol
# Density = 2.217848 g / cm^3
# Si number density = 22.229079 Si / 1000 Ang^3
#
#
#
# Elastic Constant Matrix: (Units=GPa)
#
#
# Indices 1 2 3 4 5 6 
#
# 1 67.0543 20.9682 40.2025 0.1108 -17.7974 -1.4216
# 2 20.9682 120.9996 51.2832 7.2633 -9.2154 -3.8158
# 3 40.2025 51.2832 123.7804 16.0677 -3.9856 8.4423
# 4 0.1108 7.2633 16.0677 32.4986 1.5590 -10.1173
# 5 -17.7974 -9.2154 -3.9856 1.5590 35.1527 -5.4012
# 6 -1.4216 -3.8158 8.4423 -10.1173 -5.4012 27.7389
#
#
#
# Elastic Compliance Matrix: (Units=1/GPa)
#
#
# Indices 1 2 3 4 5 6 
#
# 1 0.023408 0.000490 -0.008816 0.006262 0.012020 0.008575
# 2 0.000490 0.010514 -0.004832 0.001118 0.003012 0.003936
# 3 -0.008816 -0.004832 0.014605 -0.008921 -0.005188 -0.009826
# 4 0.006262 0.001118 -0.008921 0.040552 0.003522 0.018666
# 5 0.012020 0.003012 -0.005188 0.003522 0.036261 0.010955
# 6 0.008575 0.003936 -0.009826 0.018666 0.010955 0.048963
#
#
# Mechanical properties :
#
#
# Convention : Reuss Voigt Hill
#
# Bulk Modulus (GPa) = 45.02342 59.63800 52.33071
# Shear Modulus (GPa) = 24.03592 32.37006 28.20299
#
# Velocity S-wave (km/s) = 3.29185 3.82016 3.56581
# Velocity P-wave (km/s) = 5.89463 6.80774 6.36757
#
# Compressibility (1/GPa) = 0.02221066
#
# Stress axis : x y z
#
# Youngs Moduli (GPa) = 42.72131 95.11305 68.46863
#
# Poissons Ratio (x) = -0.04662 0.60364
# Poissons Ratio (y) = -0.02094 0.33083
# Poissons Ratio (z) = 0.37664 0.45957
#
# Static dielectric constant tensor:
#      x y z
#    x 4.342590 -1.259680 1.152660 
#    y -1.259680 7.229030 -3.208230 
#    z 1.152660 -3.208230 7.280800 
# 
# 
# High freq. dielectric constant tensor:
#      x y z
#    x 1.866080 -0.005520 -0.017860 
#    y -0.005520 1.893720 -0.006920 
#    z -0.017860 -0.006920 1.865890 
# 
# From -- ./inp_files/260392.got.cif
#   From: 2010.06.25/outbox.cif.g09.slc.cpg/sg2_131_cif.got.tgz:260392.got - 2010.06.27 13:26:56.
