data_PCOD8004286
_publ_section_title
;
Structure prediction by ZEFSAII (Michael W. Deem and Ramdas Pophale) SiO2 
 PCOD8004286
Probable space group: P -1
;
_chemical_formula_sum "Si O2"
_cell_formula_units_Z 16
_cell_length_a 11.588816
_cell_length_b 18.167382
_cell_length_c 23.919806
_cell_angle_alpha 19.801842
_cell_angle_beta 151.096649
_cell_angle_gamma 151.891947
_cell_volume 770.380004
_symmetry_space_group_name_H-M "P -1"
_symmetry_group_IT_number 2
_symmetry_cell_setting 'triclinic'
loop_
_space_group_symop_operation_xyz
x,y,z
-x,-y,-z
loop_
_atom_site_type_symbol
_atom_site_label
_atom_site_fract_x
_atom_site_fract_y
_atom_site_fract_z
Si Si1 0.517537 0.202578 0.904989
Si Si2 0.524914 0.752125 0.756461
Si Si3 0.900099 0.143092 0.564778
Si Si4 0.565524 0.855952 0.375439
Si Si5 0.551332 0.843933 0.250760
Si Si6 0.856049 0.551371 0.453463
Si Si7 0.589530 0.297006 0.136151
Si Si8 0.843538 0.534101 0.726725
O O1 0.260554 0.258126 0.752160
O O2 0.760652 0.426998 0.830227
O O3 0.500000 0.000000 0.000000
O O4 0.545564 0.099282 0.050884
O O5 0.274655 0.805359 0.593699
O O6 0.579533 0.822614 0.795374
O O7 0.760581 0.896872 0.713100
O O8 0.483115 0.477246 0.930966
O O9 0.162664 0.152044 0.641055
O O10 0.949773 0.344466 0.487949
O O11 0.465811 0.814138 0.299712
O O12 0.355772 0.687563 0.447228
O O13 0.819996 0.789009 0.533733
O O14 0.617647 0.117100 0.231033
O O15 0.349015 0.631206 0.282887
O O16 0.000000 0.500000 0.500000
O O17 0.866914 0.443002 0.176423
#
# Coordination Sequence:
#
# PCOD8004286 Si02
#       8
#     2   2   2   2   2   2   2   2
#     4   9  18  37  60  96 116 160 217 254 307 369
#     4  10  25  40  64  87 125 178 202 257 315 389
#     4  11  21  43  65  89 123 165 224 253 312 380
#     4  11  23  39  60 100 127 159 208 265 326 363
#     4  11  21  38  70  97 118 161 222 269 306 365
#     4  11  23  39  64  89 134 167 207 261 320 378
#     4  11  23  42  60  92 132 162 212 249 326 383
#     4  10  20  37  67  89 123 166 209 257 314 373
#
# _framework density 20.768969999999999
#
# number of rings (size 3 to 8) (size 9 to 14) (size 15 to 20)
#    0.000    1.500    3.750    3.000    3.500    1.000 
#    0.000    6.250    0.000    0.000    0.000    0.000 
#    0.000    0.000    0.000    0.000    0.000    0.000 
#
# Total GULP energy -198323.262726 kJ/mol
# GULP energy per Si atom -12395.203920 kJ/mol
# Density = 2.072170 g / cm^3
# Si number density = 20.768970 Si / 1000 Ang^3
#
#
#
# Elastic Constant Matrix: (Units=GPa)
#
#
# Indices 1 2 3 4 5 6 
#
# 1 112.7150 26.2291 51.9192 2.0485 4.0109 -4.9789
# 2 26.2291 66.6256 31.4871 0.1974 5.8552 2.4821
# 3 51.9192 31.4871 135.7062 -6.9427 -3.9987 -4.2681
# 4 2.0485 0.1974 -6.9427 22.3897 -3.4220 7.7428
# 5 4.0109 5.8552 -3.9987 -3.4220 30.3914 -2.5846
# 6 -4.9789 2.4821 -4.2681 7.7428 -2.5846 23.6519
#
#
#
# Elastic Compliance Matrix: (Units=1/GPa)
#
#
# Indices 1 2 3 4 5 6 
#
# 1 0.011560 -0.002637 -0.003948 -0.003544 -0.001683 0.002974
# 2 -0.002637 0.018149 -0.003446 -0.000422 -0.003936 -0.003373
# 3 -0.003948 -0.003446 0.009973 0.003794 0.002959 0.000412
# 4 -0.003544 -0.000422 0.003794 0.052791 0.005573 -0.016690
# 5 -0.001683 -0.003936 0.002959 0.005573 0.035123 0.002606
# 6 0.002974 -0.003373 0.000412 -0.016690 0.002606 0.049083
#
#
# Mechanical properties :
#
#
# Convention : Reuss Voigt Hill
#
# Bulk Modulus (GPa) = 50.96961 59.36861 55.16911
# Shear Modulus (GPa) = 24.59648 28.98070 26.78859
#
# Velocity S-wave (km/s) = 3.44508 3.73954 3.59533
# Velocity P-wave (km/s) = 6.35762 6.87698 6.62239
#
# Compressibility (1/GPa) = 0.01961953
#
# Stress axis : x y z
#
# Youngs Moduli (GPa) = 86.50560 55.10017 100.27029
#
# Poissons Ratio (x) = 0.14532 0.39588
# Poissons Ratio (y) = 0.22815 0.34549
# Poissons Ratio (z) = 0.34153 0.18985
#
# Static dielectric constant tensor:
#      x y z
#    x 3.886620 0.133560 -0.409110 
#    y 0.133560 3.497450 -0.001420 
#    z -0.409110 -0.001420 4.319630 
# 
# 
# High freq. dielectric constant tensor:
#      x y z
#    x 1.816040 0.013620 -0.010480 
#    y 0.013620 1.785780 0.000560 
#    z -0.010480 0.000560 1.830630 
# 
# From -- ./inp_files/571052.got.cif
#   From: 2010.06.25/outbox.cif.g09.slc.cpg/sg2_286_cif.got.tgz:571052.got - 2010.06.27 13:26:56.
