data_PCOD8004237
_publ_section_title
;
Structure prediction by ZEFSAII (Michael W. Deem and Ramdas Pophale) SiO2 
 PCOD8004237
Probable space group: P -1
;
_chemical_formula_sum "Si O2"
_cell_formula_units_Z 16
_cell_length_a 9.632111
_cell_length_b 13.822191
_cell_length_c 19.634664
_cell_angle_alpha 155.975940
_cell_angle_beta 85.846111
_cell_angle_gamma 78.925531
_cell_volume 819.120379
_symmetry_space_group_name_H-M "P -1"
_symmetry_group_IT_number 2
_symmetry_cell_setting 'triclinic'
loop_
_space_group_symop_operation_xyz
x,y,z
-x,-y,-z
loop_
_atom_site_type_symbol
_atom_site_label
_atom_site_fract_x
_atom_site_fract_y
_atom_site_fract_z
Si Si1 0.592735 0.337343 0.066590
Si Si2 0.303815 0.716439 0.117537
Si Si3 0.510958 0.294989 0.566567
Si Si4 0.197487 0.337184 0.913885
Si Si5 0.111369 0.320703 0.313539
Si Si6 0.437677 0.041326 0.838280
Si Si7 0.240947 0.317503 0.508806
Si Si8 0.569183 0.730233 0.770977
O O1 0.691167 0.343305 0.001917
O O2 0.497878 0.638699 0.310304
O O3 0.438336 0.318429 0.037002
O O4 0.742675 0.043673 0.917812
O O5 0.197618 0.621549 0.096589
O O6 0.500000 0.500000 0.000000
O O7 0.218332 0.062109 0.361651
O O8 0.318031 0.389478 0.614180
O O9 0.555680 0.480599 0.640211
O O10 0.664252 0.930330 0.316376
O O11 0.260499 0.180771 0.887271
O O12 0.000000 0.500000 0.000000
O O13 0.220673 0.438077 0.361033
O O14 0.000000 0.500000 0.500000
O O15 0.964424 0.380162 0.303504
O O16 0.623098 0.794496 0.631563
O O17 0.445867 0.872488 0.797752
O O18 0.500000 0.000000 0.000000
#
# Coordination Sequence:
#
# PCOD8004237 Si02
#       8
#     2   2   2   2   2   2   2   2
#     4  10  20  37  66  86 120 158 202 249 308 364
#     4  11  19  41  64  80 111 171 203 240 304 361
#     4  11  23  40  60  93 126 154 203 261 312 359
#     4  11  25  41  60  90 121 157 217 259 290 366
#     4  11  19  38  63  92 118 160 211 240 294 385
#     4   9  18  40  61  83 124 160 199 242 311 364
#     4  10  21  37  61  91 121 157 207 251 297 362
#     4  11  21  38  64  92 124 166 190 250 330 364
#
# _framework density 19.533149000000002
#
# number of rings (size 3 to 8) (size 9 to 14) (size 15 to 20)
#    0.000    1.500   10.000    0.000    1.750    3.000 
#    2.250    0.625    0.000    0.000    0.000    0.000 
#    0.000    0.000    0.000    0.000    0.000    0.000 
#
# Total GULP energy -198270.456536 kJ/mol
# GULP energy per Si atom -12391.903533 kJ/mol
# Density = 1.948869 g / cm^3
# Si number density = 19.533149 Si / 1000 Ang^3
#
#
#
# Elastic Constant Matrix: (Units=GPa)
#
#
# Indices 1 2 3 4 5 6 
#
# 1 123.9117 35.6316 20.4075 7.4782 -5.8251 -26.3266
# 2 35.6316 70.8231 9.2578 2.7835 -0.0338 -15.7597
# 3 20.4075 9.2578 59.2878 -7.1067 6.5515 -10.1859
# 4 7.4782 2.7835 -7.1067 32.5165 -5.9443 2.8064
# 5 -5.8251 -0.0338 6.5515 -5.9443 26.6087 10.5396
# 6 -26.3266 -15.7597 -10.1859 2.8064 10.5396 43.7504
#
#
#
# Elastic Compliance Matrix: (Units=1/GPa)
#
#
# Indices 1 2 3 4 5 6 
#
# 1 0.010834 -0.003968 -0.002765 -0.003037 0.000587 0.004499
# 2 -0.003968 0.017237 -0.000419 -0.001572 -0.002885 0.004520
# 3 -0.002765 -0.000419 0.019693 0.003476 -0.006287 0.004062
# 4 -0.003037 -0.001572 0.003476 0.034398 0.008472 -0.005832
# 5 0.000587 -0.002885 -0.006287 0.008472 0.046667 -0.013935
# 6 0.004499 0.004520 0.004062 -0.005832 -0.013935 0.031869
#
#
# Mechanical properties :
#
#
# Convention : Reuss Voigt Hill
#
# Bulk Modulus (GPa) = 29.88704 42.73516 36.31110
# Shear Modulus (GPa) = 26.85919 33.15682 30.00801
#
# Velocity S-wave (km/s) = 3.71220 4.12450 3.92377
# Velocity P-wave (km/s) = 5.80584 6.67890 6.25762
#
# Compressibility (1/GPa) = 0.03345932
#
# Stress axis : x y z
#
# Youngs Moduli (GPa) = 92.30557 58.01489 50.77862
#
# Poissons Ratio (x) = 0.23021 0.14042
# Poissons Ratio (y) = 0.36628 0.02127
# Poissons Ratio (z) = 0.25526 0.02430
#
# Static dielectric constant tensor:
#      x y z
#    x 3.597040 -0.310090 0.088240 
#    y -0.310090 3.832850 0.035980 
#    z 0.088240 0.035980 3.391050 
# 
# 
# High freq. dielectric constant tensor:
#      x y z
#    x 1.750330 -0.013320 0.012440 
#    y -0.013320 1.761230 0.003410 
#    z 0.012440 0.003410 1.744000 
# 
# From -- ./inp_files/351652.got.cif
#   From: 2010.06.25/outbox.cif.g09.slc.cpg/sg2_176_cif.got.tgz:351652.got - 2010.06.27 13:26:56.
