data_PCOD8004666
_publ_section_title
;
Structure prediction by ZEFSAII (Michael W. Deem and Ramdas Pophale) SiO2 
 PCOD8004666
Probable space group: P -1
;
_chemical_formula_sum "Si O2"
_cell_formula_units_Z 16
_cell_length_a 15.643899
_cell_length_b 18.828548
_cell_length_c 11.984170
_cell_angle_alpha 28.241983
_cell_angle_beta 134.855468
_cell_angle_gamma 152.083791
_cell_volume 738.205619
_symmetry_space_group_name_H-M "P -1"
_symmetry_group_IT_number 2
_symmetry_cell_setting 'triclinic'
loop_
_space_group_symop_operation_xyz
x,y,z
-x,-y,-z
loop_
_atom_site_type_symbol
_atom_site_label
_atom_site_fract_x
_atom_site_fract_y
_atom_site_fract_z
Si Si1 0.190556 0.828566 0.005198
Si Si2 0.568942 0.696999 0.534830
Si Si3 0.789325 0.480920 0.483643
Si Si4 0.706245 0.775620 0.784608
Si Si5 0.101989 0.531829 0.941103
Si Si6 0.156585 0.399288 0.875440
Si Si7 0.594396 0.371144 0.994763
Si Si8 0.202957 0.912060 0.367114
O O1 0.353613 0.115117 0.749468
O O2 0.275573 0.743774 0.215797
O O3 0.067796 0.720395 0.928726
O O4 0.052974 0.732711 0.115216
O O5 0.344207 0.517693 0.591752
O O6 0.686850 0.844255 0.554528
O O7 0.590333 0.545359 0.726627
O O8 0.758099 0.440134 0.378620
O O9 0.006244 0.740679 0.354238
O O10 0.774192 0.942378 0.717788
O O11 0.500000 0.500000 0.000000
O O12 0.867382 0.802667 0.884593
O O13 0.280167 0.586524 0.048184
O O14 0.198070 0.748876 0.649618
O O15 0.000000 0.500000 0.000000
O O16 0.304396 0.571953 0.873532
O O17 0.377665 0.093713 0.187281
#
# Coordination Sequence:
#
# PCOD8004666 Si02
#       8
#     2   2   2   2   2   2   2   2
#     4  10  23  38  59  89 120 164 201 243 296 353
#     4  11  21  39  63  87 121 159 205 247 286 357
#     4  11  22  38  60  89 125 161 198 243 298 353
#     4  11  19  37  63  92 113 155 199 245 296 349
#     4  10  22  38  59  90 122 156 194 253 306 348
#     4  10  20  38  61  87 119 156 207 243 288 356
#     4  10  21  39  63  90 116 155 206 246 297 347
#     4  11  21  37  60  91 124 153 197 247 300 354
#
# _framework density 21.674177
#
# number of rings (size 3 to 8) (size 9 to 14) (size 15 to 20)
#    0.000    1.500    3.750    1.875    0.000    7.500 
#    0.000    3.750    0.000    4.500    0.000    0.000 
#    0.000    0.000    0.000    0.000    0.000    0.000 
#
# Total GULP energy -198339.232470 kJ/mol
# GULP energy per Si atom -12396.202029 kJ/mol
# Density = 2.162485 g / cm^3
# Si number density = 21.674177 Si / 1000 Ang^3
#
#
#
# Elastic Constant Matrix: (Units=GPa)
#
#
# Indices 1 2 3 4 5 6 
#
# 1 152.6239 36.4484 41.6012 -2.9017 9.8790 33.3244
# 2 36.4484 65.7465 41.7740 2.4807 7.1201 16.7155
# 3 41.6012 41.7740 114.7540 -7.4954 -0.3670 13.6646
# 4 -2.9017 2.4807 -7.4954 24.4429 4.4323 8.7503
# 5 9.8790 7.1201 -0.3670 4.4323 30.4308 2.3813
# 6 33.3244 16.7155 13.6646 8.7503 2.3813 24.5591
#
#
#
# Elastic Compliance Matrix: (Units=1/GPa)
#
#
# Indices 1 2 3 4 5 6 
#
# 1 0.010907 -0.001288 -0.001177 0.007183 -0.003085 -0.015529
# 2 -0.001288 0.023235 -0.006875 -0.000371 -0.004289 -0.009693
# 3 -0.001177 -0.006875 0.012261 0.004901 0.001616 -0.002448
# 4 0.007183 -0.000371 0.004901 0.055976 -0.007882 -0.031401
# 5 -0.003085 -0.004289 0.001616 -0.007882 0.035599 0.005562
# 6 -0.015529 -0.009693 -0.002448 -0.031401 0.005562 0.080398
#
#
# Mechanical properties :
#
#
# Convention : Reuss Voigt Hill
#
# Bulk Modulus (GPa) = 36.07069 63.64129 49.85599
# Shear Modulus (GPa) = 20.30075 30.10660 25.20368
#
# Velocity S-wave (km/s) = 3.06377 3.73104 3.41375
# Velocity P-wave (km/s) = 5.40314 6.92729 6.21214
#
# Compressibility (1/GPa) = 0.02772334
#
# Stress axis : x y z
#
# Youngs Moduli (GPa) = 91.68143 43.03832 81.56244
#
# Poissons Ratio (x) = 0.05543 0.09599
# Poissons Ratio (y) = 0.11807 0.56075
# Poissons Ratio (z) = 0.10790 0.29589
#
# Static dielectric constant tensor:
#      x y z
#    x 4.607680 -0.078900 0.454290 
#    y -0.078900 3.995390 -0.221970 
#    z 0.454290 -0.221970 4.187680 
# 
# 
# High freq. dielectric constant tensor:
#      x y z
#    x 1.861350 0.018680 0.007820 
#    y 0.018680 1.827410 0.004160 
#    z 0.007820 0.004160 1.850340 
# 
# From -- ./inp_files/419751.got.cif
#   From: 2010.06.25/outbox.cif.g09.slc.cpg/sg2_210_cif.got.tgz:419751.got - 2010.06.27 13:26:56.
