data_PCOD8004892
_publ_section_title
;
Structure prediction by ZEFSAII (Michael W. Deem and Ramdas Pophale) SiO2 
 PCOD8004892
Probable space group: P -1
;
_chemical_formula_sum "Si O2"
_cell_formula_units_Z 16
_cell_length_a 11.230569
_cell_length_b 18.727805
_cell_length_c 8.802239
_cell_angle_alpha 111.529634
_cell_angle_beta 137.688752
_cell_angle_gamma 40.857320
_cell_volume 733.389319
_symmetry_space_group_name_H-M "P -1"
_symmetry_group_IT_number 2
_symmetry_cell_setting 'triclinic'
loop_
_space_group_symop_operation_xyz
x,y,z
-x,-y,-z
loop_
_atom_site_type_symbol
_atom_site_label
_atom_site_fract_x
_atom_site_fract_y
_atom_site_fract_z
Si Si1 0.453179 0.346724 0.738044
Si Si2 0.244819 0.375454 0.048358
Si Si3 0.267835 0.733712 0.374185
Si Si4 0.111954 0.527032 0.792687
Si Si5 0.272679 0.990684 0.917142
Si Si6 0.069055 0.296342 0.995144
Si Si7 0.402303 0.971064 0.680726
Si Si8 0.112036 0.909958 0.901350
O O1 0.556216 0.342952 0.670732
O O2 0.335899 0.459347 0.813247
O O3 0.199794 0.372916 0.488890
O O4 0.696594 0.221850 0.958833
O O5 0.544085 0.300794 0.336903
O O6 0.194082 0.302686 0.976650
O O7 0.212529 0.411391 0.871462
O O8 0.000000 0.500000 0.000000
O O9 0.037018 0.875175 0.229765
O O10 0.123790 0.702762 0.265015
O O11 0.116603 0.593803 0.972304
O O12 0.303351 0.973693 0.752770
O O13 0.291712 0.900467 0.942930
O O14 0.511813 0.967872 0.188108
O O15 0.329302 0.169156 0.228367
O O16 0.152073 0.043831 0.385422
O O17 0.000000 0.000000 0.000000
#
# Coordination Sequence:
#
# PCOD8004892 Si02
#       8
#     2   2   2   2   2   2   2   2
#     4  11  23  41  59  91 126 163 201 249 299 371
#     4  10  20  38  63  86 117 157 207 255 290 353
#     4  11  21  40  64  90 125 154 206 250 303 364
#     4  10  23  42  61  85 126 162 206 251 300 352
#     4  10  23  42  63  96 124 159 203 258 305 368
#     4  10  21  39  67  88 117 162 198 255 304 350
#     4  10  23  42  65  94 126 155 208 256 306 364
#     4  12  23  39  67  92 124 168 201 246 318 368
#
# _framework density 21.816517000000001
#
# number of rings (size 3 to 8) (size 9 to 14) (size 15 to 20)
#    0.000    1.500    3.750    1.875    3.500    3.000 
#    2.250    0.000    0.000    0.000    0.000    0.000 
#    0.000    0.000    0.000    0.000    0.000    0.000 
#
# Total GULP energy -198359.790788 kJ/mol
# GULP energy per Si atom -12397.486924 kJ/mol
# Density = 2.176686 g / cm^3
# Si number density = 21.816517 Si / 1000 Ang^3
#
#
#
# Elastic Constant Matrix: (Units=GPa)
#
#
# Indices 1 2 3 4 5 6 
#
# 1 61.9356 11.3882 40.3413 -1.6997 8.6094 -3.5804
# 2 11.3882 57.6682 23.5006 -0.5575 5.3587 -5.7510
# 3 40.3413 23.5006 131.9512 -4.9323 6.0961 10.5923
# 4 -1.6997 -0.5575 -4.9323 24.5137 -1.2557 -0.7430
# 5 8.6094 5.3587 6.0961 -1.2557 29.0198 2.4548
# 6 -3.5804 -5.7510 10.5923 -0.7430 2.4548 39.2706
#
#
#
# Elastic Compliance Matrix: (Units=1/GPa)
#
#
# Indices 1 2 3 4 5 6 
#
# 1 0.021469 -0.000710 -0.006512 0.000015 -0.005202 0.003936
# 2 -0.000710 0.019556 -0.003453 -0.000335 -0.003021 0.003913
# 3 -0.006512 -0.003453 0.010523 0.001506 0.000759 -0.003957
# 4 0.000015 -0.000335 0.001506 0.041174 0.001503 0.000231
# 5 -0.005202 -0.003021 0.000759 0.001503 0.036753 -0.003390
# 6 0.003936 0.003913 -0.003957 0.000231 -0.003390 0.027680
#
#
# Mechanical properties :
#
#
# Convention : Reuss Voigt Hill
#
# Bulk Modulus (GPa) = 33.11482 44.66837 38.89160
# Shear Modulus (GPa) = 26.51524 30.31581 28.41553
#
# Velocity S-wave (km/s) = 3.49000 3.73175 3.61290
# Velocity P-wave (km/s) = 5.60820 6.25196 5.93881
#
# Compressibility (1/GPa) = 0.03019796
#
# Stress axis : x y z
#
# Youngs Moduli (GPa) = 46.57843 51.13644 95.02616
#
# Poissons Ratio (x) = 0.03630 0.61884
# Poissons Ratio (y) = 0.03306 0.32812
# Poissons Ratio (z) = 0.30333 0.17657
#
# Static dielectric constant tensor:
#      x y z
#    x 4.527390 0.203880 -0.047840 
#    y 0.203880 3.941470 -0.435040 
#    z -0.047840 -0.435040 3.766500 
# 
# 
# High freq. dielectric constant tensor:
#      x y z
#    x 1.850390 -0.013550 0.004480 
#    y -0.013550 1.860170 -0.009470 
#    z 0.004480 -0.009470 1.856020 
# 
# From -- ./inp_files/273055.got.cif
#   From: 2010.06.25/outbox.cif.g09.slc.cpg/sg2_137_cif.got.tgz:273055.got - 2010.06.27 13:26:56.
