data_PCOD8004590
_publ_section_title
;
Structure prediction by ZEFSAII (Michael W. Deem and Ramdas Pophale) SiO2 
 PCOD8004590
Probable space group: P -1
;
_chemical_formula_sum "Si O2"
_cell_formula_units_Z 16
_cell_length_a 9.189597
_cell_length_b 9.178864
_cell_length_c 17.234332
_cell_angle_alpha 88.857521
_cell_angle_beta 90.993727
_cell_angle_gamma 148.605917
_cell_volume 757.121703
_symmetry_space_group_name_H-M "P -1"
_symmetry_group_IT_number 2
_symmetry_cell_setting 'triclinic'
loop_
_space_group_symop_operation_xyz
x,y,z
-x,-y,-z
loop_
_atom_site_type_symbol
_atom_site_label
_atom_site_fract_x
_atom_site_fract_y
_atom_site_fract_z
Si Si1 0.789929 0.941775 0.375511
Si Si2 0.691131 0.528156 0.523896
Si Si3 0.649983 0.954186 0.728559
Si Si4 0.208203 0.397930 0.644618
Si Si5 0.803237 0.433560 0.869478
Si Si6 0.811509 0.105978 0.901287
Si Si7 0.361912 0.537148 0.986215
Si Si8 0.319132 0.950684 0.764837
O O1 0.493994 0.728657 0.416770
O O2 0.805509 0.787966 0.351428
O O3 0.830155 0.075251 0.299092
O O4 0.031483 0.180149 0.435880
O O5 0.500000 0.500000 0.500000
O O6 0.769771 0.517345 0.443554
O O7 0.480687 0.675956 0.692948
O O8 0.460718 0.935906 0.723185
O O9 0.734430 0.984000 0.816335
O O10 0.930123 0.227745 0.680642
O O11 0.788031 0.259528 0.907308
O O12 0.095886 0.700046 0.826177
O O13 0.550827 0.242859 0.809122
O O14 0.786720 0.539049 0.935320
O O15 0.125836 0.322976 0.920145
O O16 0.597273 0.854551 0.962950
O O17 0.500000 0.500000 0.000000
#
# Coordination Sequence:
#
# PCOD8004590 Si02
#       8
#     2   2   2   2   2   2   2   2
#     4  11  22  39  63  89 120 160 202 250 300 355
#     4  10  20  38  60  89 121 159 203 245 297 365
#     4  11  23  40  61  89 121 157 201 248 295 356
#     4  11  21  38  63  89 118 160 204 248 296 356
#     4  11  23  43  65  86 119 167 202 235 296 373
#     4  11  23  43  64  86 122 167 199 234 299 371
#     4  12  25  41  64  96 124 150 198 260 297 339
#     4  11  24  42  61  90 124 158 200 250 299 355
#
# _framework density 21.132667999999999
#
# number of rings (size 3 to 8) (size 9 to 14) (size 15 to 20)
#    0.000    1.000    0.000   10.125    0.000    3.000 
#    0.000    3.750    0.000    0.000    0.000    0.000 
#    0.000    0.000    0.000    0.000    0.000    0.000 
#
# Total GULP energy -198483.381186 kJ/mol
# GULP energy per Si atom -12405.211324 kJ/mol
# Density = 2.108457 g / cm^3
# Si number density = 21.132668 Si / 1000 Ang^3
#
#
#
# Elastic Constant Matrix: (Units=GPa)
#
#
# Indices 1 2 3 4 5 6 
#
# 1 82.8662 28.5862 54.7716 1.1809 3.0283 1.5323
# 2 28.5862 111.2550 37.3698 8.3550 -6.6175 12.3557
# 3 54.7716 37.3698 104.2205 9.1416 -10.3630 -5.6787
# 4 1.1809 8.3550 9.1416 59.8676 8.8927 -0.6085
# 5 3.0283 -6.6175 -10.3630 8.8927 33.0455 -2.3934
# 6 1.5323 12.3557 -5.6787 -0.6085 -2.3934 24.8673
#
#
#
# Elastic Compliance Matrix: (Units=1/GPa)
#
#
# Indices 1 2 3 4 5 6 
#
# 1 0.020259 -0.001656 -0.011119 0.002473 -0.006597 -0.003539
# 2 -0.001656 0.011392 -0.003310 -0.001308 0.001296 -0.006221
# 3 -0.011119 -0.003310 0.018012 -0.003089 0.007348 0.007075
# 4 0.002473 -0.001308 -0.003089 0.018255 -0.006397 -0.000377
# 5 -0.006597 0.001296 0.007348 -0.006397 0.035492 0.004700
# 6 -0.003539 -0.006221 0.007075 -0.000377 0.004700 0.045581
#
#
# Mechanical properties :
#
#
# Convention : Reuss Voigt Hill
#
# Bulk Modulus (GPa) = 57.16218 59.97744 58.56981
# Shear Modulus (GPa) = 26.73896 35.39702 31.06799
#
# Velocity S-wave (km/s) = 3.56095 4.09711 3.83840
# Velocity P-wave (km/s) = 6.63439 7.12914 6.88621
#
# Compressibility (1/GPa) = 0.01749409
#
# Stress axis : x y z
#
# Youngs Moduli (GPa) = 49.35962 87.78253 55.51710
#
# Poissons Ratio (x) = 0.14535 0.61730
# Poissons Ratio (y) = 0.08173 0.18376
# Poissons Ratio (z) = 0.54884 0.29055
#
# Static dielectric constant tensor:
#      x y z
#    x 3.579170 0.185170 -0.158890 
#    y 0.185170 4.201010 0.040150 
#    z -0.158890 0.040150 4.590360 
# 
# 
# High freq. dielectric constant tensor:
#      x y z
#    x 1.808200 0.016270 -0.004520 
#    y 0.016270 1.848770 0.001400 
#    z -0.004520 0.001400 1.843220 
# 
# From -- ./inp_files/217581.got.cif
#   From: 2010.06.25/outbox.cif.g09.slc.cpg/sg2_109_cif.got.tgz:217581.got - 2010.06.27 13:26:56.
