data_PCOD8004529
_publ_section_title
;
Structure prediction by ZEFSAII (Michael W. Deem and Ramdas Pophale) SiO2 
 PCOD8004529
Probable space group: P -1
;
_chemical_formula_sum "Si O2"
_cell_formula_units_Z 16
_cell_length_a 17.898987
_cell_length_b 17.782043
_cell_length_c 6.977701
_cell_angle_alpha 95.398061
_cell_angle_beta 92.947348
_cell_angle_gamma 158.743487
_cell_volume 739.679067
_symmetry_space_group_name_H-M "P -1"
_symmetry_group_IT_number 2
_symmetry_cell_setting 'triclinic'
loop_
_space_group_symop_operation_xyz
x,y,z
-x,-y,-z
loop_
_atom_site_type_symbol
_atom_site_label
_atom_site_fract_x
_atom_site_fract_y
_atom_site_fract_z
Si Si1 0.524643 0.112675 0.723923
Si Si2 0.256705 0.050387 0.956092
Si Si3 0.900891 0.713379 0.322683
Si Si4 0.559823 0.470401 0.984975
Si Si5 0.763716 0.586981 0.699651
Si Si6 0.635123 0.895100 0.441098
Si Si7 0.631210 0.307619 0.155595
Si Si8 0.752182 0.289022 0.433551
O O1 0.716228 0.260745 0.649754
O O2 0.370018 0.018380 0.540062
O O3 0.388114 0.911080 0.735511
O O4 0.630645 0.260296 0.946956
O O5 0.307913 0.067965 0.759912
O O6 0.991806 0.793989 0.905732
O O7 0.363725 0.236806 0.012602
O O8 0.392448 0.121497 0.131491
O O9 0.842994 0.687547 0.524085
O O10 0.806728 0.542061 0.213543
O O11 0.167772 0.958844 0.376723
O O12 0.797392 0.679641 0.167293
O O13 0.598124 0.486748 0.768020
O O14 0.500000 0.500000 0.000000
O O15 0.615241 0.370311 0.599497
O O16 0.699514 0.319142 0.339463
O O17 0.000000 0.500000 0.500000
#
# Coordination Sequence:
#
# PCOD8004529 Si02
#       8
#     2   2   2   2   2   2   2   2
#     4  10  22  38  55  82 116 146 187 236 279 334
#     4   8  19  38  59  85 111 144 193 232 275 339
#     4  10  21  37  60  87 110 145 194 232 279 342
#     4  10  22  38  57  86 119 150 188 230 277 337
#     4  10  20  38  60  82 116 151 184 237 283 323
#     4   9  18  37  60  83 111 145 190 236 279 330
#     4  10  20  38  61  84 112 147 190 237 281 335
#     4  11  23  38  56  81 116 154 186 227 286 338
#
# _framework density 21.631004999999998
#
# number of rings (size 3 to 8) (size 9 to 14) (size 15 to 20)
#    0.000    2.250    0.000    2.625    0.000    6.500 
#    0.000   14.375    0.000    0.000    0.000    0.000 
#    0.000    0.000    0.000    0.000    0.000    0.000 
#
# Total GULP energy -198240.709229 kJ/mol
# GULP energy per Si atom -12390.044327 kJ/mol
# Density = 2.158177 g / cm^3
# Si number density = 21.631005 Si / 1000 Ang^3
#
#
#
# Elastic Constant Matrix: (Units=GPa)
#
#
# Indices 1 2 3 4 5 6 
#
# 1 133.2999 48.4199 36.0692 10.2361 6.5615 -12.1275
# 2 48.4199 104.6449 28.0819 23.4528 10.4615 15.5077
# 3 36.0692 28.0819 68.1234 16.3234 5.8831 4.7755
# 4 10.2361 23.4528 16.3234 30.9933 7.3754 -0.1354
# 5 6.5615 10.4615 5.8831 7.3754 31.7781 -3.0902
# 6 -12.1275 15.5077 4.7755 -0.1354 -3.0902 22.2409
#
#
#
# Elastic Compliance Matrix: (Units=1/GPa)
#
#
# Indices 1 2 3 4 5 6 
#
# 1 0.012514 -0.007294 -0.005646 0.004133 0.001198 0.013314
# 2 -0.007294 0.018155 0.000499 -0.010776 -0.003747 -0.017330
# 3 -0.005646 0.000499 0.020282 -0.008879 -0.001474 -0.008040
# 4 0.004133 -0.010776 -0.008879 0.044970 -0.005005 0.011252
# 5 0.001198 -0.003747 -0.001474 -0.005005 0.034703 0.008374
# 6 0.013314 -0.017330 -0.008040 0.011252 0.008374 0.067264
#
#
# Mechanical properties :
#
#
# Convention : Reuss Voigt Hill
#
# Bulk Modulus (GPa) = 38.36241 59.02334 48.69288
# Shear Modulus (GPa) = 21.60187 29.90227 25.75207
#
# Velocity S-wave (km/s) = 3.16358 3.72207 3.45413
# Velocity P-wave (km/s) = 5.57832 6.76886 6.20222
#
# Compressibility (1/GPa) = 0.02606718
#
# Stress axis : x y z
#
# Youngs Moduli (GPa) = 79.90940 55.08037 49.30587
#
# Poissons Ratio (x) = 0.40178 0.27839
# Poissons Ratio (y) = 0.58289 -0.02459
# Poissons Ratio (z) = 0.45118 -0.02746
#
# Static dielectric constant tensor:
#      x y z
#    x 3.830230 0.303430 0.288910 
#    y 0.303430 4.092160 0.204080 
#    z 0.288910 0.204080 4.172530 
# 
# 
# High freq. dielectric constant tensor:
#      x y z
#    x 1.837370 0.014950 -0.005660 
#    y 0.014950 1.846770 -0.004790 
#    z -0.005660 -0.004790 1.852330 
# 
# From -- ./inp_files/336751.got.cif
#   From: 2010.06.25/outbox.cif.g09.slc.cpg/sg2_169_cif.got.tgz:336751.got - 2010.06.27 13:26:56.
