data_PCOD8004826
_publ_section_title
;
Structure prediction by ZEFSAII (Michael W. Deem and Ramdas Pophale) SiO2 
 PCOD8004826
Probable space group: P -1
;
_chemical_formula_sum "Si O2"
_cell_formula_units_Z 16
_cell_length_a 15.568366
_cell_length_b 7.494675
_cell_length_c 6.517594
_cell_angle_alpha 66.727428
_cell_angle_beta 85.040167
_cell_angle_gamma 69.123048
_cell_volume 651.422627
_symmetry_space_group_name_H-M "P -1"
_symmetry_group_IT_number 2
_symmetry_cell_setting 'triclinic'
loop_
_space_group_symop_operation_xyz
x,y,z
-x,-y,-z
loop_
_atom_site_type_symbol
_atom_site_label
_atom_site_fract_x
_atom_site_fract_y
_atom_site_fract_z
Si Si1 0.858693 0.510279 0.960748
Si Si2 0.705882 0.743878 0.193709
Si Si3 0.977921 0.056177 0.207299
Si Si4 0.874635 0.888542 0.588689
Si Si5 0.715907 0.494050 0.678842
Si Si6 0.595669 0.519893 0.062443
Si Si7 0.433732 0.870037 0.076226
Si Si8 0.322822 0.809133 0.482400
O O1 0.905899 0.647861 0.760836
O O2 0.798533 0.428997 0.853481
O O3 0.802329 0.652169 0.095612
O O4 0.930164 0.304035 0.138170
O O5 0.714593 0.695785 0.457653
O O6 0.633340 0.659187 0.138898
O O7 0.663353 0.995842 0.073200
O O8 0.075921 0.986921 0.335824
O O9 0.914256 0.921598 0.344350
O O10 0.000000 0.000000 0.000000
O O11 0.763211 0.977770 0.565408
O O12 0.723716 0.324145 0.581739
O O13 0.624426 0.529916 0.815945
O O14 0.482544 0.646191 0.047485
O O15 0.635350 0.292210 0.261900
O O16 0.408640 0.836681 0.331171
O O17 0.500000 0.000000 0.000000
#
# Coordination Sequence:
#
# PCOD8004826 Si02
#       8
#     2   2   2   2   2   2   2   2
#     4  11  22  43  66  95 129 172 213 258 322 384
#     4   9  19  38  60  89 126 165 210 262 311 375
#     4  11  25  43  66 100 133 160 210 269 317 383
#     4  11  24  42  68  95 127 173 213 257 323 386
#     4  10  21  37  61  92 126 166 215 265 314 374
#     4   9  20  36  60  86 125 167 209 264 320 365
#     4  10  20  38  62  91 125 168 215 263 320 373
#     4  11  21  41  64  90 125 171 215 262 318 381
#
# _framework density 24.561629
#
# number of rings (size 3 to 8) (size 9 to 14) (size 15 to 20)
#    0.000    1.750    1.250    3.750    0.000    3.500 
#    4.500    1.250    0.000    0.000    0.000    0.000 
#    0.000    0.000    0.000    0.000    0.000    0.000 
#
# Total GULP energy -198322.362404 kJ/mol
# GULP energy per Si atom -12395.147650 kJ/mol
# Density = 2.450573 g / cm^3
# Si number density = 24.561629 Si / 1000 Ang^3
#
#
#
# Elastic Constant Matrix: (Units=GPa)
#
#
# Indices 1 2 3 4 5 6 
#
# 1 75.0799 23.0520 29.2719 -0.1722 -14.7009 -12.7292
# 2 23.0520 74.5877 46.8251 -9.0778 -13.8985 -22.0056
# 3 29.2719 46.8251 184.7997 -6.7043 -27.9900 -17.8637
# 4 -0.1722 -9.0778 -6.7043 41.3782 4.6105 0.3403
# 5 -14.7009 -13.8985 -27.9900 4.6105 47.3017 -4.6291
# 6 -12.7292 -22.0056 -17.8637 0.3403 -4.6291 33.3710
#
#
#
# Elastic Compliance Matrix: (Units=1/GPa)
#
#
# Indices 1 2 3 4 5 6 
#
# 1 0.016026 -0.002339 -0.000872 -0.001111 0.004348 0.004719
# 2 -0.002339 0.020690 -0.002940 0.003463 0.004426 0.011756
# 3 -0.000872 -0.002940 0.006959 0.000112 0.003158 0.001891
# 4 -0.001111 0.003463 0.000112 0.025103 -0.001567 0.001446
# 5 0.004348 0.004426 0.003158 -0.001567 0.026792 0.010000
# 6 0.004719 0.011756 0.001891 0.001446 0.010000 0.041903
#
#
# Mechanical properties :
#
#
# Convention : Reuss Voigt Hill
#
# Bulk Modulus (GPa) = 31.87204 59.19616 45.53410
# Shear Modulus (GPa) = 31.20471 40.09806 35.65139
#
# Velocity S-wave (km/s) = 3.56823 4.04486 3.81400
# Velocity P-wave (km/s) = 5.47548 6.77997 6.16234
#
# Compressibility (1/GPa) = 0.03137546
#
# Stress axis : x y z
#
# Youngs Moduli (GPa) = 62.39956 48.33259 143.69260
#
# Poissons Ratio (x) = 0.11303 0.12523
# Poissons Ratio (y) = 0.14593 0.42240
# Poissons Ratio (z) = 0.05438 0.14208
#
# Static dielectric constant tensor:
#      x y z
#    x 4.316020 0.002270 -0.222530 
#    y 0.002270 4.016700 0.072710 
#    z -0.222530 0.072710 4.385870 
# 
# 
# High freq. dielectric constant tensor:
#      x y z
#    x 1.977230 -0.001560 -0.006340 
#    y -0.001560 1.969210 -0.009790 
#    z -0.006340 -0.009790 1.989270 
# 
# From -- ./inp_files/106243.got.cif
#   From: 2010.06.25/outbox.cif.g09.slc.cpg/sg2_54_cif.got.tgz:106243.got - 2010.06.27 13:26:56.
