data_PCOD8004467
_publ_section_title
;
Structure prediction by ZEFSAII (Michael W. Deem and Ramdas Pophale) SiO2 
 PCOD8004467
Probable space group: P -1
;
_chemical_formula_sum "Si O2"
_cell_formula_units_Z 14
_cell_length_a 15.313657
_cell_length_b 15.314180
_cell_length_c 16.062279
_cell_angle_alpha 153.831021
_cell_angle_beta 26.169291
_cell_angle_gamma 152.023367
_cell_volume 671.755607
_symmetry_space_group_name_H-M "P -1"
_symmetry_group_IT_number 2
_symmetry_cell_setting 'triclinic'
loop_
_space_group_symop_operation_xyz
x,y,z
-x,-y,-z
loop_
_atom_site_type_symbol
_atom_site_label
_atom_site_fract_x
_atom_site_fract_y
_atom_site_fract_z
Si Si1 0.874879 0.874846 0.749970
Si Si2 0.974815 0.275589 0.249723
Si Si3 0.147676 0.310030 0.558680
Si Si4 0.724386 0.025098 0.749663
Si Si5 0.248433 0.793774 0.941634
Si Si6 0.310026 0.147734 0.941386
Si Si7 0.793759 0.248492 0.558432
O O1 0.782650 0.699260 0.604267
O O2 0.112685 0.904816 0.604503
O O3 0.699281 0.782610 0.895665
O O4 0.904842 0.112645 0.895450
O O5 0.040753 0.509031 0.352206
O O6 0.808323 0.226404 0.427575
O O7 0.201839 0.264444 0.072109
O O8 0.843956 0.106881 0.146936
O O9 0.197764 0.551386 0.750605
O O10 0.893075 0.155962 0.646899
O O11 0.264452 0.201919 0.427972
O O12 0.490931 0.959167 0.852163
O O13 0.773609 0.191582 0.927484
O O14 0.551407 0.197932 0.749540
#
# Coordination Sequence:
#
# PCOD8004467 Si02
#       7
#     2   2   2   2   2   2   2
#     4  10  24  36  54  94 120 150 200 228 290 366
#     4   9  20  37  62  86 108 152 204 234 282 345
#     4  10  20  38  59  84 119 151 191 244 284 339
#     4   9  20  37  62  86 108 152 204 234 282 345
#     4  10  20  38  59  84 119 151 191 244 284 339
#     4  10  20  38  59  84 119 151 191 244 284 339
#     4  10  20  38  59  84 119 151 191 244 284 339
#
# _framework density 20.840913
#
# number of rings (size 3 to 8) (size 9 to 14) (size 15 to 20)
#    0.000    2.286    0.000    1.714    4.000    0.000 
#    0.000    2.857    0.000    0.000    0.000    0.000 
#    0.000    0.000    0.000    0.000    0.000    0.000 
#
# Total GULP energy -173559.175687 kJ/mol
# GULP energy per Si atom -12397.083978 kJ/mol
# Density = 2.079348 g / cm^3
# Si number density = 20.840913 Si / 1000 Ang^3
#
#
#
# Elastic Constant Matrix: (Units=GPa)
#
#
# Indices 1 2 3 4 5 6 
#
# 1 77.1817 56.6032 51.0604 -2.3947 0.2291 -2.6265
# 2 56.6032 78.2361 65.0420 2.4845 -0.5886 2.8498
# 3 51.0604 65.0420 141.9658 1.8609 -6.9909 3.9740
# 4 -2.3947 2.4845 1.8609 54.2856 12.6317 -3.6180
# 5 0.2291 -0.5886 -6.9909 12.6317 10.4415 -1.5740
# 6 -2.6265 2.8498 3.9740 -3.6180 -1.5740 7.3856
#
#
#
# Elastic Compliance Matrix: (Units=1/GPa)
#
#
# Indices 1 2 3 4 5 6 
#
# 1 0.031491 -0.021878 -0.002332 0.005541 -0.006850 0.022150
# 2 -0.021878 0.036277 -0.008275 -0.003131 -0.002139 -0.019315
# 3 -0.002332 -0.008275 0.012341 -0.002895 0.010839 -0.003385
# 4 0.005541 -0.003131 -0.002895 0.027524 -0.033875 0.011000
# 5 -0.006850 -0.002139 0.010839 -0.033875 0.145077 0.006880
# 6 0.022150 -0.019315 -0.003385 0.011000 0.006880 0.159404
#
#
# Mechanical properties :
#
#
# Convention : Reuss Voigt Hill
#
# Bulk Modulus (GPa) = 66.06599 71.42163 68.74381
# Shear Modulus (GPa) = 10.37064 22.73441 16.55253
#
# Velocity S-wave (km/s) = 2.23314 3.30639 2.82127
# Velocity P-wave (km/s) = 6.19824 6.99433 6.60828
#
# Compressibility (1/GPa) = 0.01513638
#
# Stress axis : x y z
#
# Youngs Moduli (GPa) = 31.75553 27.56553 81.03350
#
# Poissons Ratio (x) = 0.60309 0.18901
# Poissons Ratio (y) = 0.69476 0.67056
# Poissons Ratio (z) = 0.07407 0.22811
#
# Static dielectric constant tensor:
#      x y z
#    x 3.550800 -0.036980 -0.049040 
#    y -0.036980 3.423200 0.013150 
#    z -0.049040 0.013150 4.166830 
# 
# 
# High freq. dielectric constant tensor:
#      x y z
#    x 1.805050 -0.005030 -0.002660 
#    y -0.005030 1.787710 0.000710 
#    z -0.002660 0.000710 1.839170 
# 
# From -- ./inp_files/534526.got.cif
#   From: 2010.06.25/outbox.cif.g09.slc.cpg/sg2_268_cif.got.tgz:534526.got - 2010.06.27 13:26:56.
