data_PCOD8004754
_publ_section_title
;
Structure prediction by ZEFSAII (Michael W. Deem and Ramdas Pophale) SiO2 
 PCOD8004754
Probable space group: P -1
;
_chemical_formula_sum "Si O2"
_cell_formula_units_Z 16
_cell_length_a 18.054915
_cell_length_b 8.516176
_cell_length_c 7.798265
_cell_angle_alpha 128.613882
_cell_angle_beta 114.855544
_cell_angle_gamma 94.589600
_cell_volume 744.452222
_symmetry_space_group_name_H-M "P -1"
_symmetry_group_IT_number 2
_symmetry_cell_setting 'triclinic'
loop_
_space_group_symop_operation_xyz
x,y,z
-x,-y,-z
loop_
_atom_site_type_symbol
_atom_site_label
_atom_site_fract_x
_atom_site_fract_y
_atom_site_fract_z
Si Si1 0.481816 0.534041 0.286900
Si Si2 0.295412 0.214522 0.751054
Si Si3 0.736051 0.075479 0.148491
Si Si4 0.974206 0.700948 0.124966
Si Si5 0.845696 0.586910 0.603646
Si Si6 0.539902 0.891946 0.830240
Si Si7 0.115797 0.218656 0.589313
Si Si8 0.301243 0.255777 0.412310
O O1 0.477365 0.761137 0.513077
O O2 0.443534 0.317341 0.230494
O O3 0.586403 0.594173 0.379356
O O4 0.402145 0.429344 0.992398
O O5 0.225885 0.315862 0.796252
O O6 0.274997 0.111957 0.467518
O O7 0.276318 0.012969 0.727998
O O8 0.642645 0.090384 0.015601
O O9 0.746710 0.911655 0.908695
O O10 0.824908 0.324369 0.392718
O O11 0.921472 0.666699 0.230960
O O12 0.910403 0.703199 0.909096
O O13 0.067362 0.944538 0.379126
O O14 0.000000 0.500000 0.000000
O O15 0.900984 0.717185 0.574965
O O16 0.746658 0.582555 0.525169
O O17 0.500000 0.000000 0.000000
#
# Coordination Sequence:
#
# PCOD8004754 Si02
#       8
#     2   2   2   2   2   2   2   2
#     4   9  18  33  55  84 116 158 200 236 284 344
#     4  10  20  38  62  85 120 160 196 243 293 343
#     4  10  21  35  55  85 115 154 198 237 287 347
#     4  11  24  43  66  89 118 152 192 246 301 353
#     4  11  23  39  64  89 120 158 192 240 297 350
#     4   9  17  30  50  78 114 152 197 244 285 331
#     4  10  24  42  61  92 120 150 198 242 293 357
#     4  10  21  38  59  87 124 157 197 244 288 343
#
# _framework density 21.492311999999998
#
# number of rings (size 3 to 8) (size 9 to 14) (size 15 to 20)
#    0.000    2.000    0.000    3.750    0.000    5.500 
#    0.000    3.750    0.000   13.500    0.000    0.000 
#    0.000    0.000    0.000    0.000    0.000    0.000 
#
# Total GULP energy -198212.185581 kJ/mol
# GULP energy per Si atom -12388.261599 kJ/mol
# Density = 2.144339 g / cm^3
# Si number density = 21.492312 Si / 1000 Ang^3
#
#
#
# Elastic Constant Matrix: (Units=GPa)
#
#
# Indices 1 2 3 4 5 6 
#
# 1 116.7101 33.6762 33.3669 -4.6949 -5.3180 1.5740
# 2 33.6762 84.3398 28.0288 -11.7845 -7.6317 10.7971
# 3 33.3669 28.0288 70.8093 -8.6206 -2.9016 -6.0049
# 4 -4.6949 -11.7845 -8.6206 29.6034 -2.0849 -4.1775
# 5 -5.3180 -7.6317 -2.9016 -2.0849 33.9116 -3.2262
# 6 1.5740 10.7971 -6.0049 -4.1775 -3.2262 27.1315
#
#
#
# Elastic Compliance Matrix: (Units=1/GPa)
#
#
# Indices 1 2 3 4 5 6 
#
# 1 0.010524 -0.002898 -0.003893 -0.000625 0.000594 -0.000345
# 2 -0.002898 0.016288 -0.005081 0.003785 0.002384 -0.006572
# 3 -0.003893 -0.005081 0.019097 0.003992 0.000809 0.007185
# 4 -0.000625 0.003785 0.003992 0.037424 0.003933 0.005643
# 5 0.000594 0.002384 0.000809 0.003933 0.030758 0.003459
# 6 -0.000345 -0.006572 0.007185 0.005643 0.003459 0.042363
#
#
# Mechanical properties :
#
#
# Convention : Reuss Voigt Hill
#
# Bulk Modulus (GPa) = 45.11495 51.33366 48.22431
# Shear Modulus (GPa) = 26.65448 29.91513 28.28480
#
# Velocity S-wave (km/s) = 3.52545 3.73486 3.63167
# Velocity P-wave (km/s) = 6.13258 6.52192 6.33024
#
# Compressibility (1/GPa) = 0.02216560
#
# Stress axis : x y z
#
# Youngs Moduli (GPa) = 95.02117 61.39346 52.36552
#
# Poissons Ratio (x) = 0.17791 0.20386
# Poissons Ratio (y) = 0.27536 0.26606
# Poissons Ratio (z) = 0.36992 0.31193
#
# Static dielectric constant tensor:
#      x y z
#    x 3.822760 0.168140 0.141650 
#    y 0.168140 3.722170 -0.231320 
#    z 0.141650 -0.231320 4.217630 
# 
# 
# High freq. dielectric constant tensor:
#      x y z
#    x 1.844310 0.013280 0.004090 
#    y 0.013280 1.825440 -0.013120 
#    z 0.004090 -0.013120 1.850600 
# 
# From -- ./inp_files/329627.got.cif
#   From: 2010.06.25/outbox.cif.g09.slc.cpg/sg2_165_cif.got.tgz:329627.got - 2010.06.27 13:26:56.
