data_PCOD8004399
_publ_section_title
;
Structure prediction by ZEFSAII (Michael W. Deem and Ramdas Pophale) SiO2 
 PCOD8004399
Probable space group: P -1
;
_chemical_formula_sum "Si O2"
_cell_formula_units_Z 14
_cell_length_a 20.378551
_cell_length_b 11.077097
_cell_length_c 8.555765
_cell_angle_alpha 44.105709
_cell_angle_beta 29.359639
_cell_angle_gamma 43.643596
_cell_volume 631.380182
_symmetry_space_group_name_H-M "P -1"
_symmetry_group_IT_number 2
_symmetry_cell_setting 'triclinic'
loop_
_space_group_symop_operation_xyz
x,y,z
-x,-y,-z
loop_
_atom_site_type_symbol
_atom_site_label
_atom_site_fract_x
_atom_site_fract_y
_atom_site_fract_z
Si Si1 0.172118 0.226620 0.094445
Si Si2 0.866589 0.377362 0.065604
Si Si3 0.462758 0.983914 0.768252
Si Si4 0.876934 0.325500 0.728607
Si Si5 0.408304 0.735716 0.615560
Si Si6 0.099701 0.360413 0.806309
Si Si7 0.571822 0.352266 0.701043
O O1 0.020754 0.197542 0.474653
O O2 0.173010 0.413067 0.000650
O O3 0.296688 0.072409 0.056978
O O4 0.199497 0.221126 0.851456
O O5 0.735548 0.305214 0.447947
O O6 0.902012 0.356159 0.829490
O O7 0.004302 0.269168 0.979817
O O8 0.551934 0.083062 0.595224
O O9 0.500000 0.000000 0.500000
O O10 0.499035 0.773249 0.933944
O O11 0.825509 0.524490 0.566959
O O12 0.756702 0.227414 0.045452
O O13 0.494567 0.563553 0.700242
O O14 0.449160 0.690944 0.394228
O O15 0.000000 0.500000 0.000000
#
# Coordination Sequence:
#
# PCOD8004399 Si02
#       7
#     2   2   2   2   2   2   2
#     4  10  20  38  57  89 129 159 198 255 302 368
#     4   9  16  36  63  94 112 156 208 254 308 360
#     4  12  27  41  60  94 130 167 208 248 310 376
#     4   9  18  34  67  92 113 157 211 251 311 360
#     4  10  22  44  67  90 122 163 210 261 309 361
#     4   8  16  29  54  86 121 153 194 240 298 362
#     4  10  22  42  68  90 123 164 209 260 310 361
#
# _framework density 22.173645
#
# number of rings (size 3 to 8) (size 9 to 14) (size 15 to 20)
#    0.000    2.571    1.429    2.143    2.000    4.000 
#    0.000    7.143    0.000    0.000    0.000    0.000 
#    0.000    0.000    0.000    0.000    0.000    0.000 
#
# Total GULP energy -173505.369800 kJ/mol
# GULP energy per Si atom -12393.240700 kJ/mol
# Density = 2.212318 g / cm^3
# Si number density = 22.173645 Si / 1000 Ang^3
#
#
#
# Elastic Constant Matrix: (Units=GPa)
#
#
# Indices 1 2 3 4 5 6 
#
# 1 91.6831 -2.4567 34.4677 2.0599 -3.8384 -7.9790
# 2 -2.4567 26.1239 16.1375 -2.4781 -3.0310 -6.1814
# 3 34.4677 16.1375 122.9858 -5.5677 1.8347 -5.1088
# 4 2.0599 -2.4781 -5.5677 27.5617 0.2394 2.0791
# 5 -3.8384 -3.0310 1.8347 0.2394 28.1066 4.9551
# 6 -7.9790 -6.1814 -5.1088 2.0791 4.9551 18.4685
#
#
#
# Elastic Compliance Matrix: (Units=1/GPa)
#
#
# Indices 1 2 3 4 5 6 
#
# 1 0.013305 0.005360 -0.004285 -0.001855 0.001609 0.006134
# 2 0.005360 0.047257 -0.007075 0.001251 0.003624 0.015062
# 3 -0.004285 -0.007075 0.010328 0.001868 -0.001848 -0.001077
# 4 -0.001855 0.001251 0.001868 0.037219 0.000166 -0.004100
# 5 0.001609 0.003624 -0.001848 0.000166 0.037856 -0.008779
# 6 0.006134 0.015062 -0.001077 -0.004100 -0.008779 0.064357
#
#
# Mechanical properties :
#
#
# Convention : Reuss Voigt Hill
#
# Bulk Modulus (GPa) = 16.98089 37.45443 27.21766
# Shear Modulus (GPa) = 20.66546 27.67031 24.16789
#
# Velocity S-wave (km/s) = 3.05615 3.53638 3.30500
# Velocity P-wave (km/s) = 4.48644 5.79679 5.18319
#
# Compressibility (1/GPa) = 0.05888973
#
# Stress axis : x y z
#
# Youngs Moduli (GPa) = 75.16176 21.16107 96.82690
#
# Poissons Ratio (x) = -0.11343 0.41493
# Poissons Ratio (y) = -0.40290 0.68503
# Poissons Ratio (z) = 0.32209 0.14971
#
# Static dielectric constant tensor:
#      x y z
#    x 5.207860 -0.461210 -0.056930 
#    y -0.461210 3.957950 0.031990 
#    z -0.056930 0.031990 4.058610 
# 
# 
# High freq. dielectric constant tensor:
#      x y z
#    x 1.885860 -0.004130 -0.005410 
#    y -0.004130 1.832720 0.009280 
#    z -0.005410 0.009280 1.876360 
# 
# From -- ./inp_files/345815.got.cif
#   From: 2010.06.25/outbox.cif.g09.slc.cpg/sg2_173_cif.got.tgz:345815.got - 2010.06.27 13:26:56.
