data_PCOD8004443
_publ_section_title
;
Structure prediction by ZEFSAII (Michael W. Deem and Ramdas Pophale) SiO2 
 PCOD8004443
Probable space group: P -1
;
_chemical_formula_sum "Si O2"
_cell_formula_units_Z 16
_cell_length_a 11.081829
_cell_length_b 6.467347
_cell_length_c 20.385592
_cell_angle_alpha 133.430678
_cell_angle_beta 135.598994
_cell_angle_gamma 63.963225
_cell_volume 738.434030
_symmetry_space_group_name_H-M "P -1"
_symmetry_group_IT_number 2
_symmetry_cell_setting 'triclinic'
loop_
_space_group_symop_operation_xyz
x,y,z
-x,-y,-z
loop_
_atom_site_type_symbol
_atom_site_label
_atom_site_fract_x
_atom_site_fract_y
_atom_site_fract_z
Si Si1 0.926326 0.313551 0.988970
Si Si2 0.833389 0.697240 0.800477
Si Si3 0.535857 0.886889 0.908513
Si Si4 0.740670 0.772493 0.074827
Si Si5 0.524238 0.247029 0.289597
Si Si6 0.027168 0.218700 0.714985
Si Si7 0.692998 0.696301 0.271630
Si Si8 0.840601 0.675425 0.464531
O O1 0.769497 0.443076 0.997085
O O2 0.089954 0.296664 0.095482
O O3 0.000000 0.500000 0.000000
O O4 0.854866 0.028131 0.860697
O O5 0.626174 0.607866 0.698629
O O6 0.930553 0.503083 0.746670
O O7 0.563678 0.854597 0.835829
O O8 0.428348 0.602630 0.836713
O O9 0.435330 0.170124 0.942448
O O10 0.720022 0.928797 0.029310
O O11 0.900413 0.889417 0.210142
O O12 0.676173 0.499324 0.395229
O O13 0.583766 0.971010 0.289487
O O14 0.187266 0.287745 0.742996
O O15 0.880304 0.980207 0.581093
O O16 0.817011 0.722693 0.388669
O O17 0.000000 0.500000 0.500000
#
# Coordination Sequence:
#
# PCOD8004443 Si02
#       8
#     2   2   2   2   2   2   2   2
#     4  10  21  40  60  84 130 175 203 245 309 377
#     4  10  24  40  60  92 128 165 208 250 312 372
#     4  10  21  36  61  95 126 161 211 259 313 360
#     4  10  20  38  58  94 125 162 207 256 311 364
#     4  11  22  42  64  91 129 166 207 261 309 370
#     4  11  22  41  62  95 123 164 214 256 307 377
#     4  11  22  39  68  89 122 161 209 263 313 369
#     4  11  23  43  69  92 121 163 213 264 315 360
#
# _framework density 21.667473000000001
#
# number of rings (size 3 to 8) (size 9 to 14) (size 15 to 20)
#    0.000    1.500    2.500    2.625    1.750    2.000 
#    6.750    0.625    0.000    0.000    0.000    0.000 
#    0.000    0.000    0.000    0.000    0.000    0.000 
#
# Total GULP energy -198220.249776 kJ/mol
# GULP energy per Si atom -12388.765611 kJ/mol
# Density = 2.161816 g / cm^3
# Si number density = 21.667473 Si / 1000 Ang^3
#
#
#
# Elastic Constant Matrix: (Units=GPa)
#
#
# Indices 1 2 3 4 5 6 
#
# 1 66.5132 49.1845 35.1176 -0.6169 12.2502 -22.1293
# 2 49.1845 114.4402 45.7497 -3.8069 0.9582 -19.2155
# 3 35.1176 45.7497 101.6801 -6.1294 -9.9832 -3.9051
# 4 -0.6169 -3.8069 -6.1294 41.4226 -1.2594 -2.4202
# 5 12.2502 0.9582 -9.9832 -1.2594 31.6406 -1.6139
# 6 -22.1293 -19.2155 -3.9051 -2.4202 -1.6139 45.9018
#
#
#
# Elastic Compliance Matrix: (Units=1/GPa)
#
#
# Indices 1 2 3 4 5 6 
#
# 1 0.031745 -0.008539 -0.008189 -0.001342 -0.014135 0.010465
# 2 -0.008539 0.013871 -0.002978 0.000860 0.002060 0.001554
# 3 -0.008189 -0.002978 0.014741 0.001814 0.007802 -0.003570
# 4 -0.001342 0.000860 0.001814 0.024605 0.002109 0.001239
# 5 -0.014135 0.002060 0.007802 0.002109 0.039367 -0.003793
# 6 0.010465 0.001554 -0.003570 0.001239 -0.003793 0.027110
#
#
# Mechanical properties :
#
#
# Convention : Reuss Voigt Hill
#
# Bulk Modulus (GPa) = 47.74266 60.30412 54.02339
# Shear Modulus (GPa) = 25.27366 33.96510 29.61938
#
# Velocity S-wave (km/s) = 3.41901 3.96354 3.70130
# Velocity P-wave (km/s) = 6.13745 6.98844 6.57672
#
# Compressibility (1/GPa) = 0.02094563
#
# Stress axis : x y z
#
# Youngs Moduli (GPa) = 31.50068 72.09240 67.83706
#
# Poissons Ratio (x) = 0.61560 0.55551
# Poissons Ratio (y) = 0.26899 0.20203
# Poissons Ratio (z) = 0.25795 0.21470
#
# Static dielectric constant tensor:
#      x y z
#    x 3.905910 -0.289400 -0.034010 
#    y -0.289400 4.174370 -0.411410 
#    z -0.034010 -0.411410 3.737540 
# 
# 
# High freq. dielectric constant tensor:
#      x y z
#    x 1.836140 -0.015640 -0.004990 
#    y -0.015640 1.866240 -0.012160 
#    z -0.004990 -0.012160 1.845600 
# 
# From -- ./inp_files/592872.got.cif
#   From: 2010.06.25/outbox.cif.g09.slc.cpg/sg2_297_cif.got.tgz:592872.got - 2010.06.27 13:26:56.
