data_PCOD8004070
_publ_section_title
;
Structure prediction by ZEFSAII (Michael W. Deem and Ramdas Pophale) SiO2 
 PCOD8004070
Probable space group: P -1
;
_chemical_formula_sum "Si O2"
_cell_formula_units_Z 10
_cell_length_a 9.371894
_cell_length_b 8.887029
_cell_length_c 17.907319
_cell_angle_alpha 38.778738
_cell_angle_beta 43.274573
_cell_angle_gamma 31.793094
_cell_volume 482.363098
_symmetry_space_group_name_H-M "P -1"
_symmetry_group_IT_number 2
_symmetry_cell_setting 'triclinic'
loop_
_space_group_symop_operation_xyz
x,y,z
-x,-y,-z
loop_
_atom_site_type_symbol
_atom_site_label
_atom_site_fract_x
_atom_site_fract_y
_atom_site_fract_z
Si Si1 0.301943 0.872637 0.424852
Si Si2 0.065366 0.883410 0.233390
Si Si3 0.713704 0.921158 0.811902
Si Si4 0.117567 0.281253 0.966453
Si Si5 0.472151 0.133558 0.378011
O O1 0.500000 0.500000 0.500000
O O2 0.350389 0.964819 0.292160
O O3 0.365286 0.010917 0.411676
O O4 0.000000 0.000000 0.500000
O O5 0.258922 0.510448 0.312615
O O6 0.097749 0.019064 0.243376
O O7 0.759341 0.021520 0.285401
O O8 0.127294 0.989520 0.093183
O O9 0.892950 0.535298 0.891341
O O10 0.427481 0.123361 0.888431
O O11 0.000000 0.500000 0.000000
O O12 0.500000 0.000000 0.500000
#
# Coordination Sequence:
#
# PCOD8004070 Si02
#       5
#     2   2   2   2   2
#     4  12  25  43  62  88 122 161 201 249 303 360
#     4  11  21  39  62  89 119 155 200 249 292 351
#     4  11  21  39  64  91 121 161 202 243 294 357
#     4  10  20  37  63  93 121 158 201 243 293 358
#     4  12  24  40  61  89 119 157 201 250 301 352
#
# _framework density 20.731272000000001
#
# number of rings (size 3 to 8) (size 9 to 14) (size 15 to 20)
#    0.000    0.800    0.000   11.400    0.000    0.000 
#    0.000    6.000    0.000    0.000    0.000    0.000 
#    0.000    0.000    0.000    0.000    0.000    0.000 
#
# Total GULP energy -123989.450342 kJ/mol
# GULP energy per Si atom -12398.945034 kJ/mol
# Density = 2.068409 g / cm^3
# Si number density = 20.731272 Si / 1000 Ang^3
#
#
#
# Elastic Constant Matrix: (Units=GPa)
#
#
# Indices 1 2 3 4 5 6 
#
# 1 139.3221 42.0889 71.3089 -2.4226 -1.2163 -4.1631
# 2 42.0889 144.3035 66.7688 -27.4262 -8.4182 -29.0835
# 3 71.3089 66.7688 159.5119 -22.1370 5.1205 -11.3941
# 4 -2.4226 -27.4262 -22.1370 62.8383 -15.9282 -4.1864
# 5 -1.2163 -8.4182 5.1205 -15.9282 36.3285 2.7086
# 6 -4.1631 -29.0835 -11.3941 -4.1864 2.7086 36.4437
#
#
#
# Elastic Compliance Matrix: (Units=1/GPa)
#
#
# Indices 1 2 3 4 5 6 
#
# 1 0.009643 -0.001695 -0.003985 -0.001945 -0.000234 -0.001703
# 2 -0.001695 0.012009 -0.002973 0.006013 0.005128 0.008770
# 3 -0.003985 -0.002973 0.009596 0.001575 -0.001519 0.000466
# 4 -0.001945 0.006013 0.001575 0.022079 0.010277 0.006841
# 5 -0.000234 0.005128 -0.001519 0.010277 0.033255 0.002299
# 6 -0.001703 0.008770 0.000466 0.006841 0.002299 0.035005
#
#
# Mechanical properties :
#
#
# Convention : Reuss Voigt Hill
#
# Bulk Modulus (GPa) = 71.72760 89.27454 80.50107
# Shear Modulus (GPa) = 34.83342 44.65350 39.74346
#
# Velocity S-wave (km/s) = 4.10351 4.64607 4.38319
# Velocity P-wave (km/s) = 7.55815 8.48160 8.03315
#
# Compressibility (1/GPa) = 0.01394163
#
# Stress axis : x y z
#
# Youngs Moduli (GPa) = 103.70557 83.26890 104.21291
#
# Poissons Ratio (x) = 0.14115 0.41531
# Poissons Ratio (y) = 0.17579 0.30980
# Poissons Ratio (z) = 0.41329 0.24754
#
# Static dielectric constant tensor:
#      x y z
#    x 3.724550 -0.278280 0.104290 
#    y -0.278280 4.111550 -0.382020 
#    z 0.104290 -0.382020 4.377410 
# 
# 
# High freq. dielectric constant tensor:
#      x y z
#    x 1.792290 -0.022990 0.002840 
#    y -0.022990 1.833000 -0.011140 
#    z 0.002840 -0.011140 1.837680 
# 
# From -- ./inp_files/15683.got.cif
#   From: 2010.06.25/outbox.cif.g09.slc.cpg/sg2_8_cif.got.tgz:15683.got - 2010.06.27 13:26:56.
