data_PCOD8004879
_publ_section_title
;
Structure prediction by ZEFSAII (Michael W. Deem and Ramdas Pophale) SiO2 
 PCOD8004879
Probable space group: P -1
;
_chemical_formula_sum "Si O2"
_cell_formula_units_Z 14
_cell_length_a 14.083772
_cell_length_b 11.601526
_cell_length_c 12.489383
_cell_angle_alpha 46.962522
_cell_angle_beta 39.414023
_cell_angle_gamma 31.379568
_cell_volume 673.041058
_symmetry_space_group_name_H-M "P -1"
_symmetry_group_IT_number 2
_symmetry_cell_setting 'triclinic'
loop_
_space_group_symop_operation_xyz
x,y,z
-x,-y,-z
loop_
_atom_site_type_symbol
_atom_site_label
_atom_site_fract_x
_atom_site_fract_y
_atom_site_fract_z
Si Si1 0.039247 0.506916 0.724068
Si Si2 0.480366 0.340324 0.954265
Si Si3 0.358645 0.982248 0.568863
Si Si4 0.885032 0.407198 0.748659
Si Si5 0.314280 0.498120 0.356518
Si Si6 0.669850 0.746875 0.040066
Si Si7 0.599688 0.914879 0.215938
O O1 0.902982 0.554606 0.709094
O O2 0.163318 0.574697 0.541220
O O3 0.204426 0.242208 0.772503
O O4 0.892716 0.646793 0.865514
O O5 0.668554 0.327450 0.789061
O O6 0.390011 0.370993 0.894218
O O7 0.294228 0.556713 0.051949
O O8 0.573130 0.113300 0.072661
O O9 0.453177 0.740715 0.668755
O O10 0.390690 0.004967 0.400961
O O11 0.500000 0.000000 0.500000
O O12 0.111284 0.155872 0.700839
O O13 0.788577 0.515747 0.647226
O O14 0.665531 0.739748 0.176678
O O15 0.500000 0.000000 0.000000
#
# Coordination Sequence:
#
# PCOD8004879 Si02
#       7
#     2   2   2   2   2   2   2
#     4  10  21  37  63  86 111 158 205 236 286 360
#     4  10  23  39  58  90 122 153 195 250 296 341
#     4  11  22  37  62  91 117 156 204 236 286 361
#     4  11  22  37  62  85 122 161 193 233 300 353
#     4  11  23  39  58  91 125 151 195 250 295 341
#     4   9  20  38  62  83 113 158 201 237 292 354
#     4  10  20  38  63  83 118 153 202 239 288 353
#
# _framework density 20.801109
#
# number of rings (size 3 to 8) (size 9 to 14) (size 15 to 20)
#    0.000    1.714    2.857    2.143    6.000    0.571 
#    5.143    5.714    0.000    0.000    0.000    0.000 
#    0.000    0.000    0.000    0.000    0.000    0.000 
#
# Total GULP energy -173449.560060 kJ/mol
# GULP energy per Si atom -12389.254290 kJ/mol
# Density = 2.075376 g / cm^3
# Si number density = 20.801109 Si / 1000 Ang^3
#
#
#
# Elastic Constant Matrix: (Units=GPa)
#
#
# Indices 1 2 3 4 5 6 
#
# 1 68.4967 24.9015 58.6808 1.8708 11.6726 -3.1613
# 2 24.9015 82.1217 47.4284 10.4019 -1.6935 -9.7748
# 3 58.6808 47.4284 124.9187 13.8453 6.5677 3.4143
# 4 1.8708 10.4019 13.8453 42.9377 3.9298 2.7027
# 5 11.6726 -1.6935 6.5677 3.9298 29.6253 8.7221
# 6 -3.1613 -9.7748 3.4143 2.7027 8.7221 23.9703
#
#
#
# Elastic Compliance Matrix: (Units=1/GPa)
#
#
# Indices 1 2 3 4 5 6 
#
# 1 0.028346 -0.000624 -0.013127 0.003624 -0.011458 0.009114
# 2 -0.000624 0.017247 -0.006205 -0.002706 0.000638 0.007907
# 3 -0.013127 -0.006205 0.016898 -0.003235 0.003759 -0.007671
# 4 0.003624 -0.002706 -0.003235 0.025276 -0.003730 -0.001657
# 5 -0.011458 0.000638 0.003759 -0.003730 0.042973 -0.017002
# 6 0.009114 0.007907 -0.007671 -0.001657 -0.017002 0.053611
#
#
# Mechanical properties :
#
#
# Convention : Reuss Voigt Hill
#
# Bulk Modulus (GPa) = 44.28869 59.72872 52.00870
# Shear Modulus (GPa) = 21.57118 28.94176 25.25647
#
# Velocity S-wave (km/s) = 3.22377 3.73414 3.48830
# Velocity P-wave (km/s) = 5.93251 6.88246 6.42506
#
# Compressibility (1/GPa) = 0.02257913
#
# Stress axis : x y z
#
# Youngs Moduli (GPa) = 35.27776 57.98115 59.17869
#
# Poissons Ratio (x) = 0.03621 0.77684
# Poissons Ratio (y) = 0.02203 0.36718
# Poissons Ratio (z) = 0.46309 0.35975
#
# Static dielectric constant tensor:
#      x y z
#    x 3.508990 -0.491140 -0.156030 
#    y -0.491140 3.498590 0.035270 
#    z -0.156030 0.035270 3.389080 
# 
# 
# High freq. dielectric constant tensor:
#      x y z
#    x 1.799210 -0.023960 0.022980 
#    y -0.023960 1.800950 0.025810 
#    z 0.022980 0.025810 1.817310 
# 
# From -- ./inp_files/178659.got.cif
#   From: 2010.06.25/outbox.cif.g09.slc.cpg/sg2_90_cif.got.tgz:178659.got - 2010.06.27 13:26:56.
