data_PCOD8004704
_publ_section_title
;
Structure prediction by ZEFSAII (Michael W. Deem and Ramdas Pophale) SiO2 
 PCOD8004704
Probable space group: P -1
;
_chemical_formula_sum "Si O2"
_cell_formula_units_Z 16
_cell_length_a 20.921357
_cell_length_b 6.447846
_cell_length_c 20.714725
_cell_angle_alpha 107.571802
_cell_angle_beta 19.733004
_cell_angle_gamma 117.554844
_cell_volume 748.625379
_symmetry_space_group_name_H-M "P -1"
_symmetry_group_IT_number 2
_symmetry_cell_setting 'triclinic'
loop_
_space_group_symop_operation_xyz
x,y,z
-x,-y,-z
loop_
_atom_site_type_symbol
_atom_site_label
_atom_site_fract_x
_atom_site_fract_y
_atom_site_fract_z
Si Si1 0.404213 0.170244 0.814288
Si Si2 0.791800 0.357416 0.106682
Si Si3 0.016553 0.210043 0.137993
Si Si4 0.996003 0.271037 0.408421
Si Si5 0.769017 0.977941 0.892908
Si Si6 0.369336 0.798338 0.161829
Si Si7 0.891190 0.775805 0.135263
Si Si8 0.905987 0.430840 0.377191
O O1 0.669529 0.404979 0.584331
O O2 0.399694 0.912948 0.770884
O O3 0.263149 0.245868 0.910473
O O4 0.293602 0.125990 0.985258
O O5 0.702366 0.500508 0.252557
O O6 0.955805 0.568442 0.916026
O O7 0.929597 0.278460 0.011910
O O8 0.928673 0.231852 0.292654
O O9 0.826798 0.909464 0.265296
O O10 0.038236 0.057757 0.321914
O O11 0.229934 0.508515 0.238241
O O12 0.802052 0.139609 0.635333
O O13 0.906593 0.368745 0.445632
O O14 0.543901 0.816892 0.049367
O O15 0.875110 0.284565 0.819544
O O16 0.500000 0.000000 0.000000
O O17 0.000000 0.000000 0.000000
#
# Coordination Sequence:
#
# PCOD8004704 Si02
#       8
#     2   2   2   2   2   2   2   2
#     4  11  23  38  61  91 125 166 208 255 311 368
#     4   9  17  35  61  89 128 167 204 258 311 356
#     4  10  20  38  61  90 126 164 209 259 308 364
#     4  11  25  43  65  92 122 162 208 253 313 376
#     4  12  24  41  64  90 125 165 203 257 315 364
#     4  11  24  45  67  91 124 160 206 259 309 373
#     4   8  16  32  62  93 122 170 208 249 313 361
#     4  12  24  39  62  94 123 163 214 252 310 376
#
# _framework density 21.372508
#
# number of rings (size 3 to 8) (size 9 to 14) (size 15 to 20)
#    0.000    1.500    5.000    0.375    0.000    3.500 
#    0.000    0.625    0.000   25.500    0.000    0.000 
#    0.000    0.000    0.000    0.000    0.000    0.000 
#
# Total GULP energy -198243.888208 kJ/mol
# GULP energy per Si atom -12390.243013 kJ/mol
# Density = 2.132386 g / cm^3
# Si number density = 21.372508 Si / 1000 Ang^3
#
#
#
# Elastic Constant Matrix: (Units=GPa)
#
#
# Indices 1 2 3 4 5 6 
#
# 1 109.2492 44.8624 32.0068 -1.5762 5.0966 5.9351
# 2 44.8624 92.0593 31.5238 10.8738 6.7488 6.2701
# 3 32.0068 31.5238 85.7184 0.4124 -1.3350 5.6763
# 4 -1.5762 10.8738 0.4124 22.4856 -1.1047 8.5143
# 5 5.0966 6.7488 -1.3350 -1.1047 21.1312 4.9728
# 6 5.9351 6.2701 5.6763 8.5143 4.9728 37.2548
#
#
#
# Elastic Compliance Matrix: (Units=1/GPa)
#
#
# Indices 1 2 3 4 5 6 
#
# 1 0.012310 -0.005453 -0.002526 0.004065 -0.000827 -0.001477
# 2 -0.005453 0.016231 -0.004064 -0.008953 -0.004937 0.001461
# 3 -0.002526 -0.004064 0.014286 0.002498 0.003439 -0.002120
# 4 0.004065 -0.008953 0.002498 0.054355 0.007938 -0.013004
# 5 -0.000827 -0.004937 0.003439 0.007938 0.051679 -0.008274
# 6 -0.001477 0.001461 -0.002120 -0.013004 -0.008274 0.031231
#
#
# Mechanical properties :
#
#
# Convention : Reuss Voigt Hill
#
# Bulk Modulus (GPa) = 53.35558 55.97921 54.66740
# Shear Modulus (GPa) = 23.76150 28.08325 25.92238
#
# Velocity S-wave (km/s) = 3.33795 3.62883 3.48643
# Velocity P-wave (km/s) = 6.31464 6.61868 6.46845
#
# Compressibility (1/GPa) = 0.01874218
#
# Stress axis : x y z
#
# Youngs Moduli (GPa) = 81.23444 61.60921 70.00041
#
# Poissons Ratio (x) = 0.33595 0.17680
# Poissons Ratio (y) = 0.44297 0.28446
# Poissons Ratio (z) = 0.20518 0.25036
#
# Static dielectric constant tensor:
#      x y z
#    x 4.436420 0.508790 -0.109440 
#    y 0.508790 4.157280 0.012070 
#    z -0.109440 0.012070 3.491030 
# 
# 
# High freq. dielectric constant tensor:
#      x y z
#    x 1.865720 0.018500 0.003600 
#    y 0.018500 1.847620 0.003930 
#    z 0.003600 0.003930 1.798680 
# 
# From -- ./inp_files/14688.got.cif
#   From: 2010.06.25/outbox.cif.g09.slc.cpg/sg2_8_cif.got.tgz:14688.got - 2010.06.27 13:26:56.
