data_PCOD8004769
_publ_section_title
;
Structure prediction by ZEFSAII (Michael W. Deem and Ramdas Pophale) SiO2 
 PCOD8004769
Probable space group: P -1
;
_chemical_formula_sum "Si O2"
_cell_formula_units_Z 14
_cell_length_a 14.674607
_cell_length_b 8.395958
_cell_length_c 15.417113
_cell_angle_alpha 75.009890
_cell_angle_beta 29.396305
_cell_angle_gamma 54.937542
_cell_volume 609.407037
_symmetry_space_group_name_H-M "P -1"
_symmetry_group_IT_number 2
_symmetry_cell_setting 'triclinic'
loop_
_space_group_symop_operation_xyz
x,y,z
-x,-y,-z
loop_
_atom_site_type_symbol
_atom_site_label
_atom_site_fract_x
_atom_site_fract_y
_atom_site_fract_z
Si Si1 0.974545 0.777152 0.005720
Si Si2 0.395673 0.030765 0.985549
Si Si3 0.728554 0.264134 0.899678
Si Si4 0.458438 0.691012 0.649345
Si Si5 0.026572 0.522992 0.836042
Si Si6 0.134841 0.102669 0.454319
Si Si7 0.361234 0.606858 0.297164
O O1 0.245648 0.709235 0.775164
O O2 0.918168 0.706266 0.978269
O O3 0.011886 0.641780 0.080478
O O4 0.705752 0.063110 0.197261
O O5 0.655778 0.880432 0.725178
O O6 0.158538 0.317121 0.117035
O O7 0.500000 0.000000 0.000000
O O8 0.273100 0.929261 0.090185
O O9 0.023578 0.140477 0.639029
O O10 0.500000 0.500000 0.000000
O O11 0.658793 0.361740 0.042612
O O12 0.653835 0.648690 0.422642
O O13 0.649703 0.463396 0.588660
O O14 0.885200 0.306904 0.567784
O O15 0.318182 0.830648 0.305392
#
# Coordination Sequence:
#
# PCOD8004769 Si02
#       7
#     2   2   2   2   2   2   2
#     4  10  24  41  62  91 117 156 208 247 297 357
#     4  12  23  38  64  93 121 161 201 239 301 364
#     4  10  22  38  56  84 122 158 199 241 285 352
#     4  11  21  40  65  88 118 156 200 253 305 347
#     4  11  23  42  63  88 124 157 198 252 297 353
#     4  10  21  39  58  86 126 163 197 241 298 356
#     4  10  20  38  62  87 121 160 199 247 297 356
#
# _framework density 22.973151000000001
#
# number of rings (size 3 to 8) (size 9 to 14) (size 15 to 20)
#    0.000    1.429    0.000    6.857    0.000    2.286 
#    0.000   15.714    0.000    1.714    0.000    0.000 
#    0.000    0.000    0.000    0.000    0.000    0.000 
#
# Total GULP energy -173598.694467 kJ/mol
# GULP energy per Si atom -12399.906748 kJ/mol
# Density = 2.292086 g / cm^3
# Si number density = 22.973151 Si / 1000 Ang^3
#
#
#
# Elastic Constant Matrix: (Units=GPa)
#
#
# Indices 1 2 3 4 5 6 
#
# 1 42.6760 16.3700 10.1238 5.1724 6.1177 -8.1550
# 2 16.3700 79.5761 27.3360 1.9831 -7.7126 -12.5529
# 3 10.1238 27.3360 147.9762 -21.9141 -3.0903 6.4530
# 4 5.1724 1.9831 -21.9141 36.9686 0.1649 -3.1557
# 5 6.1177 -7.7126 -3.0903 0.1649 24.1106 2.5072
# 6 -8.1550 -12.5529 6.4530 -3.1557 2.5072 26.4644
#
#
#
# Elastic Compliance Matrix: (Units=1/GPa)
#
#
# Indices 1 2 3 4 5 6 
#
# 1 0.029317 -0.004884 -0.002318 -0.004512 -0.010068 0.007698
# 2 -0.004884 0.016148 -0.003025 -0.001470 0.005381 0.006207
# 3 -0.002318 -0.003025 0.008422 0.005159 0.001048 -0.003687
# 4 -0.004512 -0.001470 0.005159 0.030833 0.001101 0.000227
# 5 -0.010068 0.005381 0.001048 0.001101 0.046405 -0.005070
# 6 0.007698 0.006207 -0.003687 0.000227 -0.005070 0.044509
#
#
# Mechanical properties :
#
#
# Convention : Reuss Voigt Hill
#
# Bulk Modulus (GPa) = 29.90977 41.98754 35.94865
# Shear Modulus (GPa) = 24.12768 31.93528 28.03148
#
# Velocity S-wave (km/s) = 3.24428 3.73247 3.49690
# Velocity P-wave (km/s) = 5.20399 6.07384 5.65566
#
# Compressibility (1/GPa) = 0.03343389
#
# Stress axis : x y z
#
# Youngs Moduli (GPa) = 34.11036 61.92843 118.73755
#
# Poissons Ratio (x) = 0.30244 0.27519
# Poissons Ratio (y) = 0.16658 0.35917
# Poissons Ratio (z) = 0.07905 0.18733
#
# Static dielectric constant tensor:
#      x y z
#    x 3.773830 -0.151480 0.202680 
#    y -0.151480 4.121410 -0.318960 
#    z 0.202680 -0.318960 4.526930 
# 
# 
# High freq. dielectric constant tensor:
#      x y z
#    x 1.874690 -0.003710 0.006000 
#    y -0.003710 1.917350 -0.005520 
#    z 0.006000 -0.005520 1.920930 
# 
# From -- ./inp_files/505767.got.cif
#   From: 2010.06.25/outbox.cif.g09.slc.cpg/sg2_253_cif.got.tgz:505767.got - 2010.06.27 13:26:56.
