data_PCOD8004616
_publ_section_title
;
Structure prediction by ZEFSAII (Michael W. Deem and Ramdas Pophale) SiO2 
 PCOD8004616
Probable space group: P -1
;
_chemical_formula_sum "Si O2"
_cell_formula_units_Z 16
_cell_length_a 25.362056
_cell_length_b 9.414073
_cell_length_c 14.219385
_cell_angle_alpha 121.112591
_cell_angle_beta 156.808258
_cell_angle_gamma 43.810501
_cell_volume 780.361858
_symmetry_space_group_name_H-M "P -1"
_symmetry_group_IT_number 2
_symmetry_cell_setting 'triclinic'
loop_
_space_group_symop_operation_xyz
x,y,z
-x,-y,-z
loop_
_atom_site_type_symbol
_atom_site_label
_atom_site_fract_x
_atom_site_fract_y
_atom_site_fract_z
Si Si1 0.976253 0.355109 0.177070
Si Si2 0.729265 0.297914 0.824103
Si Si3 0.913808 0.670432 0.043057
Si Si4 0.685183 0.389449 0.985614
Si Si5 0.311084 0.215472 0.464820
Si Si6 0.303174 0.903639 0.456262
Si Si7 0.976945 0.407277 0.520766
Si Si8 0.705893 0.040254 0.997960
O O1 0.897004 0.497373 0.996529
O O2 0.059804 0.435726 0.399390
O O3 0.150769 0.067568 0.347142
O O4 0.800378 0.421254 0.963373
O O5 0.500000 0.500000 0.500000
O O6 0.786155 0.213673 0.997950
O O7 0.813622 0.086626 0.816657
O O8 0.146469 0.486151 0.335221
O O9 0.783566 0.801726 0.781780
O O10 0.826183 0.873514 0.046254
O O11 0.471765 0.639664 0.687556
O O12 0.676071 0.264592 0.012570
O O13 0.794417 0.451231 0.224694
O O14 0.493338 0.152091 0.701183
O O15 0.383011 0.009564 0.586201
O O16 0.000000 0.500000 0.500000
O O17 0.168144 0.119006 0.756941
#
# Coordination Sequence:
#
# PCOD8004616 Si02
#       8
#     2   2   2   2   2   2   2   2
#     4  10  21  39  62  92 119 164 199 255 304 356
#     4  10  21  34  60  92 125 154 198 250 303 366
#     4   9  21  36  61  90 125 159 206 246 303 373
#     4  11  23  40  60  92 123 161 205 248 302 363
#     4  10  20  38  60  92 123 164 198 249 306 365
#     4  10  22  38  62  93 126 154 202 252 306 369
#     4  11  22  42  66  85 118 164 213 247 295 367
#     4  11  23  38  64  87 122 162 202 254 308 355
#
# _framework density 20.503308000000001
#
# number of rings (size 3 to 8) (size 9 to 14) (size 15 to 20)
#    0.000    1.750    1.250    2.625    8.750    0.500 
#    4.500    1.250    0.000    8.250    0.000    0.000 
#    0.000    0.000    0.000    0.000    0.000    0.000 
#
# Total GULP energy -198286.855301 kJ/mol
# GULP energy per Si atom -12392.928456 kJ/mol
# Density = 2.045664 g / cm^3
# Si number density = 20.503308 Si / 1000 Ang^3
#
#
#
# Elastic Constant Matrix: (Units=GPa)
#
#
# Indices 1 2 3 4 5 6 
#
# 1 95.3270 46.1592 39.7872 -5.9094 0.7416 16.1709
# 2 46.1592 92.0993 50.0592 1.3053 7.2074 14.0488
# 3 39.7872 50.0592 88.3116 8.0107 0.3564 3.3292
# 4 -5.9094 1.3053 8.0107 35.6528 5.4416 -3.1540
# 5 0.7416 7.2074 0.3564 5.4416 25.1433 -5.0658
# 6 16.1709 14.0488 3.3292 -3.1540 -5.0658 40.1559
#
#
#
# Elastic Compliance Matrix: (Units=1/GPa)
#
#
# Indices 1 2 3 4 5 6 
#
# 1 0.015569 -0.004753 -0.004483 0.003497 -0.000603 -0.004037
# 2 -0.004753 0.019123 -0.008582 0.000993 -0.006401 -0.004794
# 3 -0.004483 -0.008582 0.018508 -0.004909 0.004078 0.003402
# 4 0.003497 0.000993 -0.004909 0.030771 -0.006939 0.000193
# 5 -0.000603 -0.006401 0.004078 -0.006939 0.044522 0.007216
# 6 -0.004037 -0.004794 0.003402 0.000193 0.007216 0.028849
#
#
# Mechanical properties :
#
#
# Convention : Reuss Voigt Hill
#
# Bulk Modulus (GPa) = 56.93179 60.86101 58.89640
# Shear Modulus (GPa) = 25.14694 29.50588 27.32641
#
# Velocity S-wave (km/s) = 3.50592 3.79764 3.65469
# Velocity P-wave (km/s) = 6.64951 6.99838 6.82617
#
# Compressibility (1/GPa) = 0.01756488
#
# Stress axis : x y z
#
# Youngs Moduli (GPa) = 64.23070 52.29407 54.03034
#
# Poissons Ratio (x) = 0.24856 0.24219
# Poissons Ratio (y) = 0.30530 0.46367
# Poissons Ratio (z) = 0.28792 0.44877
#
# Static dielectric constant tensor:
#      x y z
#    x 4.097590 -0.079720 -0.194730 
#    y -0.079720 3.914610 0.008480 
#    z -0.194730 0.008480 3.627420 
# 
# 
# High freq. dielectric constant tensor:
#      x y z
#    x 1.810820 0.009350 -0.000830 
#    y 0.009350 1.799180 -0.004990 
#    z -0.000830 -0.004990 1.782820 
# 
# From -- ./inp_files/181471.got.cif
#   From: 2010.06.25/outbox.cif.g09.slc.cpg/sg2_91_cif.got.tgz:181471.got - 2010.06.27 13:26:56.
