data_PCOD8004298
_publ_section_title
;
Structure prediction by ZEFSAII (Michael W. Deem and Ramdas Pophale) SiO2 
 PCOD8004298
Probable space group: P -1
;
_chemical_formula_sum "Si O2"
_cell_formula_units_Z 16
_cell_length_a 9.136239
_cell_length_b 21.037838
_cell_length_c 11.583635
_cell_angle_alpha 145.618422
_cell_angle_beta 141.394499
_cell_angle_gamma 51.056069
_cell_volume 783.638832
_symmetry_space_group_name_H-M "P -1"
_symmetry_group_IT_number 2
_symmetry_cell_setting 'triclinic'
loop_
_space_group_symop_operation_xyz
x,y,z
-x,-y,-z
loop_
_atom_site_type_symbol
_atom_site_label
_atom_site_fract_x
_atom_site_fract_y
_atom_site_fract_z
Si Si1 0.740598 0.258081 0.688082
Si Si2 0.316113 0.554404 0.384133
Si Si3 0.787436 0.514041 0.033921
Si Si4 0.606406 0.193122 0.258745
Si Si5 0.470490 0.117018 0.719988
Si Si6 0.376325 0.261064 0.660741
Si Si7 0.917283 0.124166 0.154330
Si Si8 0.842898 0.888921 0.263455
O O1 0.640885 0.191972 0.415333
O O2 0.579581 0.222208 0.643391
O O3 0.002901 0.220778 0.817560
O O4 0.740213 0.391593 0.874467
O O5 0.500000 0.500000 0.500000
O O6 0.412566 0.680698 0.610575
O O7 0.058212 0.554371 0.281297
O O8 0.288496 0.483441 0.142906
O O9 0.629487 0.603414 0.135372
O O10 0.828021 0.136388 0.249714
O O11 0.366321 0.122425 0.975627
O O12 0.416420 0.213881 0.742080
O O13 0.257347 0.103725 0.658404
O O14 0.500000 0.000000 0.500000
O O15 0.708697 0.155636 0.988638
O O16 0.130172 0.210986 0.385505
O O17 0.000000 0.000000 0.000000
O O18 0.000000 0.000000 0.500000
#
# Coordination Sequence:
#
# PCOD8004298 Si02
#       8
#     2   2   2   2   2   2   2   2
#     4  11  25  43  63  94 135 171 212 265 323 385
#     4  10  20  37  67  95 124 162 213 268 320 376
#     4  10  23  39  65  95 127 168 216 264 321 383
#     4  10  23  43  63  94 125 169 213 262 321 382
#     4  11  24  41  66  93 126 168 218 265 317 381
#     4  12  24  42  65  95 131 173 213 265 322 383
#     4  11  23  41  66  92 125 165 218 267 318 382
#     4  11  25  42  66  95 130 168 212 266 326 381
#
# _framework density 20.417570999999999
#
# number of rings (size 3 to 8) (size 9 to 14) (size 15 to 20)
#    0.000    1.250    2.500    2.625    8.750    2.500 
#    0.000    0.000    0.000    6.000    0.000    0.000 
#    0.000    0.000    0.000    0.000    0.000    0.000 
#
# Total GULP energy -198469.028446 kJ/mol
# GULP energy per Si atom -12404.314278 kJ/mol
# Density = 2.037110 g / cm^3
# Si number density = 20.417571 Si / 1000 Ang^3
#
#
#
# Elastic Constant Matrix: (Units=GPa)
#
#
# Indices 1 2 3 4 5 6 
#
# 1 141.4659 39.2046 37.1998 -2.1171 -2.2178 -14.7166
# 2 39.2046 91.5459 23.3576 2.8940 -1.5608 -9.1476
# 3 37.1998 23.3576 90.0301 2.0500 5.3275 -7.8933
# 4 -2.1171 2.8940 2.0500 37.2989 -10.0095 -4.0011
# 5 -2.2178 -1.5608 5.3275 -10.0095 33.1990 4.9604
# 6 -14.7166 -9.1476 -7.8933 -4.0011 4.9604 35.4312
#
#
#
# Elastic Compliance Matrix: (Units=1/GPa)
#
#
# Indices 1 2 3 4 5 6 
#
# 1 0.008886 -0.002882 -0.002808 0.001397 0.000980 0.002342
# 2 -0.002882 0.012854 -0.002005 -0.000816 0.000256 0.001547
# 3 -0.002808 -0.002005 0.013131 -0.001377 -0.003030 0.001510
# 4 0.001397 -0.000816 -0.001377 0.029647 0.008891 0.002166
# 5 0.000980 0.000256 -0.003030 0.008891 0.033956 -0.003952
# 6 0.002342 0.001547 0.001510 0.002166 -0.003952 0.030730
#
#
# Mechanical properties :
#
#
# Convention : Reuss Voigt Hill
#
# Bulk Modulus (GPa) = 51.33500 58.06287 54.69894
# Shear Modulus (GPa) = 33.09324 36.07114 34.58219
#
# Velocity S-wave (km/s) = 4.03031 4.20774 4.11998
# Velocity P-wave (km/s) = 6.84507 7.21846 7.03424
#
# Compressibility (1/GPa) = 0.01947989
#
# Stress axis : x y z
#
# Youngs Moduli (GPa) = 112.53717 77.79600 76.15608
#
# Poissons Ratio (x) = 0.22424 0.21387
# Poissons Ratio (y) = 0.32437 0.15269
# Poissons Ratio (z) = 0.31604 0.15597
#
# Static dielectric constant tensor:
#      x y z
#    x 2.312060 -1.615390 0.381120 
#    y -1.615390 2.313870 0.406370 
#    z 0.381120 0.406370 3.783270 
# 
# 
# High freq. dielectric constant tensor:
#      x y z
#    x 1.797620 -0.012450 -0.004210 
#    y -0.012450 1.802770 0.001120 
#    z -0.004210 0.001120 1.809560 
# 
# From -- ./inp_files/272590.got.cif
#   From: 2010.06.25/outbox.cif.g09.slc.cpg/sg2_137_cif.got.tgz:272590.got - 2010.06.27 13:26:56.
