data_PCOD8004737
_publ_section_title
;
Structure prediction by ZEFSAII (Michael W. Deem and Ramdas Pophale) SiO2 
 PCOD8004737
Probable space group: P -1
;
_chemical_formula_sum "Si O2"
_cell_formula_units_Z 16
_cell_length_a 22.473644
_cell_length_b 8.300192
_cell_length_c 5.257696
_cell_angle_alpha 78.078687
_cell_angle_beta 98.256094
_cell_angle_gamma 132.208928
_cell_volume 710.756024
_symmetry_space_group_name_H-M "P -1"
_symmetry_group_IT_number 2
_symmetry_cell_setting 'triclinic'
loop_
_space_group_symop_operation_xyz
x,y,z
-x,-y,-z
loop_
_atom_site_type_symbol
_atom_site_label
_atom_site_fract_x
_atom_site_fract_y
_atom_site_fract_z
Si Si1 0.540295 0.251002 0.912955
Si Si2 0.702734 0.066243 0.671313
Si Si3 0.991389 0.877323 0.283875
Si Si4 0.728256 0.911314 0.248161
Si Si5 0.817973 0.547518 0.401659
Si Si6 0.716625 0.599199 0.019077
Si Si7 0.156989 0.074846 0.404703
Si Si8 0.472696 0.138685 0.407575
O O1 0.501373 0.278468 0.641423
O O2 0.636032 0.408321 0.878094
O O3 0.517892 0.306733 0.141439
O O4 0.500000 0.000000 0.000000
O O5 0.688715 0.911771 0.481381
O O6 0.778391 0.319906 0.585329
O O7 0.622106 0.026832 0.645871
O O8 0.721211 0.022094 0.971918
O O9 0.902352 0.635808 0.305885
O O10 0.064542 0.877247 0.325964
O O11 0.000000 0.000000 0.500000
O O12 0.000000 0.000000 0.000000
O O13 0.689749 0.665320 0.221034
O O14 0.820379 0.026546 0.344152
O O15 0.758170 0.504052 0.159187
O O16 0.834359 0.724431 0.549334
O O17 0.779953 0.823162 0.822953
O O18 0.500000 0.000000 0.500000
#
# Coordination Sequence:
#
# PCOD8004737 Si02
#       8
#     2   2   2   2   2   2   2   2
#     4  10  22  36  62  94 124 152 210 271 316 372
#     4  12  25  44  68  95 135 169 220 271 326 384
#     4  10  20  38  62 103 134 160 214 279 323 370
#     4  11  26  44  64  94 135 184 211 260 325 407
#     4  10  23  37  71 103 125 168 225 278 319 376
#     4  11  22  42  71  94 129 178 221 258 332 396
#     4  10  22  42  70  95 132 177 217 264 326 397
#     4  10  22  40  60  92 125 160 201 275 325 366
#
# _framework density 22.511241999999999
#
# number of rings (size 3 to 8) (size 9 to 14) (size 15 to 20)
#    0.000    1.500    2.500    2.250    8.750    0.000 
#    0.000    5.000    0.000    0.000    0.000    0.000 
#    0.000    0.000    0.000    0.000    0.000    0.000 
#
# Total GULP energy -198225.532923 kJ/mol
# GULP energy per Si atom -12389.095808 kJ/mol
# Density = 2.246001 g / cm^3
# Si number density = 22.511242 Si / 1000 Ang^3
#
#
#
# Elastic Constant Matrix: (Units=GPa)
#
#
# Indices 1 2 3 4 5 6 
#
# 1 123.8915 48.3852 47.5221 2.3736 14.6909 35.8695
# 2 48.3852 54.4748 17.3372 1.7969 7.1246 31.9473
# 3 47.5221 17.3372 164.0289 20.3292 8.9137 19.3360
# 4 2.3736 1.7969 20.3292 22.2725 4.1701 -3.8878
# 5 14.6909 7.1246 8.9137 4.1701 44.2867 5.6256
# 6 35.8695 31.9473 19.3360 -3.8878 5.6256 46.0067
#
#
#
# Elastic Compliance Matrix: (Units=1/GPa)
#
#
# Indices 1 2 3 4 5 6 
#
# 1 0.013926 -0.009814 -0.002822 0.001902 -0.002346 -0.002409
# 2 -0.009814 0.038922 0.002154 -0.007702 -0.000056 -0.020925
# 3 -0.002822 0.002154 0.008044 -0.007826 0.000133 -0.003354
# 4 0.001902 -0.007702 -0.007826 0.055491 -0.004618 0.012409
# 5 -0.002346 -0.000056 0.000133 -0.004618 0.023967 -0.001509
# 6 -0.002409 -0.020925 -0.003354 0.012409 -0.001509 0.040787
#
#
# Mechanical properties :
#
#
# Convention : Reuss Voigt Hill
#
# Bulk Modulus (GPa) = 25.04505 63.20937 44.12721
# Shear Modulus (GPa) = 23.21139 37.78990 30.50064
#
# Velocity S-wave (km/s) = 3.21456 4.10165 3.68490
# Velocity P-wave (km/s) = 4.99275 7.11136 6.14406
#
# Compressibility (1/GPa) = 0.03992804
#
# Stress axis : x y z
#
# Youngs Moduli (GPa) = 71.80804 25.69239 124.31026
#
# Poissons Ratio (x) = 0.25216 0.35074
# Poissons Ratio (y) = 0.70476 -0.26774
# Poissons Ratio (z) = 0.20261 -0.05534
#
# Static dielectric constant tensor:
#      x y z
#    x 4.344970 0.415390 0.080820 
#    y 0.415390 3.728320 0.153740 
#    z 0.080820 0.153740 4.028270 
# 
# 
# High freq. dielectric constant tensor:
#      x y z
#    x 1.888920 0.025240 0.000010 
#    y 0.025240 1.849740 0.021080 
#    z 0.000010 0.021080 1.907910 
# 
# From -- ./inp_files/51564.got.cif
#   From: 2010.06.25/outbox.cif.g09.slc.cpg/sg2_26_cif.got.tgz:51564.got - 2010.06.27 13:26:56.
