data_PCOD8004597
_publ_section_title
;
Structure prediction by ZEFSAII (Michael W. Deem and Ramdas Pophale) SiO2 
 PCOD8004597
Probable space group: P -1
;
_chemical_formula_sum "Si O2"
_cell_formula_units_Z 16
_cell_length_a 6.830690
_cell_length_b 10.375266
_cell_length_c 11.697107
_cell_angle_alpha 88.891683
_cell_angle_beta 114.776351
_cell_angle_gamma 78.654734
_cell_volume 733.122707
_symmetry_space_group_name_H-M "P -1"
_symmetry_group_IT_number 2
_symmetry_cell_setting 'triclinic'
loop_
_space_group_symop_operation_xyz
x,y,z
-x,-y,-z
loop_
_atom_site_type_symbol
_atom_site_label
_atom_site_fract_x
_atom_site_fract_y
_atom_site_fract_z
Si Si1 0.754837 0.494665 0.540862
Si Si2 0.707560 0.044342 0.002045
Si Si3 0.817459 0.686842 0.371206
Si Si4 0.502695 0.136632 0.552161
Si Si5 0.736346 0.550198 0.924555
Si Si6 0.716235 0.710514 0.694539
Si Si7 0.149735 0.026403 0.210614
Si Si8 0.489847 0.330882 0.902486
O O1 0.500000 0.500000 0.500000
O O2 0.766635 0.554578 0.417097
O O3 0.851641 0.581861 0.660176
O O4 0.915649 0.346133 0.585075
O O5 0.674595 0.201139 0.978970
O O6 0.763000 0.969300 0.897017
O O7 0.901904 0.004804 0.144177
O O8 0.500000 0.000000 0.000000
O O9 0.722562 0.810869 0.429524
O O10 0.688518 0.712687 0.221110
O O11 0.502241 0.237549 0.442844
O O12 0.500000 0.000000 0.500000
O O13 0.717308 0.105488 0.687490
O O14 0.662055 0.661973 0.806926
O O15 0.621114 0.429212 0.871306
O O16 0.642612 0.610953 0.019488
O O17 0.000000 0.500000 0.000000
O O18 0.840272 0.832313 0.731348
#
# Coordination Sequence:
#
# PCOD8004597 Si02
#       8
#     2   2   2   2   2   2   2   2
#     4  10  21  38  62  95 127 171 213 265 324 395
#     4  11  23  40  64  93 125 172 226 270 323 390
#     4  10  20  38  60  89 126 166 212 263 324 382
#     4   9  19  39  67  93 128 176 215 268 329 391
#     4  11  23  39  62  95 130 174 216 268 335 389
#     4  10  20  39  66  96 131 172 219 262 334 402
#     4  10  21  42  65  91 132 173 214 276 326 379
#     4  11  23  39  62  92 131 166 216 279 321 390
#
# _framework density 21.824449000000001
#
# number of rings (size 3 to 8) (size 9 to 14) (size 15 to 20)
#    0.000    1.750    1.250    3.000    0.000    2.000 
#    4.500    7.500    0.000    9.750    0.000    0.000 
#    0.000    0.000    0.000    0.000    0.000    0.000 
#
# Total GULP energy -198222.538929 kJ/mol
# GULP energy per Si atom -12388.908683 kJ/mol
# Density = 2.177478 g / cm^3
# Si number density = 21.824449 Si / 1000 Ang^3
#
#
#
# Elastic Constant Matrix: (Units=GPa)
#
#
# Indices 1 2 3 4 5 6 
#
# 1 120.1928 42.0657 55.8957 -8.7708 18.1660 -15.2200
# 2 42.0657 120.7825 42.9494 -1.1414 10.1888 -22.4775
# 3 55.8957 42.9494 137.3515 -17.9642 12.2198 -7.6132
# 4 -8.7708 -1.1414 -17.9642 40.5181 -1.6279 -1.8501
# 5 18.1660 10.1888 12.2198 -1.6279 30.0893 -11.1325
# 6 -15.2200 -22.4775 -7.6132 -1.8501 -11.1325 35.3348
#
#
#
# Elastic Compliance Matrix: (Units=1/GPa)
#
#
# Indices 1 2 3 4 5 6 
#
# 1 0.011584 -0.002138 -0.003475 0.000809 -0.004225 0.001592
# 2 -0.002138 0.010859 -0.002391 -0.000936 0.000612 0.005615
# 3 -0.003475 -0.002391 0.009958 0.003490 -0.001361 -0.001119
# 4 0.000809 -0.000936 0.003490 0.026496 0.000617 0.002087
# 5 -0.004225 0.000612 -0.001361 0.000617 0.040228 0.010982
# 6 0.001592 0.005615 -0.001119 0.002087 0.010982 0.035887
#
#
# Mechanical properties :
#
#
# Convention : Reuss Voigt Hill
#
# Bulk Modulus (GPa) = 61.00766 73.34984 67.17875
# Shear Modulus (GPa) = 31.95206 37.01616 34.48411
#
# Velocity S-wave (km/s) = 3.83044 4.12283 3.97932
# Velocity P-wave (km/s) = 6.89765 7.50637 7.20844
#
# Compressibility (1/GPa) = 0.01639138
#
# Stress axis : x y z
#
# Youngs Moduli (GPa) = 86.32729 92.09146 100.42067
#
# Poissons Ratio (x) = 0.19691 0.34901
# Poissons Ratio (y) = 0.18459 0.24010
# Poissons Ratio (z) = 0.30003 0.22019
#
# Static dielectric constant tensor:
#      x y z
#    x 3.820600 0.043440 -0.113410 
#    y 0.043440 5.643550 -0.761660 
#    z -0.113410 -0.761660 4.883600 
# 
# 
# High freq. dielectric constant tensor:
#      x y z
#    x 1.825680 -0.016620 -0.002980 
#    y -0.016620 1.868640 -0.003070 
#    z -0.002980 -0.003070 1.878100 
# 
# From -- ./inp_files/364605.got.cif
#   From: 2010.06.25/outbox.cif.g09.slc.cpg/sg2_183_cif.got.tgz:364605.got - 2010.06.27 13:26:56.
