data_PCOD8004631
_publ_section_title
;
Structure prediction by ZEFSAII (Michael W. Deem and Ramdas Pophale) SiO2 
 PCOD8004631
Probable space group: P -1
;
_chemical_formula_sum "Si O2"
_cell_formula_units_Z 16
_cell_length_a 18.390980
_cell_length_b 11.754443
_cell_length_c 9.923361
_cell_angle_alpha 79.441911
_cell_angle_beta 116.241841
_cell_angle_gamma 149.715896
_cell_volume 871.776690
_symmetry_space_group_name_H-M "P -1"
_symmetry_group_IT_number 2
_symmetry_cell_setting 'triclinic'
loop_
_space_group_symop_operation_xyz
x,y,z
-x,-y,-z
loop_
_atom_site_type_symbol
_atom_site_label
_atom_site_fract_x
_atom_site_fract_y
_atom_site_fract_z
Si Si1 0.722839 0.677383 0.194167
Si Si2 0.900084 0.489144 0.962005
Si Si3 0.059201 0.452599 0.706182
Si Si4 0.603693 0.763438 0.147379
Si Si5 0.188031 0.446531 0.595574
Si Si6 0.940783 0.153995 0.204403
Si Si7 0.286718 0.914524 0.633882
Si Si8 0.494935 0.000747 0.336746
O O1 0.622154 0.646965 0.210578
O O2 0.803757 0.681287 0.354343
O O3 0.584991 0.445971 0.026787
O O4 0.882430 0.944752 0.187422
O O5 0.973037 0.690884 0.894495
O O6 0.696877 0.212540 0.826374
O O7 0.926145 0.556145 0.123240
O O8 0.000000 0.500000 0.000000
O O9 0.097028 0.384816 0.666748
O O10 0.198602 0.728546 0.721700
O O11 0.860775 0.243161 0.562916
O O12 0.622904 0.855536 0.283211
O O13 0.764871 0.005871 0.127889
O O14 0.076013 0.340759 0.397399
O O15 0.383411 0.742067 0.673393
O O16 0.441449 0.040989 0.660769
O O17 0.500000 0.000000 0.500000
#
# Coordination Sequence:
#
# PCOD8004631 Si02
#       8
#     2   2   2   2   2   2   2   2
#     4   9  21  35  64  90 113 156 210 245 276 348
#     4  12  25  37  59  87 125 155 192 245 306 356
#     4  10  22  36  60  90 114 160 194 239 305 350
#     4   9  19  37  62  87 112 153 205 247 285 336
#     4  11  21  38  65  87 122 154 205 239 290 360
#     4  10  20  40  59  87 118 159 196 241 299 343
#     4  10  20  38  61  81 125 153 196 247 289 362
#     4  11  24  38  57  92 120 155 191 245 310 350
#
# _framework density 18.353323
#
# number of rings (size 3 to 8) (size 9 to 14) (size 15 to 20)
#    0.750    1.000    2.500    1.875    7.000    1.000 
#    0.000    0.625    0.000    1.500    0.000    0.000 
#    0.000    0.000    0.000    0.000    0.000    0.000 
#
# Total GULP energy -198358.780248 kJ/mol
# GULP energy per Si atom -12397.423766 kJ/mol
# Density = 1.831155 g / cm^3
# Si number density = 18.353323 Si / 1000 Ang^3
#
#
#
# Elastic Constant Matrix: (Units=GPa)
#
#
# Indices 1 2 3 4 5 6 
#
# 1 99.8933 39.6316 52.5728 -0.4214 -1.2259 0.2284
# 2 39.6316 101.6579 58.6614 4.0915 3.9807 4.9666
# 3 52.5728 58.6614 135.5100 -4.2189 -11.3682 5.5890
# 4 -0.4214 4.0915 -4.2189 34.9900 2.0053 4.6013
# 5 -1.2259 3.9807 -11.3682 2.0053 25.9274 1.6550
# 6 0.2284 4.9666 5.5890 4.6013 1.6550 29.3373
#
#
#
# Elastic Compliance Matrix: (Units=1/GPa)
#
#
# Indices 1 2 3 4 5 6 
#
# 1 0.013251 -0.002875 -0.004013 -0.000103 -0.000761 0.001207
# 2 -0.002875 0.014468 -0.005563 -0.002030 -0.004589 -0.000790
# 3 -0.004013 -0.005563 0.011980 0.001966 0.005890 -0.001950
# 4 -0.000103 -0.002030 0.001966 0.029711 -0.000833 -0.004643
# 5 -0.000761 -0.004589 0.005890 -0.000833 0.042049 -0.002581
# 6 0.001207 -0.000790 -0.001950 -0.004643 -0.002581 0.035456
#
#
# Mechanical properties :
#
#
# Convention : Reuss Voigt Hill
#
# Bulk Modulus (GPa) = 67.58401 70.97698 69.28049
# Shear Modulus (GPa) = 28.28838 30.46396 29.37617
#
# Velocity S-wave (km/s) = 3.93023 4.07856 4.00508
# Velocity P-wave (km/s) = 7.58283 7.80615 7.69530
#
# Compressibility (1/GPa) = 0.01479640
#
# Stress axis : x y z
#
# Youngs Moduli (GPa) = 75.46678 69.11742 83.46919
#
# Poissons Ratio (x) = 0.19873 0.33496
# Poissons Ratio (y) = 0.21699 0.46436
# Poissons Ratio (z) = 0.30285 0.38452
#
# Static dielectric constant tensor:
#      x y z
#    x 3.381010 0.061960 0.125400 
#    y 0.061960 3.401410 0.224070 
#    z 0.125400 0.224070 3.384360 
# 
# 
# High freq. dielectric constant tensor:
#      x y z
#    x 1.707110 -0.002630 0.007080 
#    y -0.002630 1.703080 0.021310 
#    z 0.007080 0.021310 1.711020 
# 
# From -- ./inp_files/333262.got.cif
#   From: 2010.06.25/outbox.cif.g09.slc.cpg/sg2_167_cif.got.tgz:333262.got - 2010.06.27 13:26:56.
