data_PCOD8004944
_publ_section_title
;
Structure prediction by ZEFSAII (Michael W. Deem and Ramdas Pophale) SiO2 
 PCOD8004944
Probable space group: P -1
;
_chemical_formula_sum "Si O2"
_cell_formula_units_Z 14
_cell_length_a 8.958508
_cell_length_b 8.123568
_cell_length_c 17.778478
_cell_angle_alpha 137.926541
_cell_angle_beta 130.767381
_cell_angle_gamma 61.589676
_cell_volume 656.515207
_symmetry_space_group_name_H-M "P -1"
_symmetry_group_IT_number 2
_symmetry_cell_setting 'triclinic'
loop_
_space_group_symop_operation_xyz
x,y,z
-x,-y,-z
loop_
_atom_site_type_symbol
_atom_site_label
_atom_site_fract_x
_atom_site_fract_y
_atom_site_fract_z
Si Si1 0.301684 0.328078 0.536049
Si Si2 0.282839 0.968063 0.945696
Si Si3 0.895495 0.227698 0.322063
Si Si4 0.084077 0.114142 0.642488
Si Si5 0.214205 0.488508 0.102019
Si Si6 0.574723 0.509276 0.111857
Si Si7 0.282573 0.768433 0.367282
O O1 0.262287 0.549813 0.657540
O O2 0.519388 0.365386 0.582719
O O3 0.118611 0.337162 0.420730
O O4 0.306653 0.062818 0.488218
O O5 0.143323 0.951338 0.820642
O O6 0.278705 0.722925 0.911058
O O7 0.500000 0.000000 0.000000
O O8 0.223461 0.218502 0.053955
O O9 0.882291 0.089906 0.351050
O O10 0.292681 0.250140 0.744688
O O11 0.916456 0.308397 0.679949
O O12 0.000000 0.000000 0.500000
O O13 0.384061 0.509686 0.102317
O O14 0.251768 0.703552 0.247403
O O15 0.000000 0.500000 0.000000
O O16 0.500000 0.500000 0.000000
#
# Coordination Sequence:
#
# PCOD8004944 Si02
#       7
#     2   2   2   2   2   2   2
#     4   9  19  33  64  84 119 162 215 250 293 365
#     4  10  21  38  67  91 120 167 218 253 309 387
#     4  10  20  38  63  92 124 163 224 249 307 390
#     4  11  25  41  62  94 137 167 207 268 334 375
#     4  11  22  40  67  94 123 166 220 265 306 383
#     4  11  24  42  67  95 130 169 211 266 335 377
#     4  10  21  38  61  90 127 161 218 253 313 376
#
# _framework density 21.324714
#
# number of rings (size 3 to 8) (size 9 to 14) (size 15 to 20)
#    0.000    1.714    0.000    6.000   12.000    0.000 
#    0.000    5.000    0.000    0.000    0.000    0.000 
#    0.000    0.000    0.000    0.000    0.000    0.000 
#
# Total GULP energy -173436.805705 kJ/mol
# GULP energy per Si atom -12388.343265 kJ/mol
# Density = 2.127618 g / cm^3
# Si number density = 21.324714 Si / 1000 Ang^3
#
#
#
# Elastic Constant Matrix: (Units=GPa)
#
#
# Indices 1 2 3 4 5 6 
#
# 1 114.5435 41.4397 46.5615 -7.6223 8.9128 -25.0920
# 2 41.4397 108.5344 41.8549 -2.1759 1.2996 -12.9209
# 3 46.5615 41.8549 122.1980 -6.4351 8.2442 4.5053
# 4 -7.6223 -2.1759 -6.4351 31.5584 -2.6831 -2.0866
# 5 8.9128 1.2996 8.2442 -2.6831 36.1607 -9.3185
# 6 -25.0920 -12.9209 4.5053 -2.0866 -9.3185 42.8822
#
#
#
# Elastic Compliance Matrix: (Units=1/GPa)
#
#
# Indices 1 2 3 4 5 6 
#
# 1 0.013207 -0.002411 -0.004345 0.002636 -0.000029 0.007580
# 2 -0.002411 0.011729 -0.003320 -0.000124 0.001648 0.002824
# 3 -0.004345 -0.003320 0.011381 0.000458 -0.002739 -0.005312
# 4 0.002636 -0.000124 0.000458 0.032872 0.002624 0.003627
# 5 -0.000029 0.001648 -0.002739 0.002624 0.030352 0.007491
# 6 0.007580 0.002824 -0.005312 0.003627 0.007491 0.030968
#
#
# Mechanical properties :
#
#
# Convention : Reuss Voigt Hill
#
# Bulk Modulus (GPa) = 61.86835 67.22090 64.54462
# Shear Modulus (GPa) = 32.04096 36.48157 34.26127
#
# Velocity S-wave (km/s) = 3.88045 4.14063 4.01265
# Velocity P-wave (km/s) = 7.01090 7.37907 7.19734
#
# Compressibility (1/GPa) = 0.01616335
#
# Stress axis : x y z
#
# Youngs Moduli (GPa) = 75.71683 85.26020 87.86502
#
# Poissons Ratio (x) = 0.20560 0.38178
# Poissons Ratio (y) = 0.18259 0.29174
# Poissons Ratio (z) = 0.32899 0.28309
#
# Static dielectric constant tensor:
#      x y z
#    x 4.013930 -0.396830 0.308980 
#    y -0.396830 4.650940 0.378910 
#    z 0.308980 0.378910 4.099960 
# 
# 
# High freq. dielectric constant tensor:
#      x y z
#    x 1.813470 -0.034890 0.018770 
#    y -0.034890 1.829930 0.002750 
#    z 0.018770 0.002750 1.857420 
# 
# From -- ./inp_files/185376.got.cif
#   From: 2010.06.25/outbox.cif.g09.slc.cpg/sg2_93_cif.got.tgz:185376.got - 2010.06.27 13:26:56.
