data_PCOD8004994
_publ_section_title
;
Structure prediction by ZEFSAII (Michael W. Deem and Ramdas Pophale) SiO2 
 PCOD8004994
Probable space group: P -1
;
_chemical_formula_sum "Si O2"
_cell_formula_units_Z 16
_cell_length_a 21.436164
_cell_length_b 19.410931
_cell_length_c 11.389193
_cell_angle_alpha 141.186504
_cell_angle_beta 28.062338
_cell_angle_gamma 160.367133
_cell_volume 707.445987
_symmetry_space_group_name_H-M "P -1"
_symmetry_group_IT_number 2
_symmetry_cell_setting 'triclinic'
loop_
_space_group_symop_operation_xyz
x,y,z
-x,-y,-z
loop_
_atom_site_type_symbol
_atom_site_label
_atom_site_fract_x
_atom_site_fract_y
_atom_site_fract_z
Si Si1 0.276755 0.022483 0.390729
Si Si2 0.094968 0.321044 0.249178
Si Si3 0.672351 0.769428 0.910277
Si Si4 0.938152 0.918739 0.124246
Si Si5 0.753322 0.052930 0.061832
Si Si6 0.905835 0.699263 0.383821
Si Si7 0.350152 0.931603 0.492768
Si Si8 0.297586 0.674311 0.734771
O O1 0.032978 0.824122 0.617250
O O2 0.188039 0.904444 0.258431
O O3 0.280765 0.159276 0.554985
O O4 0.552254 0.180356 0.200194
O O5 0.362817 0.566279 0.171040
O O6 0.158643 0.275966 0.982035
O O7 0.891689 0.263059 0.452916
O O8 0.751899 0.704201 0.651025
O O9 0.794331 0.885325 0.986652
O O10 0.752446 0.919241 0.880972
O O11 0.000000 0.000000 0.000000
O O12 0.493236 0.918076 0.255162
O O13 0.770638 0.110162 0.240818
O O14 0.009086 0.270077 0.849790
O O15 0.711754 0.465471 0.443666
O O16 0.548495 0.165224 0.418701
O O17 0.000000 0.500000 0.000000
#
# Coordination Sequence:
#
# PCOD8004994 Si02
#       8
#     2   2   2   2   2   2   2   2
#     4   9  22  36  62  97 129 162 211 278 321 373
#     4  10  20  38  63  99 126 168 220 265 319 379
#     4  11  23  39  67  98 131 175 211 264 331 389
#     4   9  18  36  59  89 134 160 210 266 319 372
#     4  11  23  45  65  91 138 178 214 260 324 394
#     4  11  24  43  66  98 132 168 217 270 328 377
#     4  10  23  44  69  93 130 178 219 266 318 385
#     4  11  22  44  69  94 125 172 219 271 323 377
#
# _framework density 22.616568000000001
#
# number of rings (size 3 to 8) (size 9 to 14) (size 15 to 20)
#    0.000    1.750    2.500    1.125    1.750    6.500 
#    2.250    0.625    0.000    0.000    0.000    0.000 
#    0.000    0.000    0.000    0.000    0.000    0.000 
#
# Total GULP energy -198256.169787 kJ/mol
# GULP energy per Si atom -12391.010612 kJ/mol
# Density = 2.256509 g / cm^3
# Si number density = 22.616568 Si / 1000 Ang^3
#
#
#
# Elastic Constant Matrix: (Units=GPa)
#
#
# Indices 1 2 3 4 5 6 
#
# 1 124.1788 50.1970 50.3794 -6.4329 -18.2121 -1.4540
# 2 50.1970 73.7257 22.6880 -6.5141 -7.8643 5.6108
# 3 50.3794 22.6880 61.8965 -10.7500 -3.8240 -0.8222
# 4 -6.4329 -6.5141 -10.7500 35.0802 2.2874 -14.3638
# 5 -18.2121 -7.8643 -3.8240 2.2874 41.2249 -1.9403
# 6 -1.4540 5.6108 -0.8222 -14.3638 -1.9403 31.8743
#
#
#
# Elastic Compliance Matrix: (Units=1/GPa)
#
#
# Indices 1 2 3 4 5 6 
#
# 1 0.015739 -0.007348 -0.010022 -0.001255 0.004761 0.001477
# 2 -0.007348 0.019203 -0.001018 0.000452 0.000131 -0.003530
# 3 -0.010022 -0.001018 0.025896 0.007563 -0.002467 0.003648
# 4 -0.001255 0.000452 0.007563 0.037701 -0.001059 0.016983
# 5 0.004761 0.000131 -0.002467 -0.001059 0.026274 0.001253
# 6 0.001477 -0.003530 0.003648 0.016983 0.001253 0.039886
#
#
# Mechanical properties :
#
#
# Convention : Reuss Voigt Hill
#
# Bulk Modulus (GPa) = 41.55856 56.25886 48.90871
# Shear Modulus (GPa) = 23.86695 30.73833 27.30264
#
# Velocity S-wave (km/s) = 3.25204 3.69061 3.47824
# Velocity P-wave (km/s) = 5.70230 6.56428 6.14842
#
# Compressibility (1/GPa) = 0.02406243
#
# Stress axis : x y z
#
# Youngs Moduli (GPa) = 63.53452 52.07623 38.61631
#
# Poissons Ratio (x) = 0.38265 0.38700
# Poissons Ratio (y) = 0.46684 0.03932
# Poissons Ratio (z) = 0.63672 0.05303
#
# Static dielectric constant tensor:
#      x y z
#    x 4.325020 -0.016350 -0.293270 
#    y -0.016350 4.134640 0.319170 
#    z -0.293270 0.319170 4.081420 
# 
# 
# High freq. dielectric constant tensor:
#      x y z
#    x 1.902900 0.003290 -0.022340 
#    y 0.003290 1.867970 0.008730 
#    z -0.022340 0.008730 1.881500 
# 
# From -- ./inp_files/472422.got.cif
#   From: 2010.06.25/outbox.cif.g09.slc.cpg/sg2_237_cif.got.tgz:472422.got - 2010.06.27 13:26:56.
