data_PCOD8004695
_publ_section_title
;
Structure prediction by ZEFSAII (Michael W. Deem and Ramdas Pophale) SiO2 
 PCOD8004695
Probable space group: P -1
;
_chemical_formula_sum "Si O2"
_cell_formula_units_Z 14
_cell_length_a 15.947163
_cell_length_b 8.482780
_cell_length_c 11.485810
_cell_angle_alpha 141.692303
_cell_angle_beta 57.307494
_cell_angle_gamma 96.652882
_cell_volume 654.241125
_symmetry_space_group_name_H-M "P -1"
_symmetry_group_IT_number 2
_symmetry_cell_setting 'triclinic'
loop_
_space_group_symop_operation_xyz
x,y,z
-x,-y,-z
loop_
_atom_site_type_symbol
_atom_site_label
_atom_site_fract_x
_atom_site_fract_y
_atom_site_fract_z
Si Si1 0.643976 0.488872 0.618170
Si Si2 0.728014 0.145935 0.825637
Si Si3 0.105931 0.751569 0.361512
Si Si4 0.529173 0.599691 0.416587
Si Si5 0.973309 0.462259 0.293814
Si Si6 0.440313 0.009601 0.224838
Si Si7 0.083344 0.909342 0.729447
O O1 0.582418 0.304209 0.532028
O O2 0.630147 0.689383 0.632795
O O3 0.785412 0.235895 0.394020
O O4 0.576186 0.731939 0.916746
O O5 0.764333 0.355101 0.854703
O O6 0.645097 0.112335 0.775857
O O7 0.655340 0.311409 0.095584
O O8 0.848389 0.808574 0.576452
O O9 0.092517 0.468016 0.223381
O O10 0.089659 0.921815 0.594049
O O11 0.000000 0.000000 0.500000
O O12 0.500000 0.500000 0.500000
O O13 0.541256 0.883070 0.600453
O O14 0.967142 0.292165 0.313271
O O15 0.990189 0.265679 0.051721
#
# Coordination Sequence:
#
# PCOD8004695 Si02
#       7
#     2   2   2   2   2   2   2
#     4   9  18  34  57  89 118 149 201 246 299 349
#     4  10  20  38  61  90 121 157 206 240 301 364
#     4  10  24  42  59  86 125 167 204 242 300 365
#     4   9  19  33  58  92 116 153 199 247 296 355
#     4  10  23  40  61  93 119 159 206 251 301 352
#     4   9  17  34  59  87 118 153 194 248 297 354
#     4  11  22  40  62  89 126 157 201 255 301 354
#
# _framework density 21.39884
#
# number of rings (size 3 to 8) (size 9 to 14) (size 15 to 20)
#    0.000    2.286    1.429    1.286    0.000    6.857 
#    7.714    2.857    0.000    5.143    0.000    0.000 
#    0.000    0.000    0.000    0.000    0.000    0.000 
#
# Total GULP energy -173530.602684 kJ/mol
# GULP energy per Si atom -12395.043049 kJ/mol
# Density = 2.135013 g / cm^3
# Si number density = 21.398840 Si / 1000 Ang^3
#
#
#
# Elastic Constant Matrix: (Units=GPa)
#
#
# Indices 1 2 3 4 5 6 
#
# 1 125.7383 48.4728 59.1528 -8.6435 16.5788 31.5612
# 2 48.4728 72.9916 50.1697 -24.4724 0.5421 21.8240
# 3 59.1528 50.1697 118.4497 -20.0202 13.3460 12.7245
# 4 -8.6435 -24.4724 -20.0202 27.9597 1.4506 -2.5936
# 5 16.5788 0.5421 13.3460 1.4506 34.4016 -3.3961
# 6 31.5612 21.8240 12.7245 -2.5936 -3.3961 40.8180
#
#
#
# Elastic Compliance Matrix: (Units=1/GPa)
#
#
# Indices 1 2 3 4 5 6 
#
# 1 0.014495 -0.005960 -0.003893 -0.003915 -0.005962 -0.007552
# 2 -0.005960 0.031263 -0.006305 0.020046 0.003131 -0.008607
# 3 -0.003893 -0.006305 0.013811 0.003528 -0.003332 0.002022
# 4 -0.003915 0.020046 0.003528 0.054248 -0.002635 -0.005563
# 5 -0.005962 0.003131 -0.003332 -0.002635 0.033950 0.006632
# 6 -0.007552 -0.008607 0.002022 -0.005563 0.006632 0.034508
#
#
# Mechanical properties :
#
#
# Convention : Reuss Voigt Hill
#
# Bulk Modulus (GPa) = 36.69331 70.30779 53.50055
# Shear Modulus (GPa) = 22.35379 31.26147 26.80763
#
# Velocity S-wave (km/s) = 3.23557 3.82631 3.54328
# Velocity P-wave (km/s) = 5.58060 7.24211 6.46495
#
# Compressibility (1/GPa) = 0.02725292
#
# Stress axis : x y z
#
# Youngs Moduli (GPa) = 68.99150 31.98649 72.40452
#
# Poissons Ratio (x) = 0.19065 0.28184
# Poissons Ratio (y) = 0.41121 0.45652
# Poissons Ratio (z) = 0.26856 0.20168
#
# Static dielectric constant tensor:
#      x y z
#    x 4.501090 0.734160 0.221520 
#    y 0.734160 3.936840 -0.183410 
#    z 0.221520 -0.183410 3.852420 
# 
# 
# High freq. dielectric constant tensor:
#      x y z
#    x 1.850050 0.027470 0.007310 
#    y 0.027470 1.812490 -0.015140 
#    z 0.007310 -0.015140 1.836120 
# 
# From -- ./inp_files/390606.got.cif
#   From: 2010.06.25/outbox.cif.g09.slc.cpg/sg2_196_cif.got.tgz:390606.got - 2010.06.27 13:26:56.
