data_PCOD8004483
_publ_section_title
;
Structure prediction by ZEFSAII (Michael W. Deem and Ramdas Pophale) SiO2 
 PCOD8004483
Probable space group: P -1
;
_chemical_formula_sum "Si O2"
_cell_formula_units_Z 16
_cell_length_a 15.654920
_cell_length_b 11.977328
_cell_length_c 9.008403
_cell_angle_alpha 147.651851
_cell_angle_beta 75.783304
_cell_angle_gamma 119.903853
_cell_volume 725.145675
_symmetry_space_group_name_H-M "P -1"
_symmetry_group_IT_number 2
_symmetry_cell_setting 'triclinic'
loop_
_space_group_symop_operation_xyz
x,y,z
-x,-y,-z
loop_
_atom_site_type_symbol
_atom_site_label
_atom_site_fract_x
_atom_site_fract_y
_atom_site_fract_z
Si Si1 0.039680 0.838564 0.232771
Si Si2 0.002260 0.206220 0.131551
Si Si3 0.833964 0.263663 0.408789
Si Si4 0.449995 0.424724 0.654960
Si Si5 0.549464 0.191110 0.486624
Si Si6 0.650506 0.322427 0.887867
Si Si7 0.382904 0.074198 0.028061
Si Si8 0.840746 0.294673 0.768722
O O1 0.143749 0.880606 0.321290
O O2 0.000000 0.000000 0.500000
O O3 0.060655 0.904148 0.122681
O O4 0.951691 0.547049 0.966226
O O5 0.125102 0.442795 0.310448
O O6 0.941227 0.283078 0.350263
O O7 0.000000 0.000000 0.000000
O O8 0.795776 0.161442 0.478386
O O9 0.739431 0.060560 0.115775
O O10 0.517818 0.390811 0.710380
O O11 0.393254 0.161497 0.291351
O O12 0.537129 0.672590 0.810245
O O13 0.358848 0.452382 0.794297
O O14 0.647701 0.315073 0.700517
O O15 0.449483 0.937160 0.306050
O O16 0.586843 0.128824 0.246458
O O17 0.758216 0.356598 0.940324
#
# Coordination Sequence:
#
# PCOD8004483 Si02
#       8
#     2   2   2   2   2   2   2   2
#     4  10  22  40  62  90 123 156 202 262 311 366
#     4  10  22  40  62  92 122 157 204 260 312 380
#     4  10  21  40  62  86 121 165 209 248 318 375
#     4  10  22  38  58  92 127 158 212 260 301 370
#     4  10  20  38  59  86 124 163 199 259 307 367
#     4  10  21  37  60  89 120 160 209 251 311 367
#     4  10  21  39  60  87 122 166 209 252 312 368
#     4  10  21  40  62  88 121 162 207 254 308 379
#
# _framework density 22.064532
#
# number of rings (size 3 to 8) (size 9 to 14) (size 15 to 20)
#    0.000    2.000    1.250    1.500    0.000    5.000 
#    2.250    0.000    0.000    0.000    0.000    0.000 
#    0.000    0.000    0.000    0.000    0.000    0.000 
#
# Total GULP energy -198255.206479 kJ/mol
# GULP energy per Si atom -12390.950405 kJ/mol
# Density = 2.201431 g / cm^3
# Si number density = 22.064532 Si / 1000 Ang^3
#
#
#
# Elastic Constant Matrix: (Units=GPa)
#
#
# Indices 1 2 3 4 5 6 
#
# 1 143.8834 37.1125 43.3055 -6.8289 -19.4958 -20.4024
# 2 37.1125 70.3135 35.5684 -15.0938 -3.6443 -24.5637
# 3 43.3055 35.5684 85.6375 -11.4583 -17.3066 -7.5942
# 4 -6.8289 -15.0938 -11.4583 20.7192 4.2838 -4.8763
# 5 -19.4958 -3.6443 -17.3066 4.2838 44.3430 4.2939
# 6 -20.4024 -24.5637 -7.5942 -4.8763 4.2939 36.1207
#
#
#
# Elastic Compliance Matrix: (Units=1/GPa)
#
#
# Indices 1 2 3 4 5 6 
#
# 1 0.009133 -0.002315 -0.002956 -0.000191 0.002434 0.002648
# 2 -0.002315 0.033086 -0.008323 0.025608 -0.006311 0.023650
# 3 -0.002956 -0.008323 0.017363 0.000506 0.005153 -0.004223
# 4 -0.000191 0.025608 0.000506 0.075472 -0.007836 0.028533
# 5 0.002434 -0.006311 0.005153 -0.007836 0.026456 -0.006037
# 6 0.002648 0.023650 -0.004223 0.028533 -0.006037 0.048945
#
#
# Mechanical properties :
#
#
# Convention : Reuss Voigt Hill
#
# Bulk Modulus (GPa) = 30.86950 59.08966 44.97958
# Shear Modulus (GPa) = 20.12551 32.49310 26.30931
#
# Velocity S-wave (km/s) = 3.02341 3.84166 3.45683
# Velocity P-wave (km/s) = 5.11947 6.82029 6.03014
#
# Compressibility (1/GPa) = 0.03239443
#
# Stress axis : x y z
#
# Youngs Moduli (GPa) = 109.49325 30.22402 57.59317
#
# Poissons Ratio (x) = 0.06998 0.17023
# Poissons Ratio (y) = 0.25351 0.47934
# Poissons Ratio (z) = 0.32363 0.25155
#
# Static dielectric constant tensor:
#      x y z
#    x 4.092790 -0.165420 0.037010 
#    y -0.165420 4.029050 -0.062340 
#    z 0.037010 -0.062340 4.702670 
# 
# 
# High freq. dielectric constant tensor:
#      x y z
#    x 1.867760 -0.003640 -0.007520 
#    y -0.003640 1.856220 -0.009770 
#    z -0.007520 -0.009770 1.867990 
# 
# From -- ./inp_files/308942.got.cif
#   From: 2010.06.25/outbox.cif.g09.slc.cpg/sg2_155_cif.got.tgz:308942.got - 2010.06.27 13:26:56.
