data_PCOD8004922
_publ_section_title
;
Structure prediction by ZEFSAII (Michael W. Deem and Ramdas Pophale) SiO2 
 PCOD8004922
Probable space group: P -1
;
_chemical_formula_sum "Si O2"
_cell_formula_units_Z 14
_cell_length_a 15.638069
_cell_length_b 9.779796
_cell_length_c 8.830638
_cell_angle_alpha 60.256241
_cell_angle_beta 111.831848
_cell_angle_gamma 143.917398
_cell_volume 689.489485
_symmetry_space_group_name_H-M "P -1"
_symmetry_group_IT_number 2
_symmetry_cell_setting 'triclinic'
loop_
_space_group_symop_operation_xyz
x,y,z
-x,-y,-z
loop_
_atom_site_type_symbol
_atom_site_label
_atom_site_fract_x
_atom_site_fract_y
_atom_site_fract_z
Si Si1 0.879000 0.231341 0.988884
Si Si2 0.959424 0.979935 0.152518
Si Si3 0.217493 0.841614 0.375702
Si Si4 0.501890 0.695143 0.554232
Si Si5 0.916702 0.090061 0.527252
Si Si6 0.665908 0.835028 0.294551
Si Si7 0.775288 0.498568 0.448177
O O1 0.843086 0.237569 0.791816
O O2 0.000000 0.500000 0.000000
O O3 0.941194 0.138474 0.082581
O O4 0.727959 0.032457 0.096368
O O5 0.090329 0.081583 0.286389
O O6 0.809989 0.683307 0.248280
O O7 0.000000 0.000000 0.000000
O O8 0.112687 0.799096 0.442885
O O9 0.234635 0.686043 0.534424
O O10 0.381315 0.128139 0.331665
O O11 0.583437 0.823383 0.376356
O O12 0.441325 0.440434 0.686282
O O13 0.376085 0.660277 0.483758
O O14 0.082684 0.325052 0.442935
O O15 0.805641 0.928756 0.405564
#
# Coordination Sequence:
#
# PCOD8004922 Si02
#       7
#     2   2   2   2   2   2   2
#     4  12  24  40  64  99 129 158 215 274 311 358
#     4  10  21  39  64  95 125 159 209 265 310 367
#     4  11  22  39  62  96 122 173 203 259 319 379
#     4  10  22  39  63  86 131 170 209 245 318 390
#     4   9  20  36  68  86 124 164 214 253 312 371
#     4  10  21  41  60  95 122 170 207 262 309 376
#     4  10  20  38  63  90 123 162 214 253 309 377
#
# _framework density 20.304877999999999
#
# number of rings (size 3 to 8) (size 9 to 14) (size 15 to 20)
#    0.857    0.857    2.857    1.714    0.000    7.429 
#    0.000    0.714    0.000    0.000    0.000    0.000 
#    0.000    0.000    0.000    0.000    0.000    0.000 
#
# Total GULP energy -173441.065308 kJ/mol
# GULP energy per Si atom -12388.647522 kJ/mol
# Density = 2.025866 g / cm^3
# Si number density = 20.304878 Si / 1000 Ang^3
#
#
#
# Elastic Constant Matrix: (Units=GPa)
#
#
# Indices 1 2 3 4 5 6 
#
# 1 128.4565 38.6104 25.0983 -7.1745 4.2647 2.9329
# 2 38.6104 127.8282 25.0888 4.6620 3.0817 -5.5600
# 3 25.0983 25.0888 61.8412 0.6171 -4.6255 -13.0544
# 4 -7.1745 4.6620 0.6171 32.1617 0.9718 7.3803
# 5 4.2647 3.0817 -4.6255 0.9718 28.3813 -8.2115
# 6 2.9329 -5.5600 -13.0544 7.3803 -8.2115 41.6072
#
#
#
# Elastic Compliance Matrix: (Units=1/GPa)
#
#
# Indices 1 2 3 4 5 6 
#
# 1 0.009623 -0.002338 -0.003931 0.003433 -0.002938 -0.003413
# 2 -0.002338 0.009173 -0.002655 -0.001947 -0.000795 0.000746
# 3 -0.003931 -0.002655 0.021176 -0.003049 0.006884 0.008466
# 4 0.003433 -0.001947 -0.003049 0.034262 -0.004406 -0.008406
# 5 -0.002938 -0.000795 0.006884 -0.004406 0.040211 0.010978
# 6 -0.003413 0.000746 0.008466 -0.008406 0.010978 0.030688
#
#
# Mechanical properties :
#
#
# Convention : Reuss Voigt Hill
#
# Bulk Modulus (GPa) = 45.20280 55.08012 50.14146
# Shear Modulus (GPa) = 29.35041 35.71861 32.53451
#
# Velocity S-wave (km/s) = 3.80608 4.19873 4.00722
# Velocity P-wave (km/s) = 6.45177 7.11978 6.79399
#
# Compressibility (1/GPa) = 0.02212252
#
# Stress axis : x y z
#
# Youngs Moduli (GPa) = 103.92072 109.01705 47.22413
#
# Poissons Ratio (x) = 0.25485 0.18566
# Poissons Ratio (y) = 0.24294 0.12539
# Poissons Ratio (z) = 0.40856 0.28946
#
# Static dielectric constant tensor:
#      x y z
#    x 3.426880 0.208860 0.054910 
#    y 0.208860 3.731180 -0.172220 
#    z 0.054910 -0.172220 3.565330 
# 
# 
# High freq. dielectric constant tensor:
#      x y z
#    x 1.802830 -0.004560 -0.006620 
#    y -0.004560 1.797970 -0.008210 
#    z -0.006620 -0.008210 1.765300 
# 
# From -- ./inp_files/297934.got.cif
#   From: 2010.06.25/outbox.cif.g09.slc.cpg/sg2_149_cif.got.tgz:297934.got - 2010.06.27 13:26:56.
