data_PCOD8004340
_publ_section_title
;
Structure prediction by ZEFSAII (Michael W. Deem and Ramdas Pophale) SiO2 
 PCOD8004340
Probable space group: P -1
;
_chemical_formula_sum "Si O2"
_cell_formula_units_Z 16
_cell_length_a 12.565581
_cell_length_b 8.799261
_cell_length_c 19.527525
_cell_angle_alpha 102.758542
_cell_angle_beta 39.389385
_cell_angle_gamma 132.606686
_cell_volume 768.651473
_symmetry_space_group_name_H-M "P -1"
_symmetry_group_IT_number 2
_symmetry_cell_setting 'triclinic'
loop_
_space_group_symop_operation_xyz
x,y,z
-x,-y,-z
loop_
_atom_site_type_symbol
_atom_site_label
_atom_site_fract_x
_atom_site_fract_y
_atom_site_fract_z
Si Si1 0.236228 0.274735 0.276977
Si Si2 0.680674 0.784420 0.289709
Si Si3 0.351043 0.221257 0.545251
Si Si4 0.649016 0.713862 0.005343
Si Si5 0.649422 0.070445 0.003767
Si Si6 0.320442 0.583518 0.726790
Si Si7 0.116485 0.425509 0.461383
Si Si8 0.384750 0.076234 0.254897
O O1 0.492430 0.560935 0.139667
O O2 0.068727 0.263921 0.409549
O O3 0.378464 0.244198 0.245351
O O4 0.994971 0.022452 0.320235
O O5 0.621287 0.824701 0.396248
O O6 0.621257 0.553753 0.299247
O O7 0.459204 0.694382 0.337016
O O8 0.011584 0.069277 0.130742
O O9 0.500000 0.500000 0.500000
O O10 0.507382 0.236658 0.410584
O O11 0.599820 0.853271 0.022544
O O12 0.500000 0.500000 0.000000
O O13 0.524332 0.070231 0.129389
O O14 0.500000 0.000000 0.000000
O O15 0.986405 0.367064 0.857574
O O16 0.425643 0.774242 0.755073
O O17 0.000000 0.500000 0.500000
O O18 0.937070 0.232526 0.598048
#
# Coordination Sequence:
#
# PCOD8004340 Si02
#       8
#     2   2   2   2   2   2   2   2
#     4  12  23  43  71  99 128 180 221 270 334 398
#     4  10  22  42  69  96 131 178 220 271 335 393
#     4  10  20  37  70  98 127 166 226 272 321 396
#     4  11  23  45  67  98 136 174 224 269 328 403
#     4  11  26  42  66 101 135 174 219 280 334 387
#     4  10  21  42  66  99 130 172 227 268 331 402
#     4  12  26  45  66 102 136 169 221 282 335 392
#     4  12  23  44  69  94 135 174 223 274 333 401
#
# _framework density 20.815674999999999
#
# number of rings (size 3 to 8) (size 9 to 14) (size 15 to 20)
#    0.000    1.000    3.750    3.750    5.250    0.500 
#    6.750    0.625    0.000    0.000    0.000    0.000 
#    0.000    0.000    0.000    0.000    0.000    0.000 
#
# Total GULP energy -198432.588944 kJ/mol
# GULP energy per Si atom -12402.036809 kJ/mol
# Density = 2.076830 g / cm^3
# Si number density = 20.815675 Si / 1000 Ang^3
#
#
#
# Elastic Constant Matrix: (Units=GPa)
#
#
# Indices 1 2 3 4 5 6 
#
# 1 116.5294 50.0021 61.8743 -3.2646 -12.8944 8.8072
# 2 50.0021 103.3999 56.7711 8.1352 -8.2564 15.1162
# 3 61.8743 56.7711 156.9817 -0.8734 2.6183 3.6240
# 4 -3.2646 8.1352 -0.8734 44.0037 4.5585 2.7165
# 5 -12.8944 -8.2564 2.6183 4.5585 38.5216 -1.4495
# 6 8.8072 15.1162 3.6240 2.7165 -1.4495 38.7954
#
#
#
# Elastic Compliance Matrix: (Units=1/GPa)
#
#
# Indices 1 2 3 4 5 6 
#
# 1 0.012635 -0.003787 -0.003638 0.001267 0.003477 -0.001012
# 2 -0.003787 0.014592 -0.003744 -0.003035 0.002317 -0.004177
# 3 -0.003638 -0.003744 0.009178 0.000805 -0.002691 0.001270
# 4 0.001267 -0.003035 0.000805 0.023780 -0.003131 -0.000962
# 5 0.003477 0.002317 -0.002691 -0.003131 0.028167 -0.000169
# 6 -0.001012 -0.004177 0.001270 -0.000962 -0.000169 0.027576
#
#
# Mechanical properties :
#
#
# Convention : Reuss Voigt Hill
#
# Bulk Modulus (GPa) = 71.08289 79.35621 75.21955
# Shear Modulus (GPa) = 34.97607 38.14838 36.56222
#
# Velocity S-wave (km/s) = 4.10356 4.28562 4.19558
# Velocity P-wave (km/s) = 7.52829 7.91800 7.72561
#
# Compressibility (1/GPa) = 0.01406808
#
# Stress axis : x y z
#
# Youngs Moduli (GPa) = 79.14619 68.52959 108.95488
#
# Poissons Ratio (x) = 0.25949 0.39640
# Poissons Ratio (y) = 0.29969 0.40790
# Poissons Ratio (z) = 0.28795 0.25656
#
# Static dielectric constant tensor:
#      x y z
#    x 3.694220 0.256990 0.211850 
#    y 0.256990 3.830990 0.013010 
#    z 0.211850 0.013010 4.148940 
# 
# 
# High freq. dielectric constant tensor:
#      x y z
#    x 1.804370 0.022760 0.006470 
#    y 0.022760 1.817000 -0.002700 
#    z 0.006470 -0.002700 1.833350 
# 
# From -- ./inp_files/206922.got.cif
#   From: 2010.06.25/outbox.cif.g09.slc.cpg/sg2_104_cif.got.tgz:206922.got - 2010.06.27 13:26:56.
