data_PCOD8004670
_publ_section_title
;
Structure prediction by ZEFSAII (Michael W. Deem and Ramdas Pophale) SiO2 
 PCOD8004670
Probable space group: P -1
;
_chemical_formula_sum "Si O2"
_cell_formula_units_Z 16
_cell_length_a 30.808819
_cell_length_b 18.805701
_cell_length_c 12.192870
_cell_angle_alpha 18.996397
_cell_angle_beta 152.391673
_cell_angle_gamma 161.009510
_cell_volume 746.177571
_symmetry_space_group_name_H-M "P -1"
_symmetry_group_IT_number 2
_symmetry_cell_setting 'triclinic'
loop_
_space_group_symop_operation_xyz
x,y,z
-x,-y,-z
loop_
_atom_site_type_symbol
_atom_site_label
_atom_site_fract_x
_atom_site_fract_y
_atom_site_fract_z
Si Si1 0.600783 0.668578 0.758349
Si Si2 0.063905 0.020040 0.448745
Si Si3 0.339494 0.811028 0.743767
Si Si4 0.296054 0.112051 0.567670
Si Si5 0.425248 0.607514 0.694037
Si Si6 0.186062 0.459230 0.278687
Si Si7 0.655332 0.623479 0.491526
Si Si8 0.899718 0.841579 0.908346
O O1 0.445522 0.490507 0.666581
O O2 0.685098 0.000562 0.523444
O O3 0.647832 0.700543 0.694162
O O4 0.608647 0.458326 0.154818
O O5 0.109396 0.285084 0.247960
O O6 0.191875 0.068593 0.653258
O O7 0.028814 0.066816 0.183556
O O8 0.928123 0.681336 0.680975
O O9 0.468476 0.031125 0.630990
O O10 0.356923 0.654957 0.103409
O O11 0.212944 0.536000 0.784925
O O12 0.388282 0.316053 0.583864
O O13 0.160480 0.016053 0.428735
O O14 0.275722 0.821384 0.936264
O O15 0.284563 0.422169 0.587065
O O16 0.500000 0.500000 0.000000
O O17 0.000000 0.000000 0.000000
#
# Coordination Sequence:
#
# PCOD8004670 Si02
#       8
#     2   2   2   2   2   2   2   2
#     4  11  20  36  62  93 120 157 208 257 301 356
#     4   9  21  39  65  86 121 168 206 248 302 360
#     4   9  19  39  61  86 115 165 203 243 310 362
#     4  10  22  38  60  91 120 165 206 249 307 363
#     4  10  22  37  60  93 125 153 198 262 313 346
#     4  11  21  41  64  93 122 158 218 251 293 373
#     4  10  20  38  61  87 126 160 201 246 310 375
#     4  10  23  43  61  88 131 163 202 253 311 370
#
# _framework density 21.442616999999998
#
# number of rings (size 3 to 8) (size 9 to 14) (size 15 to 20)
#    0.000    2.250    0.000    4.500    1.750    3.000 
#   13.500    4.375    0.000    0.000    0.000    0.000 
#    0.000    0.000    0.000    0.000    0.000    0.000 
#
# Total GULP energy -198217.893640 kJ/mol
# GULP energy per Si atom -12388.618352 kJ/mol
# Density = 2.139381 g / cm^3
# Si number density = 21.442617 Si / 1000 Ang^3
#
#
#
# Elastic Constant Matrix: (Units=GPa)
#
#
# Indices 1 2 3 4 5 6 
#
# 1 114.8174 33.0182 20.6383 -1.6017 -16.2898 1.6384
# 2 33.0182 108.2482 16.4006 9.9101 -11.4081 -15.9124
# 3 20.6383 16.4006 41.5724 9.7098 -8.6849 -2.4095
# 4 -1.6017 9.9101 9.7098 23.8056 -1.5312 -4.2620
# 5 -16.2898 -11.4081 -8.6849 -1.5312 34.0869 -3.2393
# 6 1.6384 -15.9124 -2.4095 -4.2620 -3.2393 40.5088
#
#
#
# Elastic Compliance Matrix: (Units=1/GPa)
#
#
# Indices 1 2 3 4 5 6 
#
# 1 0.010851 -0.002801 -0.004570 0.003754 0.003142 -0.001165
# 2 -0.002801 0.011544 -0.001620 -0.003396 0.002376 0.004384
# 3 -0.004570 -0.001620 0.030705 -0.011769 0.004617 0.000506
# 4 0.003754 -0.003396 -0.011769 0.049017 0.000144 0.002983
# 5 0.003142 0.002376 0.004617 0.000144 0.033172 0.003749
# 6 -0.001165 0.004384 0.000506 0.002983 0.003749 0.027099
#
#
# Mechanical properties :
#
#
# Convention : Reuss Voigt Hill
#
# Bulk Modulus (GPa) = 28.47550 44.97247 36.72398
# Shear Modulus (GPa) = 26.03143 32.65230 29.34187
#
# Velocity S-wave (km/s) = 3.48804 3.90651 3.70319
# Velocity P-wave (km/s) = 5.43420 6.43169 5.95387
#
# Compressibility (1/GPa) = 0.03511791
#
# Stress axis : x y z
#
# Youngs Moduli (GPa) = 92.15582 86.62758 32.56827
#
# Poissons Ratio (x) = 0.24267 0.14883
# Poissons Ratio (y) = 0.25816 0.05275
# Poissons Ratio (z) = 0.42113 0.14032
#
# Static dielectric constant tensor:
#      x y z
#    x 4.463970 -0.080380 -0.522920 
#    y -0.080380 3.976000 0.042840 
#    z -0.522920 0.042840 3.793450 
# 
# 
# High freq. dielectric constant tensor:
#      x y z
#    x 1.858270 -0.003810 -0.018120 
#    y -0.003810 1.837220 -0.003340 
#    z -0.018120 -0.003340 1.809020 
# 
# From -- ./inp_files/477713.got.cif
#   From: 2010.06.25/outbox.cif.g09.slc.cpg/sg2_239_cif.got.tgz:477713.got - 2010.06.27 13:26:56.
