data_PCOD8004368
_publ_section_title
;
Structure prediction by ZEFSAII (Michael W. Deem and Ramdas Pophale) SiO2 
 PCOD8004368
Probable space group: P -1
;
_chemical_formula_sum "Si O2"
_cell_formula_units_Z 16
_cell_length_a 8.637477
_cell_length_b 13.237974
_cell_length_c 15.872812
_cell_angle_alpha 43.808781
_cell_angle_beta 139.301517
_cell_angle_gamma 114.487411
_cell_volume 783.109515
_symmetry_space_group_name_H-M "P -1"
_symmetry_group_IT_number 2
_symmetry_cell_setting 'triclinic'
loop_
_space_group_symop_operation_xyz
x,y,z
-x,-y,-z
loop_
_atom_site_type_symbol
_atom_site_label
_atom_site_fract_x
_atom_site_fract_y
_atom_site_fract_z
Si Si1 0.066513 0.830165 0.031894
Si Si2 0.125569 0.088332 0.563932
Si Si3 0.695940 0.371215 0.265542
Si Si4 0.652782 0.120793 0.731675
Si Si5 0.958803 0.070523 0.219728
Si Si6 0.940539 0.649426 0.829479
Si Si7 0.632436 0.216851 0.488240
Si Si8 0.194382 0.426454 0.936557
O O1 0.990684 0.676427 0.078474
O O2 0.298889 0.797307 0.211883
O O3 0.150163 0.895215 0.940629
O O4 0.829449 0.948089 0.906107
O O5 0.374026 0.112379 0.613977
O O6 0.930858 0.250478 0.396839
O O7 0.193703 0.004974 0.733465
O O8 0.000000 0.000000 0.500000
O O9 0.699367 0.350987 0.381045
O O10 0.718051 0.535902 0.143797
O O11 0.439466 0.344896 0.141514
O O12 0.714860 0.215792 0.620611
O O13 0.925877 0.235056 0.146954
O O14 0.236798 0.949994 0.399372
O O15 0.659103 0.750829 0.651841
O O16 0.046226 0.591059 0.816288
O O17 0.000000 0.500000 0.000000
#
# Coordination Sequence:
#
# PCOD8004368 Si02
#       8
#     2   2   2   2   2   2   2   2
#     4  10  21  40  58  85 112 159 198 237 288 342
#     4  11  21  36  58  87 115 147 196 241 289 341
#     4  10  21  35  55  85 117 149 185 240 299 339
#     4  10  22  39  62  80 114 155 205 239 277 346
#     4  10  21  36  60  84 117 153 192 238 287 345
#     4  12  20  33  58  90 119 148 190 235 292 351
#     4  10  20  38  56  82 117 156 194 236 286 340
#     4  11  21  35  57  85 123 149 184 244 296 345
#
# _framework density 20.431370000000001
#
# number of rings (size 3 to 8) (size 9 to 14) (size 15 to 20)
#    0.000    1.500    2.500    3.375    0.000    5.500 
#    0.000    3.125    0.000    0.000    0.000    0.000 
#    0.000    0.000    0.000    0.000    0.000    0.000 
#
# Total GULP energy -198233.822262 kJ/mol
# GULP energy per Si atom -12389.613891 kJ/mol
# Density = 2.038487 g / cm^3
# Si number density = 20.431370 Si / 1000 Ang^3
#
#
#
# Elastic Constant Matrix: (Units=GPa)
#
#
# Indices 1 2 3 4 5 6 
#
# 1 116.0286 33.4371 53.9908 10.0518 -33.1550 -1.5757
# 2 33.4371 61.8041 34.0343 7.9193 -13.7582 -4.6312
# 3 53.9908 34.0343 86.9472 3.5669 -26.5618 -0.6014
# 4 10.0518 7.9193 3.5669 25.9309 -2.4402 -0.1684
# 5 -33.1550 -13.7582 -26.5618 -2.4402 51.7094 -2.4828
# 6 -1.5757 -4.6312 -0.6014 -0.1684 -2.4828 22.7131
#
#
#
# Elastic Compliance Matrix: (Units=1/GPa)
#
#
# Indices 1 2 3 4 5 6 
#
# 1 0.013856 -0.002655 -0.005886 -0.003271 0.005038 0.000790
# 2 -0.002655 0.022388 -0.006637 -0.004790 0.000823 0.004259
# 3 -0.005886 -0.006637 0.018966 0.002096 0.004264 -0.000778
# 4 -0.003271 -0.004790 0.002096 0.040963 -0.000405 -0.000889
# 5 0.005038 0.000823 0.004264 -0.000405 0.025121 0.003373
# 6 0.000790 0.004259 -0.000778 -0.000889 0.003373 0.045292
#
#
# Mechanical properties :
#
#
# Convention : Reuss Voigt Hill
#
# Bulk Modulus (GPa) = 40.23722 56.41159 48.32440
# Shear Modulus (GPa) = 24.36320 29.62518 26.99419
#
# Velocity S-wave (km/s) = 3.45692 3.81200 3.63879
# Velocity P-wave (km/s) = 5.97246 6.85896 6.43101
#
# Compressibility (1/GPa) = 0.02485261
#
# Stress axis : x y z
#
# Youngs Moduli (GPa) = 72.16831 44.66706 52.72732
#
# Poissons Ratio (x) = 0.11860 0.31037
# Poissons Ratio (y) = 0.19162 0.34996
# Poissons Ratio (z) = 0.42480 0.29646
#
# Static dielectric constant tensor:
#      x y z
#    x 4.100700 -0.230500 -0.261230 
#    y -0.230500 3.397090 -0.119710 
#    z -0.261230 -0.119710 3.922840 
# 
# 
# High freq. dielectric constant tensor:
#      x y z
#    x 1.817300 -0.013410 -0.021570 
#    y -0.013410 1.749680 -0.018850 
#    z -0.021570 -0.018850 1.807020 
# 
# From -- ./inp_files/181799.got.cif
#   From: 2010.06.25/outbox.cif.g09.slc.cpg/sg2_91_cif.got.tgz:181799.got - 2010.06.27 13:26:56.
