data_PCOD8004227
_publ_section_title
;
Structure prediction by ZEFSAII (Michael W. Deem and Ramdas Pophale) SiO2 
 PCOD8004227
Probable space group: P -1
;
_chemical_formula_sum "Si O2"
_cell_formula_units_Z 14
_cell_length_a 9.299798
_cell_length_b 9.137971
_cell_length_c 20.343156
_cell_angle_alpha 48.213761
_cell_angle_beta 147.832937
_cell_angle_gamma 132.945379
_cell_volume 655.665957
_symmetry_space_group_name_H-M "P -1"
_symmetry_group_IT_number 2
_symmetry_cell_setting 'triclinic'
loop_
_space_group_symop_operation_xyz
x,y,z
-x,-y,-z
loop_
_atom_site_type_symbol
_atom_site_label
_atom_site_fract_x
_atom_site_fract_y
_atom_site_fract_z
Si Si1 0.577610 0.694214 0.020079
Si Si2 0.461222 0.166519 0.485042
Si Si3 0.834517 0.248106 0.731677
Si Si4 0.885012 0.015852 0.379303
Si Si5 0.074965 0.472995 0.962700
Si Si6 0.430959 0.589190 0.313802
Si Si7 0.635193 0.865121 0.860476
O O1 0.297386 0.685425 0.957195
O O2 0.681051 0.886670 0.951775
O O3 0.500000 0.500000 0.000000
O O4 0.828462 0.683604 0.170133
O O5 0.672802 0.168335 0.626325
O O6 0.539122 0.387814 0.413074
O O7 0.500000 0.000000 0.500000
O O8 0.136671 0.102380 0.400114
O O9 0.719657 0.422716 0.668858
O O10 0.782909 0.079989 0.819790
O O11 0.696830 0.791627 0.348525
O O12 0.703699 0.178348 0.266317
O O13 0.000000 0.000000 0.500000
O O14 0.788844 0.411423 0.829064
O O15 0.248339 0.306867 0.076092
O O16 0.000000 0.500000 0.000000
#
# Coordination Sequence:
#
# PCOD8004227 Si02
#       7
#     2   2   2   2   2   2   2
#     4  10  20  37  66 100 123 178 225 272 332 406
#     4  12  28  46  67 103 144 175 229 292 347 397
#     4  11  22  42  70  99 130 184 230 282 328 410
#     4  11  24  41  71 101 128 188 229 275 336 405
#     4  11  25  41  66 102 141 174 216 292 350 395
#     4  11  24  44  71 100 137 179 239 271 334 423
#     4  10  21  40  68  95 133 166 236 271 327 408
#
# _framework density 21.352338
#
# number of rings (size 3 to 8) (size 9 to 14) (size 15 to 20)
#    0.000    1.143    5.714    1.714    6.000    1.714 
#    0.000    0.714    0.000    0.000    0.000    0.000 
#    0.000    0.000    0.000    0.000    0.000    0.000 
#
# Total GULP energy -173498.025875 kJ/mol
# GULP energy per Si atom -12392.716134 kJ/mol
# Density = 2.130374 g / cm^3
# Si number density = 21.352338 Si / 1000 Ang^3
#
#
#
# Elastic Constant Matrix: (Units=GPa)
#
#
# Indices 1 2 3 4 5 6 
#
# 1 128.2485 41.6169 53.4452 7.8069 -2.7639 -13.5604
# 2 41.6169 96.5228 63.2135 2.9231 -2.3078 -5.5659
# 3 53.4452 63.2135 155.4829 19.7837 -2.0657 -7.8822
# 4 7.8069 2.9231 19.7837 49.0351 -0.5643 1.1462
# 5 -2.7639 -2.3078 -2.0657 -0.5643 29.3606 5.7188
# 6 -13.5604 -5.5659 -7.8822 1.1462 5.7188 31.8275
#
#
#
# Elastic Compliance Matrix: (Units=1/GPa)
#
#
# Indices 1 2 3 4 5 6 
#
# 1 0.009923 -0.002727 -0.002052 -0.000667 -0.000076 0.003281
# 2 -0.002727 0.015021 -0.005382 0.001718 0.000585 -0.000035
# 3 -0.002052 -0.005382 0.009784 -0.003319 -0.000138 0.000752
# 4 -0.000667 0.001718 -0.003319 0.021783 0.000588 -0.001696
# 5 -0.000076 0.000585 -0.000138 0.000588 0.035333 -0.006334
# 6 0.003281 -0.000035 0.000752 -0.001696 -0.006334 0.034196
#
#
# Mechanical properties :
#
#
# Convention : Reuss Voigt Hill
#
# Bulk Modulus (GPa) = 69.41905 77.42282 73.42093
# Shear Modulus (GPa) = 33.07657 36.84323 34.95990
#
# Velocity S-wave (km/s) = 3.94011 4.15841 4.05073
# Velocity P-wave (km/s) = 7.29939 7.70680 7.50586
#
# Compressibility (1/GPa) = 0.01440527
#
# Stress axis : x y z
#
# Youngs Moduli (GPa) = 100.77286 66.57469 102.21097
#
# Poissons Ratio (x) = 0.18155 0.20975
# Poissons Ratio (y) = 0.27481 0.55010
# Poissons Ratio (z) = 0.20680 0.35831
#
# Static dielectric constant tensor:
#      x y z
#    x 4.118610 0.541500 0.073450 
#    y 0.541500 4.189490 0.006900 
#    z 0.073450 0.006900 4.430320 
# 
# 
# High freq. dielectric constant tensor:
#      x y z
#    x 1.818220 0.021060 0.002520 
#    y 0.021060 1.830460 0.006170 
#    z 0.002520 0.006170 1.861320 
# 
# From -- ./inp_files/223288.got.cif
#   From: 2010.06.25/outbox.cif.g09.slc.cpg/sg2_112_cif.got.tgz:223288.got - 2010.06.27 13:26:56.
