data_PCOD8004284
_publ_section_title
;
Structure prediction by ZEFSAII (Michael W. Deem and Ramdas Pophale) SiO2 
 PCOD8004284
Probable space group: P -1
;
_chemical_formula_sum "Si O2"
_cell_formula_units_Z 14
_cell_length_a 5.168219
_cell_length_b 9.379094
_cell_length_c 19.597916
_cell_angle_alpha 48.659963
_cell_angle_beta 54.100012
_cell_angle_gamma 59.809415
_cell_volume 567.230626
_symmetry_space_group_name_H-M "P -1"
_symmetry_group_IT_number 2
_symmetry_cell_setting 'triclinic'
loop_
_space_group_symop_operation_xyz
x,y,z
-x,-y,-z
loop_
_atom_site_type_symbol
_atom_site_label
_atom_site_fract_x
_atom_site_fract_y
_atom_site_fract_z
Si Si1 0.115060 0.194230 0.260156
Si Si2 0.685099 0.375662 0.450831
Si Si3 0.112145 0.197327 0.553794
Si Si4 0.634596 0.006009 0.136213
Si Si5 0.529435 0.569217 0.771716
Si Si6 0.321835 0.830484 0.062611
Si Si7 0.612431 0.360975 0.692333
O O1 0.231271 0.300825 0.274038
O O2 0.847245 0.327892 0.212503
O O3 0.946615 0.020280 0.365122
O O4 0.452627 0.125904 0.188984
O O5 0.500000 0.500000 0.500000
O O6 0.020802 0.268935 0.467643
O O7 0.705643 0.522170 0.337120
O O8 0.484890 0.212414 0.505753
O O9 0.905893 0.327667 0.603637
O O10 0.431898 0.838552 0.201287
O O11 0.983487 0.877115 0.141779
O O12 0.700756 0.155264 0.020717
O O13 0.496257 0.385962 0.881801
O O14 0.694358 0.498754 0.696231
O O15 0.500000 0.000000 0.000000
#
# Coordination Sequence:
#
# PCOD8004284 Si02
#       7
#     2   2   2   2   2   2   2
#     4  11  27  45  66  99 141 181 216 265 345 399
#     4  10  20  37  67 102 126 166 228 282 316 378
#     4  10  22  42  66  95 134 173 222 274 325 390
#     4  10  24  45  69  96 134 177 219 280 332 397
#     4  12  26  43  66 100 137 176 222 275 328 406
#     4  11  24  44  71  99 129 167 233 279 330 387
#     4  10  21  41  67  95 127 175 225 271 326 387
#
# _framework density 24.681321000000001
#
# number of rings (size 3 to 8) (size 9 to 14) (size 15 to 20)
#    0.000    1.429    1.429    3.429    4.000    9.143 
#    0.000    4.286    0.000    0.000    0.000    0.000 
#    0.000    0.000    0.000    0.000    0.000    0.000 
#
# Total GULP energy -173470.543701 kJ/mol
# GULP energy per Si atom -12390.753122 kJ/mol
# Density = 2.462515 g / cm^3
# Si number density = 24.681321 Si / 1000 Ang^3
#
#
#
# Elastic Constant Matrix: (Units=GPa)
#
#
# Indices 1 2 3 4 5 6 
#
# 1 129.8649 44.3165 34.4769 -7.3138 9.1930 17.1535
# 2 44.3165 112.6099 45.1705 -13.7693 9.3521 14.8810
# 3 34.4769 45.1705 124.9321 -24.4173 16.6374 -0.1407
# 4 -7.3138 -13.7693 -24.4173 23.6661 -5.3505 -2.9794
# 5 9.1930 9.3521 16.6374 -5.3505 38.3664 -8.1007
# 6 17.1535 14.8810 -0.1407 -2.9794 -8.1007 42.5683
#
#
#
# Elastic Compliance Matrix: (Units=1/GPa)
#
#
# Indices 1 2 3 4 5 6 
#
# 1 0.009548 -0.002635 -0.001669 -0.001130 -0.001787 -0.003351
# 2 -0.002635 0.011924 -0.002944 0.002379 -0.001344 -0.003206
# 3 -0.001669 -0.002944 0.011700 0.009597 -0.002197 0.001994
# 4 -0.001130 0.002379 0.009597 0.054641 0.004047 0.004250
# 5 -0.001787 -0.001344 -0.002197 0.004047 0.029846 0.007145
# 6 -0.003351 -0.003206 0.001994 0.004250 0.007145 0.027626
#
#
# Mechanical properties :
#
#
# Convention : Reuss Voigt Hill
#
# Bulk Modulus (GPa) = 53.54381 68.37051 60.95716
# Shear Modulus (GPa) = 30.11940 37.14970 33.63455
#
# Velocity S-wave (km/s) = 3.49711 3.88387 3.69555
# Velocity P-wave (km/s) = 6.16827 6.91911 6.55445
#
# Compressibility (1/GPa) = 0.01867629
#
# Stress axis : x y z
#
# Youngs Moduli (GPa) = 104.73322 83.86367 85.47193
#
# Poissons Ratio (x) = 0.22099 0.14264
# Poissons Ratio (y) = 0.27598 0.25162
# Poissons Ratio (z) = 0.17479 0.24688
#
# Static dielectric constant tensor:
#      x y z
#    x 4.808520 0.006010 0.758400 
#    y 0.006010 4.430480 -0.075120 
#    z 0.758400 -0.075120 5.500850 
# 
# 
# High freq. dielectric constant tensor:
#      x y z
#    x 1.988220 0.006080 0.005570 
#    y 0.006080 1.973500 -0.010180 
#    z 0.005570 -0.010180 1.994370 
# 
# From -- ./inp_files/582226.got.cif
#   From: 2010.06.25/outbox.cif.g09.slc.cpg/sg2_292_cif.got.tgz:582226.got - 2010.06.27 13:26:56.
