data_PCOD8004075
_publ_section_title
;
Structure prediction by ZEFSAII (Michael W. Deem and Ramdas Pophale) SiO2 
 PCOD8004075
Probable space group: P -1
;
_chemical_formula_sum "Si O2"
_cell_formula_units_Z 14
_cell_length_a 12.878722
_cell_length_b 20.022877
_cell_length_c 8.691149
_cell_angle_alpha 49.007697
_cell_angle_beta 32.052472
_cell_angle_gamma 34.672118
_cell_volume 670.318004
_symmetry_space_group_name_H-M "P -1"
_symmetry_group_IT_number 2
_symmetry_cell_setting 'triclinic'
loop_
_space_group_symop_operation_xyz
x,y,z
-x,-y,-z
loop_
_atom_site_type_symbol
_atom_site_label
_atom_site_fract_x
_atom_site_fract_y
_atom_site_fract_z
Si Si1 0.896132 0.876309 0.125737
Si Si2 0.028547 0.206437 0.354228
Si Si3 0.366180 0.982104 0.476526
Si Si4 0.626828 0.765043 0.285319
Si Si5 0.207431 0.649032 0.268334
Si Si6 0.240418 0.451189 0.383946
Si Si7 0.816976 0.137716 0.494826
O O1 0.634283 0.944489 0.254114
O O2 0.996053 0.755076 0.257810
O O3 0.838874 0.962810 0.206769
O O4 0.119405 0.841233 0.784304
O O5 0.871361 0.311027 0.517042
O O6 0.828908 0.201278 0.525380
O O7 0.258997 0.078643 0.331991
O O8 0.136808 0.238121 0.036792
O O9 0.424048 0.867676 0.509667
O O10 0.730206 0.641192 0.402582
O O11 0.485754 0.798271 0.245091
O O12 0.188657 0.550539 0.408549
O O13 0.494711 0.606235 0.955173
O O14 0.000000 0.500000 0.500000
O O15 0.000000 0.000000 0.500000
#
# Coordination Sequence:
#
# PCOD8004075 Si02
#       7
#     2   2   2   2   2   2   2
#     4  10  20  38  64  90 127 171 211 254 313 379
#     4  11  24  41  64  96 137 166 206 266 322 384
#     4  10  20  37  63  93 129 170 206 253 314 385
#     4  12  23  39  66  96 130 168 214 261 323 372
#     4  10  24  46  65  93 127 170 218 267 318 372
#     4  11  25  44  71  92 122 169 225 271 310 377
#     4  12  23  37  63  96 133 169 208 255 323 383
#
# _framework density 20.88561
#
# number of rings (size 3 to 8) (size 9 to 14) (size 15 to 20)
#    0.000    1.143    4.286    2.143    0.000    3.429 
#    0.000    1.429    0.000    0.000    0.000    0.000 
#    0.000    0.000    0.000    0.000    0.000    0.000 
#
# Total GULP energy -173593.615091 kJ/mol
# GULP energy per Si atom -12399.543935 kJ/mol
# Density = 2.083807 g / cm^3
# Si number density = 20.885610 Si / 1000 Ang^3
#
#
#
# Elastic Constant Matrix: (Units=GPa)
#
#
# Indices 1 2 3 4 5 6 
#
# 1 128.7265 62.2918 30.2468 -4.7991 -10.3941 12.1128
# 2 62.2918 126.0600 22.9480 -11.9109 6.5526 13.4730
# 3 30.2468 22.9480 34.9921 -2.0512 3.1468 9.6903
# 4 -4.7991 -11.9109 -2.0512 31.9527 -0.5602 1.5056
# 5 -10.3941 6.5526 3.1468 -0.5602 40.3949 6.8870
# 6 12.1128 13.4730 9.6903 1.5056 6.8870 39.8011
#
#
#
# Elastic Compliance Matrix: (Units=1/GPa)
#
#
# Indices 1 2 3 4 5 6 
#
# 1 0.012416 -0.004904 -0.007669 -0.000322 0.004765 -0.001064
# 2 -0.004904 0.011405 -0.002403 0.003383 -0.002629 -0.001456
# 3 -0.007669 -0.002403 0.038718 0.000642 -0.003623 -0.005677
# 4 -0.000322 0.003383 0.000642 0.032670 0.000193 -0.002473
# 5 0.004765 -0.002629 -0.003623 0.000193 0.027449 -0.004435
# 6 -0.001064 -0.001456 -0.005677 -0.002473 -0.004435 0.028185
#
#
# Mechanical properties :
#
#
# Convention : Reuss Voigt Hill
#
# Bulk Modulus (GPa) = 30.68592 57.86132 44.27362
# Shear Modulus (GPa) = 26.08806 34.04920 30.06863
#
# Velocity S-wave (km/s) = 3.53808 4.04204 3.79843
# Velocity P-wave (km/s) = 5.60491 7.03905 6.36251
#
# Compressibility (1/GPa) = 0.03258824
#
# Stress axis : x y z
#
# Youngs Moduli (GPa) = 80.53977 87.67878 25.82745
#
# Poissons Ratio (x) = 0.42995 0.19808
# Poissons Ratio (y) = 0.39494 0.06206
# Poissons Ratio (z) = 0.61769 0.21068
#
# Static dielectric constant tensor:
#      x y z
#    x 4.085980 0.076270 0.032210 
#    y 0.076270 3.816770 0.058210 
#    z 0.032210 0.058210 3.806550 
# 
# 
# High freq. dielectric constant tensor:
#      x y z
#    x 1.835050 0.002060 -0.007080 
#    y 0.002060 1.816370 -0.002250 
#    z -0.007080 -0.002250 1.808960 
# 
# From -- ./inp_files/177150.got.cif
#   From: 2010.06.25/outbox.cif.g09.slc.cpg/sg2_89_cif.got.tgz:177150.got - 2010.06.27 13:26:56.
