data_PCOD8004347
_publ_section_title
;
Structure prediction by ZEFSAII (Michael W. Deem and Ramdas Pophale) SiO2 
 PCOD8004347
Probable space group: P -1
;
_chemical_formula_sum "Si O2"
_cell_formula_units_Z 16
_cell_length_a 22.130086
_cell_length_b 12.218701
_cell_length_c 9.102069
_cell_angle_alpha 131.105087
_cell_angle_beta 28.044247
_cell_angle_gamma 140.292063
_cell_volume 737.366886
_symmetry_space_group_name_H-M "P -1"
_symmetry_group_IT_number 2
_symmetry_cell_setting 'triclinic'
loop_
_space_group_symop_operation_xyz
x,y,z
-x,-y,-z
loop_
_atom_site_type_symbol
_atom_site_label
_atom_site_fract_x
_atom_site_fract_y
_atom_site_fract_z
Si Si1 0.942175 0.346958 0.877067
Si Si2 0.741506 0.495437 0.798948
Si Si3 0.771295 0.713503 0.392507
Si Si4 0.491890 0.651046 0.080402
Si Si5 0.267605 0.215871 0.771657
Si Si6 0.953799 0.080409 0.798082
Si Si7 0.340863 0.680235 0.688013
Si Si8 0.548803 0.183398 0.120828
O O1 0.885608 0.178617 0.948754
O O2 0.077994 0.385114 0.508298
O O3 0.806218 0.319644 0.044302
O O4 0.000000 0.500000 0.000000
O O5 0.659475 0.426426 0.759045
O O6 0.682152 0.607381 0.098695
O O7 0.700250 0.332180 0.844806
O O8 0.825787 0.799080 0.189649
O O9 0.701918 0.510736 0.345794
O O10 0.903681 0.787871 0.292760
O O11 0.647500 0.760702 0.751908
O O12 0.469553 0.756041 0.350500
O O13 0.500000 0.500000 0.000000
O O14 0.417897 0.221642 0.406887
O O15 0.171126 0.059528 0.949964
O O16 0.000000 0.000000 0.500000
O O17 0.414919 0.809961 0.779237
O O18 0.500000 0.000000 0.000000
#
# Coordination Sequence:
#
# PCOD8004347 Si02
#       8
#     2   2   2   2   2   2   2   2
#     4  12  24  46  73 102 146 187 235 290 350 421
#     4  12  23  47  72 101 140 192 230 285 357 425
#     4  11  22  44  71 106 139 186 240 283 353 430
#     4  10  20  37  72 102 133 175 240 282 336 425
#     4  12  25  47  74 100 147 186 235 293 352 426
#     4  12  27  44  70 109 141 186 239 292 349 415
#     4  11  24  44  74 103 139 193 233 286 362 416
#     4  12  29  47  70 109 142 183 238 300 356 415
#
# _framework density 21.698830999999998
#
# number of rings (size 3 to 8) (size 9 to 14) (size 15 to 20)
#    0.000    0.500    6.250    3.000    3.500    1.500 
#    2.250    1.250    0.000    0.000    0.000    0.000 
#    0.000    0.000    0.000    0.000    0.000    0.000 
#
# Total GULP energy -198424.231849 kJ/mol
# GULP energy per Si atom -12401.514491 kJ/mol
# Density = 2.164944 g / cm^3
# Si number density = 21.698831 Si / 1000 Ang^3
#
#
#
# Elastic Constant Matrix: (Units=GPa)
#
#
# Indices 1 2 3 4 5 6 
#
# 1 148.6370 42.9891 53.7519 11.4238 10.5746 4.7572
# 2 42.9891 113.1497 37.7112 11.4379 16.4152 -4.4263
# 3 53.7519 37.7112 96.3666 4.3723 6.0551 -10.4291
# 4 11.4238 11.4379 4.3723 37.9381 -1.8668 10.4954
# 5 10.5746 16.4152 6.0551 -1.8668 41.1449 -0.9528
# 6 4.7572 -4.4263 -10.4291 10.4954 -0.9528 43.2993
#
#
#
# Elastic Compliance Matrix: (Units=1/GPa)
#
#
# Indices 1 2 3 4 5 6 
#
# 1 0.009087 -0.001763 -0.004472 -0.001191 -0.001074 -0.001991
# 2 -0.001763 0.011408 -0.002959 -0.003118 -0.003774 0.001320
# 3 -0.004472 -0.002959 0.014443 -0.000459 0.000271 0.003785
# 4 -0.001191 -0.003118 -0.000459 0.029920 0.002802 -0.007489
# 5 -0.001074 -0.003774 0.000271 0.002802 0.026166 -0.000306
# 6 -0.001991 0.001320 0.003785 -0.007489 -0.000306 0.026169
#
#
# Mechanical properties :
#
#
# Convention : Reuss Voigt Hill
#
# Bulk Modulus (GPa) = 60.43002 69.67310 65.05156
# Shear Modulus (GPa) = 35.43585 39.38989 37.41287
#
# Velocity S-wave (km/s) = 4.04552 4.26526 4.15684
# Velocity P-wave (km/s) = 7.05206 7.51235 7.28584
#
# Compressibility (1/GPa) = 0.01654807
#
# Stress axis : x y z
#
# Youngs Moduli (GPa) = 110.04930 87.65395 69.23695
#
# Poissons Ratio (x) = 0.15458 0.30965
# Poissons Ratio (y) = 0.19407 0.20490
# Poissons Ratio (z) = 0.49218 0.25940
#
# Static dielectric constant tensor:
#      x y z
#    x 4.176550 -0.177260 0.227560 
#    y -0.177260 3.993290 0.006660 
#    z 0.227560 0.006660 4.298060 
# 
# 
# High freq. dielectric constant tensor:
#      x y z
#    x 1.870580 -0.003890 0.012040 
#    y -0.003890 1.836890 0.004360 
#    z 0.012040 0.004360 1.859740 
# 
# From -- ./inp_files/208321.got.cif
#   From: 2010.06.25/outbox.cif.g09.slc.cpg/sg2_105_cif.got.tgz:208321.got - 2010.06.27 13:26:56.
