data_PCOD8004596
_publ_section_title
;
Structure prediction by ZEFSAII (Michael W. Deem and Ramdas Pophale) SiO2 
 PCOD8004596
Probable space group: P -1
;
_chemical_formula_sum "Si O2"
_cell_formula_units_Z 16
_cell_length_a 8.931958
_cell_length_b 15.859878
_cell_length_c 12.035549
_cell_angle_alpha 28.154221
_cell_angle_beta 79.806223
_cell_angle_gamma 79.316045
_cell_volume 790.194027
_symmetry_space_group_name_H-M "P -1"
_symmetry_group_IT_number 2
_symmetry_cell_setting 'triclinic'
loop_
_space_group_symop_operation_xyz
x,y,z
-x,-y,-z
loop_
_atom_site_type_symbol
_atom_site_label
_atom_site_fract_x
_atom_site_fract_y
_atom_site_fract_z
Si Si1 0.679123 0.558607 0.218105
Si Si2 0.331675 0.541794 0.275879
Si Si3 0.929097 0.160338 0.052704
Si Si4 0.666110 0.517225 0.913818
Si Si5 0.846132 0.881791 0.743826
Si Si6 0.808573 0.282920 0.347690
Si Si7 0.855723 0.622261 0.340474
Si Si8 0.133118 0.180532 0.435883
O O1 0.500935 0.578810 0.250744
O O2 0.706428 0.382523 0.341145
O O3 0.778832 0.537762 0.340453
O O4 0.717857 0.736991 0.938313
O O5 0.328512 0.500625 0.196112
O O6 0.269554 0.373823 0.548822
O O7 0.216129 0.713800 0.111370
O O8 0.000123 0.198986 0.120635
O O9 0.869544 0.961120 0.297441
O O10 0.073875 0.185783 0.919959
O O11 0.714307 0.716240 0.702351
O O12 0.500000 0.500000 0.000000
O O13 0.773759 0.366525 0.134390
O O14 0.880945 0.916366 0.569458
O O15 0.786480 0.069210 0.593238
O O16 0.984578 0.316813 0.312564
O O17 0.000000 0.500000 0.500000
#
# Coordination Sequence:
#
# PCOD8004596 Si02
#       8
#     2   2   2   2   2   2   2   2
#     4  11  22  39  63  91 123 160 201 247 310 365
#     4  11  21  39  61  86 125 164 200 248 307 361
#     4   9  20  37  60  88 112 154 212 246 298 353
#     4  12  23  36  56  95 126 158 200 243 305 372
#     4  10  20  38  60  89 126 160 203 254 297 360
#     4  11  22  37  61  93 125 157 206 247 302 364
#     4   9  21  39  67  86 113 160 211 255 294 361
#     4  11  21  36  61  87 124 168 197 256 305 347
#
# _framework density 20.248190999999998
#
# number of rings (size 3 to 8) (size 9 to 14) (size 15 to 20)
#    0.000    1.500    2.500    3.750    5.250    1.000 
#    0.000    3.125    8.250    7.500    0.000    0.000 
#    0.000    0.000    0.000    0.000    0.000    0.000 
#
# Total GULP energy -198249.934778 kJ/mol
# GULP energy per Si atom -12390.620924 kJ/mol
# Density = 2.020211 g / cm^3
# Si number density = 20.248191 Si / 1000 Ang^3
#
#
#
# Elastic Constant Matrix: (Units=GPa)
#
#
# Indices 1 2 3 4 5 6 
#
# 1 124.7960 32.4973 64.3277 3.5645 -12.9761 -7.5894
# 2 32.4973 65.6575 33.7830 14.6476 4.1986 -7.8673
# 3 64.3277 33.7830 121.1812 14.8904 -7.4663 -11.1463
# 4 3.5645 14.6476 14.8904 38.4511 0.2180 -0.6371
# 5 -12.9761 4.1986 -7.4663 0.2180 29.2672 10.3304
# 6 -7.5894 -7.8673 -11.1463 -0.6371 10.3304 28.4682
#
#
#
# Elastic Compliance Matrix: (Units=1/GPa)
#
#
# Indices 1 2 3 4 5 6 
#
# 1 0.012376 -0.004466 -0.005496 0.002619 0.005409 -0.001991
# 2 -0.004466 0.021613 -0.002742 -0.006605 -0.008014 0.006469
# 3 -0.005496 -0.002742 0.012588 -0.003281 0.000302 0.002523
# 4 0.002619 -0.006605 -0.003281 0.029499 0.001915 -0.002447
# 5 0.005409 -0.008014 0.000302 0.001915 0.043576 -0.016424
# 6 -0.001991 0.006469 0.002523 -0.002447 -0.016424 0.043277
#
#
# Mechanical properties :
#
#
# Convention : Reuss Voigt Hill
#
# Bulk Modulus (GPa) = 47.23992 63.65010 55.44501
# Shear Modulus (GPa) = 25.58960 31.30575 28.44767
#
# Velocity S-wave (km/s) = 3.55885 3.93631 3.75233
# Velocity P-wave (km/s) = 6.34573 7.22237 6.79820
#
# Compressibility (1/GPa) = 0.02116854
#
# Stress axis : x y z
#
# Youngs Moduli (GPa) = 80.80419 46.26886 79.44266
#
# Poissons Ratio (x) = 0.20664 0.43662
# Poissons Ratio (y) = 0.36088 0.21780
# Poissons Ratio (z) = 0.44410 0.12685
#
# Static dielectric constant tensor:
#      x y z
#    x 3.846240 0.026830 -0.070130 
#    y 0.026830 3.405840 0.358110 
#    z -0.070130 0.358110 4.196880 
# 
# 
# High freq. dielectric constant tensor:
#      x y z
#    x 1.799010 0.003900 -0.008320 
#    y 0.003900 1.759010 0.025080 
#    z -0.008320 0.025080 1.800350 
# 
# From -- ./inp_files/257811.got.cif
#   From: 2010.06.25/outbox.cif.g09.slc.cpg/sg2_129_cif.got.tgz:257811.got - 2010.06.27 13:26:56.
