data_PCOD8004126
_publ_section_title
;
Structure prediction by ZEFSAII (Michael W. Deem and Ramdas Pophale) SiO2 
 PCOD8004126
Probable space group: P -1
;
_chemical_formula_sum "Si O2"
_cell_formula_units_Z 16
_cell_length_a 8.788784
_cell_length_b 16.698098
_cell_length_c 9.560955
_cell_angle_alpha 34.552040
_cell_angle_beta 73.282316
_cell_angle_gamma 77.091249
_cell_volume 761.918896
_symmetry_space_group_name_H-M "P -1"
_symmetry_group_IT_number 2
_symmetry_cell_setting 'triclinic'
loop_
_space_group_symop_operation_xyz
x,y,z
-x,-y,-z
loop_
_atom_site_type_symbol
_atom_site_label
_atom_site_fract_x
_atom_site_fract_y
_atom_site_fract_z
Si Si1 0.259287 0.326926 0.862747
Si Si2 0.553471 0.331163 0.948377
Si Si3 0.377268 0.970855 0.695786
Si Si4 0.858082 0.314449 0.279072
Si Si5 0.507700 0.230474 0.416889
Si Si6 0.280648 0.381739 0.471863
Si Si7 0.892276 0.898017 0.585070
Si Si8 0.992656 0.465026 0.276009
O O1 0.410477 0.396801 0.802167
O O2 0.296509 0.295269 0.736313
O O3 0.110078 0.429169 0.757592
O O4 0.226673 0.179998 0.162946
O O5 0.689364 0.451429 0.748813
O O6 0.490498 0.289270 0.179567
O O7 0.624172 0.197970 0.034545
O O8 0.436731 0.068276 0.671411
O O9 0.202310 0.014157 0.631253
O O10 0.500000 0.000000 0.500000
O O11 0.690823 0.234414 0.410734
O O12 0.002519 0.210979 0.368887
O O13 0.869985 0.368390 0.357525
O O14 0.880353 0.448835 0.978337
O O15 0.406810 0.325930 0.408494
O O16 0.099732 0.365487 0.487593
O O17 0.000000 0.000000 0.500000
#
# Coordination Sequence:
#
# PCOD8004126 Si02
#       8
#     2   2   2   2   2   2   2   2
#     4  11  24  40  60  93 128 160 199 253 314 373
#     4  11  22  39  64  93 124 162 210 252 299 366
#     4  10  20  37  64  91 120 154 212 259 292 353
#     4  10  21  35  63  93 117 156 212 257 297 349
#     4  11  21  39  65  93 119 163 212 254 297 361
#     4  12  24  39  64  91 130 164 199 254 316 363
#     4  11  21  37  65  90 122 160 209 253 304 363
#     4  10  22  37  58  90 126 156 200 259 304 362
#
# _framework density 20.999611000000002
#
# number of rings (size 3 to 8) (size 9 to 14) (size 15 to 20)
#    0.000    1.250    3.750    4.125    5.250    0.000 
#    0.000    0.625    2.750    1.500    0.000    0.000 
#    0.000    0.000    0.000    0.000    0.000    0.000 
#
# Total GULP energy -198414.811515 kJ/mol
# GULP energy per Si atom -12400.925720 kJ/mol
# Density = 2.095181 g / cm^3
# Si number density = 20.999611 Si / 1000 Ang^3
#
#
#
# Elastic Constant Matrix: (Units=GPa)
#
#
# Indices 1 2 3 4 5 6 
#
# 1 135.4137 43.4390 24.7216 2.9482 12.3793 13.5056
# 2 43.4390 88.1941 39.1835 -7.7099 0.0139 13.9778
# 3 24.7216 39.1835 50.1412 -3.5311 5.0407 1.9917
# 4 2.9482 -7.7099 -3.5311 33.3339 10.1208 -0.1201
# 5 12.3793 0.0139 5.0407 10.1208 22.4946 -9.2394
# 6 13.5056 13.9778 1.9917 -0.1201 -9.2394 36.4377
#
#
#
# Elastic Compliance Matrix: (Units=1/GPa)
#
#
# Indices 1 2 3 4 5 6 
#
# 1 0.009774 -0.003705 -0.001067 0.000225 -0.006830 -0.003874
# 2 -0.003705 0.020437 -0.013874 0.003090 0.001568 -0.005301
# 3 -0.001067 -0.013874 0.032058 0.002324 -0.006699 0.002274
# 4 0.000225 0.003090 0.002324 0.036948 -0.019862 -0.006310
# 5 -0.006830 0.001568 -0.006699 -0.019862 0.066492 0.019091
# 6 -0.003874 -0.005301 0.002274 -0.006310 0.019091 0.035609
#
#
# Mechanical properties :
#
#
# Convention : Reuss Voigt Hill
#
# Bulk Modulus (GPa) = 40.03566 54.27079 47.15323
# Shear Modulus (GPa) = 20.24803 29.54692 24.89747
#
# Velocity S-wave (km/s) = 3.10854 3.75510 3.44701
# Velocity P-wave (km/s) = 5.65600 6.68587 6.19238
#
# Compressibility (1/GPa) = 0.02497773
#
# Stress axis : x y z
#
# Youngs Moduli (GPa) = 102.31140 48.92974 31.19303
#
# Poissons Ratio (x) = 0.18129 0.03329
# Poissons Ratio (y) = 0.37909 0.43277
# Poissons Ratio (z) = 0.10918 0.67884
#
# Static dielectric constant tensor:
#      x y z
#    x 6.758840 -0.714490 0.908970 
#    y -0.714490 4.510680 -0.772780 
#    z 0.908970 -0.772780 4.107710 
# 
# 
# High freq. dielectric constant tensor:
#      x y z
#    x 1.841240 0.008110 0.007370 
#    y 0.008110 1.823660 -0.015880 
#    z 0.007370 -0.015880 1.782130 
# 
# From -- ./inp_files/205034.got.cif
#   From: 2010.06.25/outbox.cif.g09.slc.cpg/sg2_103_cif.got.tgz:205034.got - 2010.06.27 13:26:56.
