data_PCOD8004661
_publ_section_title
;
Structure prediction by ZEFSAII (Michael W. Deem and Ramdas Pophale) SiO2 
 PCOD8004661
Probable space group: P -1
;
_chemical_formula_sum "Si O2"
_cell_formula_units_Z 16
_cell_length_a 15.675371
_cell_length_b 12.029152
_cell_length_c 10.211371
_cell_angle_alpha 51.101862
_cell_angle_beta 119.265421
_cell_angle_gamma 77.080470
_cell_volume 815.677547
_symmetry_space_group_name_H-M "P -1"
_symmetry_group_IT_number 2
_symmetry_cell_setting 'triclinic'
loop_
_space_group_symop_operation_xyz
x,y,z
-x,-y,-z
loop_
_atom_site_type_symbol
_atom_site_label
_atom_site_fract_x
_atom_site_fract_y
_atom_site_fract_z
Si Si1 0.381535 0.785655 0.341203
Si Si2 0.722455 0.784738 0.438040
Si Si3 0.386671 0.082465 0.033590
Si Si4 0.894485 0.315285 0.880215
Si Si5 0.317468 0.471710 0.688494
Si Si6 0.754741 0.162077 0.532322
Si Si7 0.720904 0.287063 0.910587
Si Si8 0.672451 0.140644 0.210597
O O1 0.350976 0.765627 0.478835
O O2 0.560541 0.557594 0.603826
O O3 0.275056 0.823654 0.128833
O O4 0.339797 0.002252 0.148255
O O5 0.679998 0.872775 0.192716
O O6 0.867565 0.509680 0.761076
O O7 0.767168 0.882452 0.470696
O O8 0.574152 0.879263 0.324845
O O9 0.313203 0.315816 0.859828
O O10 0.776984 0.411222 0.603748
O O11 0.859049 0.245526 0.023616
O O12 0.072514 0.097860 0.129326
O O13 0.242694 0.667223 0.592004
O O14 0.495288 0.312695 0.902456
O O15 0.670766 0.204419 0.307662
O O16 0.755570 0.157873 0.163444
#
# Coordination Sequence:
#
# PCOD8004661 Si02
#       8
#     2   2   2   2   2   2   2   2
#     4  11  20  36  60  96 112 152 209 246 277 354
#     4   9  18  35  60  88 118 152 200 242 294 344
#     4   9  17  33  62  89 111 148 207 251 268 338
#     4  11  22  39  62  90 118 161 194 250 291 352
#     4  10  20  38  61  86 118 158 195 236 299 348
#     4  12  25  38  59  90 133 150 187 248 319 342
#     4  11  20  35  64  86 116 154 212 240 274 358
#     4  11  22  39  62  90 118 161 194 250 291 352
#
# _framework density 19.615594999999999
#
# number of rings (size 3 to 8) (size 9 to 14) (size 15 to 20)
#    0.000    1.500    5.000    2.250    0.000    1.000 
#    0.000    7.500    0.000    0.000    0.000    0.000 
#    0.000    0.000    0.000    0.000    0.000    0.000 
#
# Total GULP energy -198400.285230 kJ/mol
# GULP energy per Si atom -12400.017827 kJ/mol
# Density = 1.957095 g / cm^3
# Si number density = 19.615595 Si / 1000 Ang^3
#
#
#
# Elastic Constant Matrix: (Units=GPa)
#
#
# Indices 1 2 3 4 5 6 
#
# 1 78.1957 25.4298 13.3291 -2.3292 -30.2904 13.3019
# 2 25.4298 96.4842 15.5281 -3.1285 -24.1655 18.9634
# 3 13.3291 15.5281 47.3774 -10.9093 -7.2659 11.4803
# 4 -2.3292 -3.1285 -10.9093 36.4176 4.1770 -13.8881
# 5 -30.2904 -24.1655 -7.2659 4.1770 26.5240 -10.5954
# 6 13.3019 18.9634 11.4803 -13.8881 -10.5954 27.8784
#
#
#
# Elastic Compliance Matrix: (Units=1/GPa)
#
#
# Indices 1 2 3 4 5 6 
#
# 1 0.023615 0.001382 -0.003162 -0.003286 0.026962 -0.002296
# 2 0.001382 0.014627 -0.002483 -0.003320 0.012094 -0.006644
# 3 -0.003162 -0.002483 0.024994 0.005318 -0.001933 -0.005181
# 4 -0.003286 -0.003320 0.005318 0.035885 -0.003746 0.018089
# 5 0.026962 0.012094 -0.001933 -0.003746 0.083376 0.009527
# 6 -0.002296 -0.006644 -0.005181 0.018089 0.009527 0.056251
#
#
# Mechanical properties :
#
#
# Convention : Reuss Voigt Hill
#
# Bulk Modulus (GPa) = 18.27814 36.73681 27.50748
# Shear Modulus (GPa) = 18.83178 29.34868 24.09023
#
# Velocity S-wave (km/s) = 3.10181 3.87226 3.50825
# Velocity P-wave (km/s) = 4.70816 6.22588 5.51943
#
# Compressibility (1/GPa) = 0.05471015
#
# Stress axis : x y z
#
# Youngs Moduli (GPa) = 42.34685 68.36778 40.00994
#
# Poissons Ratio (x) = -0.09451 0.12652
# Poissons Ratio (y) = -0.05854 0.09933
# Poissons Ratio (z) = 0.13391 0.16973
#
# Static dielectric constant tensor:
#      x y z
#    x 3.544380 0.321580 -0.244360 
#    y 0.321580 3.606470 -0.252010 
#    z -0.244360 -0.252010 3.328860 
# 
# 
# High freq. dielectric constant tensor:
#      x y z
#    x 1.758500 0.021370 -0.019810 
#    y 0.021370 1.756390 -0.016490 
#    z -0.019810 -0.016490 1.742880 
# 
# From -- ./inp_files/271232.got.cif
#   From: 2010.06.25/outbox.cif.g09.slc.cpg/sg2_136_cif.got.tgz:271232.got - 2010.06.27 13:26:56.
