data_PCOD8004748
_publ_section_title
;
Structure prediction by ZEFSAII (Michael W. Deem and Ramdas Pophale) SiO2 
 PCOD8004748
Probable space group: P -1
;
_chemical_formula_sum "Si O2"
_cell_formula_units_Z 14
_cell_length_a 13.246938
_cell_length_b 6.554606
_cell_length_c 9.247550
_cell_angle_alpha 96.692826
_cell_angle_beta 66.941099
_cell_angle_gamma 68.409959
_cell_volume 654.301325
_symmetry_space_group_name_H-M "P -1"
_symmetry_group_IT_number 2
_symmetry_cell_setting 'triclinic'
loop_
_space_group_symop_operation_xyz
x,y,z
-x,-y,-z
loop_
_atom_site_type_symbol
_atom_site_label
_atom_site_fract_x
_atom_site_fract_y
_atom_site_fract_z
Si Si1 0.075386 0.975763 0.098782
Si Si2 0.698017 0.948701 0.011765
Si Si3 0.657889 0.343366 0.525236
Si Si4 0.926925 0.215667 0.454787
Si Si5 0.615896 0.295908 0.850716
Si Si6 0.526323 0.155514 0.384012
Si Si7 0.829341 0.436267 0.796632
O O1 0.012139 0.193938 0.265375
O O2 0.079871 0.748708 0.154577
O O3 0.208424 0.952781 0.979717
O O4 0.000000 0.000000 0.000000
O O5 0.589578 0.007318 0.193218
O O6 0.770912 0.677711 0.927971
O O7 0.639499 0.061340 0.899710
O O8 0.804213 0.225356 0.451866
O O9 0.594951 0.276747 0.690728
O O10 0.623427 0.239943 0.396351
O O11 0.601213 0.621709 0.566604
O O12 0.894147 0.431938 0.602718
O O13 0.000000 0.000000 0.500000
O O14 0.730360 0.349253 0.804352
O O15 0.500000 0.500000 0.000000
O O16 0.500000 0.000000 0.500000
#
# Coordination Sequence:
#
# PCOD8004748 Si02
#       7
#     2   2   2   2   2   2   2
#     4  10  21  39  63  86 119 165 203 249 298 360
#     4  11  23  39  61  94 121 157 206 253 305 360
#     4  10  22  42  62  89 122 164 201 250 308 366
#     4   9  19  41  64  86 119 159 204 250 307 356
#     4  10  20  38  62  84 117 159 195 245 300 355
#     4  11  25  39  60  90 129 163 199 248 309 375
#     4   9  22  37  58  90 122 153 200 249 301 362
#
# _framework density 21.39687
#
# number of rings (size 3 to 8) (size 9 to 14) (size 15 to 20)
#    0.000    2.000    1.429    1.714    2.000    6.286 
#    0.000    2.857    0.000    0.000    0.000    0.000 
#    0.000    0.000    0.000    0.000    0.000    0.000 
#
# Total GULP energy -173500.076943 kJ/mol
# GULP energy per Si atom -12392.862639 kJ/mol
# Density = 2.134817 g / cm^3
# Si number density = 21.396870 Si / 1000 Ang^3
#
#
#
# Elastic Constant Matrix: (Units=GPa)
#
#
# Indices 1 2 3 4 5 6 
#
# 1 48.6808 22.7444 8.6539 -2.1375 0.9779 -25.8863
# 2 22.7444 113.7894 53.0610 -0.7454 3.2568 -15.0057
# 3 8.6539 53.0610 129.1301 -4.3328 -2.8363 -6.1484
# 4 -2.1375 -0.7454 -4.3328 38.7086 -1.4717 0.6502
# 5 0.9779 3.2568 -2.8363 -1.4717 33.6399 -1.3016
# 6 -25.8863 -15.0057 -6.1484 0.6502 -1.3016 31.6296
#
#
#
# Elastic Compliance Matrix: (Units=1/GPa)
#
#
# Indices 1 2 3 4 5 6 
#
# 1 0.037910 -0.003986 0.000555 0.001608 0.000532 0.029232
# 2 -0.003986 0.011977 -0.004635 -0.000586 -0.001403 0.001473
# 3 0.000555 -0.004635 0.009684 0.001072 0.001302 0.000169
# 4 0.001608 -0.000586 0.001072 0.026067 0.001270 0.000763
# 5 0.000532 -0.001403 0.001302 0.001270 0.030060 0.001234
# 6 0.029232 0.001473 0.000169 0.000763 0.001234 0.056307
#
#
# Mechanical properties :
#
#
# Convention : Reuss Voigt Hill
#
# Bulk Modulus (GPa) = 23.02090 51.16876 37.09483
# Shear Modulus (GPa) = 24.67731 34.60502 29.64116
#
# Velocity S-wave (km/s) = 3.39973 4.02592 3.72600
# Velocity P-wave (km/s) = 5.11794 6.75106 5.99041
#
# Compressibility (1/GPa) = 0.04343879
#
# Stress axis : x y z
#
# Youngs Moduli (GPa) = 26.37846 83.49617 103.26343
#
# Poissons Ratio (x) = 0.33281 -0.05729
# Poissons Ratio (y) = 0.10514 0.47858
# Poissons Ratio (z) = -0.01463 0.38697
#
# Static dielectric constant tensor:
#      x y z
#    x 3.745360 -0.456650 0.063360 
#    y -0.456650 3.990460 -0.207970 
#    z 0.063360 -0.207970 4.465980 
# 
# 
# High freq. dielectric constant tensor:
#      x y z
#    x 1.827680 -0.028290 0.000010 
#    y -0.028290 1.825500 0.001860 
#    z 0.000010 0.001860 1.861060 
# 
# From -- ./inp_files/36901.got.cif
#   From: 2010.06.25/outbox.cif.g09.slc.cpg/sg2_19_cif.got.tgz:36901.got - 2010.06.27 13:26:56.
