data_PCOD8004954
_publ_section_title
;
Structure prediction by ZEFSAII (Michael W. Deem and Ramdas Pophale) SiO2 
 PCOD8004954
Probable space group: P -1
;
_chemical_formula_sum "Si O2"
_cell_formula_units_Z 12
_cell_length_a 12.331131
_cell_length_b 18.753885
_cell_length_c 14.551928
_cell_angle_alpha 160.956673
_cell_angle_beta 150.200478
_cell_angle_gamma 31.343462
_cell_volume 533.701575
_symmetry_space_group_name_H-M "P -1"
_symmetry_group_IT_number 2
_symmetry_cell_setting 'triclinic'
loop_
_space_group_symop_operation_xyz
x,y,z
-x,-y,-z
loop_
_atom_site_type_symbol
_atom_site_label
_atom_site_fract_x
_atom_site_fract_y
_atom_site_fract_z
Si Si1 0.181723 0.460573 0.864540
Si Si2 0.043192 0.245361 0.319829
Si Si3 0.638815 0.593770 0.376415
Si Si4 0.459854 0.704450 0.569205
Si Si5 0.201215 0.150844 0.879285
Si Si6 0.216781 0.328860 0.923072
O O1 0.061519 0.361742 0.573320
O O2 0.208312 0.276962 0.744370
O O3 0.421714 0.512341 0.077717
O O4 0.034818 0.697745 0.080355
O O5 0.275490 0.241313 0.431820
O O6 0.835224 0.376651 0.268859
O O7 0.000000 0.000000 0.000000
O O8 0.593810 0.727297 0.601701
O O9 0.230717 0.898772 0.633799
O O10 0.601335 0.738587 0.803175
O O11 0.419984 0.455564 0.241866
O O12 0.237406 0.126390 0.764451
O O13 0.000000 0.500000 0.000000
#
# Coordination Sequence:
#
# PCOD8004954 Si02
#       6
#     2   2   2   2   2   2
#     4  10  21  42  67  93 130 166 206 263 312 375
#     4  11  24  45  65  91 124 165 217 265 314 367
#     4  10  23  42  65  92 126 165 211 262 314 368
#     4  10  20  38  63  93 126 169 202 251 313 374
#     4  10  20  38  63  95 129 163 204 249 312 378
#     4   9  20  35  55  90 128 161 199 248 302 368
#
# _framework density 22.484476000000001
#
# number of rings (size 3 to 8) (size 9 to 14) (size 15 to 20)
#    0.000    2.000    1.667    1.000    0.000    9.333 
#   12.000    8.333    0.000    0.000    0.000    0.000 
#    0.000    0.000    0.000    0.000    0.000    0.000 
#
# Total GULP energy -148694.278200 kJ/mol
# GULP energy per Si atom -12391.189850 kJ/mol
# Density = 2.243330 g / cm^3
# Si number density = 22.484476 Si / 1000 Ang^3
#
#
#
# Elastic Constant Matrix: (Units=GPa)
#
#
# Indices 1 2 3 4 5 6 
#
# 1 100.5740 21.3860 24.4498 -13.2246 8.4478 -2.4210
# 2 21.3860 84.0106 28.6370 -9.6991 14.1963 -0.9228
# 3 24.4498 28.6370 82.0610 -15.0481 5.9498 2.2490
# 4 -13.2246 -9.6991 -15.0481 20.6050 -1.3210 -5.9477
# 5 8.4478 14.1963 5.9498 -1.3210 24.5752 -4.8100
# 6 -2.4210 -0.9228 2.2490 -5.9477 -4.8100 28.4430
#
#
#
# Elastic Compliance Matrix: (Units=1/GPa)
#
#
# Indices 1 2 3 4 5 6 
#
# 1 0.011674 -0.001274 -0.001836 0.005991 -0.002121 0.001992
# 2 -0.001274 0.015094 -0.003806 0.003081 -0.007172 0.000114
# 3 -0.001836 -0.003806 0.015645 0.008477 -0.000468 0.000177
# 4 0.005991 0.003081 0.008477 0.063873 0.000150 0.013321
# 5 -0.002121 -0.007172 -0.000468 0.000150 0.047179 0.007634
# 6 0.001992 0.000114 0.000177 0.013321 0.007634 0.039394
#
#
# Mechanical properties :
#
#
# Convention : Reuss Voigt Hill
#
# Bulk Modulus (GPa) = 34.98847 46.17680 40.58263
# Shear Modulus (GPa) = 23.12501 27.53616 25.33059
#
# Velocity S-wave (km/s) = 3.21048 3.50333 3.36010
# Velocity P-wave (km/s) = 5.41645 6.07834 5.75691
#
# Compressibility (1/GPa) = 0.02858085
#
# Stress axis : x y z
#
# Youngs Moduli (GPa) = 85.66064 66.25251 63.91947
#
# Poissons Ratio (x) = 0.08441 0.11734
# Poissons Ratio (y) = 0.10914 0.24327
# Poissons Ratio (z) = 0.15726 0.25215
#
# Static dielectric constant tensor:
#      x y z
#    x 4.404300 0.306910 0.162310 
#    y 0.306910 4.353690 -0.070580 
#    z 0.162310 -0.070580 3.696500 
# 
# 
# High freq. dielectric constant tensor:
#      x y z
#    x 1.886160 0.006870 0.009310 
#    y 0.006870 1.894110 -0.020790 
#    z 0.009310 -0.020790 1.867730 
# 
# From -- ./inp_files/26601.got.cif
#   From: 2010.06.25/outbox.cif.g09.slc.cpg/sg2_14_cif.got.tgz:26601.got - 2010.06.27 13:26:56.
