data_PCOD8004545
_publ_section_title
;
Structure prediction by ZEFSAII (Michael W. Deem and Ramdas Pophale) SiO2 
 PCOD8004545
Probable space group: P -1
;
_chemical_formula_sum "Si O2"
_cell_formula_units_Z 16
_cell_length_a 11.964406
_cell_length_b 8.715746
_cell_length_c 10.782957
_cell_angle_alpha 85.571228
_cell_angle_beta 49.523836
_cell_angle_gamma 69.960071
_cell_volume 786.775972
_symmetry_space_group_name_H-M "P -1"
_symmetry_group_IT_number 2
_symmetry_cell_setting 'triclinic'
loop_
_space_group_symop_operation_xyz
x,y,z
-x,-y,-z
loop_
_atom_site_type_symbol
_atom_site_label
_atom_site_fract_x
_atom_site_fract_y
_atom_site_fract_z
Si Si1 0.622981 0.527844 0.814692
Si Si2 0.920325 0.376184 0.928634
Si Si3 0.797602 0.013622 0.846549
Si Si4 0.644722 0.267240 0.147743
Si Si5 0.945287 0.243985 0.647621
Si Si6 0.533170 0.013473 0.333159
Si Si7 0.172528 0.252550 0.964887
Si Si8 0.278100 0.171586 0.297238
O O1 0.524783 0.575852 0.752775
O O2 0.780563 0.362884 0.693892
O O3 0.677425 0.680190 0.800433
O O4 0.500000 0.500000 0.000000
O O5 0.966793 0.314685 0.760538
O O6 0.071359 0.286314 0.910543
O O7 0.781272 0.326743 0.088892
O O8 0.856827 0.574998 0.957240
O O9 0.937656 0.060752 0.680644
O O10 0.692168 0.965690 0.823739
O O11 0.679878 0.179118 0.991512
O O12 0.876304 0.862850 0.897177
O O13 0.631309 0.133788 0.262003
O O14 0.090368 0.238641 0.458397
O O15 0.643435 0.837115 0.203915
O O16 0.500000 0.000000 0.500000
O O17 0.376653 0.091014 0.355484
#
# Coordination Sequence:
#
# PCOD8004545 Si02
#       8
#     2   2   2   2   2   2   2   2
#     4  11  20  37  57  86 115 153 198 237 291 348
#     4  10  20  38  60  84 116 153 202 245 292 347
#     4  10  21  37  58  88 119 151 201 243 291 352
#     4   9  21  37  60  88 113 156 201 242 288 354
#     4  11  22  38  60  87 122 157 194 245 299 345
#     4  10  22  40  59  84 119 155 197 238 301 350
#     4  10  22  36  59  88 111 157 202 245 287 353
#     4  11  24  37  60  89 122 158 194 245 296 349
#
# _framework density 20.336157
#
# number of rings (size 3 to 8) (size 9 to 14) (size 15 to 20)
#    0.000    1.750    2.500    2.250    0.000   12.000 
#    0.000    1.875    0.000    0.000    0.000    0.000 
#    0.000    0.000    0.000    0.000    0.000    0.000 
#
# Total GULP energy -198324.349516 kJ/mol
# GULP energy per Si atom -12395.271845 kJ/mol
# Density = 2.028987 g / cm^3
# Si number density = 20.336157 Si / 1000 Ang^3
#
#
#
# Elastic Constant Matrix: (Units=GPa)
#
#
# Indices 1 2 3 4 5 6 
#
# 1 55.4209 37.3829 32.7209 1.1852 -5.6478 3.1710
# 2 37.3829 112.0580 41.4051 -10.9661 -9.1806 -0.9661
# 3 32.7209 41.4051 90.1871 -18.3735 -18.5695 -0.1422
# 4 1.1852 -10.9661 -18.3735 27.9058 -1.9426 -8.4392
# 5 -5.6478 -9.1806 -18.5695 -1.9426 36.3257 -1.5789
# 6 3.1710 -0.9661 -0.1422 -8.4392 -1.5789 33.8293
#
#
#
# Elastic Compliance Matrix: (Units=1/GPa)
#
#
# Indices 1 2 3 4 5 6 
#
# 1 0.029993 -0.007676 -0.010995 -0.013833 -0.003929 -0.006711
# 2 -0.007676 0.012763 -0.001732 0.005034 0.001520 0.002403
# 3 -0.010995 -0.001732 0.021170 0.016080 0.009775 0.005538
# 4 -0.013833 0.005034 0.016080 0.054468 0.010933 0.015606
# 5 -0.003929 0.001520 0.009775 0.010933 0.033089 0.004724
# 6 -0.006711 0.002403 0.005538 0.015606 0.004724 0.034395
#
#
# Mechanical properties :
#
#
# Convention : Reuss Voigt Hill
#
# Bulk Modulus (GPa) = 43.25609 53.40933 48.33271
# Shear Modulus (GPa) = 21.33197 29.35597 25.34397
#
# Velocity S-wave (km/s) = 3.24229 3.80351 3.53406
# Velocity P-wave (km/s) = 5.94418 6.75346 6.36170
#
# Compressibility (1/GPa) = 0.02311813
#
# Stress axis : x y z
#
# Youngs Moduli (GPa) = 33.34152 78.35359 47.23735
#
# Poissons Ratio (x) = 0.60148 0.51938
# Poissons Ratio (y) = 0.25594 0.08181
# Poissons Ratio (z) = 0.36659 0.13571
#
# Static dielectric constant tensor:
#      x y z
#    x 3.697100 0.007200 -0.240660 
#    y 0.007200 4.003300 -0.196100 
#    z -0.240660 -0.196100 3.648690 
# 
# 
# High freq. dielectric constant tensor:
#      x y z
#    x 1.790450 -0.005560 -0.013080 
#    y -0.005560 1.808940 -0.015080 
#    z -0.013080 -0.015080 1.780580 
# 
# From -- ./inp_files/256812.got.cif
#   From: 2010.06.25/outbox.cif.g09.slc.cpg/sg2_129_cif.got.tgz:256812.got - 2010.06.27 13:26:56.
