data_PCOD8004063
_publ_section_title
;
Structure prediction by ZEFSAII (Michael W. Deem and Ramdas Pophale) SiO2 
 PCOD8004063
Probable space group: P -1
;
_chemical_formula_sum "Si O2"
_cell_formula_units_Z 16
_cell_length_a 12.044918
_cell_length_b 13.067452
_cell_length_c 12.147859
_cell_angle_alpha 48.708653
_cell_angle_beta 143.679140
_cell_angle_gamma 128.374883
_cell_volume 833.687447
_symmetry_space_group_name_H-M "P -1"
_symmetry_group_IT_number 2
_symmetry_cell_setting 'triclinic'
loop_
_space_group_symop_operation_xyz
x,y,z
-x,-y,-z
loop_
_atom_site_type_symbol
_atom_site_label
_atom_site_fract_x
_atom_site_fract_y
_atom_site_fract_z
Si Si1 0.382529 0.871340 0.566597
Si Si2 0.522508 0.967563 0.270829
Si Si3 0.973150 0.809644 0.193372
Si Si4 0.886847 0.156669 0.195293
Si Si5 0.102759 0.902730 0.002500
Si Si6 0.237951 0.157027 0.601556
Si Si7 0.473659 0.773112 0.045142
Si Si8 0.568122 0.653968 0.986710
O O1 0.183118 0.789388 0.413664
O O2 0.517295 0.761095 0.778408
O O3 0.500000 0.000000 0.500000
O O4 0.333464 0.940363 0.593195
O O5 0.621487 0.849387 0.384768
O O6 0.470636 0.065944 0.062206
O O7 0.321105 0.899085 0.214382
O O8 0.968775 0.822858 0.047814
O O9 0.927471 0.939770 0.131923
O O10 0.797882 0.682490 0.170904
O O11 0.943505 0.169747 0.102007
O O12 0.723879 0.244043 0.031560
O O13 0.066386 0.223499 0.369167
O O14 0.831876 0.995695 0.296492
O O15 0.356727 0.255917 0.718931
O O16 0.458024 0.669938 0.001948
O O17 0.500000 0.500000 0.000000
#
# Coordination Sequence:
#
# PCOD8004063 Si02
#       8
#     2   2   2   2   2   2   2   2
#     4  11  20  35  59  89 115 148 187 233 284 343
#     4  10  16  29  48  81 119 144 171 233 289 335
#     4  11  21  34  56  81 116 155 188 228 287 341
#     4  10  18  28  47  79 110 143 181 226 283 341
#     4  11  17  32  53  85 120 144 178 237 295 335
#     4  10  17  26  47  76 111 146 178 222 285 342
#     4  10  18  33  50  71 110 147 186 228 277 331
#     4  11  25  42  57  81 117 155 194 237 280 332
#
# _framework density 19.191845000000001
#
# number of rings (size 3 to 8) (size 9 to 14) (size 15 to 20)
#    0.000    1.500    6.250    2.250    0.000    4.500 
#    0.000    0.000    0.000    0.750    0.000    4.375 
#    0.000    0.000    0.000    0.000    0.000    0.000 
#
# Total GULP energy -198280.735918 kJ/mol
# GULP energy per Si atom -12392.545995 kJ/mol
# Density = 1.914816 g / cm^3
# Si number density = 19.191845 Si / 1000 Ang^3
#
#
#
# Elastic Constant Matrix: (Units=GPa)
#
#
# Indices 1 2 3 4 5 6 
#
# 1 103.7920 33.8990 38.9796 11.0798 0.4117 -18.2360
# 2 33.8990 71.8327 43.0428 13.2476 -3.9021 -11.8860
# 3 38.9796 43.0428 119.8283 34.6218 5.3846 -4.0194
# 4 11.0798 13.2476 34.6218 23.3654 1.3893 -1.9945
# 5 0.4117 -3.9021 5.3846 1.3893 25.9613 6.9576
# 6 -18.2360 -11.8860 -4.0194 -1.9945 6.9576 18.1102
#
#
#
# Elastic Compliance Matrix: (Units=1/GPa)
#
#
# Indices 1 2 3 4 5 6 
#
# 1 0.013960 -0.002918 -0.003229 0.001128 -0.003507 0.012897
# 2 -0.002918 0.020541 -0.006036 -0.000744 0.002208 0.008274
# 3 -0.003229 -0.006036 0.017743 -0.021629 -0.002077 -0.004859
# 4 0.001128 -0.000744 -0.021629 0.075166 -0.000860 0.004456
# 5 -0.003507 0.002208 -0.002077 -0.000860 0.044691 -0.019807
# 6 0.012897 0.008274 -0.004859 0.004456 -0.019807 0.080656
#
#
# Mechanical properties :
#
#
# Convention : Reuss Voigt Hill
#
# Bulk Modulus (GPa) = 35.86939 58.58843 47.22891
# Shear Modulus (GPa) = 17.45718 25.45615 21.45666
#
# Velocity S-wave (km/s) = 3.01925 3.64593 3.34729
# Velocity P-wave (km/s) = 5.55743 6.95110 6.29297
#
# Compressibility (1/GPa) = 0.02787892
#
# Stress axis : x y z
#
# Youngs Moduli (GPa) = 71.63579 48.68263 56.35885
#
# Poissons Ratio (x) = 0.14204 0.18197
# Poissons Ratio (y) = 0.20901 0.34020
# Poissons Ratio (z) = 0.23129 0.29386
#
# Static dielectric constant tensor:
#      x y z
#    x 3.752730 -0.144120 0.084340 
#    y -0.144120 2.879840 0.375970 
#    z 0.084340 0.375970 3.743000 
# 
# 
# High freq. dielectric constant tensor:
#      x y z
#    x 1.762150 -0.020980 0.006140 
#    y -0.020980 1.667570 0.042100 
#    z 0.006140 0.042100 1.748760 
# 
# From -- ./inp_files/424570.got.cif
#   From: 2010.06.25/outbox.cif.g09.slc.cpg/sg2_213_cif.got.tgz:424570.got - 2010.06.27 13:26:56.
