data_PCOD8004553
_publ_section_title
;
Structure prediction by ZEFSAII (Michael W. Deem and Ramdas Pophale) SiO2 
 PCOD8004553
Probable space group: P -1
;
_chemical_formula_sum "Si O2"
_cell_formula_units_Z 16
_cell_length_a 22.613982
_cell_length_b 22.683504
_cell_length_c 9.413719
_cell_angle_alpha 38.014536
_cell_angle_beta 48.468599
_cell_angle_gamma 18.421279
_cell_volume 846.668686
_symmetry_space_group_name_H-M "P -1"
_symmetry_group_IT_number 2
_symmetry_cell_setting 'triclinic'
loop_
_space_group_symop_operation_xyz
x,y,z
-x,-y,-z
loop_
_atom_site_type_symbol
_atom_site_label
_atom_site_fract_x
_atom_site_fract_y
_atom_site_fract_z
Si Si1 0.082612 0.388730 0.924422
Si Si2 0.914831 0.054765 0.678435
Si Si3 0.902313 0.779844 0.394186
Si Si4 0.009883 0.268541 0.196248
Si Si5 0.752813 0.042622 0.862889
Si Si6 0.356430 0.940104 0.451381
Si Si7 0.192069 0.633487 0.244662
Si Si8 0.285951 0.556135 0.556988
O O1 0.057141 0.514350 0.636467
O O2 0.954081 0.444849 0.949446
O O3 0.000000 0.500000 0.000000
O O4 0.319323 0.083028 0.152670
O O5 0.760242 0.139893 0.734058
O O6 0.783189 0.280828 0.541599
O O7 0.000000 0.000000 0.500000
O O8 0.107815 0.806762 0.940150
O O9 0.035487 0.721007 0.343713
O O10 0.717291 0.967618 0.443386
O O11 0.795174 0.915852 0.155554
O O12 0.811146 0.434328 0.253919
O O13 0.065053 0.169414 0.140215
O O14 0.207415 0.028663 0.442483
O O15 0.532878 0.267806 0.714759
O O16 0.593533 0.644988 0.632343
O O17 0.222025 0.649403 0.319460
#
# Coordination Sequence:
#
# PCOD8004553 Si02
#       8
#     2   2   2   2   2   2   2   2
#     4   8  16  36  59  87 120 152 189 238 285 336
#     4  11  25  41  59  86 120 149 193 250 294 341
#     4  10  21  37  60  89 123 150 191 244 285 340
#     4  10  20  38  60  85 120 154 191 243 279 341
#     4  11  24  39  59  89 118 156 192 237 302 342
#     4   9  19  37  60  86 116 152 194 235 282 343
#     4  11  22  39  63  88 111 158 201 231 292 349
#     4  12  21  42  62  81 118 159 193 242 287 345
#
# _framework density 18.897592
#
# number of rings (size 3 to 8) (size 9 to 14) (size 15 to 20)
#    0.750    1.000    3.750    0.750    1.750    1.000 
#    0.000    3.125    0.000    0.000    0.000    0.000 
#    0.000    0.000    0.000    0.000    0.000    0.000 
#
# Total GULP energy -198292.744749 kJ/mol
# GULP energy per Si atom -12393.296547 kJ/mol
# Density = 1.885458 g / cm^3
# Si number density = 18.897592 Si / 1000 Ang^3
#
#
#
# Elastic Constant Matrix: (Units=GPa)
#
#
# Indices 1 2 3 4 5 6 
#
# 1 82.3779 17.2215 33.1273 3.6974 10.3820 4.5274
# 2 17.2215 78.8062 29.2239 3.5159 9.5839 6.0062
# 3 33.1273 29.2239 112.8990 15.7862 11.0923 -2.6837
# 4 3.6974 3.5159 15.7862 21.2090 3.5055 5.0510
# 5 10.3820 9.5839 11.0923 3.5055 30.2115 0.4773
# 6 4.5274 6.0062 -2.6837 5.0510 0.4773 23.6344
#
#
#
# Elastic Compliance Matrix: (Units=1/GPa)
#
#
# Indices 1 2 3 4 5 6 
#
# 1 0.014490 -0.001118 -0.003987 0.001964 -0.003336 -0.003297
# 2 -0.001118 0.014895 -0.003592 0.001957 -0.003181 -0.004333
# 3 -0.003987 -0.003592 0.012441 -0.008987 -0.001095 0.005032
# 4 0.001964 0.001957 -0.008987 0.057246 -0.004416 -0.014039
# 5 -0.003336 -0.003181 -0.001095 -0.004416 0.036146 0.001537
# 6 -0.003297 -0.004333 0.005032 -0.014039 0.001537 0.047584
#
#
# Mechanical properties :
#
#
# Convention : Reuss Voigt Hill
#
# Bulk Modulus (GPa) = 40.93065 48.13650 44.53357
# Shear Modulus (GPa) = 23.99918 27.97835 25.98876
#
# Velocity S-wave (km/s) = 3.56752 3.85193 3.71245
# Velocity P-wave (km/s) = 6.21898 6.73133 6.48022
#
# Compressibility (1/GPa) = 0.02443157
#
# Stress axis : x y z
#
# Youngs Moduli (GPa) = 69.01318 67.13481 80.37992
#
# Poissons Ratio (x) = 0.07509 0.32050
# Poissons Ratio (y) = 0.07719 0.28869
# Poissons Ratio (z) = 0.27518 0.24112
#
# Static dielectric constant tensor:
#      x y z
#    x 3.622860 0.103480 -0.249110 
#    y 0.103480 3.231010 0.027610 
#    z -0.249110 0.027610 4.044320 
# 
# 
# High freq. dielectric constant tensor:
#      x y z
#    x 1.738810 0.013350 0.002420 
#    y 0.013350 1.722120 0.002520 
#    z 0.002420 0.002520 1.731710 
# 
# From -- ./inp_files/325577.got.cif
#   From: 2010.06.25/outbox.cif.g09.slc.cpg/sg2_163_cif.got.tgz:325577.got - 2010.06.27 13:26:56.
