data_PCOD8004131
_publ_section_title
;
Structure prediction by ZEFSAII (Michael W. Deem and Ramdas Pophale) SiO2 
 PCOD8004131
Probable space group: P -1
;
_chemical_formula_sum "Si O2"
_cell_formula_units_Z 16
_cell_length_a 9.758773
_cell_length_b 23.221125
_cell_length_c 14.703718
_cell_angle_alpha 146.315945
_cell_angle_beta 142.060407
_cell_angle_gamma 25.520597
_cell_volume 786.179347
_symmetry_space_group_name_H-M "P -1"
_symmetry_group_IT_number 2
_symmetry_cell_setting 'triclinic'
loop_
_space_group_symop_operation_xyz
x,y,z
-x,-y,-z
loop_
_atom_site_type_symbol
_atom_site_label
_atom_site_fract_x
_atom_site_fract_y
_atom_site_fract_z
Si Si1 0.625378 0.910514 0.584091
Si Si2 0.113438 0.190736 0.589609
Si Si3 0.596722 0.821794 0.636930
Si Si4 0.623162 0.118941 0.962879
Si Si5 0.340571 0.333201 0.948093
Si Si6 0.160595 0.673491 0.875259
Si Si7 0.638573 0.330802 0.680780
Si Si8 0.168800 0.158343 0.889748
O O1 0.938856 0.805151 0.542493
O O2 0.654483 0.810844 0.543497
O O3 0.304366 0.020495 0.496528
O O4 0.542060 0.044295 0.766510
O O5 0.314685 0.231008 0.751268
O O6 0.788832 0.312618 0.637787
O O7 0.485852 0.743253 0.493750
O O8 0.926588 0.737053 0.750319
O O9 0.316406 0.993326 0.748557
O O10 0.476560 0.270819 0.039635
O O11 0.446615 0.153652 0.012095
O O12 0.000000 0.000000 0.000000
O O13 0.579050 0.325376 0.006173
O O14 0.000000 0.500000 0.000000
O O15 0.336362 0.506708 0.771890
O O16 0.961105 0.776692 0.993295
O O17 0.891394 0.259830 0.801476
#
# Coordination Sequence:
#
# PCOD8004131 Si02
#       8
#     2   2   2   2   2   2   2   2
#     4   9  20  38  61  92 119 155 214 253 313 364
#     4  10  20  37  64  92 117 160 210 264 302 367
#     4  11  24  42  64  93 129 167 209 265 318 379
#     4  10  20  39  63  88 125 157 203 266 309 364
#     4  11  20  38  62  87 121 162 207 252 307 371
#     4  12  26  41  63  96 135 167 207 265 328 375
#     4  12  23  43  63  94 132 167 212 264 315 379
#     4  11  23  43  65  96 121 171 223 255 311 383
#
# _framework density 20.351590000000002
#
# number of rings (size 3 to 8) (size 9 to 14) (size 15 to 20)
#    0.000    1.250    5.000    3.000    1.750    3.000 
#    0.000    0.625    0.000    0.000    0.000    0.000 
#    0.000    0.000    0.000    0.000    0.000    0.000 
#
# Total GULP energy -198248.982810 kJ/mol
# GULP energy per Si atom -12390.561426 kJ/mol
# Density = 2.030527 g / cm^3
# Si number density = 20.351590 Si / 1000 Ang^3
#
#
#
# Elastic Constant Matrix: (Units=GPa)
#
#
# Indices 1 2 3 4 5 6 
#
# 1 166.7059 45.8164 58.1800 -1.3614 5.2597 -6.1435
# 2 45.8164 120.9596 35.0212 4.9947 11.8832 4.5569
# 3 58.1800 35.0212 50.4651 7.2530 8.8625 1.4861
# 4 -1.3614 4.9947 7.2530 28.1741 2.3710 7.2760
# 5 5.2597 11.8832 8.8625 2.3710 27.2035 1.2658
# 6 -6.1435 4.5569 1.4861 7.2760 1.2658 23.8557
#
#
#
# Elastic Compliance Matrix: (Units=1/GPa)
#
#
# Indices 1 2 3 4 5 6 
#
# 1 0.010690 -0.000817 -0.012628 0.003057 0.002014 0.002656
# 2 -0.000817 0.010605 -0.005973 0.000297 -0.002470 -0.001824
# 3 -0.012628 -0.005973 0.041195 -0.009140 -0.007504 -0.001492
# 4 0.003057 0.000297 -0.009140 0.040882 -0.000789 -0.011127
# 5 0.002014 -0.002470 -0.007504 -0.000789 0.039982 -0.000423
# 6 0.002656 -0.001824 -0.001492 -0.011127 -0.000423 0.046460
#
#
# Mechanical properties :
#
#
# Convention : Reuss Voigt Hill
#
# Bulk Modulus (GPa) = 42.27755 68.46288 55.37022
# Shear Modulus (GPa) = 21.13858 29.12085 25.12972
#
# Velocity S-wave (km/s) = 3.22634 3.78681 3.51775
# Velocity P-wave (km/s) = 5.89047 7.26863 6.61554
#
# Compressibility (1/GPa) = 0.02365321
#
# Stress axis : x y z
#
# Youngs Moduli (GPa) = 93.54894 94.29451 24.27498
#
# Poissons Ratio (x) = 0.07703 0.30655
# Poissons Ratio (y) = 0.07642 0.14500
# Poissons Ratio (z) = 1.18135 0.56323
#
# Static dielectric constant tensor:
#      x y z
#    x 4.063390 0.150690 0.038630 
#    y 0.150690 3.740400 0.092100 
#    z 0.038630 0.092100 3.582530 
# 
# 
# High freq. dielectric constant tensor:
#      x y z
#    x 1.811860 0.004210 0.000480 
#    y 0.004210 1.794460 0.010210 
#    z 0.000480 0.010210 1.776830 
# 
# From -- ./inp_files/508137.got.cif
#   From: 2010.06.25/outbox.cif.g09.slc.cpg/sg2_255_cif.got.tgz:508137.got - 2010.06.27 13:26:56.
