data_PCOD8004394
_publ_section_title
;
Structure prediction by ZEFSAII (Michael W. Deem and Ramdas Pophale) SiO2 
 PCOD8004394
Probable space group: P -1
;
_chemical_formula_sum "Si O2"
_cell_formula_units_Z 14
_cell_length_a 15.755084
_cell_length_b 13.858019
_cell_length_c 10.379508
_cell_angle_alpha 45.676859
_cell_angle_beta 61.395285
_cell_angle_gamma 26.391583
_cell_volume 638.898567
_symmetry_space_group_name_H-M "P -1"
_symmetry_group_IT_number 2
_symmetry_cell_setting 'triclinic'
loop_
_space_group_symop_operation_xyz
x,y,z
-x,-y,-z
loop_
_atom_site_type_symbol
_atom_site_label
_atom_site_fract_x
_atom_site_fract_y
_atom_site_fract_z
Si Si1 0.891026 0.748929 0.673560
Si Si2 0.466013 0.393437 0.672174
Si Si3 0.579698 0.586487 0.594497
Si Si4 0.005108 0.178943 0.670684
Si Si5 0.215193 0.666576 0.845001
Si Si6 0.611203 0.286517 0.002801
Si Si7 0.060262 0.249867 0.068180
O O1 0.034528 0.645378 0.559154
O O2 0.935933 0.757032 0.773204
O O3 0.645296 0.079307 0.498062
O O4 0.941014 0.529001 0.839911
O O5 0.500000 0.500000 0.500000
O O6 0.404835 0.390819 0.588325
O O7 0.260699 0.636187 0.688510
O O8 0.694500 0.054853 0.880153
O O9 0.603609 0.395340 0.781607
O O10 0.778705 0.415285 0.677644
O O11 0.101498 0.935392 0.743728
O O12 0.147664 0.047411 0.813709
O O13 0.459050 0.346835 0.025361
O O14 0.070443 0.715324 0.923126
O O15 0.500000 0.500000 0.000000
#
# Coordination Sequence:
#
# PCOD8004394 Si02
#       7
#     2   2   2   2   2   2   2
#     4  10  21  41  56  87 119 154 195 234 285 357
#     4  11  20  35  58  92 120 140 192 243 288 348
#     4  11  20  36  61  87 113 155 193 240 292 340
#     4  11  22  37  64  84 116 157 198 237 289 335
#     4  11  21  37  58  90 120 150 190 243 292 333
#     4  10  20  38  57  88 117 148 199 248 275 342
#     4  10  23  37  60  85 123 154 185 240 297 342
#
# _framework density 21.912711999999999
#
# number of rings (size 3 to 8) (size 9 to 14) (size 15 to 20)
#    0.000    1.429    4.286    3.000    0.000    2.857 
#    0.000    5.000    0.000    1.714    0.000    0.000 
#    0.000    0.000    0.000    0.000    0.000    0.000 
#
# Total GULP energy -173511.125923 kJ/mol
# GULP energy per Si atom -12393.651852 kJ/mol
# Density = 2.186284 g / cm^3
# Si number density = 21.912712 Si / 1000 Ang^3
#
#
#
# Elastic Constant Matrix: (Units=GPa)
#
#
# Indices 1 2 3 4 5 6 
#
# 1 81.5160 17.7674 38.2343 -3.7818 8.0208 -26.8500
# 2 17.7674 62.4591 20.2577 -3.0415 1.7981 -18.1974
# 3 38.2343 20.2577 105.1507 -9.0301 -4.6223 -15.9384
# 4 -3.7818 -3.0415 -9.0301 25.3731 -6.4450 6.4787
# 5 8.0208 1.7981 -4.6223 -6.4450 27.9349 -7.2620
# 6 -26.8500 -18.1974 -15.9384 6.4787 -7.2620 35.3988
#
#
#
# Elastic Compliance Matrix: (Units=1/GPa)
#
#
# Indices 1 2 3 4 5 6 
#
# 1 0.018973 -0.000287 -0.005554 -0.003154 -0.004091 0.011481
# 2 -0.000287 0.019402 -0.002303 -0.000667 0.000630 0.008971
# 3 -0.005554 -0.002303 0.012660 0.004549 0.005017 0.000500
# 4 -0.003154 -0.000667 0.004549 0.044823 0.010279 -0.006782
# 5 -0.004091 0.000630 0.005017 0.010279 0.041735 0.006161
# 6 0.011481 0.008971 0.000500 -0.006782 0.006161 0.044300
#
#
# Mechanical properties :
#
#
# Convention : Reuss Voigt Hill
#
# Bulk Modulus (GPa) = 28.77933 44.62718 36.70325
# Shear Modulus (GPa) = 23.83626 29.26576 26.55101
#
# Velocity S-wave (km/s) = 3.30173 3.65850 3.48468
# Velocity P-wave (km/s) = 5.26283 6.18516 5.74254
#
# Compressibility (1/GPa) = 0.03474716
#
# Stress axis : x y z
#
# Youngs Moduli (GPa) = 52.70683 51.54068 78.98587
#
# Poissons Ratio (x) = 0.01477 0.43869
# Poissons Ratio (y) = 0.01511 0.18194
# Poissons Ratio (z) = 0.29274 0.11872
#
# Static dielectric constant tensor:
#      x y z
#    x 4.252150 -0.090000 0.725970 
#    y -0.090000 4.156690 -0.007600 
#    z 0.725970 -0.007600 4.475250 
# 
# 
# High freq. dielectric constant tensor:
#      x y z
#    x 1.844690 -0.019100 0.029570 
#    y -0.019100 1.863510 0.003740 
#    z 0.029570 0.003740 1.845610 
# 
# From -- ./inp_files/236898.got.cif
#   From: 2010.06.25/outbox.cif.g09.slc.cpg/sg2_119_cif.got.tgz:236898.got - 2010.06.27 13:26:56.
