data_PCOD8004857
_publ_section_title
;
Structure prediction by ZEFSAII (Michael W. Deem and Ramdas Pophale) SiO2 
 PCOD8004857
Probable space group: P -1
;
_chemical_formula_sum "Si O2"
_cell_formula_units_Z 14
_cell_length_a 8.936514
_cell_length_b 8.684859
_cell_length_c 11.172830
_cell_angle_alpha 63.392792
_cell_angle_beta 70.696531
_cell_angle_gamma 103.568620
_cell_volume 652.164727
_symmetry_space_group_name_H-M "P -1"
_symmetry_group_IT_number 2
_symmetry_cell_setting 'triclinic'
loop_
_space_group_symop_operation_xyz
x,y,z
-x,-y,-z
loop_
_atom_site_type_symbol
_atom_site_label
_atom_site_fract_x
_atom_site_fract_y
_atom_site_fract_z
Si Si1 0.309691 0.523566 0.604103
Si Si2 0.803031 0.419201 0.623832
Si Si3 0.695021 0.133381 0.056460
Si Si4 0.310707 0.005603 0.148851
Si Si5 0.991700 0.940898 0.661434
Si Si6 0.042810 0.466961 0.213117
Si Si7 0.675061 0.825768 0.353340
O O1 0.302358 0.511437 0.463619
O O2 0.493792 0.713134 0.519490
O O3 0.310275 0.318885 0.702122
O O4 0.145263 0.540123 0.700458
O O5 0.816340 0.493794 0.729357
O O6 0.000000 0.500000 0.500000
O O7 0.709354 0.189521 0.717252
O O8 0.517057 0.155252 0.064182
O O9 0.675109 0.008764 0.223046
O O10 0.853941 0.349616 0.965983
O O11 0.741011 0.034034 0.964371
O O12 0.187856 0.082178 0.220978
O O13 0.997039 0.739561 0.756377
O O14 0.160532 0.108081 0.622465
O O15 0.000000 0.000000 0.500000
#
# Coordination Sequence:
#
# PCOD8004857 Si02
#       7
#     2   2   2   2   2   2   2
#     4  10  20  38  62  96 118 159 214 268 297 353
#     4   9  15  33  62  86 116 154 205 256 290 350
#     4  10  22  42  66  93 120 167 208 263 302 362
#     4  10  21  40  65  91 125 160 212 257 308 365
#     4  12  25  41  62  94 129 170 202 253 316 381
#     4  10  22  37  62  90 130 165 200 247 319 374
#     4  11  23  39  67  93 124 160 215 261 309 356
#
# _framework density 21.466968999999999
#
# number of rings (size 3 to 8) (size 9 to 14) (size 15 to 20)
#    0.000    1.714    1.429    5.143    0.000    4.000 
#    0.000    0.000    0.000    0.000    0.000    0.000 
#    0.000    0.000    0.000    0.000    0.000    0.000 
#
# Total GULP energy -173492.963468 kJ/mol
# GULP energy per Si atom -12392.354533 kJ/mol
# Density = 2.141811 g / cm^3
# Si number density = 21.466969 Si / 1000 Ang^3
#
#
#
# Elastic Constant Matrix: (Units=GPa)
#
#
# Indices 1 2 3 4 5 6 
#
# 1 88.7360 35.2888 40.8344 0.9505 -29.2701 -3.9674
# 2 35.2888 94.7580 43.5424 -17.0477 -24.0056 -12.8821
# 3 40.8344 43.5424 97.0548 -22.0553 -20.8784 2.3700
# 4 0.9505 -17.0477 -22.0553 31.6972 -1.8758 -1.3928
# 5 -29.2701 -24.0056 -20.8784 -1.8758 39.4105 2.2629
# 6 -3.9674 -12.8821 2.3700 -1.3928 2.2629 23.6379
#
#
#
# Elastic Compliance Matrix: (Units=1/GPa)
#
#
# Indices 1 2 3 4 5 6 
#
# 1 0.017830 -0.002781 -0.005774 -0.005523 0.008172 0.000948
# 2 -0.002781 0.017654 -0.003832 0.007707 0.006486 0.009371
# 3 -0.005774 -0.003832 0.017686 0.010426 0.003505 -0.004552
# 4 -0.005523 0.007707 0.010426 0.043763 0.007967 0.004044
# 5 0.008172 0.006486 0.003505 0.007967 0.037548 0.001430
# 6 0.000948 0.009371 -0.004552 0.004044 0.001430 0.048129
#
#
# Mechanical properties :
#
#
# Convention : Reuss Voigt Hill
#
# Bulk Modulus (GPa) = 35.21754 57.76444 46.49099
# Shear Modulus (GPa) = 23.05755 29.67468 26.36611
#
# Velocity S-wave (km/s) = 3.28089 3.72202 3.50840
# Velocity P-wave (km/s) = 5.54918 6.74078 6.17380
#
# Compressibility (1/GPa) = 0.02839494
#
# Stress axis : x y z
#
# Youngs Moduli (GPa) = 56.08664 56.64565 56.54082
#
# Poissons Ratio (x) = 0.15754 0.32647
# Poissons Ratio (y) = 0.15599 0.21666
# Poissons Ratio (z) = 0.32385 0.21707
#
# Static dielectric constant tensor:
#      x y z
#    x 4.390080 0.357490 0.288050 
#    y 0.357490 3.776160 -0.097930 
#    z 0.288050 -0.097930 4.220650 
# 
# 
# High freq. dielectric constant tensor:
#      x y z
#    x 1.849980 0.006200 -0.010640 
#    y 0.006200 1.818480 -0.027450 
#    z -0.010640 -0.027450 1.841570 
# 
# From -- ./inp_files/205238.got.cif
#   From: 2010.06.25/outbox.cif.g09.slc.cpg/sg2_103_cif.got.tgz:205238.got - 2010.06.27 13:26:56.
