data_PCOD8004919
_publ_section_title
;
Structure prediction by ZEFSAII (Michael W. Deem and Ramdas Pophale) SiO2 
 PCOD8004919
Probable space group: P -1
;
_chemical_formula_sum "Si O2"
_cell_formula_units_Z 16
_cell_length_a 6.579691
_cell_length_b 17.745138
_cell_length_c 14.011133
_cell_angle_alpha 149.908203
_cell_angle_beta 116.989290
_cell_angle_gamma 64.831215
_cell_volume 728.940676
_symmetry_space_group_name_H-M "P -1"
_symmetry_group_IT_number 2
_symmetry_cell_setting 'triclinic'
loop_
_space_group_symop_operation_xyz
x,y,z
-x,-y,-z
loop_
_atom_site_type_symbol
_atom_site_label
_atom_site_fract_x
_atom_site_fract_y
_atom_site_fract_z
Si Si1 0.752841 0.560897 0.981317
Si Si2 0.414650 0.279498 0.059062
Si Si3 0.708643 0.198527 0.300953
Si Si4 0.291154 0.746391 0.425344
Si Si5 0.483017 0.002382 0.341627
Si Si6 0.788406 0.854464 0.397313
Si Si7 0.865499 0.350842 0.316302
Si Si8 0.775619 0.848838 0.936889
O O1 0.755057 0.629038 0.949381
O O2 0.614093 0.410202 0.778509
O O3 0.660789 0.695694 0.181502
O O4 0.000000 0.500000 0.000000
O O5 0.604429 0.382343 0.257160
O O6 0.250678 0.209690 0.025033
O O7 0.565673 0.145108 0.889804
O O8 0.741724 0.280846 0.498944
O O9 0.849141 0.291341 0.356154
O O10 0.440824 0.199581 0.221866
O O11 0.808428 0.025946 0.137305
O O12 0.056306 0.813385 0.400074
O O13 0.475263 0.867082 0.581882
O O14 0.701873 0.969955 0.422340
O O15 0.264409 0.065159 0.424990
O O16 0.000000 0.500000 0.500000
O O17 0.995143 0.223955 0.140702
#
# Coordination Sequence:
#
# PCOD8004919 Si02
#       8
#     2   2   2   2   2   2   2   2
#     4   9  21  41  60  90 128 163 200 255 304 371
#     4  10  22  41  65  91 125 165 210 248 312 368
#     4  10  23  40  64  94 121 163 208 253 306 369
#     4  11  21  36  64  90 119 164 203 249 312 361
#     4  10  20  38  63  90 119 157 208 255 304 365
#     4   9  21  39  59  87 125 156 202 257 303 369
#     4  11  26  41  63  94 128 164 204 255 312 372
#     4  10  22  43  63  89 127 160 202 262 306 362
#
# _framework density 21.949659
#
# number of rings (size 3 to 8) (size 9 to 14) (size 15 to 20)
#    0.000    2.000    1.250    0.750    5.250    2.500 
#    0.000    0.000    0.000    0.000    0.000    0.000 
#    0.000    0.000    0.000    0.000    0.000    0.000 
#
# Total GULP energy -198291.744978 kJ/mol
# GULP energy per Si atom -12393.234061 kJ/mol
# Density = 2.189970 g / cm^3
# Si number density = 21.949659 Si / 1000 Ang^3
#
#
#
# Elastic Constant Matrix: (Units=GPa)
#
#
# Indices 1 2 3 4 5 6 
#
# 1 50.8668 27.9290 10.3760 3.6500 3.9055 20.4303
# 2 27.9290 109.1500 22.1055 6.1659 8.8938 12.3409
# 3 10.3760 22.1055 96.2794 7.2685 8.2110 14.3931
# 4 3.6500 6.1659 7.2685 30.1608 5.5429 -0.2718
# 5 3.9055 8.8938 8.2110 5.5429 34.2952 4.5532
# 6 20.4303 12.3409 14.3931 -0.2718 4.5532 28.6702
#
#
#
# Elastic Compliance Matrix: (Units=1/GPa)
#
#
# Indices 1 2 3 4 5 6 
#
# 1 0.030886 -0.005740 0.001190 -0.003199 0.000900 -0.020309
# 2 -0.005740 0.011129 -0.001797 -0.000825 -0.001731 0.000469
# 3 0.001190 -0.001797 0.011840 -0.002437 -0.001336 -0.005830
# 4 -0.003199 -0.000825 -0.002437 0.035302 -0.005210 0.005021
# 5 0.000900 -0.001731 -0.001336 -0.005210 0.031229 -0.004234
# 6 -0.020309 0.000469 -0.005830 0.005021 -0.004234 0.052796
#
#
# Mechanical properties :
#
#
# Convention : Reuss Voigt Hill
#
# Bulk Modulus (GPa) = 24.29481 41.90191 33.09836
# Shear Modulus (GPa) = 25.05059 31.68428 28.36743
#
# Velocity S-wave (km/s) = 3.38194 3.80346 3.59888
# Velocity P-wave (km/s) = 5.13249 6.19838 5.69045
#
# Compressibility (1/GPa) = 0.04116105
#
# Stress axis : x y z
#
# Youngs Moduli (GPa) = 32.37751 89.85510 84.45833
#
# Poissons Ratio (x) = 0.51580 -0.10053
# Poissons Ratio (y) = 0.18586 0.15175
# Poissons Ratio (z) = -0.03854 0.16145
#
# Static dielectric constant tensor:
#      x y z
#    x 3.519310 0.052110 -0.158730 
#    y 0.052110 4.067490 0.111650 
#    z -0.158730 0.111650 4.350930 
# 
# 
# High freq. dielectric constant tensor:
#      x y z
#    x 1.825970 0.001820 -0.007780 
#    y 0.001820 1.873790 0.001400 
#    z -0.007780 0.001400 1.879060 
# 
# From -- ./inp_files/90572.got.cif
#   From: 2010.06.25/outbox.cif.g09.slc.cpg/sg2_46_cif.got.tgz:90572.got - 2010.06.27 13:26:56.
