data_PCOD8004464
_publ_section_title
;
Structure prediction by ZEFSAII (Michael W. Deem and Ramdas Pophale) SiO2 
 PCOD8004464
Probable space group: P -1
;
_chemical_formula_sum "Si O2"
_cell_formula_units_Z 12
_cell_length_a 13.529576
_cell_length_b 11.929080
_cell_length_c 8.938105
_cell_angle_alpha 124.710753
_cell_angle_beta 100.712958
_cell_angle_gamma 125.936294
_cell_volume 599.162634
_symmetry_space_group_name_H-M "P -1"
_symmetry_group_IT_number 2
_symmetry_cell_setting 'triclinic'
loop_
_space_group_symop_operation_xyz
x,y,z
-x,-y,-z
loop_
_atom_site_type_symbol
_atom_site_label
_atom_site_fract_x
_atom_site_fract_y
_atom_site_fract_z
Si Si1 0.933732 0.728697 0.395954
Si Si2 0.788537 0.510710 0.741450
Si Si3 0.127611 0.043140 0.396827
Si Si4 0.660808 0.929286 0.691230
Si Si5 0.032265 0.694584 0.689385
Si Si6 0.723733 0.265267 0.802895
O O1 0.096887 0.949215 0.483817
O O2 0.047401 0.796185 0.618329
O O3 0.822965 0.739240 0.418737
O O4 0.767834 0.431963 0.065807
O O5 0.566795 0.305489 0.528321
O O6 0.828957 0.427605 0.799838
O O7 0.845453 0.531622 0.607057
O O8 0.929724 0.795495 0.054674
O O9 0.309370 0.177317 0.471090
O O10 0.778589 0.181255 0.819924
O O11 0.764431 0.043027 0.967778
O O12 0.000000 0.500000 0.500000
O O13 0.500000 0.000000 0.500000
#
# Coordination Sequence:
#
# PCOD8004464 Si02
#       6
#     2   2   2   2   2   2
#     4  10  20  39  57  87 116 145 193 235 279 333
#     4   9  21  37  57  84 118 148 192 230 279 338
#     4   9  21  39  63  78 114 157 187 232 275 339
#     4  10  20  38  59  84 114 154 189 227 287 334
#     4  11  22  35  58  88 118 147 182 239 290 332
#     4   9  18  36  58  82 113 149 191 233 270 331
#
# _framework density 20.027951000000002
#
# number of rings (size 3 to 8) (size 9 to 14) (size 15 to 20)
#    0.000    2.333    1.667    0.000    2.333    5.333 
#    0.000   18.333    0.000    0.000    0.000    0.000 
#    0.000    0.000    0.000    0.000    0.000    0.000 
#
# Total GULP energy -148750.740877 kJ/mol
# GULP energy per Si atom -12395.895073 kJ/mol
# Density = 1.998237 g / cm^3
# Si number density = 20.027951 Si / 1000 Ang^3
#
#
#
# Elastic Constant Matrix: (Units=GPa)
#
#
# Indices 1 2 3 4 5 6 
#
# 1 120.9805 46.0598 45.1887 -6.4403 -0.9763 12.7144
# 2 46.0598 75.5263 42.7904 -25.6439 4.6484 -7.2831
# 3 45.1887 42.7904 81.1133 -15.3802 7.1518 4.6852
# 4 -6.4403 -25.6439 -15.3802 33.3286 2.5638 4.2445
# 5 -0.9763 4.6484 7.1518 2.5638 36.6552 3.9984
# 6 12.7144 -7.2831 4.6852 4.2445 3.9984 35.3254
#
#
#
# Elastic Compliance Matrix: (Units=1/GPa)
#
#
# Indices 1 2 3 4 5 6 
#
# 1 0.013270 -0.008401 -0.003898 -0.005214 0.003168 -0.005723
# 2 -0.008401 0.029647 -0.007872 0.016801 -0.004569 0.008679
# 3 -0.003898 -0.007872 0.019598 0.002812 -0.002816 -0.002838
# 4 -0.005214 0.016801 0.002812 0.043626 -0.005913 0.000395
# 5 0.003168 -0.004569 -0.002816 -0.005913 0.029380 -0.004324
# 6 -0.005723 0.008679 -0.002838 0.000395 -0.004324 0.032976
#
#
# Mechanical properties :
#
#
# Convention : Reuss Voigt Hill
#
# Bulk Modulus (GPa) = 45.10189 60.63311 52.86750
# Shear Modulus (GPa) = 23.12350 30.63390 26.87870
#
# Velocity S-wave (km/s) = 3.40157 3.91520 3.66739
# Velocity P-wave (km/s) = 6.16408 7.12589 6.66237
#
# Compressibility (1/GPa) = 0.02217202
#
# Stress axis : x y z
#
# Youngs Moduli (GPa) = 75.35871 33.73066 51.02472
#
# Poissons Ratio (x) = 0.28338 0.19890
# Poissons Ratio (y) = 0.63311 0.40167
# Poissons Ratio (z) = 0.29375 0.26553
#
# Static dielectric constant tensor:
#      x y z
#    x 3.707220 -0.266670 -0.197020 
#    y -0.266670 3.928390 -0.154250 
#    z -0.197020 -0.154250 3.639320 
# 
# 
# High freq. dielectric constant tensor:
#      x y z
#    x 1.779870 -0.007090 -0.010080 
#    y -0.007090 1.775530 -0.014670 
#    z -0.010080 -0.014670 1.780680 
# 
# From -- ./inp_files/23267.got.cif
#   From: 2010.06.25/outbox.cif.g09.slc.cpg/sg2_12_cif.got.tgz:23267.got - 2010.06.27 13:26:56.
