data_PCOD8004172
_publ_section_title
;
Structure prediction by ZEFSAII (Michael W. Deem and Ramdas Pophale) SiO2 
 PCOD8004172
Probable space group: P -1
;
_chemical_formula_sum "Si O2"
_cell_formula_units_Z 16
_cell_length_a 26.196602
_cell_length_b 15.046362
_cell_length_c 8.705954
_cell_angle_alpha 52.551612
_cell_angle_beta 140.072592
_cell_angle_gamma 158.822486
_cell_volume 705.820474
_symmetry_space_group_name_H-M "P -1"
_symmetry_group_IT_number 2
_symmetry_cell_setting 'triclinic'
loop_
_space_group_symop_operation_xyz
x,y,z
-x,-y,-z
loop_
_atom_site_type_symbol
_atom_site_label
_atom_site_fract_x
_atom_site_fract_y
_atom_site_fract_z
Si Si1 0.710991 0.292110 0.962847
Si Si2 0.083678 0.497953 0.486041
Si Si3 0.112640 0.784485 0.225132
Si Si4 0.646054 0.400086 0.485697
Si Si5 0.304221 0.284390 0.685788
Si Si6 0.375996 0.051474 0.954931
Si Si7 0.630906 0.751671 0.438954
Si Si8 0.991216 0.748932 0.705619
O O1 0.796321 0.418625 0.197406
O O2 0.879791 0.478216 0.035427
O O3 0.570381 0.001075 0.937259
O O4 0.606287 0.268209 0.679636
O O5 0.191206 0.758157 0.447585
O O6 0.106591 0.462697 0.417242
O O7 0.856948 0.218871 0.308877
O O8 0.200751 0.985129 0.338148
O O9 0.143337 0.873868 0.031603
O O10 0.700509 0.589382 0.482927
O O11 0.820522 0.585847 0.581788
O O12 0.445278 0.148182 0.189215
O O13 0.280417 0.200097 0.551645
O O14 0.113718 0.003569 0.637996
O O15 0.500000 0.500000 0.000000
O O16 0.484980 0.288538 0.855377
O O17 0.500000 0.500000 0.500000
#
# Coordination Sequence:
#
# PCOD8004172 Si02
#       8
#     2   2   2   2   2   2   2   2
#     4  10  20  40  67  96 131 172 217 277 330 375
#     4  11  19  41  72  95 128 173 224 270 317 391
#     4  10  20  37  65 100 124 170 222 268 317 388
#     4  11  25  41  63  99 139 174 212 269 335 391
#     4  12  23  45  66  93 130 182 225 265 319 397
#     4  11  20  42  69  94 130 175 222 268 323 387
#     4  12  23  40  68 100 125 164 228 275 314 381
#     4  11  23  40  64  99 136 172 214 271 332 386
#
# _framework density 22.668654
#
# number of rings (size 3 to 8) (size 9 to 14) (size 15 to 20)
#    0.000    1.000    5.000    2.625    0.000    0.000 
#    2.250    5.000    0.000    0.000    0.000    0.000 
#    0.000    0.000    0.000    0.000    0.000    0.000 
#
# Total GULP energy -198351.518601 kJ/mol
# GULP energy per Si atom -12396.969913 kJ/mol
# Density = 2.261706 g / cm^3
# Si number density = 22.668654 Si / 1000 Ang^3
#
#
#
# Elastic Constant Matrix: (Units=GPa)
#
#
# Indices 1 2 3 4 5 6 
#
# 1 112.6245 56.5286 44.7268 -16.8942 -25.3410 -31.5495
# 2 56.5286 121.2221 64.7451 -31.9658 -3.3827 -32.2134
# 3 44.7268 64.7451 138.2344 -38.5463 -37.6135 -17.2225
# 4 -16.8942 -31.9658 -38.5463 46.2373 -3.1812 4.3132
# 5 -25.3410 -3.3827 -37.6135 -3.1812 37.6754 3.5956
# 6 -31.5495 -32.2134 -17.2225 4.3132 3.5956 42.9900
#
#
#
# Elastic Compliance Matrix: (Units=1/GPa)
#
#
# Indices 1 2 3 4 5 6 
#
# 1 0.016300 -0.005775 0.003502 0.005135 0.013671 0.007379
# 2 -0.005775 0.016760 -0.007466 0.001990 -0.010237 0.005986
# 3 0.003502 -0.007466 0.019860 0.014074 0.022545 0.001634
# 4 0.005135 0.001990 0.014074 0.037504 0.020331 0.005434
# 5 0.013671 -0.010237 0.022545 0.020331 0.058619 0.004452
# 6 0.007379 0.005986 0.001634 0.005434 0.004452 0.032899
#
#
# Mechanical properties :
#
#
# Convention : Reuss Voigt Hill
#
# Bulk Modulus (GPa) = 29.90242 78.23133 54.06687
# Shear Modulus (GPa) = 23.52188 39.11924 31.32056
#
# Velocity S-wave (km/s) = 3.22473 4.15866 3.72111
# Velocity P-wave (km/s) = 5.20432 7.59243 6.50884
#
# Compressibility (1/GPa) = 0.03344211
#
# Stress axis : x y z
#
# Youngs Moduli (GPa) = 61.34809 59.66726 50.35132
#
# Poissons Ratio (x) = 0.34458 -0.17632
# Poissons Ratio (y) = 0.35429 0.37592
# Poissons Ratio (z) = -0.21483 0.44547
#
# Static dielectric constant tensor:
#      x y z
#    x 3.936540 -0.290140 -0.166790 
#    y -0.290140 4.462050 -0.442490 
#    z -0.166790 -0.442490 4.241320 
# 
# 
# High freq. dielectric constant tensor:
#      x y z
#    x 1.884360 -0.019250 -0.021150 
#    y -0.019250 1.901280 -0.020590 
#    z -0.021150 -0.020590 1.893300 
# 
# From -- ./inp_files/227376.got.cif
#   From: 2010.06.25/outbox.cif.g09.slc.cpg/sg2_114_cif.got.tgz:227376.got - 2010.06.27 13:26:56.
