data_PCOD8004100
_publ_section_title
;
Structure prediction by ZEFSAII (Michael W. Deem and Ramdas Pophale) SiO2 
 PCOD8004100
Probable space group: P -1
;
_chemical_formula_sum "Si O2"
_cell_formula_units_Z 16
_cell_length_a 11.437123
_cell_length_b 20.234820
_cell_length_c 6.568318
_cell_angle_alpha 135.385924
_cell_angle_beta 56.975943
_cell_angle_gamma 139.359621
_cell_volume 695.301641
_symmetry_space_group_name_H-M "P -1"
_symmetry_group_IT_number 2
_symmetry_cell_setting 'triclinic'
loop_
_space_group_symop_operation_xyz
x,y,z
-x,-y,-z
loop_
_atom_site_type_symbol
_atom_site_label
_atom_site_fract_x
_atom_site_fract_y
_atom_site_fract_z
Si Si1 0.910999 0.775783 0.514709
Si Si2 0.102268 0.946970 0.335012
Si Si3 0.590123 0.710997 0.819743
Si Si4 0.088894 0.471672 0.690281
Si Si5 0.649062 0.501894 0.183144
Si Si6 0.637761 0.359698 0.506621
Si Si7 0.848535 0.200607 0.334182
Si Si8 0.493313 0.833883 0.471337
O O1 0.810493 0.815395 0.830720
O O2 0.727023 0.636607 0.343414
O O3 0.984487 0.845929 0.392151
O O4 0.069166 0.782960 0.483674
O O5 0.303861 0.046140 0.437066
O O6 0.112128 0.880517 0.991531
O O7 0.000000 0.000000 0.500000
O O8 0.551486 0.599236 0.751049
O O9 0.518104 0.678047 0.584252
O O10 0.491912 0.755738 0.123628
O O11 0.246843 0.489898 0.699916
O O12 0.171158 0.566468 0.631860
O O13 0.947773 0.334025 0.436382
O O14 0.000000 0.500000 0.000000
O O15 0.666557 0.450796 0.848593
O O16 0.582262 0.238463 0.402052
O O17 0.635866 0.133977 0.401651
#
# Coordination Sequence:
#
# PCOD8004100 Si02
#       8
#     2   2   2   2   2   2   2   2
#     4  11  24  42  66  93 130 170 213 274 328 374
#     4  12  27  46  68  94 125 171 228 272 317 378
#     4  10  21  39  65  96 130 170 212 261 325 389
#     4  10  20  37  63  98 134 167 207 257 323 395
#     4   9  20  36  59  96 129 165 212 261 322 390
#     4  10  20  37  64  94 134 171 206 263 324 379
#     4  11  25  44  66  96 130 168 216 267 323 387
#     4  11  25  43  65  95 129 170 219 263 315 386
#
# _framework density 23.011596000000001
#
# number of rings (size 3 to 8) (size 9 to 14) (size 15 to 20)
#    0.000    1.500    0.000    5.250    0.000   10.000 
#    0.000    0.000    0.000    0.000    0.000    0.000 
#    0.000    0.000    0.000    0.000    0.000    0.000 
#
# Total GULP energy -198214.842647 kJ/mol
# GULP energy per Si atom -12388.427665 kJ/mol
# Density = 2.295922 g / cm^3
# Si number density = 23.011596 Si / 1000 Ang^3
#
#
#
# Elastic Constant Matrix: (Units=GPa)
#
#
# Indices 1 2 3 4 5 6 
#
# 1 110.3757 31.5649 34.0300 -8.5699 -15.5519 16.0455
# 2 31.5649 86.0045 26.8659 -6.3100 7.0488 4.6588
# 3 34.0300 26.8659 80.5433 5.1482 -3.7509 3.0552
# 4 -8.5699 -6.3100 5.1482 35.1644 -2.3849 0.5500
# 5 -15.5519 7.0488 -3.7509 -2.3849 33.6886 -0.8217
# 6 16.0455 4.6588 3.0552 0.5500 -0.8217 36.8383
#
#
#
# Elastic Compliance Matrix: (Units=1/GPa)
#
#
# Indices 1 2 3 4 5 6 
#
# 1 0.013296 -0.003576 -0.004172 0.003732 0.006566 -0.004903
# 2 -0.003576 0.014668 -0.003736 0.001971 -0.004999 -0.000129
# 3 -0.004172 -0.003736 0.015654 -0.003972 0.000343 0.001058
# 4 0.003732 0.001971 -0.003972 0.030515 0.002981 -0.001934
# 5 0.006566 -0.004999 0.000343 0.002981 0.033972 -0.001543
# 6 -0.004903 -0.000129 0.001058 -0.001934 -0.001543 0.029204
#
#
# Mechanical properties :
#
#
# Convention : Reuss Voigt Hill
#
# Bulk Modulus (GPa) = 48.42169 51.31613 49.86891
# Shear Modulus (GPa) = 29.91144 33.43578 31.67361
#
# Velocity S-wave (km/s) = 3.60924 3.81595 3.71404
# Velocity P-wave (km/s) = 6.20136 6.46250 6.33327
#
# Compressibility (1/GPa) = 0.02065190
#
# Stress axis : x y z
#
# Youngs Moduli (GPa) = 75.20864 68.17640 63.88073
#
# Poissons Ratio (x) = 0.24377 0.26650
# Poissons Ratio (y) = 0.26891 0.23864
# Poissons Ratio (z) = 0.31376 0.25469
#
# Static dielectric constant tensor:
#      x y z
#    x 4.128210 0.140970 -0.093350 
#    y 0.140970 4.524440 0.027380 
#    z -0.093350 0.027380 4.139050 
# 
# 
# High freq. dielectric constant tensor:
#      x y z
#    x 1.910380 0.011480 -0.004070 
#    y 0.011480 1.918220 -0.008600 
#    z -0.004070 -0.008600 1.910120 
# 
# From -- ./inp_files/83517.got.cif
#   From: 2010.06.25/outbox.cif.g09.slc.cpg/sg2_42_cif.got.tgz:83517.got - 2010.06.27 13:26:56.
