data_PCOD8004700
_publ_section_title
;
Structure prediction by ZEFSAII (Michael W. Deem and Ramdas Pophale) SiO2 
 PCOD8004700
Probable space group: P -1
;
_chemical_formula_sum "Si O2"
_cell_formula_units_Z 16
_cell_length_a 9.192705
_cell_length_b 8.543892
_cell_length_c 16.781858
_cell_angle_alpha 91.635908
_cell_angle_beta 93.471634
_cell_angle_gamma 31.916575
_cell_volume 694.912201
_symmetry_space_group_name_H-M "P -1"
_symmetry_group_IT_number 2
_symmetry_cell_setting 'triclinic'
loop_
_space_group_symop_operation_xyz
x,y,z
-x,-y,-z
loop_
_atom_site_type_symbol
_atom_site_label
_atom_site_fract_x
_atom_site_fract_y
_atom_site_fract_z
Si Si1 0.919683 0.755239 0.505293
Si Si2 0.869590 0.718628 0.672065
Si Si3 0.435482 0.496094 0.258055
Si Si4 0.192185 0.594523 0.916720
Si Si5 0.383273 0.357140 0.407019
Si Si6 0.869847 0.006812 0.152184
Si Si7 0.336323 0.986498 0.997433
Si Si8 0.584520 0.709998 0.241092
O O1 0.847592 0.856243 0.596627
O O2 0.000000 0.500000 0.500000
O O3 0.188261 0.598687 0.476224
O O4 0.663673 0.032489 0.446006
O O5 0.764104 0.642833 0.648867
O O6 0.189641 0.409434 0.699270
O O7 0.707791 0.940488 0.745309
O O8 0.421028 0.465890 0.349870
O O9 0.642306 0.191181 0.215390
O O10 0.566292 0.547264 0.262898
O O11 0.156835 0.739722 0.202924
O O12 0.156303 0.806548 0.893759
O O13 0.431852 0.361016 0.988252
O O14 0.317731 0.368460 0.848122
O O15 0.895820 0.798500 0.937690
O O16 0.830234 0.900252 0.087599
O O17 0.500000 0.000000 0.000000
#
# Coordination Sequence:
#
# PCOD8004700 Si02
#       8
#     2   2   2   2   2   2   2   2
#     4  10  20  38  61  90 123 161 205 248 301 369
#     4  11  21  38  63  89 118 161 205 249 298 359
#     4  11  24  42  61  90 125 160 203 253 302 359
#     4  11  23  43  64  87 123 168 201 237 303 376
#     4  11  22  39  63  90 121 162 205 253 303 359
#     4  11  23  43  65  86 120 169 204 238 300 377
#     4  12  25  41  65  97 125 151 200 263 301 344
#     4  11  23  40  61  89 122 158 202 249 297 359
#
# _framework density 23.024491000000001
#
# number of rings (size 3 to 8) (size 9 to 14) (size 15 to 20)
#    0.000    1.000    0.000   10.125    0.000    3.000 
#    0.000    3.750    0.000    0.000    0.000    0.000 
#    0.000    0.000    0.000    0.000    0.000    0.000 
#
# Total GULP energy -198370.636456 kJ/mol
# GULP energy per Si atom -12398.164778 kJ/mol
# Density = 2.297209 g / cm^3
# Si number density = 23.024491 Si / 1000 Ang^3
#
#
#
# Elastic Constant Matrix: (Units=GPa)
#
#
# Indices 1 2 3 4 5 6 
#
# 1 44.9359 12.1638 2.7308 13.3690 -12.5424 -16.6839
# 2 12.1638 147.1616 30.4027 -9.1888 -9.4509 -28.9093
# 3 2.7308 30.4027 52.8481 9.2270 -15.5399 -8.8514
# 4 13.3690 -9.1888 9.2270 59.9617 -7.9761 -2.6461
# 5 -12.5424 -9.4509 -15.5399 -7.9761 35.4287 7.0385
# 6 -16.6839 -28.9093 -8.8514 -2.6461 7.0385 29.7388
#
#
#
# Elastic Compliance Matrix: (Units=1/GPa)
#
#
# Indices 1 2 3 4 5 6 
#
# 1 0.032600 -0.000208 0.004961 -0.006131 0.008923 0.016906
# 2 -0.000208 0.009489 -0.004724 0.002497 -0.000658 0.008079
# 3 0.004961 -0.004724 0.025631 -0.004287 0.010171 0.003030
# 4 -0.006131 0.002497 -0.004287 0.019196 0.001104 -0.000842
# 5 0.008923 -0.000658 0.010171 0.001104 0.036129 -0.001059
# 6 0.016906 0.008079 0.003030 -0.000842 -0.001059 0.052042
#
#
# Mechanical properties :
#
#
# Convention : Reuss Voigt Hill
#
# Bulk Modulus (GPa) = 14.75434 37.28224 26.01829
# Shear Modulus (GPa) = 25.30065 38.33573 31.81819
#
# Velocity S-wave (km/s) = 3.31850 4.08487 3.72146
# Velocity P-wave (km/s) = 4.59405 6.20288 5.45807
#
# Compressibility (1/GPa) = 0.06777669
#
# Stress axis : x y z
#
# Youngs Moduli (GPa) = 30.67471 105.38170 39.01595
#
# Poissons Ratio (x) = 0.02194 -0.19355
# Poissons Ratio (y) = 0.00639 0.18433
# Poissons Ratio (z) = -0.15217 0.49786
#
# Static dielectric constant tensor:
#      x y z
#    x 3.922980 -0.330890 -0.293730 
#    y -0.330890 4.308170 0.266620 
#    z -0.293730 0.266620 4.691380 
# 
# 
# High freq. dielectric constant tensor:
#      x y z
#    x 1.891450 -0.024330 -0.009750 
#    y -0.024330 1.922240 0.003850 
#    z -0.009750 0.003850 1.921270 
# 
# From -- ./inp_files/217767.got.cif
#   From: 2010.06.25/outbox.cif.g09.slc.cpg/sg2_109_cif.got.tgz:217767.got - 2010.06.27 13:26:56.
