data_PCOD8004104
_publ_section_title
;
Structure prediction by ZEFSAII (Michael W. Deem and Ramdas Pophale) SiO2 
 PCOD8004104
Probable space group: P -1
;
_chemical_formula_sum "Si O2"
_cell_formula_units_Z 16
_cell_length_a 11.393788
_cell_length_b 13.856005
_cell_length_c 16.905118
_cell_angle_alpha 34.233188
_cell_angle_beta 54.290532
_cell_angle_gamma 32.007249
_cell_volume 731.504166
_symmetry_space_group_name_H-M "P -1"
_symmetry_group_IT_number 2
_symmetry_cell_setting 'triclinic'
loop_
_space_group_symop_operation_xyz
x,y,z
-x,-y,-z
loop_
_atom_site_type_symbol
_atom_site_label
_atom_site_fract_x
_atom_site_fract_y
_atom_site_fract_z
Si Si1 0.188917 0.262727 0.524430
Si Si2 0.192559 0.534902 0.556909
Si Si3 0.443251 0.863486 0.461427
Si Si4 0.812614 0.159602 0.321539
Si Si5 0.812440 0.528831 0.034044
Si Si6 0.143909 0.481631 0.152015
Si Si7 0.619445 0.892487 0.111010
Si Si8 0.526827 0.333773 0.168685
O O1 0.405473 0.198219 0.481136
O O2 0.000000 0.500000 0.500000
O O3 0.042745 0.370639 0.426463
O O4 0.273259 0.999187 0.704329
O O5 0.375656 0.358289 0.530592
O O6 0.332654 0.341908 0.711435
O O7 0.072834 0.834978 0.413100
O O8 0.295421 0.834360 0.563463
O O9 0.247393 0.191983 0.291615
O O10 0.862573 0.312872 0.215166
O O11 0.598060 0.352074 0.210898
O O12 0.831451 0.449759 0.989579
O O13 0.000000 0.500000 0.000000
O O14 0.543664 0.848730 0.939216
O O15 0.276563 0.464648 0.179716
O O16 0.868591 0.753413 0.100144
O O17 0.500000 0.000000 0.000000
O O18 0.500000 0.500000 0.000000
#
# Coordination Sequence:
#
# PCOD8004104 Si02
#       8
#     2   2   2   2   2   2   2   2
#     4   8  18  33  59  93 132 174 209 250 323 397
#     4  10  21  40  66  97 136 171 222 273 324 389
#     4  10  20  39  67  99 135 174 216 267 332 398
#     4  11  24  41  69 103 134 169 224 272 331 401
#     4  12  26  48  68  91 132 179 221 281 335 391
#     4  11  22  42  70  95 141 174 215 274 332 392
#     4  12  25  43  70  97 122 180 235 266 333 399
#     4  10  20  37  64 101 138 174 210 268 334 392
#
# _framework density 21.872741000000001
#
# number of rings (size 3 to 8) (size 9 to 14) (size 15 to 20)
#    0.000    1.500    5.000    0.000    1.750    2.500 
#    2.250    3.750    0.000    0.000    0.000    0.000 
#    0.000    0.000    0.000    0.000    0.000    0.000 
#
# Total GULP energy -198271.705693 kJ/mol
# GULP energy per Si atom -12391.981606 kJ/mol
# Density = 2.182296 g / cm^3
# Si number density = 21.872741 Si / 1000 Ang^3
#
#
#
# Elastic Constant Matrix: (Units=GPa)
#
#
# Indices 1 2 3 4 5 6 
#
# 1 76.8385 29.7348 45.3444 -2.0394 -3.8113 -12.1083
# 2 29.7348 125.0458 41.3378 -14.5589 -5.6261 -20.3096
# 3 45.3444 41.3378 132.7010 1.3719 -4.1970 -15.3468
# 4 -2.0394 -14.5589 1.3719 36.8060 -3.1567 3.2273
# 5 -3.8113 -5.6261 -4.1970 -3.1567 39.4431 8.8249
# 6 -12.1083 -20.3096 -15.3468 3.2273 8.8249 22.6535
#
#
#
# Elastic Compliance Matrix: (Units=1/GPa)
#
#
# Indices 1 2 3 4 5 6 
#
# 1 0.017244 -0.001794 -0.004832 0.000037 -0.000076 0.004359
# 2 -0.001794 0.010568 -0.001940 0.003555 -0.000094 0.006731
# 3 -0.004832 -0.001940 0.010138 -0.001714 -0.000467 0.002972
# 4 0.000037 0.003555 -0.001714 0.029240 0.003443 -0.003461
# 5 -0.000076 -0.000094 -0.000467 0.003443 0.028227 -0.011928
# 6 0.004359 0.006731 0.002972 -0.003461 -0.011928 0.059661
#
#
# Mechanical properties :
#
#
# Convention : Reuss Voigt Hill
#
# Bulk Modulus (GPa) = 48.03727 63.04661 55.54194
# Shear Modulus (GPa) = 27.90940 34.32506 31.11723
#
# Velocity S-wave (km/s) = 3.57598 3.96575 3.77589
# Velocity P-wave (km/s) = 6.24980 7.06091 6.66770
#
# Compressibility (1/GPa) = 0.02081717
#
# Stress axis : x y z
#
# Youngs Moduli (GPa) = 57.98983 94.62459 98.63923
#
# Poissons Ratio (x) = 0.16978 0.47664
# Poissons Ratio (y) = 0.10405 0.19138
# Poissons Ratio (z) = 0.28022 0.18359
#
# Static dielectric constant tensor:
#      x y z
#    x 4.161410 -0.119750 0.191020 
#    y -0.119750 4.034590 -0.110920 
#    z 0.191020 -0.110920 4.147990 
# 
# 
# High freq. dielectric constant tensor:
#      x y z
#    x 1.842520 -0.009000 0.010570 
#    y -0.009000 1.859390 -0.007500 
#    z 0.010570 -0.007500 1.866950 
# 
# From -- ./inp_files/202879.got.cif
#   From: 2010.06.25/outbox.cif.g09.slc.cpg/sg2_102_cif.got.tgz:202879.got - 2010.06.27 13:26:56.
