data_PCOD8004457
_publ_section_title
;
Structure prediction by ZEFSAII (Michael W. Deem and Ramdas Pophale) SiO2 
 PCOD8004457
Probable space group: P -1
;
_chemical_formula_sum "Si O2"
_cell_formula_units_Z 16
_cell_length_a 15.059503
_cell_length_b 9.171048
_cell_length_c 14.121958
_cell_angle_alpha 108.947442
_cell_angle_beta 141.830830
_cell_angle_gamma 99.341925
_cell_volume 797.640944
_symmetry_space_group_name_H-M "P -1"
_symmetry_group_IT_number 2
_symmetry_cell_setting 'triclinic'
loop_
_space_group_symop_operation_xyz
x,y,z
-x,-y,-z
loop_
_atom_site_type_symbol
_atom_site_label
_atom_site_fract_x
_atom_site_fract_y
_atom_site_fract_z
Si Si1 0.585262 0.405908 0.085258
Si Si2 0.370708 0.964975 0.712361
Si Si3 0.369553 0.299944 0.247875
Si Si4 0.043513 0.703538 0.543497
Si Si5 0.630390 0.078328 0.508724
Si Si6 0.629281 0.876660 0.970949
Si Si7 0.765193 0.525622 0.719770
Si Si8 0.234759 0.928888 0.189317
O O1 0.827693 0.618822 0.327671
O O2 0.500000 0.500000 0.000000
O O3 0.513983 0.314353 0.112240
O O4 0.513912 0.216046 0.915658
O O5 0.167525 0.797118 0.569481
O O6 0.300190 0.929586 0.537259
O O7 0.500023 0.908695 0.817372
O O8 0.618377 0.478590 0.502507
O O9 0.281831 0.405040 0.212099
O O10 0.279582 0.126741 0.220753
O O11 0.300184 0.192520 0.063092
O O12 0.000000 0.500000 0.500000
O O13 0.167550 0.895210 0.765548
O O14 0.720295 0.314343 0.661508
O O15 0.718128 0.025196 0.648413
O O16 0.381562 0.905464 0.265672
O O17 0.999973 0.711633 0.923352
#
# Coordination Sequence:
#
# PCOD8004457 Si02
#       8
#     2   2   2   2   2   2   2   2
#     4  11  25  45  61  93 125 153 197 259 310 354
#     4  11  21  41  64  91 122 154 207 249 289 370
#     4  10  22  39  58  89 122 154 200 249 286 349
#     4  11  21  39  71  88 117 163 201 244 309 363
#     4  10  22  39  58  89 122 154 200 249 286 349
#     4  11  21  41  64  91 122 154 207 249 289 370
#     4  10  20  38  59  82 123 159 198 240 296 344
#     4  10  20  38  59  82 123 159 198 240 296 344
#
# _framework density 20.059149999999999
#
# number of rings (size 3 to 8) (size 9 to 14) (size 15 to 20)
#    0.000    1.500    5.000    1.500    0.000    5.000 
#   13.500    0.000    0.000    0.000    0.000    0.000 
#    0.000    0.000    0.000    0.000    0.000    0.000 
#
# Total GULP energy -198392.861744 kJ/mol
# GULP energy per Si atom -12399.553859 kJ/mol
# Density = 2.001349 g / cm^3
# Si number density = 20.059150 Si / 1000 Ang^3
#
#
#
# Elastic Constant Matrix: (Units=GPa)
#
#
# Indices 1 2 3 4 5 6 
#
# 1 138.3074 42.6165 66.4542 6.9644 -29.6272 15.4193
# 2 42.6165 49.5564 26.4781 -2.3346 -8.9335 9.8256
# 3 66.4542 26.4781 134.0895 9.8489 20.6063 9.6693
# 4 6.9644 -2.3346 9.8489 21.6700 -1.0910 -0.3828
# 5 -29.6272 -8.9335 20.6063 -1.0910 38.6903 -4.6409
# 6 15.4193 9.8256 9.6693 -0.3828 -4.6409 29.2088
#
#
#
# Elastic Compliance Matrix: (Units=1/GPa)
#
#
# Indices 1 2 3 4 5 6 
#
# 1 0.018213 -0.006843 -0.010226 -0.001075 0.017646 -0.001138
# 2 -0.006843 0.029432 -0.003002 0.006790 0.002775 -0.004765
# 3 -0.010226 -0.003002 0.016356 -0.005391 -0.017612 -0.001875
# 4 -0.001075 0.006790 -0.005391 0.049963 0.005211 0.001550
# 5 0.017646 0.002775 -0.017612 0.005211 0.049957 0.003587
# 6 -0.001138 -0.004765 -0.001875 0.001550 0.003587 0.037651
#
#
# Mechanical properties :
#
#
# Convention : Reuss Voigt Hill
#
# Bulk Modulus (GPa) = 41.91140 65.89458 53.90299
# Shear Modulus (GPa) = 20.02656 30.34077 25.18366
#
# Velocity S-wave (km/s) = 3.16314 3.89339 3.54711
# Velocity P-wave (km/s) = 5.85490 7.28922 6.61107
#
# Compressibility (1/GPa) = 0.02385986
#
# Stress axis : x y z
#
# Youngs Moduli (GPa) = 54.90542 33.97614 61.13882
#
# Poissons Ratio (x) = 0.23249 0.62520
# Poissons Ratio (y) = 0.37570 0.18356
# Poissons Ratio (z) = 0.56146 0.10201
#
# Static dielectric constant tensor:
#      x y z
#    x 10.082440 1.312080 -2.707900 
#    y 1.312080 3.775030 -0.546100 
#    z -2.707900 -0.546100 4.978450 
# 
# 
# High freq. dielectric constant tensor:
#      x y z
#    x 1.778300 0.002590 0.003720 
#    y 0.002590 1.776000 0.005440 
#    z 0.003720 0.005440 1.788320 
# 
# From -- ./inp_files/528842.got.cif
#   From: 2010.06.25/outbox.cif.g09.slc.cpg/sg2_265_cif.got.tgz:528842.got - 2010.06.27 13:26:56.
