data_PCOD8004676
_publ_section_title
;
Structure prediction by ZEFSAII (Michael W. Deem and Ramdas Pophale) SiO2 
 PCOD8004676
Probable space group: P -1
;
_chemical_formula_sum "Si O2"
_cell_formula_units_Z 16
_cell_length_a 7.805157
_cell_length_b 19.232737
_cell_length_c 10.226895
_cell_angle_alpha 125.839876
_cell_angle_beta 98.683372
_cell_angle_gamma 124.131305
_cell_volume 720.644547
_symmetry_space_group_name_H-M "P -1"
_symmetry_group_IT_number 2
_symmetry_cell_setting 'triclinic'
loop_
_space_group_symop_operation_xyz
x,y,z
-x,-y,-z
loop_
_atom_site_type_symbol
_atom_site_label
_atom_site_fract_x
_atom_site_fract_y
_atom_site_fract_z
Si Si1 0.376579 0.399862 0.997676
Si Si2 0.206205 0.627057 0.268281
Si Si3 0.582778 0.934080 0.279400
Si Si4 0.796320 0.671101 0.506938
Si Si5 0.179204 0.705327 0.751838
Si Si6 0.211280 0.200438 0.577576
Si Si7 0.331813 0.602068 0.516569
Si Si8 0.259375 0.815267 0.361042
O O1 0.572542 0.502050 0.259265
O O2 0.500000 0.500000 0.000000
O O3 0.374297 0.299528 0.839165
O O4 0.036707 0.284412 0.865533
O O5 0.557921 0.763949 0.433706
O O6 0.137344 0.553449 0.315029
O O7 0.159553 0.710685 0.351479
O O8 0.000000 0.500000 0.000000
O O9 0.480838 0.859980 0.329643
O O10 0.593471 0.041983 0.402912
O O11 0.353966 0.815115 0.012611
O O12 0.910955 0.028933 0.390062
O O13 0.885831 0.757748 0.480500
O O14 0.631743 0.672032 0.588343
O O15 0.089205 0.746971 0.688999
O O16 0.389146 0.715434 0.723730
O O17 0.867737 0.540619 0.578375
#
# Coordination Sequence:
#
# PCOD8004676 Si02
#       8
#     2   2   2   2   2   2   2   2
#     4   9  17  33  58  89 116 147 199 255 294 353
#     4  11  21  37  64  92 120 153 201 265 307 345
#     4  10  22  42  57  87 123 162 206 238 300 384
#     4  10  20  38  61  88 122 158 202 253 306 356
#     4  11  23  40  64  84 126 166 195 255 308 367
#     4   9  21  36  57  91 121 155 202 245 301 368
#     4  10  24  40  57  97 117 152 216 252 305 364
#     4  10  21  38  64  86 121 161 199 250 307 363
#
# _framework density 22.202348000000001
#
# number of rings (size 3 to 8) (size 9 to 14) (size 15 to 20)
#    0.000    2.000    0.000    4.125    7.000    1.000 
#    2.250    1.250    0.000    0.000    0.000    0.000 
#    0.000    0.000    0.000    0.000    0.000    0.000 
#
# Total GULP energy -198236.017997 kJ/mol
# GULP energy per Si atom -12389.751125 kJ/mol
# Density = 2.215181 g / cm^3
# Si number density = 22.202348 Si / 1000 Ang^3
#
#
#
# Elastic Constant Matrix: (Units=GPa)
#
#
# Indices 1 2 3 4 5 6 
#
# 1 68.2594 2.4823 28.9675 -1.6371 -8.9032 7.7831
# 2 2.4823 46.5364 6.7027 -3.6779 -1.5056 3.2319
# 3 28.9675 6.7027 91.2902 -5.1402 -10.2203 -1.1260
# 4 -1.6371 -3.6779 -5.1402 26.2257 3.6484 4.1687
# 5 -8.9032 -1.5056 -10.2203 3.6484 22.5920 1.6060
# 6 7.7831 3.2319 -1.1260 4.1687 1.6060 39.2381
#
#
#
# Elastic Compliance Matrix: (Units=1/GPa)
#
#
# Indices 1 2 3 4 5 6 
#
# 1 0.017951 0.000232 -0.005197 0.000064 0.005008 -0.003941
# 2 0.000232 0.022111 -0.001488 0.003107 0.000551 -0.002263
# 3 -0.005197 -0.001488 0.013198 0.001367 0.003514 0.001243
# 4 0.000064 0.003107 0.001367 0.040264 -0.005347 -0.004288
# 5 0.005008 0.000551 0.003514 -0.005347 0.048896 -0.002371
# 6 -0.003941 -0.002263 0.001243 -0.004288 -0.002371 0.027042
#
#
# Mechanical properties :
#
#
# Convention : Reuss Voigt Hill
#
# Bulk Modulus (GPa) = 24.78142 31.37675 28.07908
# Shear Modulus (GPa) = 25.53357 28.80672 27.17015
#
# Velocity S-wave (km/s) = 3.39490 3.60594 3.50201
# Velocity P-wave (km/s) = 5.15296 5.61248 5.38762
#
# Compressibility (1/GPa) = 0.04035282
#
# Stress axis : x y z
#
# Youngs Moduli (GPa) = 55.70603 45.22630 75.76728
#
# Poissons Ratio (x) = -0.01049 0.39380
# Poissons Ratio (y) = -0.01292 0.11277
# Poissons Ratio (z) = 0.28953 0.06731
#
# Static dielectric constant tensor:
#      x y z
#    x 4.173300 0.135580 -0.293170 
#    y 0.135580 4.147130 0.096270 
#    z -0.293170 0.096270 6.505400 
# 
# 
# High freq. dielectric constant tensor:
#      x y z
#    x 1.875930 0.014090 -0.008050 
#    y 0.014090 1.871070 0.000930 
#    z -0.008050 0.000930 1.850830 
# 
# From -- ./inp_files/223862.got.cif
#   From: 2010.06.25/outbox.cif.g09.slc.cpg/sg2_112_cif.got.tgz:223862.got - 2010.06.27 13:26:56.
