data_PCOD8004311
_publ_section_title
;
Structure prediction by ZEFSAII (Michael W. Deem and Ramdas Pophale) SiO2 
 PCOD8004311
Probable space group: P -1
;
_chemical_formula_sum "Si O2"
_cell_formula_units_Z 14
_cell_length_a 11.813973
_cell_length_b 12.387011
_cell_length_c 11.662280
_cell_angle_alpha 111.731558
_cell_angle_beta 96.441451
_cell_angle_gamma 144.431350
_cell_volume 593.895195
_symmetry_space_group_name_H-M "P -1"
_symmetry_group_IT_number 2
_symmetry_cell_setting 'triclinic'
loop_
_space_group_symop_operation_xyz
x,y,z
-x,-y,-z
loop_
_atom_site_type_symbol
_atom_site_label
_atom_site_fract_x
_atom_site_fract_y
_atom_site_fract_z
Si Si1 0.811400 0.366242 0.251544
Si Si2 0.309760 0.934413 0.704262
Si Si3 0.487657 0.288296 0.185618
Si Si4 0.722159 0.302609 0.700312
Si Si5 0.361145 0.358420 0.804168
Si Si6 0.097303 0.237065 0.390185
Si Si7 0.199793 0.364776 0.202061
O O1 0.646218 0.106325 0.197834
O O2 0.568907 0.234009 0.137077
O O3 0.073617 0.663952 0.478182
O O4 0.946344 0.440449 0.177806
O O5 0.189972 0.947619 0.734213
O O6 0.636547 0.247887 0.801396
O O7 0.655214 0.529698 0.208551
O O8 0.619637 0.437529 0.385819
O O9 0.128551 0.964230 0.021659
O O10 0.718172 0.422955 0.681316
O O11 0.500000 0.000000 0.500000
O O12 0.555938 0.459589 0.784457
O O13 0.500000 0.500000 0.000000
O O14 0.023691 0.986677 0.636720
O O15 0.207818 0.305591 0.302383
#
# Coordination Sequence:
#
# PCOD8004311 Si02
#       7
#     2   2   2   2   2   2   2
#     4   9  19  37  63  95 140 170 224 285 336 409
#     4   9  17  37  64  97 130 182 222 275 345 405
#     4  11  26  45  69 109 140 184 238 285 347 419
#     4  10  20  37  68 100 135 184 230 274 351 416
#     4  12  26  50  73 100 143 186 238 290 347 418
#     4  11  23  46  74  98 142 186 232 291 346 412
#     4  12  25  47  72 102 142 186 231 295 352 404
#
# _framework density 23.573183
#
# number of rings (size 3 to 8) (size 9 to 14) (size 15 to 20)
#    0.000    1.429    4.286    0.857    2.000    1.143 
#    5.143    0.714    0.000    0.000    0.000    0.000 
#    0.000    0.000    0.000    0.000    0.000    0.000 
#
# Total GULP energy -173577.980299 kJ/mol
# GULP energy per Si atom -12398.427164 kJ/mol
# Density = 2.351953 g / cm^3
# Si number density = 23.573183 Si / 1000 Ang^3
#
#
#
# Elastic Constant Matrix: (Units=GPa)
#
#
# Indices 1 2 3 4 5 6 
#
# 1 54.3037 30.9415 18.7708 -16.2488 -2.2465 -10.6245
# 2 30.9415 143.7370 31.2585 -1.1802 -3.8314 1.4189
# 3 18.7708 31.2585 76.4478 0.3411 -3.6812 5.3625
# 4 -16.2488 -1.1802 0.3411 26.0347 -3.0228 -11.2974
# 5 -2.2465 -3.8314 -3.6812 -3.0228 25.9370 -3.6314
# 6 -10.6245 1.4189 5.3625 -11.2974 -3.6314 52.2490
#
#
#
# Elastic Compliance Matrix: (Units=1/GPa)
#
#
# Indices 1 2 3 4 5 6 
#
# 1 0.036796 -0.006018 -0.007459 0.030296 0.006933 0.015444
# 2 -0.006018 0.008642 -0.001897 -0.004344 -0.000332 -0.002226
# 3 -0.007459 -0.001897 0.016038 -0.006972 -0.000110 -0.004626
# 4 0.030296 -0.004344 -0.006972 0.068446 0.012139 0.022637
# 5 0.006933 -0.000332 -0.000110 0.012139 0.041477 0.006937
# 6 0.015444 -0.002226 -0.004626 0.022637 0.006937 0.028192
#
#
# Mechanical properties :
#
#
# Convention : Reuss Voigt Hill
#
# Bulk Modulus (GPa) = 32.54163 48.49222 40.51692
# Shear Modulus (GPa) = 20.78309 33.74532 27.26421
#
# Velocity S-wave (km/s) = 2.97247 3.78764 3.40454
# Velocity P-wave (km/s) = 5.06115 6.30427 5.71660
#
# Compressibility (1/GPa) = 0.03072987
#
# Stress axis : x y z
#
# Youngs Moduli (GPa) = 27.17719 115.70754 62.35158
#
# Poissons Ratio (x) = 0.69628 0.46507
# Poissons Ratio (y) = 0.16354 0.11826
# Poissons Ratio (z) = 0.20271 0.21946
#
# Static dielectric constant tensor:
#      x y z
#    x 4.489190 0.031760 -0.166700 
#    y 0.031760 4.675330 0.137260 
#    z -0.166700 0.137260 3.894220 
# 
# 
# High freq. dielectric constant tensor:
#      x y z
#    x 1.935640 0.000150 -0.016390 
#    y 0.000150 1.946470 0.005220 
#    z -0.016390 0.005220 1.917980 
# 
# From -- ./inp_files/388522.got.cif
#   From: 2010.06.25/outbox.cif.g09.slc.cpg/sg2_195_cif.got.tgz:388522.got - 2010.06.27 13:26:56.
