data_PCOD8004992
_publ_section_title
;
Structure prediction by ZEFSAII (Michael W. Deem and Ramdas Pophale) SiO2 
 PCOD8004992
Probable space group: P -1
;
_chemical_formula_sum "Si O2"
_cell_formula_units_Z 12
_cell_length_a 14.322590
_cell_length_b 7.470209
_cell_length_c 7.262164
_cell_angle_alpha 121.077981
_cell_angle_beta 111.125149
_cell_angle_gamma 97.917261
_cell_volume 567.483216
_symmetry_space_group_name_H-M "P -1"
_symmetry_group_IT_number 2
_symmetry_cell_setting 'triclinic'
loop_
_space_group_symop_operation_xyz
x,y,z
-x,-y,-z
loop_
_atom_site_type_symbol
_atom_site_label
_atom_site_fract_x
_atom_site_fract_y
_atom_site_fract_z
Si Si1 0.498543 0.655245 0.315894
Si Si2 0.261957 0.594630 0.062101
Si Si3 0.123345 0.083299 0.693687
Si Si4 0.461932 0.174692 0.167419
Si Si5 0.721823 0.972919 0.532110
Si Si6 0.228568 0.938628 0.988427
O O1 0.380737 0.593878 0.106773
O O2 0.516248 0.427174 0.255349
O O3 0.510196 0.813370 0.588210
O O4 0.595105 0.796202 0.314244
O O5 0.270160 0.766773 0.328802
O O6 0.171495 0.349460 0.924154
O O7 0.223438 0.685593 0.896996
O O8 0.195280 0.053868 0.565272
O O9 0.124997 0.933159 0.794730
O O10 0.000000 0.000000 0.500000
O O11 0.500000 0.000000 0.000000
O O12 0.330867 0.076902 0.000945
O O13 0.758077 0.923572 0.736457
#
# Coordination Sequence:
#
# PCOD8004992 Si02
#       6
#     2   2   2   2   2   2
#     4  10  20  38  63  98 136 168 202 258 328 390
#     4  10  23  43  64  96 134 162 216 266 316 395
#     4  12  26  46  68  90 125 178 224 267 322 372
#     4  10  21  33  64  99 135 173 202 252 324 396
#     4   9  24  42  64  98 131 164 210 270 323 379
#     4   9  23  44  59 100 127 160 224 258 316 387
#
# _framework density 21.146000000000001
#
# number of rings (size 3 to 8) (size 9 to 14) (size 15 to 20)
#    1.000    1.000    1.667    0.500    4.667    2.667 
#    3.000    0.000    0.000    0.000    0.000    0.000 
#    0.000    0.000    0.000    0.000    0.000    0.000 
#
# Total GULP energy -148738.869826 kJ/mol
# GULP energy per Si atom -12394.905819 kJ/mol
# Density = 2.109787 g / cm^3
# Si number density = 21.146000 Si / 1000 Ang^3
#
#
#
# Elastic Constant Matrix: (Units=GPa)
#
#
# Indices 1 2 3 4 5 6 
#
# 1 68.0522 37.6249 32.8486 6.8234 12.8450 -2.2002
# 2 37.6249 100.1505 32.6066 -0.4392 11.3650 -15.1967
# 3 32.8486 32.6066 60.0061 6.1365 14.0051 -12.6666
# 4 6.8234 -0.4392 6.1365 36.7417 -13.3599 6.0115
# 5 12.8450 11.3650 14.0051 -13.3599 44.9378 -4.1470
# 6 -2.2002 -15.1967 -12.6666 6.0115 -4.1470 21.7964
#
#
#
# Elastic Compliance Matrix: (Units=1/GPa)
#
#
# Indices 1 2 3 4 5 6 
#
# 1 0.023845 -0.006478 -0.010054 -0.002857 -0.003618 -0.007853
# 2 -0.006478 0.014490 -0.002739 0.000544 -0.000088 0.007690
# 3 -0.010054 -0.002739 0.029112 -0.007816 -0.006453 0.014921
# 4 -0.002857 0.000544 -0.007816 0.035582 0.012598 -0.011868
# 5 -0.003618 -0.000088 -0.006453 0.012598 0.028867 -0.002159
# 6 -0.007853 0.007690 0.014921 -0.011868 -0.002159 0.061982
#
#
# Mechanical properties :
#
#
# Convention : Reuss Voigt Hill
#
# Bulk Modulus (GPa) = 34.59691 48.26323 41.43007
# Shear Modulus (GPa) = 20.65648 29.03709 24.84678
#
# Velocity S-wave (km/s) = 3.12885 3.70965 3.43156
# Velocity P-wave (km/s) = 5.42673 6.42044 5.94439
#
# Compressibility (1/GPa) = 0.02890431
#
# Stress axis : x y z
#
# Youngs Moduli (GPa) = 41.93763 69.01417 34.35001
#
# Poissons Ratio (x) = 0.44710 0.34535
# Poissons Ratio (y) = 0.27169 0.09408
# Poissons Ratio (z) = 0.42164 0.18903
#
# Static dielectric constant tensor:
#      x y z
#    x 3.492370 -0.072030 0.014930 
#    y -0.072030 3.818110 0.030520 
#    z 0.014930 0.030520 3.795070 
# 
# 
# High freq. dielectric constant tensor:
#      x y z
#    x 1.802630 -0.007960 -0.007690 
#    y -0.007960 1.832070 0.000980 
#    z -0.007690 0.000980 1.821550 
# 
# From -- ./inp_files/232994.got.cif
#   From: 2010.06.25/outbox.cif.g09.slc.cpg/sg2_117_cif.got.tgz:232994.got - 2010.06.27 13:26:56.
