data_PCOD8004226
_publ_section_title
;
Structure prediction by ZEFSAII (Michael W. Deem and Ramdas Pophale) SiO2 
 PCOD8004226
Probable space group: P -1
;
_chemical_formula_sum "Si O2"
_cell_formula_units_Z 12
_cell_length_a 9.476764
_cell_length_b 9.558242
_cell_length_c 14.293188
_cell_angle_alpha 135.139759
_cell_angle_beta 145.000039
_cell_angle_gamma 48.218652
_cell_volume 511.946660
_symmetry_space_group_name_H-M "P -1"
_symmetry_group_IT_number 2
_symmetry_cell_setting 'triclinic'
loop_
_space_group_symop_operation_xyz
x,y,z
-x,-y,-z
loop_
_atom_site_type_symbol
_atom_site_label
_atom_site_fract_x
_atom_site_fract_y
_atom_site_fract_z
Si Si1 0.488631 0.119341 0.148646
Si Si2 0.887098 0.779041 0.232422
Si Si3 0.646829 0.399003 0.913253
Si Si4 0.021687 0.907403 0.168885
Si Si5 0.128389 0.657645 0.793345
Si Si6 0.722463 0.422242 0.511562
O O1 0.609224 0.318682 0.312734
O O2 0.648152 0.946413 0.220746
O O3 0.194892 0.186152 0.046696
O O4 0.500000 0.000000 0.000000
O O5 0.791180 0.579057 0.052928
O O6 0.020185 0.870175 0.261415
O O7 0.074099 0.745553 0.404347
O O8 0.743446 0.299667 0.018761
O O9 0.344595 0.481272 0.780644
O O10 0.715110 0.216015 0.788321
O O11 0.950268 0.146777 0.222255
O O12 0.861941 0.592191 0.630036
O O13 0.500000 0.500000 0.500000
#
# Coordination Sequence:
#
# PCOD8004226 Si02
#       6
#     2   2   2   2   2   2
#     4  10  21  40  70  96 131 177 224 270 330 400
#     4  10  21  40  66  98 134 173 223 274 332 403
#     4  10  20  37  65  99 137 179 222 273 336 401
#     4  11  21  40  71  97 132 178 225 270 335 404
#     4  10  22  40  62 100 135 172 228 280 332 392
#     4  11  24  45  67  98 136 177 224 278 340 397
#
# _framework density 23.439941000000001
#
# number of rings (size 3 to 8) (size 9 to 14) (size 15 to 20)
#    0.000    1.667    1.667    3.500    0.000    1.333 
#    3.000    4.167    0.000    0.000    0.000    0.000 
#    0.000    0.000    0.000    0.000    0.000    0.000 
#
# Total GULP energy -148676.151174 kJ/mol
# GULP energy per Si atom -12389.679265 kJ/mol
# Density = 2.338659 g / cm^3
# Si number density = 23.439941 Si / 1000 Ang^3
#
#
#
# Elastic Constant Matrix: (Units=GPa)
#
#
# Indices 1 2 3 4 5 6 
#
# 1 96.5505 20.8300 19.0185 3.8859 15.2547 0.0308
# 2 20.8300 51.1901 -4.6011 7.9000 11.7907 8.1643
# 3 19.0185 -4.6011 101.2775 10.4442 16.4730 0.9320
# 4 3.8859 7.9000 10.4442 18.1070 -6.5531 3.9862
# 5 15.2547 11.7907 16.4730 -6.5531 31.0473 -1.8773
# 6 0.0308 8.1643 0.9320 3.9862 -1.8773 53.3820
#
#
#
# Elastic Compliance Matrix: (Units=1/GPa)
#
#
# Indices 1 2 3 4 5 6 
#
# 1 0.012247 -0.004187 -0.001759 -0.001273 -0.003725 0.000628
# 2 -0.004187 0.030183 0.007483 -0.022401 -0.018328 -0.003716
# 3 -0.001759 0.007483 0.014256 -0.015623 -0.012880 -0.000679
# 4 -0.001273 -0.022401 -0.015623 0.087595 0.035815 -0.001582
# 5 -0.003725 -0.018328 -0.012880 0.035815 0.055533 0.002309
# 6 0.000628 -0.003716 -0.000679 -0.001582 0.002309 0.019512
#
#
# Mechanical properties :
#
#
# Convention : Reuss Voigt Hill
#
# Bulk Modulus (GPa) = 16.73347 35.50145 26.11746
# Shear Modulus (GPa) = 21.17106 34.75863 27.96484
#
# Velocity S-wave (km/s) = 3.00860 3.85500 3.45779
# Velocity P-wave (km/s) = 4.38443 5.91551 5.20656
#
# Compressibility (1/GPa) = 0.05976048
#
# Stress axis : x y z
#
# Youngs Moduli (GPa) = 81.65555 33.13133 70.14403
#
# Poissons Ratio (x) = 0.13872 0.12335
# Poissons Ratio (y) = 0.34190 -0.52489
# Poissons Ratio (z) = 0.14360 -0.24792
#
# Static dielectric constant tensor:
#      x y z
#    x 4.253330 -0.221490 0.432140 
#    y -0.221490 4.585940 -0.429140 
#    z 0.432140 -0.429140 4.299510 
# 
# 
# High freq. dielectric constant tensor:
#      x y z
#    x 1.917610 -0.005150 0.014190 
#    y -0.005150 1.942560 -0.014360 
#    z 0.014190 -0.014360 1.903680 
# 
# From -- ./inp_files/493995.got.cif
#   From: 2010.06.25/outbox.cif.g09.slc.cpg/sg2_247_cif.got.tgz:493995.got - 2010.06.27 13:26:56.
