data_PCOD8004295
_publ_section_title
;
Structure prediction by ZEFSAII (Michael W. Deem and Ramdas Pophale) SiO2 
 PCOD8004295
Probable space group: P -1
;
_chemical_formula_sum "Si O2"
_cell_formula_units_Z 14
_cell_length_a 11.611084
_cell_length_b 8.924112
_cell_length_c 8.952801
_cell_angle_alpha 90.909267
_cell_angle_beta 98.986986
_cell_angle_gamma 130.809112
_cell_volume 684.843322
_symmetry_space_group_name_H-M "P -1"
_symmetry_group_IT_number 2
_symmetry_cell_setting 'triclinic'
loop_
_space_group_symop_operation_xyz
x,y,z
-x,-y,-z
loop_
_atom_site_type_symbol
_atom_site_label
_atom_site_fract_x
_atom_site_fract_y
_atom_site_fract_z
Si Si1 0.123108 0.664078 0.409696
Si Si2 0.302106 0.021433 0.631277
Si Si3 0.566062 0.343226 0.895186
Si Si4 0.661969 0.756913 0.914864
Si Si5 0.110107 0.480445 0.108209
Si Si6 0.928664 0.058531 0.182045
Si Si7 0.162938 0.013434 0.330509
O O1 0.152362 0.566491 0.286844
O O2 0.000000 0.500000 0.500000
O O3 0.280689 0.841617 0.539635
O O4 0.069002 0.774460 0.320181
O O5 0.471292 0.181372 0.740398
O O6 0.166336 0.916142 0.725950
O O7 0.268465 0.124336 0.503524
O O8 0.592272 0.536843 0.853242
O O9 0.728687 0.395181 0.949249
O O10 0.470688 0.256483 0.029976
O O11 0.717585 0.892422 0.782459
O O12 0.809611 0.858660 0.056112
O O13 0.029433 0.249249 0.095367
O O14 0.000000 0.500000 0.000000
O O15 0.958327 0.954969 0.705058
#
# Coordination Sequence:
#
# PCOD8004295 Si02
#       7
#     2   2   2   2   2   2   2
#     4  10  22  41  62  91 130 158 210 256 316 369
#     4   9  22  39  62  91 128 164 204 259 315 373
#     4  10  23  41  60  91 136 164 204 261 318 368
#     4  10  21  39  63  94 129 162 209 264 308 362
#     4  12  24  40  65  93 123 172 212 256 313 377
#     4  11  20  39  66  92 126 161 216 263 301 369
#     4  10  20  37  67  94 122 164 212 258 305 372
#
# _framework density 20.442630999999999
#
# number of rings (size 3 to 8) (size 9 to 14) (size 15 to 20)
#    0.857    0.857    2.857    1.714    2.000    1.143 
#    0.000    7.857    0.000    0.000    0.000    0.000 
#    0.000    0.000    0.000    0.000    0.000    0.000 
#
# Total GULP energy -173510.244095 kJ/mol
# GULP energy per Si atom -12393.588864 kJ/mol
# Density = 2.039610 g / cm^3
# Si number density = 20.442631 Si / 1000 Ang^3
#
#
#
# Elastic Constant Matrix: (Units=GPa)
#
#
# Indices 1 2 3 4 5 6 
#
# 1 105.9716 36.9177 28.6162 -1.5708 5.2003 25.5167
# 2 36.9177 108.5652 37.4150 -0.8513 -0.0164 9.5137
# 3 28.6162 37.4150 79.8746 2.7466 -7.0535 20.2732
# 4 -1.5708 -0.8513 2.7466 43.2259 -4.0614 -0.4042
# 5 5.2003 -0.0164 -7.0535 -4.0614 28.7297 0.1299
# 6 25.5167 9.5137 20.2732 -0.4042 0.1299 30.6217
#
#
#
# Elastic Compliance Matrix: (Units=1/GPa)
#
#
# Indices 1 2 3 4 5 6 
#
# 1 0.013248 -0.003323 -0.001067 0.000153 -0.002598 -0.009288
# 2 -0.003323 0.011873 -0.005054 0.000402 -0.000587 0.002434
# 3 -0.001067 -0.005054 0.018136 -0.000953 0.004551 -0.009579
# 4 0.000153 0.000402 -0.000953 0.023502 0.003058 0.000676
# 5 -0.002598 -0.000587 0.004551 0.003058 0.036830 -0.000782
# 6 -0.009288 0.002434 -0.009579 0.000676 -0.000782 0.045994
#
#
# Mechanical properties :
#
#
# Convention : Reuss Voigt Hill
#
# Bulk Modulus (GPa) = 41.03815 55.58990 48.31403
# Shear Modulus (GPa) = 28.31355 33.27963 30.79659
#
# Velocity S-wave (km/s) = 3.72563 4.03917 3.88556
# Velocity P-wave (km/s) = 6.21494 7.00038 6.61932
#
# Compressibility (1/GPa) = 0.02436757
#
# Stress axis : x y z
#
# Youngs Moduli (GPa) = 75.48102 84.22772 55.14025
#
# Poissons Ratio (x) = 0.27985 0.05886
# Poissons Ratio (y) = 0.25079 0.27871
# Poissons Ratio (z) = 0.08057 0.42573
#
# Static dielectric constant tensor:
#      x y z
#    x 3.454230 0.122600 -0.263920 
#    y 0.122600 3.804210 0.114210 
#    z -0.263920 0.114210 3.827690 
# 
# 
# High freq. dielectric constant tensor:
#      x y z
#    x 1.774310 0.008840 -0.019950 
#    y 0.008840 1.802920 0.005470 
#    z -0.019950 0.005470 1.803190 
# 
# From -- ./inp_files/239219.got.cif
#   From: 2010.06.25/outbox.cif.g09.slc.cpg/sg2_120_cif.got.tgz:239219.got - 2010.06.27 13:26:56.
