data_PCOD8004149
_publ_section_title
;
Structure prediction by ZEFSAII (Michael W. Deem and Ramdas Pophale) SiO2 
 PCOD8004149
Probable space group: P -1
;
_chemical_formula_sum "Si O2"
_cell_formula_units_Z 16
_cell_length_a 26.335692
_cell_length_b 26.168184
_cell_length_c 16.935518
_cell_angle_alpha 20.580794
_cell_angle_beta 22.682754
_cell_angle_gamma 11.046250
_cell_volume 784.828684
_symmetry_space_group_name_H-M "P -1"
_symmetry_group_IT_number 2
_symmetry_cell_setting 'triclinic'
loop_
_space_group_symop_operation_xyz
x,y,z
-x,-y,-z
loop_
_atom_site_type_symbol
_atom_site_label
_atom_site_fract_x
_atom_site_fract_y
_atom_site_fract_z
Si Si1 0.829229 0.815130 0.596241
Si Si2 0.266343 0.591084 0.840314
Si Si3 0.198202 0.897131 0.130832
Si Si4 0.325444 0.469680 0.313111
Si Si5 0.808228 0.497760 0.080238
Si Si6 0.158623 0.004879 0.535359
Si Si7 0.513466 0.439335 0.940246
Si Si8 0.697702 0.119678 0.660428
O O1 0.896518 0.809159 0.596008
O O2 0.076723 0.603395 0.489543
O O3 0.587471 0.132659 0.446890
O O4 0.760803 0.713066 0.849092
O O5 0.568259 0.300876 0.855634
O O6 0.226376 0.503639 0.960466
O O7 0.206555 0.805047 0.577093
O O8 0.057878 0.765791 0.959174
O O9 0.300179 0.841008 0.977424
O O10 0.118883 0.801241 0.376327
O O11 0.298692 0.639342 0.160627
O O12 0.335166 0.506986 0.153607
O O13 0.595243 0.615123 0.267736
O O14 0.102979 0.173656 0.153011
O O15 0.325781 0.715531 0.754409
O O16 0.310836 0.918256 0.364837
#
# Coordination Sequence:
#
# PCOD8004149 Si02
#       8
#     2   2   2   2   2   2   2   2
#     4  11  24  41  58  86 128 161 190 237 290 371
#     4  11  23  38  62  87 117 154 203 251 288 334
#     4  11  19  36  62  91 117 149 185 255 301 333
#     4  10  23  36  64  91 119 157 192 239 298 358
#     4  12  25  41  59  84 123 164 201 235 289 349
#     4  10  22  37  62  93 124 146 193 244 312 345
#     4  10  20  37  64  94 122 144 196 249 302 343
#     4  11  22  38  62  88 115 154 202 252 289 339
#
# _framework density 20.386614000000002
#
# number of rings (size 3 to 8) (size 9 to 14) (size 15 to 20)
#    0.000    1.250    3.750    3.750    1.750    2.500 
#    0.000    0.000    0.000    4.500    0.000    0.000 
#    0.000    0.000    0.000    0.000    0.000    0.000 
#
# Total GULP energy -198405.680701 kJ/mol
# GULP energy per Si atom -12400.355044 kJ/mol
# Density = 2.034021 g / cm^3
# Si number density = 20.386614 Si / 1000 Ang^3
#
#
#
# Elastic Constant Matrix: (Units=GPa)
#
#
# Indices 1 2 3 4 5 6 
#
# 1 136.7668 34.6822 34.9490 12.6976 -2.2339 10.0359
# 2 34.6822 101.1397 11.6827 18.5706 1.6267 5.2879
# 3 34.9490 11.6827 28.5219 6.3025 -3.9817 1.4396
# 4 12.6976 18.5706 6.3025 21.4211 7.2254 8.1317
# 5 -2.2339 1.6267 -3.9817 7.2254 27.6551 0.8162
# 6 10.0359 5.2879 1.4396 8.1317 0.8162 34.8644
#
#
#
# Elastic Compliance Matrix: (Units=1/GPa)
#
#
# Indices 1 2 3 4 5 6 
#
# 1 0.011367 -0.002306 -0.013044 0.000304 -0.000832 -0.002435
# 2 -0.002306 0.012509 0.000250 -0.010629 0.001856 0.001192
# 3 -0.013044 0.000250 0.055247 -0.013932 0.010395 0.004442
# 4 0.000304 -0.010629 -0.013932 0.071855 -0.019710 -0.014198
# 5 -0.000832 0.001856 0.010395 -0.019710 0.042537 0.003130
# 6 -0.002435 0.001192 0.004442 -0.014198 0.003130 0.032258
#
#
# Mechanical properties :
#
#
# Convention : Reuss Voigt Hill
#
# Bulk Modulus (GPa) = 20.44066 47.67293 34.05679
# Shear Modulus (GPa) = 18.36352 29.12907 23.74630
#
# Velocity S-wave (km/s) = 3.00453 3.78409 3.41662
# Velocity P-wave (km/s) = 4.69942 6.52132 5.68385
#
# Compressibility (1/GPa) = 0.04892211
#
# Stress axis : x y z
#
# Youngs Moduli (GPa) = 87.97754 79.94378 18.10062
#
# Poissons Ratio (x) = 0.18437 0.23610
# Poissons Ratio (y) = 0.20290 -0.00452
# Poissons Ratio (z) = 1.14755 -0.01998
#
# Static dielectric constant tensor:
#      x y z
#    x 3.918480 0.201920 0.091150 
#    y 0.201920 3.755260 0.156070 
#    z 0.091150 0.156070 3.309150 
# 
# 
# High freq. dielectric constant tensor:
#      x y z
#    x 1.806780 0.007060 0.010480 
#    y 0.007060 1.811730 0.016400 
#    z 0.010480 0.016400 1.749360 
# 
# From -- ./inp_files/456972.got.cif
#   From: 2010.06.25/outbox.cif.g09.slc.cpg/sg2_229_cif.got.tgz:456972.got - 2010.06.27 13:26:56.
