data_PCOD8004983
_publ_section_title
;
Structure prediction by ZEFSAII (Michael W. Deem and Ramdas Pophale) SiO2 
 PCOD8004983
Probable space group: P -1
;
_chemical_formula_sum "Si O2"
_cell_formula_units_Z 16
_cell_length_a 11.918876
_cell_length_b 6.589181
_cell_length_c 23.550360
_cell_angle_alpha 55.853137
_cell_angle_beta 28.266343
_cell_angle_gamma 56.739596
_cell_volume 717.957901
_symmetry_space_group_name_H-M "P -1"
_symmetry_group_IT_number 2
_symmetry_cell_setting 'triclinic'
loop_
_space_group_symop_operation_xyz
x,y,z
-x,-y,-z
loop_
_atom_site_type_symbol
_atom_site_label
_atom_site_fract_x
_atom_site_fract_y
_atom_site_fract_z
Si Si1 0.823469 0.507340 0.776881
Si Si2 0.343395 0.318208 0.572048
Si Si3 0.501705 0.986396 0.717427
Si Si4 0.307875 0.958595 0.044996
Si Si5 0.372603 0.489193 0.412298
Si Si6 0.762610 0.126520 0.248946
Si Si7 0.835471 0.487340 0.641227
Si Si8 0.568740 0.037076 0.805883
O O1 0.806371 0.435167 0.729450
O O2 0.090299 0.443751 0.687947
O O3 0.752712 0.795004 0.776518
O O4 0.683561 0.337732 0.907124
O O5 0.500000 0.500000 0.500000
O O6 0.370639 0.303663 0.494850
O O7 0.390885 0.041983 0.618564
O O8 0.611438 0.236230 0.614295
O O9 0.438754 0.989452 0.811959
O O10 0.260516 0.958657 0.793368
O O11 0.701290 0.760656 0.645286
O O12 0.037263 0.104699 0.151848
O O13 0.374336 0.063377 0.938142
O O14 0.500000 0.000000 0.000000
O O15 0.609865 0.400256 0.282253
O O16 0.114495 0.479192 0.497601
O O17 0.706960 0.276666 0.699453
#
# Coordination Sequence:
#
# PCOD8004983 Si02
#       8
#     2   2   2   2   2   2   2   2
#     4   9  21  39  64  98 122 162 216 265 322 376
#     4  10  20  38  63  95 132 162 205 265 317 381
#     4  11  24  43  61  96 136 168 215 257 320 388
#     4  11  23  46  69  94 127 165 219 276 316 375
#     4  11  23  41  67  97 133 172 208 262 325 378
#     4  11  25  42  64  98 132 167 213 262 323 385
#     4  10  22  40  67  97 129 168 214 261 313 383
#     4  11  23  41  69  92 125 174 217 263 317 374
#
# _framework density 22.285428
#
# number of rings (size 3 to 8) (size 9 to 14) (size 15 to 20)
#    0.000    1.500    2.500    1.875    1.750    4.500 
#    2.250    2.500    0.000    0.000    0.000    0.000 
#    0.000    0.000    0.000    0.000    0.000    0.000 
#
# Total GULP energy -198285.439973 kJ/mol
# GULP energy per Si atom -12392.839998 kJ/mol
# Density = 2.223471 g / cm^3
# Si number density = 22.285428 Si / 1000 Ang^3
#
#
#
# Elastic Constant Matrix: (Units=GPa)
#
#
# Indices 1 2 3 4 5 6 
#
# 1 122.3055 38.5587 42.5752 5.1592 -23.5605 2.2905
# 2 38.5587 135.2443 50.0420 -2.6967 -12.3250 1.4370
# 3 42.5752 50.0420 106.7447 -1.1487 -8.7118 5.8246
# 4 5.1592 -2.6967 -1.1487 29.4097 -1.9564 1.6311
# 5 -23.5605 -12.3250 -8.7118 -1.9564 36.5850 -6.6765
# 6 2.2905 1.4370 5.8246 1.6311 -6.6765 27.6180
#
#
#
# Elastic Compliance Matrix: (Units=1/GPa)
#
#
# Indices 1 2 3 4 5 6 
#
# 1 0.010980 -0.001407 -0.003331 -0.001867 0.005963 0.001417
# 2 -0.001407 0.009321 -0.003712 0.001019 0.001537 0.000726
# 3 -0.003331 -0.003712 0.012511 0.000812 -0.000813 -0.002414
# 4 -0.001867 0.001019 0.000812 0.034617 0.000836 -0.001912
# 5 0.005963 0.001537 -0.000813 0.000836 0.032912 0.007504
# 6 0.001417 0.000726 -0.002414 -0.001912 0.007504 0.038489
#
#
# Mechanical properties :
#
#
# Convention : Reuss Voigt Hill
#
# Bulk Modulus (GPa) = 62.84066 69.62737 66.23401
# Shear Modulus (GPa) = 31.04954 34.26377 32.65665
#
# Velocity S-wave (km/s) = 3.73670 3.92535 3.83218
# Velocity P-wave (km/s) = 6.84664 7.20109 7.02610
#
# Compressibility (1/GPa) = 0.01591326
#
# Stress axis : x y z
#
# Youngs Moduli (GPa) = 91.07398 107.28146 79.93139
#
# Poissons Ratio (x) = 0.15095 0.26622
# Poissons Ratio (y) = 0.12814 0.29669
# Poissons Ratio (z) = 0.30333 0.39821
#
# Static dielectric constant tensor:
#      x y z
#    x 3.828580 -0.092590 0.009010 
#    y -0.092590 4.004390 -0.062600 
#    z 0.009010 -0.062600 3.661010 
# 
# 
# High freq. dielectric constant tensor:
#      x y z
#    x 1.895910 -0.011580 0.009790 
#    y -0.011580 1.880690 -0.008110 
#    z 0.009790 -0.008110 1.859820 
# 
# From -- ./inp_files/70326.got.cif
#   From: 2010.06.25/outbox.cif.g09.slc.cpg/sg2_36_cif.got.tgz:70326.got - 2010.06.27 13:26:56.
