data_PCOD8004332
_publ_section_title
;
Structure prediction by ZEFSAII (Michael W. Deem and Ramdas Pophale) SiO2 
 PCOD8004332
Probable space group: P -1
;
_chemical_formula_sum "Si O2"
_cell_formula_units_Z 14
_cell_length_a 20.560443
_cell_length_b 5.045587
_cell_length_c 17.132725
_cell_angle_alpha 117.834013
_cell_angle_beta 153.680594
_cell_angle_gamma 56.675180
_cell_volume 656.887748
_symmetry_space_group_name_H-M "P -1"
_symmetry_group_IT_number 2
_symmetry_cell_setting 'triclinic'
loop_
_space_group_symop_operation_xyz
x,y,z
-x,-y,-z
loop_
_atom_site_type_symbol
_atom_site_label
_atom_site_fract_x
_atom_site_fract_y
_atom_site_fract_z
Si Si1 0.384266 0.769447 0.964238
Si Si2 0.008204 0.352346 0.238234
Si Si3 0.483616 0.229759 0.227782
Si Si4 0.261066 0.492921 0.156029
Si Si5 0.762522 0.553556 0.126467
Si Si6 0.201110 0.664726 0.397208
Si Si7 0.684553 0.874522 0.681522
O O1 0.709135 0.924581 0.146622
O O2 0.482286 0.879827 0.151975
O O3 0.500000 0.500000 0.000000
O O4 0.249079 0.654918 0.840559
O O5 0.932883 0.447704 0.256308
O O6 0.125369 0.547856 0.374179
O O7 0.881412 0.464859 0.049214
O O8 0.088770 0.972835 0.273793
O O9 0.425998 0.310436 0.265941
O O10 0.653486 0.249056 0.401665
O O11 0.360138 0.490818 0.076025
O O12 0.246065 0.276174 0.181853
O O13 0.256632 0.831059 0.231342
O O14 0.250712 0.375050 0.351194
O O15 0.500000 0.000000 0.500000
#
# Coordination Sequence:
#
# PCOD8004332 Si02
#       7
#     2   2   2   2   2   2   2
#     4  10  20  37  70 100 116 150 208 254 297 361
#     4  11  25  41  62  90 125 171 204 248 311 375
#     4   9  24  36  67  88 122 159 205 250 305 362
#     4  11  24  42  62  84 122 169 208 250 315 363
#     4   9  21  40  63  91 122 162 194 251 302 365
#     4  12  25  39  61  92 123 165 212 256 306 360
#     4  12  25  39  62  88 123 159 216 270 303 342
#
# _framework density 21.312619000000002
#
# number of rings (size 3 to 8) (size 9 to 14) (size 15 to 20)
#    0.857    0.571    1.429    3.429    8.000    3.429 
#    0.000    0.000    0.000    5.143    0.000    0.000 
#    0.000    0.000    0.000    0.000    0.000    0.000 
#
# Total GULP energy -173549.487527 kJ/mol
# GULP energy per Si atom -12396.391966 kJ/mol
# Density = 2.126411 g / cm^3
# Si number density = 21.312619 Si / 1000 Ang^3
#
#
#
# Elastic Constant Matrix: (Units=GPa)
#
#
# Indices 1 2 3 4 5 6 
#
# 1 116.1866 47.6265 30.1165 3.7775 30.0125 8.0047
# 2 47.6265 140.7470 29.7131 2.1331 13.5945 -3.2642
# 3 30.1165 29.7131 46.3754 -7.2273 23.2589 -1.9824
# 4 3.7775 2.1331 -7.2273 22.9797 1.5416 4.6025
# 5 30.0125 13.5945 23.2589 1.5416 32.0612 -3.3002
# 6 8.0047 -3.2642 -1.9824 4.6025 -3.3002 35.2269
#
#
#
# Elastic Compliance Matrix: (Units=1/GPa)
#
#
# Indices 1 2 3 4 5 6 
#
# 1 0.013370 -0.003241 -0.001801 -0.000920 -0.010230 -0.004278
# 2 -0.003241 0.009207 -0.006130 -0.002912 0.003922 0.001993
# 3 -0.001801 -0.006130 0.043349 0.016909 -0.028241 -0.002574
# 4 -0.000920 -0.002912 0.016909 0.051576 -0.013381 -0.007101
# 5 -0.010230 0.003922 -0.028241 -0.013381 0.061117 0.008573
# 6 -0.004278 0.001993 -0.002574 -0.007101 0.008573 0.031130
#
#
# Mechanical properties :
#
#
# Convention : Reuss Voigt Hill
#
# Bulk Modulus (GPa) = 22.94551 57.58013 40.26282
# Shear Modulus (GPa) = 20.27401 31.11043 25.69222
#
# Velocity S-wave (km/s) = 3.08761 3.82477 3.47579
# Velocity P-wave (km/s) = 4.84775 6.82501 5.91952
#
# Compressibility (1/GPa) = 0.04358151
#
# Stress axis : x y z
#
# Youngs Moduli (GPa) = 74.79705 108.60955 23.06847
#
# Poissons Ratio (x) = 0.35199 0.04155
# Poissons Ratio (y) = 0.24241 0.14142
# Poissons Ratio (z) = 0.13472 0.66580
#
# Static dielectric constant tensor:
#      x y z
#    x 3.806320 0.188590 0.168380 
#    y 0.188590 3.842380 -0.035430 
#    z 0.168380 -0.035430 3.503710 
# 
# 
# High freq. dielectric constant tensor:
#      x y z
#    x 1.837680 0.009410 0.020940 
#    y 0.009410 1.847090 -0.008680 
#    z 0.020940 -0.008680 1.803810 
# 
# From -- ./inp_files/487759.got.cif
#   From: 2010.06.25/outbox.cif.g09.slc.cpg/sg2_244_cif.got.tgz:487759.got - 2010.06.27 13:26:56.
