data_PCOD8004656
_publ_section_title
;
Structure prediction by ZEFSAII (Michael W. Deem and Ramdas Pophale) SiO2 
 PCOD8004656
Probable space group: P -1
;
_chemical_formula_sum "Si O2"
_cell_formula_units_Z 16
_cell_length_a 11.245966
_cell_length_b 28.011742
_cell_length_c 16.694481
_cell_angle_alpha 157.772074
_cell_angle_beta 23.139738
_cell_angle_gamma 145.636691
_cell_volume 770.003565
_symmetry_space_group_name_H-M "P -1"
_symmetry_group_IT_number 2
_symmetry_cell_setting 'triclinic'
loop_
_space_group_symop_operation_xyz
x,y,z
-x,-y,-z
loop_
_atom_site_type_symbol
_atom_site_label
_atom_site_fract_x
_atom_site_fract_y
_atom_site_fract_z
Si Si1 0.116109 0.058984 0.270813
Si Si2 0.437592 0.860293 0.638422
Si Si3 0.679484 0.489577 0.143018
Si Si4 0.134101 0.183249 0.171070
Si Si5 0.250582 0.784087 0.388289
Si Si6 0.466829 0.601289 0.748022
Si Si7 0.357069 0.058990 0.527682
Si Si8 0.239573 0.275208 0.630533
O O1 0.840610 0.156210 0.549349
O O2 0.325037 0.143585 0.321927
O O3 0.970317 0.970765 0.287472
O O4 0.325465 0.978338 0.949927
O O5 0.647119 0.905424 0.508454
O O6 0.649820 0.748628 0.383691
O O7 0.151060 0.802362 0.691090
O O8 0.458577 0.472573 0.328047
O O9 0.576067 0.618904 0.356767
O O10 0.704096 0.369443 0.881349
O O11 0.000000 0.500000 0.000000
O O12 0.277799 0.310731 0.281507
O O13 0.016562 0.160071 0.296899
O O14 0.378089 0.061478 0.805123
O O15 0.569625 0.823609 0.281052
O O16 0.500000 0.500000 0.500000
O O17 0.127143 0.683856 0.081612
#
# Coordination Sequence:
#
# PCOD8004656 Si02
#       8
#     2   2   2   2   2   2   2   2
#     4  12  21  38  67  92 127 162 209 257 311 373
#     4  11  25  41  61  95 136 162 200 258 328 369
#     4  10  20  38  61  85 120 162 210 252 306 365
#     4  11  20  39  64  94 123 165 211 259 304 377
#     4  11  19  36  65  93 120 157 213 267 301 360
#     4  11  23  39  65  93 117 167 222 256 300 373
#     4  11  22  38  63  97 122 166 212 255 306 376
#     4  11  24  43  59  93 130 166 202 262 320 365
#
# _framework density 20.779125000000001
#
# number of rings (size 3 to 8) (size 9 to 14) (size 15 to 20)
#    0.000    1.000    6.250    3.000    1.750    0.500 
#    2.250    6.250    0.000    0.000    0.000    0.000 
#    0.000    0.000    0.000    0.000    0.000    0.000 
#
# Total GULP energy -198419.997876 kJ/mol
# GULP energy per Si atom -12401.249867 kJ/mol
# Density = 2.073183 g / cm^3
# Si number density = 20.779125 Si / 1000 Ang^3
#
#
#
# Elastic Constant Matrix: (Units=GPa)
#
#
# Indices 1 2 3 4 5 6 
#
# 1 126.7754 46.5222 27.7196 10.4087 -1.2560 -11.8431
# 2 46.5222 116.4493 19.8539 23.3570 -2.3446 -3.1602
# 3 27.7196 19.8539 32.0764 10.8430 12.9635 8.9442
# 4 10.4087 23.3570 10.8430 27.6757 3.4674 9.8213
# 5 -1.2560 -2.3446 12.9635 3.4674 32.3341 13.6130
# 6 -11.8431 -3.1602 8.9442 9.8213 13.6130 37.1556
#
#
#
# Elastic Compliance Matrix: (Units=1/GPa)
#
#
# Indices 1 2 3 4 5 6 
#
# 1 0.011782 -0.002617 -0.010998 -0.000105 0.002453 0.005309
# 2 -0.002617 0.012230 -0.003883 -0.009061 0.002158 0.002745
# 3 -0.010998 -0.003883 0.056085 -0.009376 -0.018840 -0.007956
# 4 -0.000105 -0.009061 -0.009376 0.051856 0.003188 -0.013422
# 5 0.002453 0.002158 -0.018840 0.003188 0.043073 -0.011123
# 6 0.005309 0.002745 -0.007956 -0.013422 -0.011123 0.038378
#
#
# Mechanical properties :
#
#
# Convention : Reuss Voigt Hill
#
# Bulk Modulus (GPa) = 22.17254 51.49917 36.83586
# Shear Modulus (GPa) = 18.97995 31.51346 25.24671
#
# Velocity S-wave (km/s) = 3.02555 3.89857 3.48947
# Velocity P-wave (km/s) = 4.78530 6.71588 5.83104
#
# Compressibility (1/GPa) = 0.04510083
#
# Stress axis : x y z
#
# Youngs Moduli (GPa) = 84.87419 81.76343 17.82994
#
# Poissons Ratio (x) = 0.21401 0.19610
# Poissons Ratio (y) = 0.22215 0.06923
# Poissons Ratio (z) = 0.93348 0.31747
#
# Static dielectric constant tensor:
#      x y z
#    x 3.646990 -0.004600 0.351370 
#    y -0.004600 4.063140 0.056350 
#    z 0.351370 0.056350 3.447090 
# 
# 
# High freq. dielectric constant tensor:
#      x y z
#    x 1.819540 -0.005750 0.023510 
#    y -0.005750 1.825780 0.010960 
#    z 0.023510 0.010960 1.784040 
# 
# From -- ./inp_files/260150.got.cif
#   From: 2010.06.25/outbox.cif.g09.slc.cpg/sg2_131_cif.got.tgz:260150.got - 2010.06.27 13:26:56.
