data_PCOD8004846
_publ_section_title
;
Structure prediction by ZEFSAII (Michael W. Deem and Ramdas Pophale) SiO2 
 PCOD8004846
Probable space group: P -1
;
_chemical_formula_sum "Si O2"
_cell_formula_units_Z 16
_cell_length_a 15.212195
_cell_length_b 14.785498
_cell_length_c 8.968400
_cell_angle_alpha 49.984247
_cell_angle_beta 100.726386
_cell_angle_gamma 141.366405
_cell_volume 723.596140
_symmetry_space_group_name_H-M "P -1"
_symmetry_group_IT_number 2
_symmetry_cell_setting 'triclinic'
loop_
_space_group_symop_operation_xyz
x,y,z
-x,-y,-z
loop_
_atom_site_type_symbol
_atom_site_label
_atom_site_fract_x
_atom_site_fract_y
_atom_site_fract_z
Si Si1 0.083897 0.788012 0.502933
Si Si2 0.195636 0.482379 0.530613
Si Si3 0.807968 0.739190 0.789896
Si Si4 0.195119 0.231781 0.903833
Si Si5 0.467108 0.823282 0.013023
Si Si6 0.176531 0.508768 0.005325
Si Si7 0.554107 0.683543 0.061717
Si Si8 0.826838 0.349906 0.433962
O O1 0.044283 0.614402 0.594564
O O2 0.954768 0.725806 0.427131
O O3 0.025604 0.718294 0.732988
O O4 0.299663 0.079357 0.254728
O O5 0.269286 0.450099 0.669988
O O6 0.381114 0.753166 0.223069
O O7 0.091277 0.448205 0.653545
O O8 0.798696 0.588001 0.962598
O O9 0.624335 0.571743 0.818721
O O10 0.817440 0.809232 0.880451
O O11 0.000000 0.000000 0.500000
O O12 0.346432 0.307091 0.822337
O O13 0.000000 0.000000 0.000000
O O14 0.327789 0.709918 0.964710
O O15 0.485567 0.701821 0.138940
O O16 0.655844 0.110907 0.736175
O O17 0.215102 0.651931 0.742309
#
# Coordination Sequence:
#
# PCOD8004846 Si02
#       8
#     2   2   2   2   2   2   2   2
#     4  10  21  39  65  92 129 169 207 262 324 377
#     4  11  22  40  61  93 131 171 209 261 327 372
#     4  11  24  43  67  94 130 170 209 267 321 382
#     4  12  24  41  67  92 131 167 217 268 313 384
#     4   9  22  38  62  87 127 172 208 264 321 378
#     4  10  20  38  62  93 123 166 217 261 318 373
#     4  10  22  42  67  93 126 170 218 258 323 381
#     4  11  20  38  62  92 127 165 219 263 312 378
#
# _framework density 22.111782000000002
#
# number of rings (size 3 to 8) (size 9 to 14) (size 15 to 20)
#    0.000    1.500    2.500    2.625    3.500    0.500 
#    0.000    0.000   11.000    0.000    0.000    0.000 
#    0.000    0.000    0.000    0.000    0.000    0.000 
#
# Total GULP energy -198277.816064 kJ/mol
# GULP energy per Si atom -12392.363504 kJ/mol
# Density = 2.206145 g / cm^3
# Si number density = 22.111782 Si / 1000 Ang^3
#
#
#
# Elastic Constant Matrix: (Units=GPa)
#
#
# Indices 1 2 3 4 5 6 
#
# 1 98.2658 37.8453 21.1646 11.7719 0.4426 12.1951
# 2 37.8453 85.5449 24.2498 6.9631 -1.0107 12.1347
# 3 21.1646 24.2498 56.4622 6.1948 -3.3061 12.5084
# 4 11.7719 6.9631 6.1948 31.5337 2.0458 -6.1544
# 5 0.4426 -1.0107 -3.3061 2.0458 35.6167 4.6511
# 6 12.1951 12.1347 12.5084 -6.1544 4.6511 34.5446
#
#
#
# Elastic Compliance Matrix: (Units=1/GPa)
#
#
# Indices 1 2 3 4 5 6 
#
# 1 0.013214 -0.004531 -0.001828 -0.004208 0.000195 -0.003187
# 2 -0.004531 0.015361 -0.004127 -0.001438 0.000535 -0.002630
# 3 -0.001828 -0.004127 0.022450 -0.004440 0.003192 -0.007255
# 4 -0.004208 -0.001438 -0.004440 0.036811 -0.003910 0.010683
# 5 0.000195 0.000535 0.003192 -0.003910 0.029403 -0.006068
# 6 -0.003187 -0.002630 -0.007255 0.010683 -0.006068 0.036344
#
#
# Mechanical properties :
#
#
# Convention : Reuss Voigt Hill
#
# Bulk Modulus (GPa) = 33.27488 45.19913 39.23701
# Shear Modulus (GPa) = 27.08970 30.80655 28.94813
#
# Velocity S-wave (km/s) = 3.50398 3.73663 3.62217
# Velocity P-wave (km/s) = 5.60817 6.25317 5.93943
#
# Compressibility (1/GPa) = 0.03005270
#
# Stress axis : x y z
#
# Youngs Moduli (GPa) = 75.67781 65.10192 44.54364
#
# Poissons Ratio (x) = 0.29496 0.08143
# Poissons Ratio (y) = 0.34287 0.18384
# Poissons Ratio (z) = 0.13834 0.26868
#
# Static dielectric constant tensor:
#      x y z
#    x 4.465010 -0.136660 -0.041090 
#    y -0.136660 3.727950 0.071420 
#    z -0.041090 0.071420 3.978560 
# 
# 
# High freq. dielectric constant tensor:
#      x y z
#    x 1.887070 -0.008650 0.000230 
#    y -0.008650 1.849630 0.005310 
#    z 0.000230 0.005310 1.864960 
# 
# From -- ./inp_files/226466.got.cif
#   From: 2010.06.25/outbox.cif.g09.slc.cpg/sg2_114_cif.got.tgz:226466.got - 2010.06.27 13:26:56.
