data_PCOD8004831
_publ_section_title
;
Structure prediction by ZEFSAII (Michael W. Deem and Ramdas Pophale) SiO2 
 PCOD8004831
Probable space group: P -1
;
_chemical_formula_sum "Si O2"
_cell_formula_units_Z 16
_cell_length_a 14.501579
_cell_length_b 7.937649
_cell_length_c 7.658071
_cell_angle_alpha 57.803564
_cell_angle_beta 88.322873
_cell_angle_gamma 103.453846
_cell_volume 712.799030
_symmetry_space_group_name_H-M "P -1"
_symmetry_group_IT_number 2
_symmetry_cell_setting 'triclinic'
loop_
_space_group_symop_operation_xyz
x,y,z
-x,-y,-z
loop_
_atom_site_type_symbol
_atom_site_label
_atom_site_fract_x
_atom_site_fract_y
_atom_site_fract_z
Si Si1 0.606627 0.991535 0.484390
Si Si2 0.603611 0.662698 0.372531
Si Si3 0.257571 0.575223 0.878591
Si Si4 0.967515 0.928320 0.239291
Si Si5 0.083114 0.683400 0.976432
Si Si6 0.206743 0.455140 0.589311
Si Si7 0.676201 0.795228 0.922664
Si Si8 0.144465 0.831072 0.260668
O O1 0.620006 0.859624 0.389366
O O2 0.632030 0.901636 0.714639
O O3 0.500000 0.000000 0.500000
O O4 0.668471 0.228552 0.324258
O O5 0.500000 0.500000 0.500000
O O6 0.688209 0.557495 0.469323
O O7 0.606793 0.733859 0.129853
O O8 0.188365 0.652819 0.965904
O O9 0.195108 0.427575 0.813061
O O10 0.309365 0.415623 0.051549
O O11 0.879461 0.723030 0.390671
O O12 0.061748 0.889833 0.350274
O O13 0.930295 0.109847 0.229355
O O14 0.000000 0.000000 0.000000
O O15 0.080454 0.708145 0.170569
O O16 0.000000 0.500000 0.000000
O O17 0.197931 0.683716 0.429478
O O18 0.774549 0.953994 0.906914
#
# Coordination Sequence:
#
# PCOD8004831 Si02
#       8
#     2   2   2   2   2   2   2   2
#     4  12  26  46  72 106 136 177 236 289 344 415
#     4  11  26  47  72 102 141 182 230 288 349 416
#     4  11  22  42  68  98 136 175 228 289 336 409
#     4  10  20  38  62  91 133 177 221 275 342 409
#     4  11  22  39  64  97 135 179 230 279 341 408
#     4  11  22  42  66  95 136 175 228 283 338 414
#     4  11  25  47  72 101 142 185 226 286 355 407
#     4  11  22  41  66  97 134 185 224 276 354 408
#
# _framework density 22.446719000000002
#
# number of rings (size 3 to 8) (size 9 to 14) (size 15 to 20)
#    0.000    1.000    1.250    8.625    1.750    2.500 
#    0.000    1.250    0.000    0.000    0.000    0.000 
#    0.000    0.000    0.000    0.000    0.000    0.000 
#
# Total GULP energy -198263.956927 kJ/mol
# GULP energy per Si atom -12391.497308 kJ/mol
# Density = 2.239563 g / cm^3
# Si number density = 22.446719 Si / 1000 Ang^3
#
#
#
# Elastic Constant Matrix: (Units=GPa)
#
#
# Indices 1 2 3 4 5 6 
#
# 1 149.9419 35.5677 52.0315 -16.3806 6.6948 -14.4357
# 2 35.5677 91.7409 27.6576 -17.6841 10.3514 -7.7573
# 3 52.0315 27.6576 91.4681 -29.2809 3.4636 2.4464
# 4 -16.3806 -17.6841 -29.2809 38.8785 -1.8350 0.4966
# 5 6.6948 10.3514 3.4636 -1.8350 37.3763 -12.0442
# 6 -14.4357 -7.7573 2.4464 0.4966 -12.0442 43.0700
#
#
#
# Elastic Compliance Matrix: (Units=1/GPa)
#
#
# Indices 1 2 3 4 5 6 
#
# 1 0.009022 -0.001956 -0.004889 -0.000794 0.000322 0.003049
# 2 -0.001956 0.013272 -0.001586 0.003880 -0.002653 0.001038
# 3 -0.004889 -0.001586 0.017689 0.010542 -0.000868 -0.003293
# 4 -0.000794 0.003880 0.010542 0.035081 -0.000408 -0.000685
# 5 0.000322 -0.002653 -0.000868 -0.000408 0.030103 0.008102
# 6 0.003049 0.001038 -0.003293 -0.000685 0.008102 0.026887
#
#
# Mechanical properties :
#
#
# Convention : Reuss Voigt Hill
#
# Bulk Modulus (GPa) = 43.24817 62.62936 52.93876
# Shear Modulus (GPa) = 31.92406 38.39124 35.15765
#
# Velocity S-wave (km/s) = 3.77532 4.14010 3.96191
# Velocity P-wave (km/s) = 6.18974 7.12852 6.67565
#
# Compressibility (1/GPa) = 0.02312237
#
# Stress axis : x y z
#
# Youngs Moduli (GPa) = 110.84085 75.34894 56.53243
#
# Poissons Ratio (x) = 0.14735 0.27637
# Poissons Ratio (y) = 0.21676 0.08965
# Poissons Ratio (z) = 0.54187 0.11949
#
# Static dielectric constant tensor:
#      x y z
#    x 4.563580 -0.528310 0.280280 
#    y -0.528310 4.402490 -0.323150 
#    z 0.280280 -0.323150 3.882970 
# 
# 
# High freq. dielectric constant tensor:
#      x y z
#    x 1.900890 -0.014160 0.004350 
#    y -0.014160 1.895910 -0.024640 
#    z 0.004350 -0.024640 1.869850 
# 
# From -- ./inp_files/294064.got.cif
#   From: 2010.06.25/outbox.cif.g09.slc.cpg/sg2_148_cif.got.tgz:294064.got - 2010.06.27 13:26:56.
