data_PCOD8004329
_publ_section_title
;
Structure prediction by ZEFSAII (Michael W. Deem and Ramdas Pophale) SiO2 
 PCOD8004329
Probable space group: P -1
;
_chemical_formula_sum "Si O2"
_cell_formula_units_Z 14
_cell_length_a 16.176117
_cell_length_b 8.905361
_cell_length_c 10.628413
_cell_angle_alpha 75.502746
_cell_angle_beta 148.399394
_cell_angle_gamma 121.024961
_cell_volume 623.881517
_symmetry_space_group_name_H-M "P -1"
_symmetry_group_IT_number 2
_symmetry_cell_setting 'triclinic'
loop_
_space_group_symop_operation_xyz
x,y,z
-x,-y,-z
loop_
_atom_site_type_symbol
_atom_site_label
_atom_site_fract_x
_atom_site_fract_y
_atom_site_fract_z
Si Si1 0.064586 0.226134 0.784922
Si Si2 0.044682 0.180105 0.229900
Si Si3 0.318835 0.803878 0.248619
Si Si4 0.290269 0.443153 0.272399
Si Si5 0.279935 0.745531 0.685103
Si Si6 0.911546 0.692996 0.477312
Si Si7 0.353789 0.899733 0.005833
O O1 0.168799 0.296696 0.765380
O O2 0.848217 0.173408 0.508923
O O3 0.176253 0.386137 0.004154
O O4 0.060340 0.046852 0.861270
O O5 0.192587 0.273726 0.284986
O O6 0.161705 0.263986 0.499100
O O7 0.882087 0.218531 0.990568
O O8 0.296571 0.616412 0.311494
O O9 0.500000 0.000000 0.500000
O O10 0.374378 0.808831 0.174670
O O11 0.500000 0.500000 0.500000
O O12 0.142742 0.518745 0.528720
O O13 0.368399 0.789662 0.931394
O O14 0.469088 0.868985 0.813260
O O15 0.144461 0.863209 0.742911
#
# Coordination Sequence:
#
# PCOD8004329 Si02
#       7
#     2   2   2   2   2   2   2
#     4  11  22  42  68  90 133 174 214 268 327 393
#     4  11  25  43  65  97 133 169 214 273 337 376
#     4  11  24  41  67  90 133 170 217 268 329 389
#     4  12  27  44  65  97 131 172 225 266 325 399
#     4  10  20  37  69  95 129 171 220 265 330 385
#     4  10  21  43  66  97 131 172 217 274 329 384
#     4   9  20  36  62  98 127 163 222 261 321 392
#
# _framework density 22.440156999999999
#
# number of rings (size 3 to 8) (size 9 to 14) (size 15 to 20)
#    0.000    1.429    0.000    6.429    6.000    0.000 
#    2.571    0.714    0.000    0.000    0.000    0.000 
#    0.000    0.000    0.000    0.000    0.000    0.000 
#
# Total GULP energy -173517.446608 kJ/mol
# GULP energy per Si atom -12394.103329 kJ/mol
# Density = 2.238908 g / cm^3
# Si number density = 22.440157 Si / 1000 Ang^3
#
#
#
# Elastic Constant Matrix: (Units=GPa)
#
#
# Indices 1 2 3 4 5 6 
#
# 1 99.5043 28.1900 46.2004 4.4959 -4.7212 17.6218
# 2 28.1900 114.7212 33.0277 7.0585 9.3110 -10.2742
# 3 46.2004 33.0277 91.2241 13.1061 -2.6421 5.8171
# 4 4.4959 7.0585 13.1061 23.1878 1.0581 -2.7919
# 5 -4.7212 9.3110 -2.6421 1.0581 40.2432 0.7963
# 6 17.6218 -10.2742 5.8171 -2.7919 0.7963 42.3124
#
#
#
# Elastic Compliance Matrix: (Units=1/GPa)
#
#
# Indices 1 2 3 4 5 6 
#
# 1 0.014778 -0.002578 -0.006203 0.000620 0.002024 -0.005925
# 2 -0.002578 0.010834 -0.002893 -0.000526 -0.003067 0.004125
# 3 -0.006203 -0.002893 0.016288 -0.007282 0.001219 -0.000862
# 4 0.000620 -0.000526 -0.007282 0.047813 -0.001616 0.003800
# 5 0.002024 -0.003067 0.001219 -0.001616 0.025965 -0.002351
# 6 -0.005925 0.004125 -0.000862 0.003800 -0.002351 0.027516
#
#
# Mechanical properties :
#
#
# Convention : Reuss Voigt Hill
#
# Bulk Modulus (GPa) = 53.90833 57.80953 55.85893
# Shear Modulus (GPa) = 28.94747 34.35077 31.64912
#
# Velocity S-wave (km/s) = 3.59553 3.91675 3.75958
# Velocity P-wave (km/s) = 6.42748 6.80237 6.61758
#
# Compressibility (1/GPa) = 0.01855001
#
# Stress axis : x y z
#
# Youngs Moduli (GPa) = 67.66882 92.30250 61.39675
#
# Poissons Ratio (x) = 0.23799 0.38087
# Poissons Ratio (y) = 0.17448 0.17761
# Poissons Ratio (z) = 0.41977 0.26702
#
# Static dielectric constant tensor:
#      x y z
#    x 4.716960 0.576610 -0.669620 
#    y 0.576610 4.113270 -0.097620 
#    z -0.669620 -0.097620 4.326350 
# 
# 
# High freq. dielectric constant tensor:
#      x y z
#    x 1.888820 0.015560 -0.018520 
#    y 0.015560 1.881030 0.013360 
#    z -0.018520 0.013360 1.874310 
# 
# From -- ./inp_files/462071.got.cif
#   From: 2010.06.25/outbox.cif.g09.slc.cpg/sg2_232_cif.got.tgz:462071.got - 2010.06.27 13:26:56.
