data_PCOD8004668
_publ_section_title
;
Structure prediction by ZEFSAII (Michael W. Deem and Ramdas Pophale) SiO2 
 PCOD8004668
Probable space group: P -1
;
_chemical_formula_sum "Si O2"
_cell_formula_units_Z 16
_cell_length_a 11.485225
_cell_length_b 9.981994
_cell_length_c 15.066281
_cell_angle_alpha 90.231003
_cell_angle_beta 29.151897
_cell_angle_gamma 100.277296
_cell_volume 785.298416
_symmetry_space_group_name_H-M "P -1"
_symmetry_group_IT_number 2
_symmetry_cell_setting 'triclinic'
loop_
_space_group_symop_operation_xyz
x,y,z
-x,-y,-z
loop_
_atom_site_type_symbol
_atom_site_label
_atom_site_fract_x
_atom_site_fract_y
_atom_site_fract_z
Si Si1 0.604209 0.084932 0.715162
Si Si2 0.410433 0.679903 0.409671
Si Si3 0.214269 0.911563 0.223819
Si Si4 0.916405 0.969176 0.848959
Si Si5 0.109897 0.267686 0.808937
Si Si6 0.598515 0.218632 0.235807
Si Si7 0.705227 0.159411 0.356604
Si Si8 0.799414 0.642227 0.443395
O O1 0.661069 0.222088 0.614684
O O2 0.819375 0.090406 0.646636
O O3 0.557123 0.945067 0.688109
O O4 0.376877 0.087807 0.929479
O O5 0.708853 0.694062 0.223456
O O6 0.350630 0.723984 0.546541
O O7 0.240559 0.517218 0.497193
O O8 0.091881 0.745012 0.272334
O O9 0.044628 0.987322 0.282059
O O10 0.500000 0.000000 0.000000
O O11 0.020631 0.842499 0.796078
O O12 0.068012 0.103894 0.810907
O O13 0.239690 0.363943 0.637230
O O14 0.839203 0.288077 0.009309
O O15 0.727148 0.218475 0.243999
O O16 0.406556 0.305610 0.367303
O O17 0.500000 0.000000 0.500000
#
# Coordination Sequence:
#
# PCOD8004668 Si02
#       8
#     2   2   2   2   2   2   2   2
#     4  10  21  37  61  90 110 155 211 247 294 348
#     4  12  23  36  58  91 131 159 189 247 308 358
#     4   9  20  41  68  83 113 157 207 256 296 342
#     4   9  18  36  60  89 114 151 205 256 281 345
#     4  10  20  38  61  87 122 162 199 236 293 360
#     4  11  22  38  65  91 118 160 207 242 288 360
#     4  12  19  34  59  90 125 157 194 244 301 349
#     4  11  24  42  58  90 128 156 196 251 303 356
#
# _framework density 20.374417999999999
#
# number of rings (size 3 to 8) (size 9 to 14) (size 15 to 20)
#    0.000    1.500    3.750    2.625    0.000    3.500 
#    2.250    0.000    0.000    1.500    0.000    0.000 
#    0.000    0.000    0.000    0.000    0.000    0.000 
#
# Total GULP energy -198245.381024 kJ/mol
# GULP energy per Si atom -12390.336314 kJ/mol
# Density = 2.032805 g / cm^3
# Si number density = 20.374418 Si / 1000 Ang^3
#
#
#
# Elastic Constant Matrix: (Units=GPa)
#
#
# Indices 1 2 3 4 5 6 
#
# 1 127.6383 43.1392 20.6762 -7.3671 14.9937 7.7893
# 2 43.1392 124.9107 44.4144 -3.6189 0.1328 1.9050
# 3 20.6762 44.4144 68.6463 6.4186 3.1888 4.8913
# 4 -7.3671 -3.6189 6.4186 25.3727 2.3348 -4.2648
# 5 14.9937 0.1328 3.1888 2.3348 29.4105 -5.8663
# 6 7.7893 1.9050 4.8913 -4.2648 -5.8663 14.1408
#
#
#
# Elastic Compliance Matrix: (Units=1/GPa)
#
#
# Indices 1 2 3 4 5 6 
#
# 1 0.010375 -0.003282 -0.000344 0.002021 -0.006873 -0.007395
# 2 -0.003282 0.011801 -0.007453 0.003176 0.003189 0.005077
# 3 -0.000344 -0.007453 0.021091 -0.007845 -0.003428 -0.009890
# 4 0.002021 0.003176 -0.007845 0.044932 -0.000898 0.014351
# 5 -0.006873 0.003189 -0.003428 -0.000898 0.042285 0.021813
# 6 -0.007395 0.005077 -0.009890 0.014351 0.021813 0.090905
#
#
# Mechanical properties :
#
#
# Convention : Reuss Voigt Hill
#
# Bulk Modulus (GPa) = 47.37669 59.73942 53.55806
# Shear Modulus (GPa) = 19.95349 27.98250 23.96799
#
# Velocity S-wave (km/s) = 3.13284 3.70998 3.43356
# Velocity P-wave (km/s) = 6.03239 6.90915 6.48560
#
# Compressibility (1/GPa) = 0.02110743
#
# Stress axis : x y z
#
# Youngs Moduli (GPa) = 96.38592 84.74172 47.41398
#
# Poissons Ratio (x) = 0.27813 0.01632
# Poissons Ratio (y) = 0.31635 0.35339
# Poissons Ratio (z) = 0.03317 0.63160
#
# Static dielectric constant tensor:
#      x y z
#    x 4.293900 -0.027760 -0.025250 
#    y -0.027760 3.489400 0.074810 
#    z -0.025250 0.074810 3.733750 
# 
# 
# High freq. dielectric constant tensor:
#      x y z
#    x 1.798810 -0.002350 0.002980 
#    y -0.002350 1.769640 0.005440 
#    z 0.002980 0.005440 1.790730 
# 
# From -- ./inp_files/378030.got.cif
#   From: 2010.06.25/outbox.cif.g09.slc.cpg/sg2_190_cif.got.tgz:378030.got - 2010.06.27 13:26:56.
