data_PCOD8004744
_publ_section_title
;
Structure prediction by ZEFSAII (Michael W. Deem and Ramdas Pophale) SiO2 
 PCOD8004744
Probable space group: P -1
;
_chemical_formula_sum "Si O2"
_cell_formula_units_Z 14
_cell_length_a 10.200487
_cell_length_b 12.209885
_cell_length_c 15.840022
_cell_angle_alpha 139.840949
_cell_angle_beta 137.761669
_cell_angle_gamma 70.255471
_cell_volume 727.428855
_symmetry_space_group_name_H-M "P -1"
_symmetry_group_IT_number 2
_symmetry_cell_setting 'triclinic'
loop_
_space_group_symop_operation_xyz
x,y,z
-x,-y,-z
loop_
_atom_site_type_symbol
_atom_site_label
_atom_site_fract_x
_atom_site_fract_y
_atom_site_fract_z
Si Si1 0.420982 0.942449 0.639262
Si Si2 0.413805 0.626827 0.987127
Si Si3 0.850305 0.724252 0.942611
Si Si4 0.740571 0.826789 0.782519
Si Si5 0.306455 0.138065 0.396726
Si Si6 0.573740 0.523161 0.850148
Si Si7 0.041804 0.453975 0.833631
O O1 0.570744 0.911624 0.764540
O O2 0.534959 0.952427 0.607169
O O3 0.158347 0.768424 0.413134
O O4 0.420013 0.141221 0.774757
O O5 0.421421 0.590687 0.869315
O O6 0.160942 0.555284 0.860267
O O7 0.500000 0.500000 0.000000
O O8 0.716458 0.687230 0.767279
O O9 0.668873 0.661776 0.894547
O O10 0.945945 0.578162 0.905132
O O11 0.050801 0.954855 0.187647
O O12 0.684467 0.729902 0.603840
O O13 0.000000 0.000000 0.000000
O O14 0.410417 0.287738 0.612751
O O15 0.784946 0.554614 0.024569
#
# Coordination Sequence:
#
# PCOD8004744 Si02
#       7
#     2   2   2   2   2   2   2
#     4  10  20  38  62  83 110 155 194 225 280 346
#     4  10  23  41  55  79 121 158 185 229 286 345
#     4  11  19  36  62  87 111 148 193 241 278 329
#     4   8  17  35  60  85 112 146 193 232 282 333
#     4   9  20  35  59  86 111 145 188 238 279 326
#     4  11  24  35  54  92 118 142 194 241 278 332
#     4  11  22  37  59  84 117 156 188 227 288 345
#
# _framework density 19.245868000000002
#
# number of rings (size 3 to 8) (size 9 to 14) (size 15 to 20)
#    0.857    1.143    2.857    0.429    0.000    8.571 
#    0.000    0.714    0.000   10.286    0.000    0.000 
#    0.000    0.000    0.000    0.000    0.000    0.000 
#
# Total GULP energy -173447.190988 kJ/mol
# GULP energy per Si atom -12389.085071 kJ/mol
# Density = 1.920206 g / cm^3
# Si number density = 19.245868 Si / 1000 Ang^3
#
#
#
# Elastic Constant Matrix: (Units=GPa)
#
#
# Indices 1 2 3 4 5 6 
#
# 1 105.3779 6.5570 39.3089 8.3332 -15.6013 21.1479
# 2 6.5570 59.2787 31.0688 -2.0306 -3.5122 8.2372
# 3 39.3089 31.0688 123.0094 9.8254 -16.0648 -4.4188
# 4 8.3332 -2.0306 9.8254 29.4587 -1.4630 4.3678
# 5 -15.6013 -3.5122 -16.0648 -1.4630 24.7119 4.4150
# 6 21.1479 8.2372 -4.4188 4.3678 4.4150 22.8724
#
#
#
# Elastic Compliance Matrix: (Units=1/GPa)
#
#
# Indices 1 2 3 4 5 6 
#
# 1 0.017470 0.005075 -0.006223 0.001276 0.011653 -0.021676
# 2 0.005075 0.023213 -0.007911 0.005483 0.004637 -0.016523
# 3 -0.006223 -0.007911 0.013064 -0.004848 0.001035 0.011853
# 4 0.001276 0.005483 -0.004848 0.037463 0.002755 -0.011777
# 5 0.011653 0.004637 0.001035 0.002755 0.053443 -0.023087
# 6 -0.021676 -0.016523 0.011853 -0.011777 -0.023087 0.078708
#
#
# Mechanical properties :
#
#
# Convention : Reuss Voigt Hill
#
# Bulk Modulus (GPa) = 28.06636 49.05948 38.56292
# Shear Modulus (GPa) = 19.73521 29.45735 24.59628
#
# Velocity S-wave (km/s) = 3.20570 3.91651 3.57880
# Velocity P-wave (km/s) = 5.32135 6.78220 6.09570
#
# Compressibility (1/GPa) = 0.03562984
#
# Stress axis : x y z
#
# Youngs Moduli (GPa) = 57.24212 43.07979 76.54373
#
# Poissons Ratio (x) = -0.21865 0.47635
# Poissons Ratio (y) = -0.29053 0.60551
# Poissons Ratio (z) = 0.35623 0.34079
#
# Static dielectric constant tensor:
#      x y z
#    x 4.216610 0.359490 0.092800 
#    y 0.359490 3.630680 -0.096190 
#    z 0.092800 -0.096190 3.502430 
# 
# 
# High freq. dielectric constant tensor:
#      x y z
#    x 1.738220 0.011830 0.011030 
#    y 0.011830 1.727150 0.003210 
#    z 0.011030 0.003210 1.753740 
# 
# From -- ./inp_files/568901.got.cif
#   From: 2010.06.25/outbox.cif.g09.slc.cpg/sg2_285_cif.got.tgz:568901.got - 2010.06.27 13:26:56.
