data_PCOD8004747
_publ_section_title
;
Structure prediction by ZEFSAII (Michael W. Deem and Ramdas Pophale) SiO2 
 PCOD8004747
Probable space group: P -1
;
_chemical_formula_sum "Si O2"
_cell_formula_units_Z 16
_cell_length_a 21.650086
_cell_length_b 9.119062
_cell_length_c 9.109291
_cell_angle_alpha 47.120610
_cell_angle_beta 121.598067
_cell_angle_gamma 142.632101
_cell_volume 799.282128
_symmetry_space_group_name_H-M "P -1"
_symmetry_group_IT_number 2
_symmetry_cell_setting 'triclinic'
loop_
_space_group_symop_operation_xyz
x,y,z
-x,-y,-z
loop_
_atom_site_type_symbol
_atom_site_label
_atom_site_fract_x
_atom_site_fract_y
_atom_site_fract_z
Si Si1 0.232864 0.989930 0.832412
Si Si2 0.221540 0.629476 0.832030
Si Si3 0.114719 0.158234 0.499391
Si Si4 0.793876 0.751393 0.730006
Si Si5 0.890846 0.336993 0.533688
Si Si6 0.390515 0.464502 0.492749
Si Si7 0.385090 0.098606 0.519499
Si Si8 0.223883 0.769088 0.283775
O O1 0.150490 0.012950 0.711427
O O2 0.341843 0.267975 0.711515
O O3 0.195820 0.731316 0.863833
O O4 0.247099 0.937774 0.050728
O O5 0.141553 0.515821 0.679670
O O6 0.334250 0.863627 0.743320
O O7 0.204373 0.368924 0.036509
O O8 0.113945 0.138483 0.335137
O O9 0.198400 0.487219 0.420908
O O10 0.000000 0.000000 0.500000
O O11 0.687447 0.511742 0.672439
O O12 0.807274 0.012691 0.598908
O O13 0.878145 0.333484 0.695844
O O14 0.000000 0.500000 0.500000
O O15 0.399061 0.344505 0.439198
O O16 0.501534 0.766311 0.467374
O O17 0.320357 0.976450 0.371677
#
# Coordination Sequence:
#
# PCOD8004747 Si02
#       8
#     2   2   2   2   2   2   2   2
#     4  10  21  39  60  84 121 156 192 243 293 348
#     4  10  20  38  62  83 119 158 195 236 294 356
#     4  11  23  38  60  86 118 158 197 237 297 356
#     4  11  20  39  63  85 115 161 197 233 295 357
#     4  11  23  40  59  86 122 151 198 252 287 340
#     4   9  18  39  64  83 117 163 189 233 299 362
#     4   9  19  38  61  88 120 151 195 242 294 344
#     4  11  22  37  60  92 117 149 197 254 285 340
#
# _framework density 20.017963000000002
#
# number of rings (size 3 to 8) (size 9 to 14) (size 15 to 20)
#    0.000    1.750    6.250    0.750    0.000    5.000 
#    0.000    2.500    0.000    0.000    0.000    0.000 
#    0.000    0.000    0.000    0.000    0.000    0.000 
#
# Total GULP energy -198221.039509 kJ/mol
# GULP energy per Si atom -12388.814969 kJ/mol
# Density = 1.997240 g / cm^3
# Si number density = 20.017963 Si / 1000 Ang^3
#
#
#
# Elastic Constant Matrix: (Units=GPa)
#
#
# Indices 1 2 3 4 5 6 
#
# 1 75.7882 16.8163 37.2512 5.8557 -9.3933 12.3170
# 2 16.8163 60.6779 40.9035 7.5289 3.5939 7.8935
# 3 37.2512 40.9035 148.9527 5.9429 -9.9972 8.8412
# 4 5.8557 7.5289 5.9429 16.1692 -5.7550 -2.6723
# 5 -9.3933 3.5939 -9.9972 -5.7550 27.7572 5.4027
# 6 12.3170 7.8935 8.8412 -2.6723 5.4027 33.6771
#
#
#
# Elastic Compliance Matrix: (Units=1/GPa)
#
#
# Indices 1 2 3 4 5 6 
#
# 1 0.016947 -0.001889 -0.002857 -0.003277 0.005467 -0.006142
# 2 -0.001889 0.023068 -0.005747 -0.011066 -0.007427 -0.002894
# 3 -0.002857 -0.005747 0.009209 0.001493 0.003495 -0.000468
# 4 -0.003277 -0.011066 0.001493 0.074072 0.014878 0.006891
# 5 0.005467 -0.007427 0.003495 0.014878 0.044572 -0.007146
# 6 -0.006142 -0.002894 -0.000468 0.006891 -0.007146 0.034435
#
#
# Mechanical properties :
#
#
# Convention : Reuss Voigt Hill
#
# Bulk Modulus (GPa) = 35.41430 52.81788 44.11609
# Shear Modulus (GPa) = 21.48670 28.21721 24.85195
#
# Velocity S-wave (km/s) = 3.27979 3.75853 3.52729
# Velocity P-wave (km/s) = 5.66325 6.72889 6.21893
#
# Compressibility (1/GPa) = 0.02823718
#
# Stress axis : x y z
#
# Youngs Moduli (GPa) = 59.00677 43.35051 108.58735
#
# Poissons Ratio (x) = 0.08187 0.31028
# Poissons Ratio (y) = 0.11144 0.62410
# Poissons Ratio (z) = 0.16861 0.24915
#
# Static dielectric constant tensor:
#      x y z
#    x 3.862670 0.014740 -0.176840 
#    y 0.014740 3.614010 -0.042450 
#    z -0.176840 -0.042450 3.550600 
# 
# 
# High freq. dielectric constant tensor:
#      x y z
#    x 1.789570 0.003610 -0.012450 
#    y 0.003610 1.764000 -0.000590 
#    z -0.012450 -0.000590 1.772420 
# 
# From -- ./inp_files/214235.got.cif
#   From: 2010.06.25/outbox.cif.g09.slc.cpg/sg2_108_cif.got.tgz:214235.got - 2010.06.27 13:26:56.
