data_PCOD8004389
_publ_section_title
;
Structure prediction by ZEFSAII (Michael W. Deem and Ramdas Pophale) SiO2 
 PCOD8004389
Probable space group: P -1
;
_chemical_formula_sum "Si O2"
_cell_formula_units_Z 16
_cell_length_a 22.640830
_cell_length_b 9.746468
_cell_length_c 15.165987
_cell_angle_alpha 32.611478
_cell_angle_beta 153.314256
_cell_angle_gamma 146.581590
_cell_volume 762.045845
_symmetry_space_group_name_H-M "P -1"
_symmetry_group_IT_number 2
_symmetry_cell_setting 'triclinic'
loop_
_space_group_symop_operation_xyz
x,y,z
-x,-y,-z
loop_
_atom_site_type_symbol
_atom_site_label
_atom_site_fract_x
_atom_site_fract_y
_atom_site_fract_z
Si Si1 0.182926 0.875984 0.260118
Si Si2 0.183893 0.148565 0.724747
Si Si3 0.351284 0.539896 0.595658
Si Si4 0.605292 0.953829 0.403289
Si Si5 0.543208 0.515068 0.418256
Si Si6 0.626017 0.511745 0.058216
Si Si7 0.749499 0.549786 0.020513
Si Si8 0.944111 0.361046 0.265837
O O1 0.297470 0.790854 0.403495
O O2 0.029976 0.651658 0.181344
O O3 0.243702 0.944039 0.403307
O O4 0.164846 0.133035 0.049430
O O5 0.244258 0.277187 0.641183
O O6 0.294496 0.258019 0.890688
O O7 0.047870 0.228212 0.522272
O O8 0.140237 0.825867 0.826869
O O9 0.355736 0.493001 0.522787
O O10 0.503954 0.607867 0.805189
O O11 0.621147 0.787733 0.428419
O O12 0.485650 0.753745 0.414981
O O13 0.563687 0.216970 0.180923
O O14 0.397896 0.535597 0.179532
O O15 0.728899 0.487828 0.130434
O O16 0.837545 0.378411 0.189712
#
# Coordination Sequence:
#
# PCOD8004389 Si02
#       8
#     2   2   2   2   2   2   2   2
#     4  10  21  43  58  84 118 160 193 234 288 341
#     4  10  22  39  58  90 115 151 194 242 293 332
#     4  10  21  38  61  86 120 152 185 241 294 348
#     4  10  20  38  57  86 124 146 196 232 292 345
#     4   9  22  37  58  91 117 156 184 238 297 350
#     4  11  22  37  59  94 114 150 192 244 291 347
#     4  10  23  37  62  87 117 154 196 235 287 345
#     4  10  21  40  61  80 116 159 196 238 281 341
#
# _framework density 20.996110999999999
#
# number of rings (size 3 to 8) (size 9 to 14) (size 15 to 20)
#    0.000    2.000    2.500    0.750    3.500    6.000 
#    0.000    0.625    0.000    0.000    0.000    0.000 
#    0.000    0.000    0.000    0.000    0.000    0.000 
#
# Total GULP energy -198419.798275 kJ/mol
# GULP energy per Si atom -12401.237392 kJ/mol
# Density = 2.094832 g / cm^3
# Si number density = 20.996111 Si / 1000 Ang^3
#
#
#
# Elastic Constant Matrix: (Units=GPa)
#
#
# Indices 1 2 3 4 5 6 
#
# 1 148.0346 49.3817 41.4665 5.2097 8.9610 -19.0246
# 2 49.3817 134.6432 17.9658 3.2596 -1.8652 -21.5269
# 3 41.4665 17.9658 40.6492 -5.7061 8.1466 -6.2495
# 4 5.2097 3.2596 -5.7061 15.0353 -0.4078 -4.4201
# 5 8.9610 -1.8652 8.1466 -0.4078 35.0604 0.3747
# 6 -19.0246 -21.5269 -6.2495 -4.4201 0.3747 26.6581
#
#
#
# Elastic Compliance Matrix: (Units=1/GPa)
#
#
# Indices 1 2 3 4 5 6 
#
# 1 0.011078 -0.002044 -0.010840 -0.006759 -0.000528 0.002600
# 2 -0.002044 0.009295 -0.001430 -0.000148 0.001287 0.005669
# 3 -0.010840 -0.001430 0.041212 0.020793 -0.006686 0.004312
# 4 -0.006759 -0.000148 0.020793 0.080632 -0.002316 0.013334
# 5 -0.000528 0.001287 -0.006686 -0.002316 0.030270 -0.001714
# 6 0.002600 0.005669 0.004312 0.013334 -0.001714 0.047192
#
#
# Mechanical properties :
#
#
# Convention : Reuss Voigt Hill
#
# Bulk Modulus (GPa) = 30.34268 60.10613 45.22440
# Shear Modulus (GPa) = 19.28311 29.65163 24.46737
#
# Velocity S-wave (km/s) = 3.03382 3.76206 3.41739
# Velocity P-wave (km/s) = 5.17253 6.89639 6.09571
#
# Compressibility (1/GPa) = 0.03295688
#
# Stress axis : x y z
#
# Youngs Moduli (GPa) = 90.27275 107.57914 24.26450
#
# Poissons Ratio (x) = 0.21993 0.26303
# Poissons Ratio (y) = 0.18455 0.03470
# Poissons Ratio (z) = 0.97856 0.15383
#
# Static dielectric constant tensor:
#      x y z
#    x 3.938580 -0.045170 0.030210 
#    y -0.045170 3.935220 -0.039470 
#    z 0.030210 -0.039470 3.535860 
# 
# 
# High freq. dielectric constant tensor:
#      x y z
#    x 1.821410 -0.007810 0.008560 
#    y -0.007810 1.832580 -0.006240 
#    z 0.008560 -0.006240 1.798730 
# 
# From -- ./inp_files/540395.got.cif
#   From: 2010.06.25/outbox.cif.g09.slc.cpg/sg2_271_cif.got.tgz:540395.got - 2010.06.27 13:26:56.
