data_PCOD8004921
_publ_section_title
;
Structure prediction by ZEFSAII (Michael W. Deem and Ramdas Pophale) SiO2 
 PCOD8004921
Probable space group: P -1
;
_chemical_formula_sum "Si O2"
_cell_formula_units_Z 16
_cell_length_a 14.451233
_cell_length_b 9.025094
_cell_length_c 15.597859
_cell_angle_alpha 121.260957
_cell_angle_beta 37.796386
_cell_angle_gamma 93.383079
_cell_volume 791.072027
_symmetry_space_group_name_H-M "P -1"
_symmetry_group_IT_number 2
_symmetry_cell_setting 'triclinic'
loop_
_space_group_symop_operation_xyz
x,y,z
-x,-y,-z
loop_
_atom_site_type_symbol
_atom_site_label
_atom_site_fract_x
_atom_site_fract_y
_atom_site_fract_z
Si Si1 0.454371 0.808000 0.060072
Si Si2 0.950415 0.505127 0.135347
Si Si3 0.255393 0.531725 0.959434
Si Si4 0.997140 0.966580 0.736264
Si Si5 0.884172 0.985066 0.149519
Si Si6 0.821329 0.767341 0.740701
Si Si7 0.608826 0.314649 0.752260
Si Si8 0.552290 0.775990 0.436118
O O1 0.360855 0.814692 0.220744
O O2 0.273170 0.044374 0.211680
O O3 0.642190 0.799031 0.928856
O O4 0.546717 0.564056 0.877228
O O5 0.704090 0.690436 0.380542
O O6 0.000000 0.500000 0.000000
O O7 0.052430 0.573977 0.140867
O O8 0.058308 0.245113 0.997290
O O9 0.428983 0.352313 0.846319
O O10 0.335215 0.433419 0.776428
O O11 0.193453 0.780296 0.086072
O O12 0.185623 0.850688 0.500957
O O13 0.926471 0.820245 0.746960
O O14 0.050704 0.005614 0.800967
O O15 0.641359 0.182685 0.377858
O O16 0.000000 0.000000 0.000000
O O17 0.000000 0.500000 0.500000
O O18 0.500000 0.000000 0.500000
#
# Coordination Sequence:
#
# PCOD8004921 Si02
#       8
#     2   2   2   2   2   2   2   2
#     4  10  24  44  65  99 128 167 220 273 338 395
#     4  10  20  38  63  90 122 168 215 264 316 385
#     4  11  21  37  68  95 123 165 232 267 316 395
#     4  12  23  41  65  95 128 177 219 272 335 392
#     4  12  25  40  62  98 133 168 219 275 328 387
#     4  11  23  43  69  92 139 176 205 273 348 399
#     4  11  23  40  70  98 125 168 227 279 317 396
#     4  11  19  39  68  84 122 176 216 260 322 378
#
# _framework density 20.225715999999998
#
# number of rings (size 3 to 8) (size 9 to 14) (size 15 to 20)
#    0.000    1.000    8.750    0.000    0.000    3.000 
#    0.000    0.000    0.000    0.000    0.000    0.000 
#    0.000    0.000    0.000    0.000    0.000    0.000 
#
# Total GULP energy -198234.972242 kJ/mol
# GULP energy per Si atom -12389.685765 kJ/mol
# Density = 2.017968 g / cm^3
# Si number density = 20.225716 Si / 1000 Ang^3
#
#
#
# Elastic Constant Matrix: (Units=GPa)
#
#
# Indices 1 2 3 4 5 6 
#
# 1 77.8344 30.9389 40.6042 -9.4371 -24.2179 24.3590
# 2 30.9389 103.1357 50.3390 -0.2461 1.8775 10.8803
# 3 40.6042 50.3390 116.8390 2.2340 -11.9486 -0.2979
# 4 -9.4371 -0.2461 2.2340 38.4591 3.3052 3.0318
# 5 -24.2179 1.8775 -11.9486 3.3052 34.1584 1.3501
# 6 24.3590 10.8803 -0.2979 3.0318 1.3501 31.9757
#
#
#
# Elastic Compliance Matrix: (Units=1/GPa)
#
#
# Indices 1 2 3 4 5 6 
#
# 1 0.036062 -0.003994 -0.008723 0.009573 0.022919 -0.028070
# 2 -0.003994 0.013580 -0.005005 -0.000039 -0.005270 -0.001399
# 3 -0.008723 -0.005005 0.013723 -0.003572 -0.001113 0.008861
# 4 0.009573 -0.000039 -0.003572 0.029093 0.003128 -0.010203
# 5 0.022919 -0.005270 -0.001113 0.003128 0.045830 -0.017909
# 6 -0.028070 -0.001399 0.008861 -0.010203 -0.017909 0.054940
#
#
# Mechanical properties :
#
#
# Convention : Reuss Voigt Hill
#
# Bulk Modulus (GPa) = 35.81179 60.17483 47.99331
# Shear Modulus (GPa) = 21.01022 32.64709 26.82865
#
# Velocity S-wave (km/s) = 3.22652 4.02199 3.64601
# Velocity P-wave (km/s) = 5.62362 7.16832 6.44243
#
# Compressibility (1/GPa) = 0.02792377
#
# Stress axis : x y z
#
# Youngs Moduli (GPa) = 27.72969 73.63695 72.86869
#
# Poissons Ratio (x) = 0.29410 0.63560
# Poissons Ratio (y) = 0.11075 0.36468
# Poissons Ratio (z) = 0.24187 0.36852
#
# Static dielectric constant tensor:
#      x y z
#    x 4.250530 0.463610 -0.481180 
#    y 0.463610 3.641670 0.075720 
#    z -0.481180 0.075720 3.901800 
# 
# 
# High freq. dielectric constant tensor:
#      x y z
#    x 1.793290 0.024640 -0.022250 
#    y 0.024640 1.782220 0.016850 
#    z -0.022250 0.016850 1.794010 
# 
# From -- ./inp_files/504451.got.cif
#   From: 2010.06.25/outbox.cif.g09.slc.cpg/sg2_253_cif.got.tgz:504451.got - 2010.06.27 13:26:56.
