data_PCOD8004847
_publ_section_title
;
Structure prediction by ZEFSAII (Michael W. Deem and Ramdas Pophale) SiO2 
 PCOD8004847
Probable space group: P -1
;
_chemical_formula_sum "Si O2"
_cell_formula_units_Z 16
_cell_length_a 12.052969
_cell_length_b 10.434692
_cell_length_c 9.059108
_cell_angle_alpha 113.864521
_cell_angle_beta 57.450901
_cell_angle_gamma 125.804247
_cell_volume 772.149437
_symmetry_space_group_name_H-M "P -1"
_symmetry_group_IT_number 2
_symmetry_cell_setting 'triclinic'
loop_
_space_group_symop_operation_xyz
x,y,z
-x,-y,-z
loop_
_atom_site_type_symbol
_atom_site_label
_atom_site_fract_x
_atom_site_fract_y
_atom_site_fract_z
Si Si1 0.871720 0.827555 0.066877
Si Si2 0.680274 0.926581 0.094070
Si Si3 0.335635 0.856184 0.570404
Si Si4 0.335292 0.810036 0.229880
Si Si5 0.202492 0.998383 0.271032
Si Si6 0.119310 0.461112 0.228722
Si Si7 0.178811 0.512711 0.541810
Si Si8 0.864787 0.781247 0.396872
O O1 0.711711 0.803336 0.110248
O O2 0.858039 0.812034 0.244669
O O3 0.896100 0.685144 0.923758
O O4 0.000000 0.000000 0.000000
O O5 0.506991 0.852068 0.142961
O O6 0.742566 0.089387 0.222761
O O7 0.783835 0.965333 0.894730
O O8 0.260588 0.823899 0.445564
O O9 0.325831 0.686398 0.541203
O O10 0.500000 0.000000 0.500000
O O11 0.245285 0.629714 0.150399
O O12 0.320834 0.934693 0.189984
O O13 0.235711 0.155164 0.414532
O O14 0.035563 0.866223 0.370920
O O15 0.165483 0.441565 0.353692
O O16 0.961802 0.457288 0.321483
O O17 0.197003 0.402932 0.601390
#
# Coordination Sequence:
#
# PCOD8004847 Si02
#       8
#     2   2   2   2   2   2   2   2
#     4  12  24  39  59  91 123 164 209 256 312 366
#     4  11  22  39  64  89 123 168 208 252 306 377
#     4   9  20  38  64  91 124 164 200 249 305 373
#     4  10  21  41  64  90 123 163 209 253 311 372
#     4  11  22  39  61  93 124 165 208 253 317 362
#     4  10  22  37  62  90 120 159 207 259 307 367
#     4  10  20  38  62  93 124 161 204 255 311 363
#     4  11  24  38  62  90 130 160 204 268 306 363
#
# _framework density 20.721378999999999
#
# number of rings (size 3 to 8) (size 9 to 14) (size 15 to 20)
#    0.000    1.500    2.500    2.625    1.750    2.000 
#    0.000    1.250    0.000   10.500    0.000    0.000 
#    0.000    0.000    0.000    0.000    0.000    0.000 
#
# Total GULP energy -198324.704938 kJ/mol
# GULP energy per Si atom -12395.294059 kJ/mol
# Density = 2.067422 g / cm^3
# Si number density = 20.721379 Si / 1000 Ang^3
#
#
#
# Elastic Constant Matrix: (Units=GPa)
#
#
# Indices 1 2 3 4 5 6 
#
# 1 93.8579 44.4165 17.1110 -2.7809 -4.2213 -19.5698
# 2 44.4165 149.2110 52.5830 6.5745 8.2671 -12.1549
# 3 17.1110 52.5830 125.4371 15.6132 14.7593 -13.2320
# 4 -2.7809 6.5745 15.6132 33.4750 -3.1828 4.7046
# 5 -4.2213 8.2671 14.7593 -3.1828 29.4123 -6.2247
# 6 -19.5698 -12.1549 -13.2320 4.7046 -6.2247 37.4712
#
#
#
# Elastic Compliance Matrix: (Units=1/GPa)
#
#
# Indices 1 2 3 4 5 6 
#
# 1 0.014226 -0.003903 -0.000391 0.001666 0.004919 0.006634
# 2 -0.003903 0.009017 -0.002974 -0.000826 -0.001766 -0.000353
# 3 -0.000391 -0.002974 0.010737 -0.005251 -0.004645 0.002510
# 4 0.001666 -0.000826 -0.005251 0.033812 0.005806 -0.004533
# 5 0.004919 -0.001766 -0.004645 0.005806 0.039470 0.006184
# 6 0.006634 -0.000353 0.002510 -0.004533 0.006184 0.032520
#
#
# Mechanical properties :
#
#
# Convention : Reuss Voigt Hill
#
# Bulk Modulus (GPa) = 51.42719 66.30300 58.86509
# Shear Modulus (GPa) = 31.09460 37.03140 34.06300
#
# Velocity S-wave (km/s) = 3.87797 4.23201 4.05885
# Velocity P-wave (km/s) = 6.70252 7.47975 7.10178
#
# Compressibility (1/GPa) = 0.01944497
#
# Stress axis : x y z
#
# Youngs Moduli (GPa) = 70.29230 110.89835 93.13438
#
# Poissons Ratio (x) = 0.43279 0.03642
# Poissons Ratio (y) = 0.27432 0.27700
# Poissons Ratio (z) = 0.02749 0.32984
#
# Static dielectric constant tensor:
#      x y z
#    x 3.603330 0.000610 0.081160 
#    y 0.000610 3.965840 0.152410 
#    z 0.081160 0.152410 3.984360 
# 
# 
# High freq. dielectric constant tensor:
#      x y z
#    x 1.798090 -0.005010 0.005760 
#    y -0.005010 1.813150 0.005820 
#    z 0.005760 0.005820 1.813750 
# 
# From -- ./inp_files/244915.got.cif
#   From: 2010.06.25/outbox.cif.g09.slc.cpg/sg2_123_cif.got.tgz:244915.got - 2010.06.27 13:26:56.
