data_PCOD8004205
_publ_section_title
;
Structure prediction by ZEFSAII (Michael W. Deem and Ramdas Pophale) SiO2 
 PCOD8004205
Probable space group: P -1
;
_chemical_formula_sum "Si O2"
_cell_formula_units_Z 14
_cell_length_a 8.440234
_cell_length_b 15.434175
_cell_length_c 9.876091
_cell_angle_alpha 135.237913
_cell_angle_beta 68.683723
_cell_angle_gamma 82.571012
_cell_volume 681.064580
_symmetry_space_group_name_H-M "P -1"
_symmetry_group_IT_number 2
_symmetry_cell_setting 'triclinic'
loop_
_space_group_symop_operation_xyz
x,y,z
-x,-y,-z
loop_
_atom_site_type_symbol
_atom_site_label
_atom_site_fract_x
_atom_site_fract_y
_atom_site_fract_z
Si Si1 0.885025 0.141881 0.794733
Si Si2 0.481284 0.892752 0.483569
Si Si3 0.445653 0.301443 0.992386
Si Si4 0.115493 0.319799 0.286914
Si Si5 0.942885 0.685990 0.158854
Si Si6 0.045963 0.080770 0.961203
Si Si7 0.946679 0.435893 0.731932
O O1 0.638594 0.273507 0.988167
O O2 0.012635 0.213288 0.829038
O O3 0.911217 0.090287 0.885117
O O4 0.000000 0.000000 0.500000
O O5 0.447535 0.794060 0.282746
O O6 0.696054 0.783040 0.379929
O O7 0.500000 0.000000 0.500000
O O8 0.295262 0.973546 0.738177
O O9 0.336749 0.239051 0.047866
O O10 0.271579 0.475736 0.189768
O O11 0.000000 0.500000 0.500000
O O12 0.131892 0.305564 0.430776
O O13 0.993089 0.246589 0.198898
O O14 0.071681 0.636203 0.205085
O O15 0.006544 0.547849 0.886018
O O16 0.000000 0.000000 0.000000
#
# Coordination Sequence:
#
# PCOD8004205 Si02
#       7
#     2   2   2   2   2   2   2
#     4  12  23  38  62  95 128 165 213 268 326 379
#     4  11  18  40  64  89 123 178 215 258 323 395
#     4  10  20  37  65  92 122 172 218 259 324 389
#     4  10  21  42  65  86 132 178 215 259 332 392
#     4  10  21  39  67  90 123 169 226 260 317 394
#     4  12  26  41  63 101 136 165 219 282 325 374
#     4   9  21  40  63  93 121 170 220 269 311 396
#
# _framework density 20.556055000000001
#
# number of rings (size 3 to 8) (size 9 to 14) (size 15 to 20)
#    0.000    1.429    4.286    1.714    2.000    1.714 
#    0.000   15.000    0.000    0.000    0.000    0.000 
#    0.000    0.000    0.000    0.000    0.000    0.000 
#
# Total GULP energy -173440.561193 kJ/mol
# GULP energy per Si atom -12388.611514 kJ/mol
# Density = 2.050927 g / cm^3
# Si number density = 20.556055 Si / 1000 Ang^3
#
#
#
# Elastic Constant Matrix: (Units=GPa)
#
#
# Indices 1 2 3 4 5 6 
#
# 1 106.3599 48.5735 33.0023 -8.8914 -5.0890 -18.3749
# 2 48.5735 107.1601 44.3249 -14.7375 3.9704 -7.5633
# 3 33.0023 44.3249 96.9064 -16.7844 8.5172 -1.5257
# 4 -8.8914 -14.7375 -16.7844 28.4615 0.9631 4.5548
# 5 -5.0890 3.9704 8.5172 0.9631 30.5755 0.8627
# 6 -18.3749 -7.5633 -1.5257 4.5548 0.8627 41.7112
#
#
#
# Elastic Compliance Matrix: (Units=1/GPa)
#
#
# Indices 1 2 3 4 5 6 
#
# 1 0.013416 -0.004849 -0.002726 -0.000839 0.003509 0.004950
# 2 -0.004849 0.013640 -0.003870 0.003342 -0.001602 -0.000136
# 3 -0.002726 -0.003870 0.014402 0.006089 -0.004100 -0.001956
# 4 -0.000839 0.003342 0.006089 0.040942 -0.003448 -0.003940
# 5 0.003509 -0.001602 -0.004100 -0.003448 0.034727 0.000764
# 6 0.004950 -0.000136 -0.001956 -0.003940 0.000764 0.026473
#
#
# Mechanical properties :
#
#
# Convention : Reuss Voigt Hill
#
# Bulk Modulus (GPa) = 53.86140 62.46976 58.16558
# Shear Modulus (GPa) = 28.95529 32.45134 30.70332
#
# Velocity S-wave (km/s) = 3.75721 3.97757 3.86895
# Velocity P-wave (km/s) = 6.71425 7.17988 6.95097
#
# Compressibility (1/GPa) = 0.01856617
#
# Stress axis : x y z
#
# Youngs Moduli (GPa) = 74.54030 73.31397 69.43411
#
# Poissons Ratio (x) = 0.35552 0.18931
# Poissons Ratio (y) = 0.36146 0.26871
# Poissons Ratio (z) = 0.20323 0.28373
#
# Static dielectric constant tensor:
#      x y z
#    x 3.696220 -0.176880 0.217980 
#    y -0.176880 3.660570 0.763580 
#    z 0.217980 0.763580 0.176720 
# 
# 
# High freq. dielectric constant tensor:
#      x y z
#    x 1.785330 -0.006670 0.009450 
#    y -0.006670 1.799950 -0.008080 
#    z 0.009450 -0.008080 1.809990 
# 
# From -- ./inp_files/208879.got.cif
#   From: 2010.06.25/outbox.cif.g09.slc.cpg/sg2_105_cif.got.tgz:208879.got - 2010.06.27 13:26:56.
