data_PCOD8004406
_publ_section_title
;
Structure prediction by ZEFSAII (Michael W. Deem and Ramdas Pophale) SiO2 
 PCOD8004406
Probable space group: P -1
;
_chemical_formula_sum "Si O2"
_cell_formula_units_Z 14
_cell_length_a 9.781413
_cell_length_b 12.289631
_cell_length_c 11.287991
_cell_angle_alpha 138.019004
_cell_angle_beta 108.540569
_cell_angle_gamma 96.777197
_cell_volume 713.624568
_symmetry_space_group_name_H-M "P -1"
_symmetry_group_IT_number 2
_symmetry_cell_setting 'triclinic'
loop_
_space_group_symop_operation_xyz
x,y,z
-x,-y,-z
loop_
_atom_site_type_symbol
_atom_site_label
_atom_site_fract_x
_atom_site_fract_y
_atom_site_fract_z
Si Si1 0.368277 0.775800 0.922318
Si Si2 0.073498 0.883621 0.483706
Si Si3 0.089513 0.543732 0.841863
Si Si4 0.703081 0.820949 0.027443
Si Si5 0.271026 0.529445 0.274005
Si Si6 0.309981 0.823976 0.337938
Si Si7 0.514068 0.811922 0.753381
O O1 0.186950 0.608611 0.794831
O O2 0.362403 0.770639 0.772102
O O3 0.519211 0.744725 0.980895
O O4 0.422842 0.994245 0.150374
O O5 0.222227 0.910410 0.460031
O O6 0.927184 0.652637 0.275469
O O7 0.150472 0.972900 0.707080
O O8 0.000000 0.000000 0.500000
O O9 0.901039 0.504946 0.741044
O O10 0.197308 0.720078 0.106070
O O11 0.760466 0.672377 0.942345
O O12 0.678609 0.841572 0.895978
O O13 0.323007 0.664734 0.283694
O O14 0.429618 0.629155 0.492666
O O15 0.500000 0.000000 0.500000
#
# Coordination Sequence:
#
# PCOD8004406 Si02
#       7
#     2   2   2   2   2   2   2
#     4   9  20  37  62  80 114 146 197 221 280 332
#     4  11  22  38  59  83 118 148 186 236 282 329
#     4  11  22  38  57  89 113 147 187 235 286 329
#     4  10  20  38  58  82 112 153 187 228 276 335
#     4  11  21  37  60  84 116 147 188 236 283 328
#     4  11  23  38  60  82 115 150 188 230 285 340
#     4   9  20  39  61  80 114 154 189 226 279 337
#
# _framework density 19.61816
#
# number of rings (size 3 to 8) (size 9 to 14) (size 15 to 20)
#    0.857    0.857    0.000    7.286    0.000    1.714 
#    0.000    5.000    0.000    0.000    0.000    0.000 
#    0.000    0.000    0.000    0.000    0.000    0.000 
#
# Total GULP energy -173533.132256 kJ/mol
# GULP energy per Si atom -12395.223733 kJ/mol
# Density = 1.957351 g / cm^3
# Si number density = 19.618160 Si / 1000 Ang^3
#
#
#
# Elastic Constant Matrix: (Units=GPa)
#
#
# Indices 1 2 3 4 5 6 
#
# 1 69.1808 47.8224 28.4074 29.8139 0.7291 -5.0198
# 2 47.8224 82.7693 25.1038 13.3926 6.0509 -5.3029
# 3 28.4074 25.1038 96.7028 1.7659 -4.3959 -2.5358
# 4 29.8139 13.3926 1.7659 45.1541 -0.3010 3.4324
# 5 0.7291 6.0509 -4.3959 -0.3010 31.3502 9.7382
# 6 -5.0198 -5.3029 -2.5358 3.4324 9.7382 35.3560
#
#
#
# Elastic Compliance Matrix: (Units=1/GPa)
#
#
# Indices 1 2 3 4 5 6 
#
# 1 0.036787 -0.015894 -0.006217 -0.019665 -0.000202 0.004358
# 2 -0.015894 0.021378 -0.001110 0.004039 -0.004398 0.001689
# 3 -0.006217 -0.001110 0.012464 0.004058 0.002533 -0.001247
# 4 -0.019665 0.004039 0.004058 0.034237 0.002402 -0.005881
# 5 -0.000202 -0.004398 0.002533 0.002402 0.036480 -0.010788
# 6 0.004358 0.001689 -0.001247 -0.005881 -0.010788 0.032609
#
#
# Mechanical properties :
#
#
# Convention : Reuss Voigt Hill
#
# Bulk Modulus (GPa) = 41.34228 50.14667 45.74447
# Shear Modulus (GPa) = 21.88587 32.19333 27.03960
#
# Velocity S-wave (km/s) = 3.34367 4.05532 3.71657
# Velocity P-wave (km/s) = 6.00217 6.89524 6.46415
#
# Compressibility (1/GPa) = 0.02418831
#
# Stress axis : x y z
#
# Youngs Moduli (GPa) = 27.18323 46.77787 80.23345
#
# Poissons Ratio (x) = 0.74347 0.49877
# Poissons Ratio (y) = 0.43204 0.08906
# Poissons Ratio (z) = 0.16899 0.05193
#
# Static dielectric constant tensor:
#      x y z
#    x 3.370090 -0.033330 -0.062030 
#    y -0.033330 3.430100 -0.052670 
#    z -0.062030 -0.052670 3.639260 
# 
# 
# High freq. dielectric constant tensor:
#      x y z
#    x 1.742610 -0.008800 -0.010340 
#    y -0.008800 1.759020 -0.005100 
#    z -0.010340 -0.005100 1.772960 
# 
# From -- ./inp_files/505913.got.cif
#   From: 2010.06.25/outbox.cif.g09.slc.cpg/sg2_253_cif.got.tgz:505913.got - 2010.06.27 13:26:56.
