data_PCOD8004390
_publ_section_title
;
Structure prediction by ZEFSAII (Michael W. Deem and Ramdas Pophale) SiO2 
 PCOD8004390
Probable space group: P -1
;
_chemical_formula_sum "Si O2"
_cell_formula_units_Z 10
_cell_length_a 11.996017
_cell_length_b 5.376127
_cell_length_c 6.264257
_cell_angle_alpha 115.429153
_cell_angle_beta 104.062631
_cell_angle_gamma 86.845020
_cell_volume 353.359595
_symmetry_space_group_name_H-M "P -1"
_symmetry_group_IT_number 2
_symmetry_cell_setting 'triclinic'
loop_
_space_group_symop_operation_xyz
x,y,z
-x,-y,-z
loop_
_atom_site_type_symbol
_atom_site_label
_atom_site_fract_x
_atom_site_fract_y
_atom_site_fract_z
Si Si1 0.587924 0.195490 0.764319
Si Si2 0.052593 0.211795 0.901350
Si Si3 0.705088 0.705639 0.826097
Si Si4 0.905168 0.727286 0.532302
Si Si5 0.343214 0.333209 0.745755
O O1 0.653961 0.384017 0.679241
O O2 0.449759 0.160993 0.637954
O O3 0.640813 0.897378 0.701898
O O4 0.606153 0.355540 0.060452
O O5 0.098983 0.154253 0.665192
O O6 0.157156 0.255292 0.139012
O O7 0.955867 0.963757 0.809897
O O8 0.000000 0.500000 0.000000
O O9 0.693841 0.815641 0.105191
O O10 0.765543 0.639567 0.464316
O O11 0.000000 0.500000 0.500000
#
# Coordination Sequence:
#
# PCOD8004390 Si02
#       5
#     2   2   2   2   2
#     4   9  16  29  50  82 106 145 187 235 285 336
#     4  10  22  37  57  84 117 154 190 239 294 343
#     4   9  17  31  50  78 109 143 190 231 280 344
#     4  10  20  38  57  87 114 149 196 240 283 351
#     4   8  17  27  52  78 109 143 186 235 281 341
#
# _framework density 28.299780999999999
#
# number of rings (size 3 to 8) (size 9 to 14) (size 15 to 20)
#    1.200    1.600    0.000    1.800    0.000    0.800 
#    0.000    0.000    0.000    2.400    0.000    0.000 
#    0.000    0.000    0.000    0.000    0.000    0.000 
#
# Total GULP energy -123890.579065 kJ/mol
# GULP energy per Si atom -12389.057906 kJ/mol
# Density = 2.823537 g / cm^3
# Si number density = 28.299781 Si / 1000 Ang^3
#
#
#
# Elastic Constant Matrix: (Units=GPa)
#
#
# Indices 1 2 3 4 5 6 
#
# 1 201.1389 92.1285 66.1632 -2.6394 60.0703 -32.7556
# 2 92.1285 197.8483 75.8982 10.0064 41.7785 -18.5168
# 3 66.1632 75.8982 186.9272 -38.4223 59.0569 -25.3686
# 4 -2.6394 10.0064 -38.4223 41.5223 -11.4450 6.8122
# 5 60.0703 41.7785 59.0569 -11.4450 52.7854 -0.2639
# 6 -32.7556 -18.5168 -25.3686 6.8122 -0.2639 55.2755
#
#
#
# Elastic Compliance Matrix: (Units=1/GPa)
#
#
# Indices 1 2 3 4 5 6 
#
# 1 0.009821 -0.002060 0.001461 -0.001677 -0.011514 0.005952
# 2 -0.002060 0.007827 -0.002877 -0.005287 -0.001775 0.000724
# 3 0.001461 -0.002877 0.011509 0.007847 -0.010540 0.004167
# 4 -0.001677 -0.005287 0.007847 0.034376 0.004751 -0.003378
# 5 -0.011514 -0.001775 -0.010540 0.004751 0.046212 -0.012620
# 6 0.005952 0.000724 0.004167 -0.003378 -0.012620 0.024129
#
#
# Mechanical properties :
#
#
# Convention : Reuss Voigt Hill
#
# Bulk Modulus (GPa) = 45.03452 117.14379 81.08916
# Shear Modulus (GPa) = 33.73223 53.36494 43.54859
#
# Velocity S-wave (km/s) = 3.45622 4.34718 3.92705
# Velocity P-wave (km/s) = 5.64582 8.16584 7.01984
#
# Compressibility (1/GPa) = 0.02220519
#
# Stress axis : x y z
#
# Youngs Moduli (GPa) = 101.82640 127.75935 86.88951
#
# Poissons Ratio (x) = 0.26323 -0.12696
# Poissons Ratio (y) = 0.20980 0.24995
# Poissons Ratio (z) = -0.14879 0.36751
#
# Static dielectric constant tensor:
#      x y z
#    x 5.275040 0.240440 0.004310 
#    y 0.240440 4.973060 -0.807850 
#    z 0.004310 -0.807850 6.019660 
# 
# 
# High freq. dielectric constant tensor:
#      x y z
#    x 2.176850 0.011560 0.001520 
#    y 0.011560 2.126640 -0.042890 
#    z 0.001520 -0.042890 2.204960 
# 
# From -- ./inp_files/19977.got.cif
#   From: 2010.06.25/outbox.cif.g09.slc.cpg/sg2_10_cif.got.tgz:19977.got - 2010.06.27 13:26:56.
