data_PCOD8004411
_publ_section_title
;
Structure prediction by ZEFSAII (Michael W. Deem and Ramdas Pophale) SiO2 
 PCOD8004411
Probable space group: P -1
;
_chemical_formula_sum "Si O2"
_cell_formula_units_Z 14
_cell_length_a 20.657028
_cell_length_b 6.443728
_cell_length_c 8.556927
_cell_angle_alpha 76.328678
_cell_angle_beta 36.119424
_cell_angle_gamma 76.609865
_cell_volume 650.737026
_symmetry_space_group_name_H-M "P -1"
_symmetry_group_IT_number 2
_symmetry_cell_setting 'triclinic'
loop_
_space_group_symop_operation_xyz
x,y,z
-x,-y,-z
loop_
_atom_site_type_symbol
_atom_site_label
_atom_site_fract_x
_atom_site_fract_y
_atom_site_fract_z
Si Si1 0.883143 0.779806 0.850045
Si Si2 0.237006 0.614514 0.801968
Si Si3 0.731581 0.151451 0.999146
Si Si4 0.774730 0.991076 0.454516
Si Si5 0.405506 0.776627 0.026168
Si Si6 0.078879 0.976463 0.553731
Si Si7 0.642837 0.639797 0.644865
O O1 0.964187 0.862409 0.812169
O O2 0.764347 0.921036 0.059787
O O3 0.939528 0.816915 0.563122
O O4 0.865952 0.532115 0.954501
O O5 0.192323 0.831781 0.765025
O O6 0.334244 0.492063 0.535944
O O7 0.282137 0.663612 0.877179
O O8 0.619096 0.154894 0.118262
O O9 0.828840 0.192162 0.676065
O O10 0.664025 0.064220 0.751398
O O11 0.879194 0.949230 0.372995
O O12 0.748335 0.772036 0.457498
O O13 0.376970 0.529600 0.148918
O O14 0.534491 0.799639 0.802702
#
# Coordination Sequence:
#
# PCOD8004411 Si02
#       7
#     2   2   2   2   2   2   2
#     4   9  19  39  57  83 111 140 187 234 262 327
#     4  11  22  34  55  83 119 145 175 227 286 314
#     4   9  19  36  57  82 109 142 186 227 269 327
#     4  10  20  38  58  83 110 147 182 229 271 327
#     4   9  20  37  60  82 104 150 193 216 276 320
#     4   8  19  39  61  78 107 147 191 222 270 318
#     4  10  21  37  56  83 115 143 182 233 265 336
#
# _framework density 21.514067000000001
#
# number of rings (size 3 to 8) (size 9 to 14) (size 15 to 20)
#    0.857    1.714    0.000    1.286    2.000    1.714 
#    0.000    5.714    0.000    0.000    0.000    0.000 
#    0.000    0.000    0.000    0.000    0.000    0.000 
#
# Total GULP energy -173522.558807 kJ/mol
# GULP energy per Si atom -12394.468486 kJ/mol
# Density = 2.146510 g / cm^3
# Si number density = 21.514067 Si / 1000 Ang^3
#
#
#
# Elastic Constant Matrix: (Units=GPa)
#
#
# Indices 1 2 3 4 5 6 
#
# 1 128.9536 33.8924 18.7996 -5.2688 -5.2554 19.3733
# 2 33.8924 78.2937 16.5035 -13.3241 7.5305 17.6137
# 3 18.7996 16.5035 32.9222 -18.5475 6.9459 5.1947
# 4 -5.2688 -13.3241 -18.5475 34.7961 3.8835 -0.9302
# 5 -5.2554 7.5305 6.9459 3.8835 20.9535 6.7716
# 6 19.3733 17.6137 5.1947 -0.9302 6.7716 27.5061
#
#
#
# Elastic Compliance Matrix: (Units=1/GPa)
#
#
# Indices 1 2 3 4 5 6 
#
# 1 0.011140 -0.003377 -0.008986 -0.005714 0.010209 -0.006694
# 2 -0.003377 0.017658 -0.001215 0.006038 -0.005610 -0.007114
# 3 -0.008986 -0.001215 0.060916 0.034060 -0.029631 0.004049
# 4 -0.005714 0.006038 0.034060 0.051161 -0.024887 0.001583
# 5 0.010209 -0.005610 -0.029631 -0.024887 0.072099 -0.016593
# 6 -0.006694 -0.007114 0.004049 0.001583 -0.016593 0.048999
#
#
# Mechanical properties :
#
#
# Convention : Reuss Voigt Hill
#
# Bulk Modulus (GPa) = 15.98496 42.06229 29.02363
# Shear Modulus (GPa) = 16.12993 28.04940 22.08967
#
# Velocity S-wave (km/s) = 2.74111 3.61469 3.20778
# Velocity P-wave (km/s) = 4.17904 6.08398 5.21916
#
# Compressibility (1/GPa) = 0.06255880
#
# Stress axis : x y z
#
# Youngs Moduli (GPa) = 89.76304 56.63101 16.41602
#
# Poissons Ratio (x) = 0.19124 0.14751
# Poissons Ratio (y) = 0.30313 0.01995
# Poissons Ratio (z) = 0.80658 0.06883
#
# Static dielectric constant tensor:
#      x y z
#    x 3.853950 -0.013820 0.112220 
#    y -0.013820 3.599810 0.001340 
#    z 0.112220 0.001340 3.594010 
# 
# 
# High freq. dielectric constant tensor:
#      x y z
#    x 1.843360 0.007380 0.007170 
#    y 0.007380 1.822190 0.002370 
#    z 0.007170 0.002370 1.825590 
# 
# From -- ./inp_files/107303.got.cif
#   From: 2010.06.25/outbox.cif.g09.slc.cpg/sg2_54_cif.got.tgz:107303.got - 2010.06.27 13:26:56.
