data_PCOD8004843
_publ_section_title
;
Structure prediction by ZEFSAII (Michael W. Deem and Ramdas Pophale) SiO2 
 PCOD8004843
Probable space group: P -1
;
_chemical_formula_sum "Si O2"
_cell_formula_units_Z 16
_cell_length_a 11.079883
_cell_length_b 11.195501
_cell_length_c 24.495815
_cell_angle_alpha 140.669915
_cell_angle_beta 24.622199
_cell_angle_gamma 142.717267
_cell_volume 751.539568
_symmetry_space_group_name_H-M "P -1"
_symmetry_group_IT_number 2
_symmetry_cell_setting 'triclinic'
loop_
_space_group_symop_operation_xyz
x,y,z
-x,-y,-z
loop_
_atom_site_type_symbol
_atom_site_label
_atom_site_fract_x
_atom_site_fract_y
_atom_site_fract_z
Si Si1 0.323673 0.406817 0.896742
Si Si2 0.235339 0.363699 0.634215
Si Si3 0.606992 0.108795 0.437800
Si Si4 0.614134 0.351978 0.936216
Si Si5 0.296176 0.971559 0.993093
Si Si6 0.344477 0.878263 0.358304
Si Si7 0.325052 0.230728 0.430710
Si Si8 0.694345 0.779862 0.816040
O O1 0.597021 0.314931 0.759237
O O2 0.430437 0.558547 0.854787
O O3 0.281718 0.538135 0.010482
O O4 0.010285 0.221007 0.953762
O O5 0.428399 0.261915 0.555039
O O6 0.223315 0.305282 0.555431
O O7 0.404920 0.603422 0.654032
O O8 0.893315 0.306710 0.777186
O O9 0.972243 0.235926 0.338624
O O10 0.500000 0.000000 0.500000
O O11 0.534579 0.947964 0.361069
O O12 0.354928 0.129507 0.974265
O O13 0.500000 0.500000 0.000000
O O14 0.583741 0.891070 0.851748
O O15 0.260836 0.087153 0.101820
O O16 0.981647 0.836367 0.504616
O O17 0.452799 0.051774 0.328581
#
# Coordination Sequence:
#
# PCOD8004843 Si02
#       8
#     2   2   2   2   2   2   2   2
#     4  11  22  40  66  91 120 164 213 253 306 369
#     4  10  21  41  61  89 125 160 209 248 314 369
#     4  11  22  39  64  89 129 167 196 261 319 361
#     4  11  25  40  62  94 130 161 200 260 316 367
#     4  10  22  41  64  89 125 165 208 255 304 369
#     4  10  20  38  62  93 117 159 217 247 305 372
#     4   9  20  38  66  85 120 165 203 261 297 368
#     4  10  21  41  66  89 122 164 211 256 304 364
#
# _framework density 21.289629999999999
#
# number of rings (size 3 to 8) (size 9 to 14) (size 15 to 20)
#    0.000    1.750    1.250    2.625    1.750    2.500 
#   11.250    1.250    0.000    0.000    0.000    0.000 
#    0.000    0.000    0.000    0.000    0.000    0.000 
#
# Total GULP energy -198332.128241 kJ/mol
# GULP energy per Si atom -12395.758015 kJ/mol
# Density = 2.124117 g / cm^3
# Si number density = 21.289630 Si / 1000 Ang^3
#
#
#
# Elastic Constant Matrix: (Units=GPa)
#
#
# Indices 1 2 3 4 5 6 
#
# 1 64.1553 38.3205 25.0892 -11.8785 -17.1338 -21.7607
# 2 38.3205 152.6080 34.7937 -23.2504 -7.6415 -15.7660
# 3 25.0892 34.7937 98.9985 -3.4771 -15.2525 -17.7258
# 4 -11.8785 -23.2504 -3.4771 40.2344 0.5876 -3.8599
# 5 -17.1338 -7.6415 -15.2525 0.5876 26.9621 3.5086
# 6 -21.7607 -15.7660 -17.7258 -3.8599 3.5086 33.2477
#
#
#
# Elastic Compliance Matrix: (Units=1/GPa)
#
#
# Indices 1 2 3 4 5 6 
#
# 1 0.028758 -0.003489 -0.000634 0.007758 0.014652 0.016184
# 2 -0.003489 0.008536 -0.001920 0.003879 -0.001139 0.001311
# 3 -0.000634 -0.001920 0.012675 0.000183 0.005586 0.004863
# 4 0.007758 0.003879 0.000183 0.030310 0.004159 0.010095
# 5 0.014652 -0.001139 0.005586 0.004159 0.048180 0.007426
# 6 0.016184 0.001311 0.004863 0.010095 0.007426 0.044273
#
#
# Mechanical properties :
#
#
# Convention : Reuss Voigt Hill
#
# Bulk Modulus (GPa) = 26.39803 56.90765 41.65284
# Shear Modulus (GPa) = 25.32328 34.59273 29.95800
#
# Velocity S-wave (km/s) = 3.45260 4.03533 3.75529
# Velocity P-wave (km/s) = 5.32169 6.96420 6.19760
#
# Compressibility (1/GPa) = 0.03788162
#
# Stress axis : x y z
#
# Youngs Moduli (GPa) = 34.77251 117.14978 78.89743
#
# Poissons Ratio (x) = 0.40875 0.05004
# Poissons Ratio (y) = 0.12132 0.15152
# Poissons Ratio (z) = 0.02205 0.22498
#
# Static dielectric constant tensor:
#      x y z
#    x 3.696870 -0.180090 -0.184890 
#    y -0.180090 4.334780 0.121340 
#    z -0.184890 0.121340 3.944670 
# 
# 
# High freq. dielectric constant tensor:
#      x y z
#    x 1.814490 -0.009580 -0.017330 
#    y -0.009580 1.853660 0.002170 
#    z -0.017330 0.002170 1.831680 
# 
# From -- ./inp_files/522157.got.cif
#   From: 2010.06.25/outbox.cif.g09.slc.cpg/sg2_262_cif.got.tgz:522157.got - 2010.06.27 13:26:56.
