data_PCOD8004038
_publ_section_title
;
Structure prediction by ZEFSAII (Michael W. Deem and Ramdas Pophale) SiO2 
 PCOD8004038
Probable space group: P -1
;
_chemical_formula_sum "Si O2"
_cell_formula_units_Z 16
_cell_length_a 8.713876
_cell_length_b 14.705923
_cell_length_c 11.617656
_cell_angle_alpha 69.676540
_cell_angle_beta 75.201252
_cell_angle_gamma 130.855504
_cell_volume 773.785894
_symmetry_space_group_name_H-M "P -1"
_symmetry_group_IT_number 2
_symmetry_cell_setting 'triclinic'
loop_
_space_group_symop_operation_xyz
x,y,z
-x,-y,-z
loop_
_atom_site_type_symbol
_atom_site_label
_atom_site_fract_x
_atom_site_fract_y
_atom_site_fract_z
Si Si1 0.734049 0.404954 0.529036
Si Si2 0.126795 0.040228 0.835784
Si Si3 0.325165 0.555086 0.967545
Si Si4 0.107542 0.635625 0.681475
Si Si5 0.958559 0.892273 0.399411
Si Si6 0.739697 0.573436 0.616931
Si Si7 0.413576 0.158529 0.360347
Si Si8 0.750466 0.686235 0.996158
O O1 0.459593 0.207644 0.703942
O O2 0.796178 0.417103 0.376771
O O3 0.700399 0.500068 0.533052
O O4 0.000000 0.500000 0.500000
O O5 0.009297 0.062909 0.759958
O O6 0.028158 0.883271 0.887478
O O7 0.000000 0.000000 0.000000
O O8 0.383374 0.657860 0.809270
O O9 0.618175 0.669726 0.915549
O O10 0.166928 0.382078 0.022312
O O11 0.138065 0.512814 0.118434
O O12 0.380713 0.810079 0.621821
O O13 0.004939 0.664734 0.596729
O O14 0.777730 0.705156 0.526509
O O15 0.808183 0.907308 0.481435
O O16 0.256163 0.024552 0.345541
O O17 0.464064 0.418715 0.811139
#
# Coordination Sequence:
#
# PCOD8004038 Si02
#       8
#     2   2   2   2   2   2   2   2
#     4  10  22  42  64  89 127 170 212 261 321 380
#     4  12  23  42  67  95 126 172 220 266 318 381
#     4  10  20  37  63  90 134 168 208 263 318 383
#     4  10  22  39  64  90 128 177 205 255 335 392
#     4  11  24  38  65  97 127 163 215 277 314 376
#     4  10  21  42  64  92 127 170 217 263 317 380
#     4  11  21  39  62  97 133 162 212 268 325 382
#     4  10  20  38  64  96 123 166 218 262 314 375
#
# _framework density 20.677553
#
# number of rings (size 3 to 8) (size 9 to 14) (size 15 to 20)
#    0.000    1.500    5.000    0.375    0.000    1.000 
#    6.750    0.000    0.000    3.750    0.000    0.000 
#    0.000    0.000    0.000    0.000    0.000    0.000 
#
# Total GULP energy -198333.599695 kJ/mol
# GULP energy per Si atom -12395.849981 kJ/mol
# Density = 2.063049 g / cm^3
# Si number density = 20.677553 Si / 1000 Ang^3
#
#
#
# Elastic Constant Matrix: (Units=GPa)
#
#
# Indices 1 2 3 4 5 6 
#
# 1 42.1930 33.1654 35.0362 -5.2205 -1.6931 5.5234
# 2 33.1654 117.5037 52.4553 -15.7842 -4.8249 5.6955
# 3 35.0362 52.4553 98.0203 3.1663 -3.7577 1.2739
# 4 -5.2205 -15.7842 3.1663 47.3355 0.2049 -2.6444
# 5 -1.6931 -4.8249 -3.7577 0.2049 29.7685 -2.6890
# 6 5.5234 5.6955 1.2739 -2.6444 -2.6890 32.9059
#
#
#
# Elastic Compliance Matrix: (Units=1/GPa)
#
#
# Indices 1 2 3 4 5 6 
#
# 1 0.037689 -0.005264 -0.010703 0.002850 -0.000515 -0.004814
# 2 -0.005264 0.012889 -0.005095 0.004012 0.001052 -0.000742
# 3 -0.010703 -0.005095 0.016892 -0.003914 0.000886 0.001782
# 4 0.002850 0.004012 -0.003914 0.023086 0.000237 0.000853
# 5 -0.000515 0.001052 0.000886 0.000237 0.034085 0.002675
# 6 -0.004814 -0.000742 0.001782 0.000853 0.002675 0.031544
#
#
# Mechanical properties :
#
#
# Convention : Reuss Voigt Hill
#
# Bulk Modulus (GPa) = 39.45868 55.44787 47.45328
# Shear Modulus (GPa) = 24.18264 31.13934 27.66099
#
# Velocity S-wave (km/s) = 3.42352 3.88487 3.66147
# Velocity P-wave (km/s) = 5.89505 6.85541 6.39329
#
# Compressibility (1/GPa) = 0.02534296
#
# Stress axis : x y z
#
# Youngs Moduli (GPa) = 26.53308 77.58547 59.20028
#
# Poissons Ratio (x) = 0.40844 0.63365
# Poissons Ratio (y) = 0.13968 0.30165
# Poissons Ratio (z) = 0.28400 0.39533
#
# Static dielectric constant tensor:
#      x y z
#    x 3.615710 0.185450 -0.127510 
#    y 0.185450 4.408220 0.221660 
#    z -0.127510 0.221660 3.728160 
# 
# 
# High freq. dielectric constant tensor:
#      x y z
#    x 1.783000 0.013970 -0.008280 
#    y 0.013970 1.821310 0.007840 
#    z -0.008280 0.007840 1.806740 
# 
# From -- ./inp_files/189196.got.cif
#   From: 2010.06.25/outbox.cif.g09.slc.cpg/sg2_95_cif.got.tgz:189196.got - 2010.06.27 13:26:56.
