data_PCOD8004549
_publ_section_title
;
Structure prediction by ZEFSAII (Michael W. Deem and Ramdas Pophale) SiO2 
 PCOD8004549
Probable space group: P -1
;
_chemical_formula_sum "Si O2"
_cell_formula_units_Z 16
_cell_length_a 9.120581
_cell_length_b 9.614344
_cell_length_c 15.508027
_cell_angle_alpha 62.384931
_cell_angle_beta 61.268797
_cell_angle_gamma 45.763310
_cell_volume 836.378560
_symmetry_space_group_name_H-M "P -1"
_symmetry_group_IT_number 2
_symmetry_cell_setting 'triclinic'
loop_
_space_group_symop_operation_xyz
x,y,z
-x,-y,-z
loop_
_atom_site_type_symbol
_atom_site_label
_atom_site_fract_x
_atom_site_fract_y
_atom_site_fract_z
Si Si1 0.643187 0.475429 0.730231
Si Si2 0.895737 0.715883 0.296225
Si Si3 0.476558 0.869595 0.760880
Si Si4 0.690836 0.813071 0.892995
Si Si5 0.595955 0.380794 0.419565
Si Si6 0.535522 0.746361 0.120104
Si Si7 0.488228 0.907945 0.444273
Si Si8 0.118215 0.533994 0.763255
O O1 0.514231 0.680224 0.760942
O O2 0.574343 0.511869 0.639823
O O3 0.592917 0.340607 0.830186
O O4 0.894443 0.354204 0.693231
O O5 0.730953 0.720957 0.404975
O O6 0.968243 0.553128 0.248851
O O7 0.773598 0.940418 0.228097
O O8 0.549612 0.829810 0.849865
O O9 0.607117 0.928373 0.652737
O O10 0.934610 0.689318 0.834949
O O11 0.626936 0.021131 0.883174
O O12 0.666777 0.702097 0.008683
O O13 0.500000 0.500000 0.500000
O O14 0.654616 0.164248 0.481153
O O15 0.806330 0.355810 0.342605
O O16 0.687838 0.649303 0.186702
O O17 0.500000 0.000000 0.500000
#
# Coordination Sequence:
#
# PCOD8004549 Si02
#       8
#     2   2   2   2   2   2   2   2
#     4  11  23  40  66  90 121 163 204 251 308 362
#     4  10  21  39  62  88 124 160 204 248 301 363
#     4  10  21  39  62  85 128 159 198 256 297 362
#     4  11  22  42  67  88 123 166 201 252 322 357
#     4  11  21  39  61  92 124 161 202 256 294 358
#     4  10  24  41  64  95 122 154 208 264 301 366
#     4  10  20  38  60  84 127 159 199 248 303 348
#     4  11  21  40  67  89 123 164 208 248 307 366
#
# _framework density 19.130094
#
# number of rings (size 3 to 8) (size 9 to 14) (size 15 to 20)
#    0.750    0.750    5.000    0.375    1.750    4.000 
#    2.250    1.250    0.000    0.000    0.000    0.000 
#    0.000    0.000    0.000    0.000    0.000    0.000 
#
# Total GULP energy -198355.929478 kJ/mol
# GULP energy per Si atom -12397.245592 kJ/mol
# Density = 1.908655 g / cm^3
# Si number density = 19.130094 Si / 1000 Ang^3
#
#
#
# Elastic Constant Matrix: (Units=GPa)
#
#
# Indices 1 2 3 4 5 6 
#
# 1 84.3980 29.5630 30.6212 -2.1770 -6.7253 11.1523
# 2 29.5630 86.8661 31.3252 5.3389 -15.6050 18.2210
# 3 30.6212 31.3252 110.8498 4.6174 -14.9874 22.3775
# 4 -2.1770 5.3389 4.6174 31.0534 1.7677 -4.4104
# 5 -6.7253 -15.6050 -14.9874 1.7677 28.1920 3.9050
# 6 11.1523 18.2210 22.3775 -4.4104 3.9050 33.6080
#
#
#
# Elastic Compliance Matrix: (Units=1/GPa)
#
#
# Indices 1 2 3 4 5 6 
#
# 1 0.014364 -0.003963 -0.002918 0.002095 -0.000401 -0.000354
# 2 -0.003963 0.017082 -0.000212 -0.005125 0.010054 -0.009645
# 3 -0.002918 -0.000212 0.012834 -0.003754 0.007467 -0.008822
# 4 0.002095 -0.005125 -0.003754 0.035691 -0.007983 0.010195
# 5 -0.000401 0.010054 0.007467 -0.007983 0.047749 -0.016885
# 6 -0.000354 -0.009645 -0.008822 0.010195 -0.016885 0.044275
#
#
# Mechanical properties :
#
#
# Convention : Reuss Voigt Hill
#
# Bulk Modulus (GPa) = 33.22996 51.68141 42.45569
# Shear Modulus (GPa) = 25.48235 31.27766 28.38001
#
# Velocity S-wave (km/s) = 3.65369 4.04790 3.85584
# Velocity P-wave (km/s) = 5.93359 6.99441 6.48572
#
# Compressibility (1/GPa) = 0.03009332
#
# Stress axis : x y z
#
# Youngs Moduli (GPa) = 69.61695 58.54253 77.91668
#
# Poissons Ratio (x) = 0.23199 0.22738
# Poissons Ratio (y) = 0.27588 0.01655
# Poissons Ratio (z) = 0.20316 0.01244
#
# Static dielectric constant tensor:
#      x y z
#    x 3.259840 0.092120 0.090710 
#    y 0.092120 3.436910 0.047140 
#    z 0.090710 0.047140 3.455940 
# 
# 
# High freq. dielectric constant tensor:
#      x y z
#    x 1.733120 0.014120 0.006510 
#    y 0.014120 1.746550 0.002670 
#    z 0.006510 0.002670 1.748210 
# 
# From -- ./inp_files/494627.got.cif
#   From: 2010.06.25/outbox.cif.g09.slc.cpg/sg2_248_cif.got.tgz:494627.got - 2010.06.27 13:26:56.
