data_PCOD8004193
_publ_section_title
;
Structure prediction by ZEFSAII (Michael W. Deem and Ramdas Pophale) SiO2 
 PCOD8004193
Probable space group: P -1
;
_chemical_formula_sum "Si O2"
_cell_formula_units_Z 16
_cell_length_a 8.606705
_cell_length_b 9.151763
_cell_length_c 21.808545
_cell_angle_alpha 43.053832
_cell_angle_beta 139.202265
_cell_angle_gamma 136.645323
_cell_volume 705.567691
_symmetry_space_group_name_H-M "P -1"
_symmetry_group_IT_number 2
_symmetry_cell_setting 'triclinic'
loop_
_space_group_symop_operation_xyz
x,y,z
-x,-y,-z
loop_
_atom_site_type_symbol
_atom_site_label
_atom_site_fract_x
_atom_site_fract_y
_atom_site_fract_z
Si Si1 0.985800 0.015621 0.708940
Si Si2 0.354971 0.225538 0.913530
Si Si3 0.837910 0.294943 0.968348
Si Si4 0.539699 0.077456 0.364247
Si Si5 0.729937 0.757969 0.591332
Si Si6 0.194463 0.630877 0.754859
Si Si7 0.256497 0.511976 0.605062
Si Si8 0.787491 0.350583 0.104399
O O1 0.767309 0.027386 0.685879
O O2 0.874578 0.947256 0.628299
O O3 0.102804 0.840527 0.825444
O O4 0.215541 0.267235 0.698633
O O5 0.537860 0.258435 0.897940
O O6 0.190786 0.383521 0.807591
O O7 0.531396 0.309266 0.001632
O O8 0.152340 0.957802 0.940183
O O9 0.975039 0.396082 0.913112
O O10 0.000000 0.500000 0.000000
O O11 0.602961 0.157388 0.288493
O O12 0.667223 0.296990 0.378563
O O13 0.654980 0.884599 0.473585
O O14 0.475968 0.563584 0.603641
O O15 0.909347 0.628225 0.660615
O O16 0.288269 0.677272 0.838759
O O17 0.000000 0.500000 0.500000
#
# Coordination Sequence:
#
# PCOD8004193 Si02
#       8
#     2   2   2   2   2   2   2   2
#     4  10  20  37  65  91 114 158 215 260 305 354
#     4  10  21  41  66  90 121 161 207 259 302 361
#     4   9  20  40  68  88 115 154 212 261 304 350
#     4  11  21  38  62  88 125 164 204 260 309 363
#     4  10  21  39  61  87 123 164 201 258 313 364
#     4  11  24  39  58  92 133 170 200 244 320 379
#     4  11  19  38  67  88 116 157 218 263 303 354
#     4  10  22  39  61  90 126 165 204 250 306 369
#
# _framework density 22.676774999999999
#
# number of rings (size 3 to 8) (size 9 to 14) (size 15 to 20)
#    0.000    1.750    2.500    2.250    0.000    6.500 
#    0.000    9.375    0.000    0.000    0.000    0.000 
#    0.000    0.000    0.000    0.000    0.000    0.000 
#
# Total GULP energy -198383.577382 kJ/mol
# GULP energy per Si atom -12398.973586 kJ/mol
# Density = 2.262516 g / cm^3
# Si number density = 22.676775 Si / 1000 Ang^3
#
#
#
# Elastic Constant Matrix: (Units=GPa)
#
#
# Indices 1 2 3 4 5 6 
#
# 1 136.2029 42.0591 68.8076 -25.8678 -8.0242 19.0628
# 2 42.0591 110.2201 46.0087 -34.9968 -4.7417 28.7756
# 3 68.8076 46.0087 118.6801 -30.2061 12.7961 10.1858
# 4 -25.8678 -34.9968 -30.2061 29.9037 -7.1453 -12.4164
# 5 -8.0242 -4.7417 12.7961 -7.1453 47.1216 -9.1689
# 6 19.0628 28.7756 10.1858 -12.4164 -9.1689 27.4016
#
#
#
# Elastic Compliance Matrix: (Units=1/GPa)
#
#
# Indices 1 2 3 4 5 6 
#
# 1 0.011697 0.000281 -0.006011 0.003904 0.003618 -0.003219
# 2 0.000281 0.017384 -0.002679 0.014381 0.002756 -0.010016
# 3 -0.006011 -0.002679 0.014895 0.007375 -0.003514 0.003625
# 4 0.003904 0.014381 0.007375 0.071319 0.014131 0.016486
# 5 0.003618 0.002756 -0.003514 0.014131 0.027446 0.011482
# 6 -0.003219 -0.010016 0.003625 0.016486 0.011482 0.059217
#
#
# Mechanical properties :
#
#
# Convention : Reuss Voigt Hill
#
# Bulk Modulus (GPa) = 36.82342 75.42820 56.12581
# Shear Modulus (GPa) = 21.94641 34.76722 28.35682
#
# Velocity S-wave (km/s) = 3.11431 3.91981 3.54005
# Velocity P-wave (km/s) = 5.40422 7.33629 6.44308
#
# Compressibility (1/GPa) = 0.02715663
#
# Stress axis : x y z
#
# Youngs Moduli (GPa) = 85.49404 57.52515 67.13873
#
# Poissons Ratio (x) = -0.01617 0.40355
# Poissons Ratio (y) = -0.02403 0.17990
# Poissons Ratio (z) = 0.51388 0.15414
#
# Static dielectric constant tensor:
#      x y z
#    x 4.389460 0.376180 -0.115830 
#    y 0.376180 4.142450 -0.347060 
#    z -0.115830 -0.347060 4.239180 
# 
# 
# High freq. dielectric constant tensor:
#      x y z
#    x 1.892060 0.014670 -0.002460 
#    y 0.014670 1.880730 -0.014630 
#    z -0.002460 -0.014630 1.903690 
# 
# From -- ./inp_files/480576.got.cif
#   From: 2010.06.25/outbox.cif.g09.slc.cpg/sg2_241_cif.got.tgz:480576.got - 2010.06.27 13:26:56.
