data_PCOD8004212
_publ_section_title
;
Structure prediction by ZEFSAII (Michael W. Deem and Ramdas Pophale) SiO2 
 PCOD8004212
Probable space group: P -1
;
_chemical_formula_sum "Si O2"
_cell_formula_units_Z 16
_cell_length_a 13.973944
_cell_length_b 7.773668
_cell_length_c 8.318359
_cell_angle_alpha 75.339942
_cell_angle_beta 127.359488
_cell_angle_gamma 109.159691
_cell_volume 676.694746
_symmetry_space_group_name_H-M "P -1"
_symmetry_group_IT_number 2
_symmetry_cell_setting 'triclinic'
loop_
_space_group_symop_operation_xyz
x,y,z
-x,-y,-z
loop_
_atom_site_type_symbol
_atom_site_label
_atom_site_fract_x
_atom_site_fract_y
_atom_site_fract_z
Si Si1 0.482147 0.374795 0.666852
Si Si2 0.051692 0.359138 0.814178
Si Si3 0.908857 0.631027 0.496503
Si Si4 0.057068 0.032451 0.375802
Si Si5 0.255912 0.607954 0.136762
Si Si6 0.674315 0.392712 0.422775
Si Si7 0.871140 0.116127 0.931673
Si Si8 0.296747 0.994892 0.486718
O O1 0.500000 0.500000 0.500000
O O2 0.617196 0.337302 0.850836
O O3 0.434973 0.494967 0.730537
O O4 0.390191 0.179420 0.590305
O O5 0.064267 0.254864 0.678077
O O6 0.025097 0.546190 0.673389
O O7 0.940165 0.256663 0.833928
O O8 0.177608 0.416972 0.029361
O O9 0.889827 0.748864 0.605848
O O10 0.781715 0.477980 0.385309
O O11 0.175461 0.946110 0.489366
O O12 0.000000 0.000000 0.500000
O O13 0.961757 0.998679 0.131341
O O14 0.277074 0.576135 0.352956
O O15 0.182008 0.770763 0.011062
O O16 0.633767 0.174489 0.397228
O O17 0.756475 0.982924 0.753532
#
# Coordination Sequence:
#
# PCOD8004212 Si02
#       8
#     2   2   2   2   2   2   2   2
#     4  10  23  41  66  96 131 180 228 270 326 384
#     4  11  21  36  67 102 128 176 216 274 340 398
#     4  11  21  38  66  94 137 173 213 272 346 391
#     4  12  25  40  63 103 140 173 213 275 346 401
#     4  10  20  37  65  93 131 170 226 263 327 391
#     4  10  21  41  65  96 127 176 218 276 327 388
#     4  11  22  39  66  99 136 168 219 278 335 394
#     4  11  23  41  69  95 136 173 226 270 329 398
#
# _framework density 23.644341000000001
#
# number of rings (size 3 to 8) (size 9 to 14) (size 15 to 20)
#    0.000    1.250    5.000    2.250    3.500    4.500 
#    0.000    0.625    0.000    1.500    0.000    0.000 
#    0.000    0.000    0.000    0.000    0.000    0.000 
#
# Total GULP energy -198244.753761 kJ/mol
# GULP energy per Si atom -12390.297110 kJ/mol
# Density = 2.359053 g / cm^3
# Si number density = 23.644341 Si / 1000 Ang^3
#
#
#
# Elastic Constant Matrix: (Units=GPa)
#
#
# Indices 1 2 3 4 5 6 
#
# 1 148.3630 54.2327 40.3319 4.1316 19.2047 -14.4539
# 2 54.2327 111.0178 37.0143 11.3478 9.1277 -17.3162
# 3 40.3319 37.0143 54.1760 6.5801 1.2809 -4.8105
# 4 4.1316 11.3478 6.5801 35.4252 3.1964 -10.2227
# 5 19.2047 9.1277 1.2809 3.1964 36.1277 0.9775
# 6 -14.4539 -17.3162 -4.8105 -10.2227 0.9775 43.1376
#
#
#
# Elastic Compliance Matrix: (Units=1/GPa)
#
#
# Indices 1 2 3 4 5 6 
#
# 1 0.009934 -0.002411 -0.005649 0.001734 -0.004686 0.002248
# 2 -0.002411 0.013275 -0.006737 -0.001566 -0.001788 0.003439
# 3 -0.005649 -0.006737 0.027359 -0.003336 0.004096 -0.002429
# 4 0.001734 -0.001566 -0.003336 0.031509 -0.003389 0.007124
# 5 -0.004686 -0.001788 0.004096 -0.003389 0.030867 -0.003334
# 6 0.002248 0.003439 -0.002429 0.007124 -0.003334 0.026808
#
#
# Mechanical properties :
#
#
# Convention : Reuss Voigt Hill
#
# Bulk Modulus (GPa) = 47.67603 64.07941 55.87772
# Shear Modulus (GPa) = 28.35458 35.06996 31.71227
#
# Velocity S-wave (km/s) = 3.46672 3.85545 3.66624
# Velocity P-wave (km/s) = 6.01929 6.85416 6.45025
#
# Compressibility (1/GPa) = 0.02097490
#
# Stress axis : x y z
#
# Youngs Moduli (GPa) = 100.66012 75.32920 36.55087
#
# Poissons Ratio (x) = 0.18162 0.20647
# Poissons Ratio (y) = 0.24270 0.24625
# Poissons Ratio (z) = 0.56860 0.50750
#
# Static dielectric constant tensor:
#      x y z
#    x 5.087000 -0.842360 0.153430 
#    y -0.842360 5.727670 0.432470 
#    z 0.153430 0.432470 4.229240 
# 
# 
# High freq. dielectric constant tensor:
#      x y z
#    x 1.943530 -0.022410 -0.002160 
#    y -0.022410 1.960090 0.008360 
#    z -0.002160 0.008360 1.898380 
# 
# From -- ./inp_files/298401.got.cif
#   From: 2010.06.25/outbox.cif.g09.slc.cpg/sg2_150_cif.got.tgz:298401.got - 2010.06.27 13:26:56.
