data_PCOD8004383
_publ_section_title
;
Structure prediction by ZEFSAII (Michael W. Deem and Ramdas Pophale) SiO2 
 PCOD8004383
Probable space group: P -1
;
_chemical_formula_sum "Si O2"
_cell_formula_units_Z 14
_cell_length_a 14.302266
_cell_length_b 8.201474
_cell_length_c 8.956679
_cell_angle_alpha 85.528104
_cell_angle_beta 59.915660
_cell_angle_gamma 126.962547
_cell_volume 607.260589
_symmetry_space_group_name_H-M "P -1"
_symmetry_group_IT_number 2
_symmetry_cell_setting 'triclinic'
loop_
_space_group_symop_operation_xyz
x,y,z
-x,-y,-z
loop_
_atom_site_type_symbol
_atom_site_label
_atom_site_fract_x
_atom_site_fract_y
_atom_site_fract_z
Si Si1 0.024684 0.892626 0.863759
Si Si2 0.765507 0.617172 0.465171
Si Si3 0.696382 0.408340 0.210916
Si Si4 0.926356 0.466191 0.403751
Si Si5 0.464067 0.181697 0.887346
Si Si6 0.812280 0.196373 0.068827
Si Si7 0.413401 0.043686 0.260398
O O1 0.136040 0.100525 0.632151
O O2 0.109836 0.829884 0.867719
O O3 0.844347 0.641251 0.972013
O O4 0.000000 0.000000 0.000000
O O5 0.697340 0.492620 0.365532
O O6 0.883769 0.610106 0.432360
O O7 0.611631 0.467565 0.706583
O O8 0.525815 0.256285 0.279806
O O9 0.719711 0.239030 0.224784
O O10 0.000000 0.500000 0.500000
O O11 0.050435 0.570413 0.163823
O O12 0.769227 0.177462 0.519227
O O13 0.515396 0.053572 0.825539
O O14 0.418127 0.157429 0.098189
O O15 0.309263 0.046920 0.918252
#
# Coordination Sequence:
#
# PCOD8004383 Si02
#       7
#     2   2   2   2   2   2   2
#     4  10  20  38  57  82 117 154 187 232 287 342
#     4  10  22  39  60  82 118 156 186 229 294 341
#     4  10  21  37  58  88 116 147 192 241 279 330
#     4  11  20  34  61  88 110 150 194 234 281 339
#     4   9  19  35  57  83 114 153 189 229 286 341
#     4  11  20  35  62  87 113 145 198 239 274 335
#     4   9  19  34  56  84 118 145 187 241 283 329
#
# _framework density 23.054352000000002
#
# number of rings (size 3 to 8) (size 9 to 14) (size 15 to 20)
#    0.000    2.000    4.286    0.429    2.000    5.714 
#    0.000    0.714    0.000    4.286    0.000    0.000 
#    0.000    0.000    0.000    0.000    0.000    0.000 
#
# Total GULP energy -173577.018088 kJ/mol
# GULP energy per Si atom -12398.358435 kJ/mol
# Density = 2.300188 g / cm^3
# Si number density = 23.054352 Si / 1000 Ang^3
#
#
#
# Elastic Constant Matrix: (Units=GPa)
#
#
# Indices 1 2 3 4 5 6 
#
# 1 58.7651 37.3076 27.6668 -12.6869 8.1152 31.7483
# 2 37.3076 64.9571 14.1307 -24.1612 8.2794 17.7612
# 3 27.6668 14.1307 112.2193 -36.7663 13.7650 2.4761
# 4 -12.6869 -24.1612 -36.7663 37.7477 -1.1703 -11.2634
# 5 8.1152 8.2794 13.7650 -1.1703 32.6568 -5.7064
# 6 31.7483 17.7612 2.4761 -11.2634 -5.7064 31.9041
#
#
#
# Elastic Compliance Matrix: (Units=1/GPa)
#
#
# Indices 1 2 3 4 5 6 
#
# 1 0.112528 -0.046930 -0.036793 -0.061085 -0.021695 -0.108443
# 2 -0.046930 0.043831 0.018677 0.041047 0.000334 0.035401
# 3 -0.036793 0.018677 0.026744 0.036799 0.000972 0.037305
# 4 -0.061085 0.041047 0.036799 0.088181 0.004120 0.066947
# 5 -0.021695 0.000334 0.000972 0.004120 0.040926 0.030103
# 6 -0.108443 0.035401 0.037305 0.066947 0.030103 0.145673
#
#
# Mechanical properties :
#
#
# Convention : Reuss Voigt Hill
#
# Bulk Modulus (GPa) = 18.86350 43.79461 31.32905
# Shear Modulus (GPa) = 8.25566 30.91748 19.58657
#
# Velocity S-wave (km/s) = 1.89439 3.66603 2.91792
# Velocity P-wave (km/s) = 3.60346 6.07925 4.99711
#
# Compressibility (1/GPa) = 0.05301244
#
# Stress axis : x y z
#
# Youngs Moduli (GPa) = 8.88666 22.81491 37.39104
#
# Poissons Ratio (x) = 1.07070 1.37572
# Poissons Ratio (y) = 0.41705 -0.69836
# Poissons Ratio (z) = 0.32696 -0.42612
#
# Static dielectric constant tensor:
#      x y z
#    x 4.346940 -0.364690 0.323970 
#    y -0.364690 5.450780 -1.159820 
#    z 0.323970 -1.159820 4.827610 
# 
# 
# High freq. dielectric constant tensor:
#      x y z
#    x 1.896100 0.018980 -0.002380 
#    y 0.018980 1.888960 -0.024840 
#    z -0.002380 -0.024840 1.916210 
# 
# From -- ./inp_files/154244.got.cif
#   From: 2010.06.25/outbox.cif.g09.slc.cpg/sg2_78_cif.got.tgz:154244.got - 2010.06.27 13:26:56.
