data_PCOD8004113
_publ_section_title
;
Structure prediction by ZEFSAII (Michael W. Deem and Ramdas Pophale) SiO2 
 PCOD8004113
Probable space group: P -1
;
_chemical_formula_sum "Si O2"
_cell_formula_units_Z 16
_cell_length_a 10.181107
_cell_length_b 14.804257
_cell_length_c 11.481565
_cell_angle_alpha 120.205320
_cell_angle_beta 140.700736
_cell_angle_gamma 41.494865
_cell_volume 714.032075
_symmetry_space_group_name_H-M "P -1"
_symmetry_group_IT_number 2
_symmetry_cell_setting 'triclinic'
loop_
_space_group_symop_operation_xyz
x,y,z
-x,-y,-z
loop_
_atom_site_type_symbol
_atom_site_label
_atom_site_fract_x
_atom_site_fract_y
_atom_site_fract_z
Si Si1 0.262687 0.724516 0.795006
Si Si2 0.637152 0.794570 0.885297
Si Si3 0.315132 0.870345 0.120125
Si Si4 0.243148 0.579431 0.091979
Si Si5 0.081977 0.597958 0.733637
Si Si6 0.881038 0.143037 0.453378
Si Si7 0.569598 0.665574 0.352593
Si Si8 0.604676 0.912995 0.175053
O O1 0.361095 0.759877 0.992918
O O2 0.539261 0.583636 0.833564
O O3 0.092204 0.848337 0.662823
O O4 0.071892 0.694354 0.694245
O O5 0.447950 0.760377 0.685916
O O6 0.575385 0.922287 0.857389
O O7 0.551636 0.845272 0.993875
O O8 0.953125 0.654923 0.003864
O O9 0.404461 0.814153 0.275862
O O10 0.498303 0.905364 0.220403
O O11 0.000000 0.000000 0.000000
O O12 0.364823 0.651093 0.265416
O O13 0.203160 0.599600 0.938472
O O14 0.776785 0.650405 0.577776
O O15 0.269401 0.443986 0.712675
O O16 0.062895 0.175908 0.655364
O O17 0.000000 0.000000 0.500000
#
# Coordination Sequence:
#
# PCOD8004113 Si02
#       8
#     2   2   2   2   2   2   2   2
#     4  11  21  41  62  90 125 160 201 258 306 358
#     4  10  22  40  64  86 116 168 203 251 302 355
#     4  12  22  38  64  91 124 163 201 249 311 367
#     4  11  21  39  63  92 127 158 205 250 303 367
#     4  10  20  37  64  88 127 159 197 251 306 365
#     4  10  22  43  63  84 121 162 205 251 304 354
#     4  10  20  38  59  91 124 163 194 247 312 356
#     4  10  22  41  61  84 125 157 205 253 297 359
#
# _framework density 22.407959000000002
#
# number of rings (size 3 to 8) (size 9 to 14) (size 15 to 20)
#    0.000    1.500    3.750    2.250    0.000    1.500 
#    4.500    1.875    0.000    0.000    0.000    0.000 
#    0.000    0.000    0.000    0.000    0.000    0.000 
#
# Total GULP energy -198248.014771 kJ/mol
# GULP energy per Si atom -12390.500923 kJ/mol
# Density = 2.235696 g / cm^3
# Si number density = 22.407959 Si / 1000 Ang^3
#
#
#
# Elastic Constant Matrix: (Units=GPa)
#
#
# Indices 1 2 3 4 5 6 
#
# 1 68.9045 28.7496 20.2046 -13.7491 19.7280 11.0211
# 2 28.7496 50.9517 19.4581 -7.3489 10.0463 8.9471
# 3 20.2046 19.4581 116.3713 -9.4124 33.1996 10.6538
# 4 -13.7491 -7.3489 -9.4124 21.7514 2.8244 -2.7473
# 5 19.7280 10.0463 33.1996 2.8244 49.0007 -12.4307
# 6 11.0211 8.9471 10.6538 -2.7473 -12.4307 23.6402
#
#
#
# Elastic Compliance Matrix: (Units=1/GPa)
#
#
# Indices 1 2 3 4 5 6 
#
# 1 0.029164 -0.008175 0.005535 0.017980 -0.020331 -0.021598
# 2 -0.008175 0.027123 -0.001190 0.003001 -0.003518 -0.007419
# 3 0.005535 -0.001190 0.014954 0.009661 -0.016891 -0.016629
# 4 0.017980 0.003001 0.009661 0.063150 -0.022729 -0.018484
# 5 -0.020331 -0.003518 -0.016891 -0.022729 0.053164 0.043736
# 6 -0.021598 -0.007419 -0.016629 -0.018484 0.043736 0.083521
#
#
# Mechanical properties :
#
#
# Convention : Reuss Voigt Hill
#
# Bulk Modulus (GPa) = 15.72799 41.45023 28.58911
# Shear Modulus (GPa) = 16.67056 30.06614 23.36835
#
# Velocity S-wave (km/s) = 2.73052 3.66698 3.23284
# Velocity P-wave (km/s) = 4.12009 6.03880 5.16925
#
# Compressibility (1/GPa) = 0.06358091
#
# Stress axis : x y z
#
# Youngs Moduli (GPa) = 34.28887 36.86909 66.87254
#
# Poissons Ratio (x) = 0.30141 -0.37016
# Poissons Ratio (y) = 0.28031 0.07959
# Poissons Ratio (z) = -0.18980 0.04388
#
# Static dielectric constant tensor:
#      x y z
#    x 4.058120 0.243050 0.096880 
#    y 0.243050 3.831590 -0.001170 
#    z 0.096880 -0.001170 4.542430 
# 
# 
# High freq. dielectric constant tensor:
#      x y z
#    x 1.871860 0.025590 0.018460 
#    y 0.025590 1.855420 -0.008210 
#    z 0.018460 -0.008210 1.897500 
# 
# From -- ./inp_files/399349.got.cif
#   From: 2010.06.25/outbox.cif.g09.slc.cpg/sg2_200_cif.got.tgz:399349.got - 2010.06.27 13:26:56.
