data_PCOD8004032
_publ_section_title
;
Structure prediction by ZEFSAII (Michael W. Deem and Ramdas Pophale) SiO2 
 PCOD8004032
Probable space group: P -1
;
_chemical_formula_sum "Si O2"
_cell_formula_units_Z 12
_cell_length_a 9.119853
_cell_length_b 9.753216
_cell_length_c 12.302952
_cell_angle_alpha 125.656666
_cell_angle_beta 88.593525
_cell_angle_gamma 55.170882
_cell_volume 616.191466
_symmetry_space_group_name_H-M "P -1"
_symmetry_group_IT_number 2
_symmetry_cell_setting 'triclinic'
loop_
_space_group_symop_operation_xyz
x,y,z
-x,-y,-z
loop_
_atom_site_type_symbol
_atom_site_label
_atom_site_fract_x
_atom_site_fract_y
_atom_site_fract_z
Si Si1 0.502091 0.564744 0.877096
Si Si2 0.924538 0.408494 0.820268
Si Si3 0.704280 0.876089 0.155985
Si Si4 0.996387 0.828374 0.489317
Si Si5 0.402881 0.839582 0.200937
Si Si6 0.462219 0.414187 0.357559
O O1 0.749508 0.404658 0.818603
O O2 0.456334 0.420243 0.862565
O O3 0.445609 0.597031 0.765205
O O4 0.366034 0.817045 0.063870
O O5 0.042192 0.296694 0.650553
O O6 0.098678 0.223820 0.822651
O O7 0.807486 0.685254 0.965830
O O8 0.543271 0.891333 0.233066
O O9 0.569091 0.144445 0.242517
O O10 0.211483 0.612180 0.448401
O O11 0.000000 0.000000 0.500000
O O12 0.819613 0.958931 0.643801
O O13 0.500000 0.500000 0.500000
#
# Coordination Sequence:
#
# PCOD8004032 Si02
#       6
#     2   2   2   2   2   2
#     4   9  20  39  64  83 119 161 194 229 297 359
#     4   9  19  38  61  85 115 164 187 232 294 361
#     4  10  22  37  61  91 119 147 201 246 290 341
#     4  11  20  37  63  84 117 163 196 232 294 358
#     4  10  20  37  63  90 114 153 202 242 281 350
#     4  11  23  39  61  87 118 159 194 242 298 350
#
# _framework density 19.474467000000001
#
# number of rings (size 3 to 8) (size 9 to 14) (size 15 to 20)
#    0.000    2.000    3.333    1.000    0.000    7.333 
#    0.000    0.833    0.000    0.000    0.000    0.000 
#    0.000    0.000    0.000    0.000    0.000    0.000 
#
# Total GULP energy -148662.811437 kJ/mol
# GULP energy per Si atom -12388.567620 kJ/mol
# Density = 1.943014 g / cm^3
# Si number density = 19.474467 Si / 1000 Ang^3
#
#
#
# Elastic Constant Matrix: (Units=GPa)
#
#
# Indices 1 2 3 4 5 6 
#
# 1 52.6563 45.7352 43.8499 -4.7949 8.7748 1.5892
# 2 45.7352 112.0266 62.1951 4.2241 11.9648 -3.5345
# 3 43.8499 62.1951 180.2004 -16.0174 -6.1721 -8.7574
# 4 -4.7949 4.2241 -16.0174 45.9654 -3.1382 0.5409
# 5 8.7748 11.9648 -6.1721 -3.1382 31.4983 -2.0738
# 6 1.5892 -3.5345 -8.7574 0.5409 -2.0738 25.0018
#
#
#
# Elastic Compliance Matrix: (Units=1/GPa)
#
#
# Indices 1 2 3 4 5 6 
#
# 1 0.033776 -0.010711 -0.004812 0.002462 -0.006429 -0.005933
# 2 -0.010711 0.015706 -0.003227 -0.003970 -0.003909 0.001533
# 3 -0.004812 -0.003227 0.008415 0.003013 0.004721 0.003124
# 4 0.002462 -0.003970 0.003013 0.023683 0.003781 0.000139
# 5 -0.006429 -0.003909 0.004721 0.003781 0.036619 0.004465
# 6 -0.005933 0.001533 0.003124 0.000139 0.004465 0.042052
#
#
# Mechanical properties :
#
#
# Convention : Reuss Voigt Hill
#
# Bulk Modulus (GPa) = 49.02425 72.04927 60.53676
# Shear Modulus (GPa) = 24.44369 33.36664 28.90516
#
# Velocity S-wave (km/s) = 3.54668 4.14376 3.85679
# Velocity P-wave (km/s) = 6.48075 7.74412 7.14043
#
# Compressibility (1/GPa) = 0.02039807
#
# Stress axis : x y z
#
# Youngs Moduli (GPa) = 29.60687 63.66874 118.83122
#
# Poissons Ratio (x) = 0.68196 0.57180
# Poissons Ratio (y) = 0.31712 0.38345
# Poissons Ratio (z) = 0.14246 0.20545
#
# Static dielectric constant tensor:
#      x y z
#    x 3.400480 -0.052600 0.085040 
#    y -0.052600 3.385490 -0.137310 
#    z 0.085040 -0.137310 4.272070 
# 
# 
# High freq. dielectric constant tensor:
#      x y z
#    x 1.736870 -0.004940 0.006670 
#    y -0.004940 1.735200 -0.000650 
#    z 0.006670 -0.000650 1.792690 
# 
# From -- ./inp_files/145040.got.cif
#   From: 2010.06.25/outbox.cif.g09.slc.cpg/sg2_73_cif.got.tgz:145040.got - 2010.06.27 13:26:56.
