data_PCOD8004366
_publ_section_title
;
Structure prediction by ZEFSAII (Michael W. Deem and Ramdas Pophale) SiO2 
 PCOD8004366
Probable space group: P -1
;
_chemical_formula_sum "Si O2"
_cell_formula_units_Z 16
_cell_length_a 27.000926
_cell_length_b 11.572127
_cell_length_c 17.926326
_cell_angle_alpha 141.577242
_cell_angle_beta 18.817719
_cell_angle_gamma 150.032979
_cell_volume 878.917801
_symmetry_space_group_name_H-M "P -1"
_symmetry_group_IT_number 2
_symmetry_cell_setting 'triclinic'
loop_
_space_group_symop_operation_xyz
x,y,z
-x,-y,-z
loop_
_atom_site_type_symbol
_atom_site_label
_atom_site_fract_x
_atom_site_fract_y
_atom_site_fract_z
Si Si1 0.693717 0.213812 0.657358
Si Si2 0.350818 0.907412 0.505430
Si Si3 0.373055 0.572444 0.569556
Si Si4 0.053406 0.499932 0.091826
Si Si5 0.475838 0.236526 0.235696
Si Si6 0.625264 0.817769 0.819446
Si Si7 0.137386 0.658545 0.214301
Si Si8 0.270433 0.516284 0.515777
O O1 0.595645 0.089492 0.655074
O O2 0.920105 0.446811 0.446584
O O3 0.671799 0.017230 0.641678
O O4 0.565645 0.284892 0.909974
O O5 0.408348 0.767611 0.401669
O O6 0.117727 0.769071 0.773304
O O7 0.449363 0.162346 0.527275
O O8 0.436806 0.410397 0.412521
O O9 0.316103 0.562571 0.560775
O O10 0.191177 0.482822 0.835217
O O11 0.160767 0.660345 0.092690
O O12 0.957744 0.600395 0.232586
O O13 0.432961 0.194650 0.188823
O O14 0.704138 0.359825 0.984161
O O15 0.691662 0.658251 0.659910
O O16 0.808525 0.089337 0.714318
#
# Coordination Sequence:
#
# PCOD8004366 Si02
#       8
#     2   2   2   2   2   2   2   2
#     4  10  20  38  56  81 112 141 178 225 271 318
#     4   9  21  36  54  83 108 142 181 220 265 321
#     4  11  19  38  60  76 111 150 172 223 279 306
#     4   9  21  36  54  83 108 142 181 220 265 321
#     4  10  23  35  57  84 107 141 186 222 263 328
#     4  10  21  38  56  82 110 141 181 223 269 321
#     4  10  20  38  56  81 112 141 178 225 271 318
#     4   9  21  39  53  84 112 136 187 224 257 329
#
# _framework density 18.204204000000001
#
# number of rings (size 3 to 8) (size 9 to 14) (size 15 to 20)
#    0.750    1.500    0.000    3.750    0.000    6.000 
#    2.250    5.000    0.000    0.000    0.000    0.000 
#    0.000    0.000    0.000    0.000    0.000    0.000 
#
# Total GULP energy -198323.767918 kJ/mol
# GULP energy per Si atom -12395.235495 kJ/mol
# Density = 1.816277 g / cm^3
# Si number density = 18.204204 Si / 1000 Ang^3
#
#
#
# Elastic Constant Matrix: (Units=GPa)
#
#
# Indices 1 2 3 4 5 6 
#
# 1 56.8813 29.0260 26.2444 3.9231 15.4423 16.8885
# 2 29.0260 123.1033 67.1332 10.5212 9.4847 12.1580
# 3 26.2444 67.1332 112.0207 4.9403 14.6329 5.5065
# 4 3.9231 10.5212 4.9403 33.0329 5.3542 2.0752
# 5 15.4423 9.4847 14.6329 5.3542 46.1113 -15.6180
# 6 16.8885 12.1580 5.5065 2.0752 -15.6180 32.5976
#
#
#
# Elastic Compliance Matrix: (Units=1/GPa)
#
#
# Indices 1 2 3 4 5 6 
#
# 1 0.031623 -0.002576 -0.002515 0.001735 -0.017405 -0.023447
# 2 -0.002576 0.012954 -0.006932 -0.002642 -0.000031 -0.002172
# 3 -0.002515 -0.006932 0.013880 0.000730 -0.002046 0.000517
# 4 0.001735 -0.002642 0.000730 0.032005 -0.005596 -0.004756
# 5 -0.017405 -0.000031 -0.002046 -0.005596 0.038338 0.028099
# 6 -0.023447 -0.002172 0.000517 -0.004756 0.028099 0.057313
#
#
# Mechanical properties :
#
#
# Convention : Reuss Voigt Hill
#
# Bulk Modulus (GPa) = 29.06152 59.64585 44.35369
# Shear Modulus (GPa) = 22.56009 33.65514 28.10761
#
# Velocity S-wave (km/s) = 3.52416 4.30438 3.93366
# Velocity P-wave (km/s) = 5.70600 7.58549 6.71186
#
# Compressibility (1/GPa) = 0.03440976
#
# Stress axis : x y z
#
# Youngs Moduli (GPa) = 31.62282 77.19724 72.04454
#
# Poissons Ratio (x) = 0.19887 0.18120
# Poissons Ratio (y) = 0.08147 0.49943
# Poissons Ratio (z) = 0.07954 0.53515
#
# Static dielectric constant tensor:
#      x y z
#    x 3.442960 0.060930 0.022460 
#    y 0.060930 0.475100 3.067240 
#    z 0.022460 3.067240 0.144270 
# 
# 
# High freq. dielectric constant tensor:
#      x y z
#    x 1.719370 0.009500 0.006260 
#    y 0.009500 1.704730 0.002580 
#    z 0.006260 0.002580 1.702680 
# 
# From -- ./inp_files/579772.got.cif
#   From: 2010.06.25/outbox.cif.g09.slc.cpg/sg2_290_cif.got.tgz:579772.got - 2010.06.27 13:26:56.
