data_PCOD8004534
_publ_section_title
;
Structure prediction by ZEFSAII (Michael W. Deem and Ramdas Pophale) SiO2 
 PCOD8004534
Probable space group: P -1
;
_chemical_formula_sum "Si O2"
_cell_formula_units_Z 16
_cell_length_a 8.714934
_cell_length_b 15.485036
_cell_length_c 14.096566
_cell_angle_alpha 38.718750
_cell_angle_beta 117.733558
_cell_angle_gamma 90.075997
_cell_volume 797.282464
_symmetry_space_group_name_H-M "P -1"
_symmetry_group_IT_number 2
_symmetry_cell_setting 'triclinic'
loop_
_space_group_symop_operation_xyz
x,y,z
-x,-y,-z
loop_
_atom_site_type_symbol
_atom_site_label
_atom_site_fract_x
_atom_site_fract_y
_atom_site_fract_z
Si Si1 0.066864 0.542412 0.267533
Si Si2 0.182029 0.392999 0.227848
Si Si3 0.967944 0.808652 0.592598
Si Si4 0.775100 0.192536 0.162363
Si Si5 0.446133 0.683912 0.353167
Si Si6 0.332536 0.753556 0.477402
Si Si7 0.267998 0.519030 0.768327
Si Si8 0.083966 0.838492 0.974944
O O1 0.070226 0.529341 0.166588
O O2 0.307614 0.367274 0.534288
O O3 0.874420 0.541452 0.255428
O O4 0.022067 0.729713 0.107935
O O5 0.429023 0.331486 0.327964
O O6 0.218336 0.213068 0.419987
O O7 0.000000 0.500000 0.000000
O O8 0.054817 0.816352 0.711974
O O9 0.173261 0.635386 0.738354
O O10 0.844429 0.995850 0.340043
O O11 0.790069 0.255591 0.008907
O O12 0.525494 0.333312 0.016211
O O13 0.500000 0.500000 0.500000
O O14 0.343227 0.756463 0.365402
O O15 0.261421 0.835686 0.093627
O O16 0.257869 0.637960 0.581067
O O17 0.144858 0.958190 0.285645
#
# Coordination Sequence:
#
# PCOD8004534 Si02
#       8
#     2   2   2   2   2   2   2   2
#     4   9  21  37  60  86 117 154 203 242 296 358
#     4  10  20  38  60  82 120 159 201 239 297 351
#     4  10  22  39  57  89 121 157 203 243 294 356
#     4  11  22  38  61  86 123 159 198 247 298 349
#     4   9  19  40  63  83 115 159 199 247 295 356
#     4  11  22  37  63  89 120 155 202 246 297 358
#     4  11  21  39  61  88 123 156 198 246 303 346
#     4  11  21  40  60  89 119 157 204 242 299 354
#
# _framework density 20.068169000000001
#
# number of rings (size 3 to 8) (size 9 to 14) (size 15 to 20)
#    0.000    1.750    1.250    4.500    1.750    1.000 
#    0.000    7.500    0.000    0.000    0.000    0.000 
#    0.000    0.000    0.000    0.000    0.000    0.000 
#
# Total GULP energy -198346.877919 kJ/mol
# GULP energy per Si atom -12396.679870 kJ/mol
# Density = 2.002249 g / cm^3
# Si number density = 20.068169 Si / 1000 Ang^3
#
#
#
# Elastic Constant Matrix: (Units=GPa)
#
#
# Indices 1 2 3 4 5 6 
#
# 1 119.2634 22.4830 44.1289 -1.6787 -2.0705 19.3398
# 2 22.4830 70.0403 30.2250 5.4130 4.5084 2.0218
# 3 44.1289 30.2250 100.7342 2.1947 9.1113 6.9618
# 4 -1.6787 5.4130 2.1947 37.6594 -0.0945 -0.2286
# 5 -2.0705 4.5084 9.1113 -0.0945 25.1376 -4.3603
# 6 19.3398 2.0218 6.9618 -0.2286 -4.3603 27.5171
#
#
#
# Elastic Compliance Matrix: (Units=1/GPa)
#
#
# Indices 1 2 3 4 5 6 
#
# 1 0.011370 -0.001855 -0.004142 0.000979 0.001640 -0.006539
# 2 -0.001855 0.016905 -0.004128 -0.002271 -0.001551 0.000841
# 3 -0.004142 -0.004128 0.013474 -0.000394 -0.004648 -0.000934
# 4 0.000979 -0.002271 -0.000394 0.026948 0.000717 -0.000084
# 5 0.001640 -0.001551 -0.004648 0.000717 0.043091 0.006971
# 6 -0.006539 0.000841 -0.000934 -0.000084 0.006971 0.042215
#
#
# Mechanical properties :
#
#
# Convention : Reuss Voigt Hill
#
# Bulk Modulus (GPa) = 46.51405 53.74574 50.12990
# Shear Modulus (GPa) = 27.56045 30.94288 29.25167
#
# Velocity S-wave (km/s) = 3.70988 3.93095 3.82201
# Velocity P-wave (km/s) = 6.44820 6.88788 6.67166
#
# Compressibility (1/GPa) = 0.02149888
#
# Stress axis : x y z
#
# Youngs Moduli (GPa) = 87.95388 59.15261 74.21784
#
# Poissons Ratio (x) = 0.10971 0.30741
# Poissons Ratio (y) = 0.16313 0.30639
# Poissons Ratio (z) = 0.36430 0.24420
#
# Static dielectric constant tensor:
#      x y z
#    x 3.831810 0.282870 0.094950 
#    y 0.282870 3.897110 0.194900 
#    z 0.094950 0.194900 3.790130 
# 
# 
# High freq. dielectric constant tensor:
#      x y z
#    x 1.778210 0.008750 0.003380 
#    y 0.008750 1.784230 -0.000530 
#    z 0.003380 -0.000530 1.779060 
# 
# From -- ./inp_files/169760.got.cif
#   From: 2010.06.25/outbox.cif.g09.slc.cpg/sg2_85_cif.got.tgz:169760.got - 2010.06.27 13:26:56.
