data_PCOD8004437
_publ_section_title
;
Structure prediction by ZEFSAII (Michael W. Deem and Ramdas Pophale) SiO2 
 PCOD8004437
Probable space group: P -1
;
_chemical_formula_sum "Si O2"
_cell_formula_units_Z 16
_cell_length_a 8.610985
_cell_length_b 9.740413
_cell_length_c 12.517931
_cell_angle_alpha 94.199123
_cell_angle_beta 58.150451
_cell_angle_gamma 115.245044
_cell_volume 790.766392
_symmetry_space_group_name_H-M "P -1"
_symmetry_group_IT_number 2
_symmetry_cell_setting 'triclinic'
loop_
_space_group_symop_operation_xyz
x,y,z
-x,-y,-z
loop_
_atom_site_type_symbol
_atom_site_label
_atom_site_fract_x
_atom_site_fract_y
_atom_site_fract_z
Si Si1 0.047320 0.736307 0.714275
Si Si2 0.545516 0.195308 0.735699
Si Si3 0.884343 0.091227 0.092873
Si Si4 0.467772 0.826790 0.502195
Si Si5 0.089862 0.009267 0.583898
Si Si6 0.689362 0.212412 0.016495
Si Si7 0.278840 0.964683 0.204704
Si Si8 0.651214 0.440819 0.890029
O O1 0.006070 0.820442 0.834821
O O2 0.262701 0.722461 0.641432
O O3 0.850679 0.571249 0.766129
O O4 0.077331 0.842385 0.605007
O O5 0.570334 0.251050 0.606916
O O6 0.722717 0.148176 0.704433
O O7 0.534393 0.318032 0.830810
O O8 0.341952 0.035930 0.806388
O O9 0.872097 0.223615 0.029420
O O10 0.000000 0.000000 0.000000
O O11 0.680911 0.844900 0.478476
O O12 0.500000 0.000000 0.500000
O O13 0.939496 0.035873 0.721375
O O14 0.000000 0.000000 0.500000
O O15 0.468820 0.139237 0.154576
O O16 0.685253 0.094595 0.922921
O O17 0.730431 0.373646 0.955814
O O18 0.500000 0.500000 0.000000
#
# Coordination Sequence:
#
# PCOD8004437 Si02
#       8
#     2   2   2   2   2   2   2   2
#     4  11  23  38  60  89 127 159 201 255 311 372
#     4  10  20  38  64  84 124 159 200 257 301 368
#     4  11  20  35  64  93 117 160 208 257 306 354
#     4  10  20  38  58  91 114 155 204 258 311 352
#     4  11  21  34  64  89 116 151 208 265 307 357
#     4   9  20  33  59  85 123 157 201 250 300 363
#     4   9  17  34  55  91 113 148 204 254 297 351
#     4  11  23  41  59  91 129 170 203 242 311 378
#
# _framework density 20.233537999999999
#
# number of rings (size 3 to 8) (size 9 to 14) (size 15 to 20)
#    0.000    1.750    2.500    4.500    1.750    1.000 
#    0.000    0.000    0.000    3.750    0.000    0.000 
#    0.000    0.000    0.000    0.000    0.000    0.000 
#
# Total GULP energy -198243.684463 kJ/mol
# GULP energy per Si atom -12390.230279 kJ/mol
# Density = 2.018749 g / cm^3
# Si number density = 20.233538 Si / 1000 Ang^3
#
#
#
# Elastic Constant Matrix: (Units=GPa)
#
#
# Indices 1 2 3 4 5 6 
#
# 1 86.1197 6.8980 36.8027 0.6299 -3.0521 -3.2518
# 2 6.8980 54.7899 17.4539 0.1806 5.8922 -1.1811
# 3 36.8027 17.4539 85.3144 0.8315 -1.9962 -1.6433
# 4 0.6299 0.1806 0.8315 29.2329 5.6860 -0.8429
# 5 -3.0521 5.8922 -1.9962 5.6860 47.5595 2.4929
# 6 -3.2518 -1.1811 -1.6433 -0.8429 2.4929 25.6528
#
#
#
# Elastic Compliance Matrix: (Units=1/GPa)
#
#
# Indices 1 2 3 4 5 6 
#
# 1 0.014306 0.000125 -0.006155 -0.000211 0.000598 0.001360
# 2 0.000125 0.019879 -0.004172 0.000555 -0.002746 0.000949
# 3 -0.006155 -0.004172 0.015252 -0.000437 0.000819 -0.000089
# 4 -0.000211 0.000555 -0.000437 0.035118 -0.004380 0.001550
# 5 0.000598 -0.002746 0.000819 -0.004380 0.022083 -0.002288
# 6 0.001360 0.000949 -0.000089 0.001550 -0.002288 0.039466
#
#
# Mechanical properties :
#
#
# Convention : Reuss Voigt Hill
#
# Bulk Modulus (GPa) = 34.44359 38.72592 36.58475
# Shear Modulus (GPa) = 28.37935 31.49367 29.93651
#
# Velocity S-wave (km/s) = 3.74918 3.94954 3.85066
# Velocity P-wave (km/s) = 5.98346 6.32294 6.15554
#
# Compressibility (1/GPa) = 0.02903298
#
# Stress axis : x y z
#
# Youngs Moduli (GPa) = 69.90099 50.30479 65.56683
#
# Poissons Ratio (x) = -0.00630 0.40354
# Poissons Ratio (y) = -0.00875 0.27356
# Poissons Ratio (z) = 0.43021 0.20989
#
# Static dielectric constant tensor:
#      x y z
#    x 4.487780 0.107610 -0.176170 
#    y 0.107610 3.350940 0.009430 
#    z -0.176170 0.009430 4.010150 
# 
# 
# High freq. dielectric constant tensor:
#      x y z
#    x 1.797130 0.004870 -0.005560 
#    y 0.004870 1.745980 0.006940 
#    z -0.005560 0.006940 1.798330 
# 
# From -- ./inp_files/271413.got.cif
#   From: 2010.06.25/outbox.cif.g09.slc.cpg/sg2_136_cif.got.tgz:271413.got - 2010.06.27 13:26:56.
