data_PCOD8004644
_publ_section_title
;
Structure prediction by ZEFSAII (Michael W. Deem and Ramdas Pophale) SiO2 
 PCOD8004644
Probable space group: P -1
;
_chemical_formula_sum "Si O2"
_cell_formula_units_Z 16
_cell_length_a 15.178251
_cell_length_b 7.498584
_cell_length_c 9.359768
_cell_angle_alpha 68.048061
_cell_angle_beta 100.589355
_cell_angle_gamma 65.889163
_cell_volume 827.555989
_symmetry_space_group_name_H-M "P -1"
_symmetry_group_IT_number 2
_symmetry_cell_setting 'triclinic'
loop_
_space_group_symop_operation_xyz
x,y,z
-x,-y,-z
loop_
_atom_site_type_symbol
_atom_site_label
_atom_site_fract_x
_atom_site_fract_y
_atom_site_fract_z
Si Si1 0.728974 0.082303 0.491918
Si Si2 0.593471 0.031641 0.968661
Si Si3 0.781794 0.823848 0.296598
Si Si4 0.544777 0.527956 0.359017
Si Si5 0.861207 0.340765 0.868411
Si Si6 0.092345 0.142865 0.917174
Si Si7 0.244693 0.554411 0.492238
Si Si8 0.241174 0.209588 0.142944
O O1 0.780986 0.936768 0.411245
O O2 0.725390 0.923525 0.658950
O O3 0.607829 0.285868 0.368556
O O4 0.795980 0.196600 0.527067
O O5 0.546041 0.288438 0.825124
O O6 0.657966 0.866299 0.905406
O O7 0.500000 0.000000 0.000000
O O8 0.671815 0.986733 0.135252
O O9 0.879537 0.790985 0.244606
O O10 0.803943 0.572887 0.401997
O O11 0.500000 0.500000 0.500000
O O12 0.628480 0.601518 0.404580
O O13 0.781067 0.418302 0.690329
O O14 0.811145 0.525534 0.923070
O O15 0.969440 0.315422 0.855170
O O16 0.881372 0.111177 0.011449
O O17 0.157840 0.163050 0.058041
#
# Coordination Sequence:
#
# PCOD8004644 Si02
#       8
#     2   2   2   2   2   2   2   2
#     4  10  21  39  61  88 123 163 204 242 293 370
#     4  11  21  39  59  92 125 156 200 255 293 350
#     4  11  23  40  62  91 124 160 200 254 310 351
#     4  10  20  38  61  84 125 164 198 248 295 349
#     4  11  22  42  67  90 116 163 205 249 311 363
#     4  10  24  41  64  93 123 149 205 263 303 357
#     4  10  21  39  62  85 128 157 200 256 292 362
#     4  11  21  40  67  87 122 164 202 245 303 368
#
# _framework density 19.334038
#
# number of rings (size 3 to 8) (size 9 to 14) (size 15 to 20)
#    0.750    0.750    5.000    0.375    1.750    4.000 
#    2.250    2.500    0.000    0.000    0.000    0.000 
#    0.000    0.000    0.000    0.000    0.000    0.000 
#
# Total GULP energy -198361.965173 kJ/mol
# GULP energy per Si atom -12397.622823 kJ/mol
# Density = 1.929003 g / cm^3
# Si number density = 19.334038 Si / 1000 Ang^3
#
#
#
# Elastic Constant Matrix: (Units=GPa)
#
#
# Indices 1 2 3 4 5 6 
#
# 1 90.9530 43.0743 16.9755 12.5305 -18.3837 -2.3617
# 2 43.0743 125.1780 32.2085 7.9904 -10.1831 0.5821
# 3 16.9755 32.2085 64.1209 7.3979 -17.8884 -0.9659
# 4 12.5305 7.9904 7.3979 30.8982 -1.5899 -4.0656
# 5 -18.3837 -10.1831 -17.8884 -1.5899 34.8285 -3.8016
# 6 -2.3617 0.5821 -0.9659 -4.0656 -3.8016 22.4142
#
#
#
# Elastic Compliance Matrix: (Units=1/GPa)
#
#
# Indices 1 2 3 4 5 6 
#
# 1 0.015107 -0.004555 0.000817 -0.004499 0.007090 0.002132
# 2 -0.004555 0.010612 -0.004649 -0.000046 -0.001831 -0.001275
# 3 0.000817 -0.004649 0.020891 -0.003335 0.009887 0.002179
# 4 -0.004499 -0.000046 -0.003335 0.035631 -0.001871 0.005529
# 5 0.007090 -0.001831 0.009887 -0.001871 0.037706 0.007276
# 6 0.002132 -0.001275 0.002179 0.005529 0.007276 0.047203
#
#
# Mechanical properties :
#
#
# Convention : Reuss Voigt Hill
#
# Bulk Modulus (GPa) = 33.51584 51.64094 42.57839
# Shear Modulus (GPa) = 25.79058 30.16107 27.97583
#
# Velocity S-wave (km/s) = 3.65629 3.95397 3.80804
# Velocity P-wave (km/s) = 5.93274 6.90022 6.43468
#
# Compressibility (1/GPa) = 0.02983664
#
# Stress axis : x y z
#
# Youngs Moduli (GPa) = 66.19266 94.23128 47.86852
#
# Poissons Ratio (x) = 0.42921 -0.03913
# Poissons Ratio (y) = 0.30150 0.22256
# Poissons Ratio (z) = -0.05411 0.43811
#
# Static dielectric constant tensor:
#      x y z
#    x 3.551530 -0.020410 0.003720 
#    y -0.020410 3.530350 -0.162460 
#    z 0.003720 -0.162460 3.695520 
# 
# 
# High freq. dielectric constant tensor:
#      x y z
#    x 1.747980 0.000820 -0.008080 
#    y 0.000820 1.744450 -0.006600 
#    z -0.008080 -0.006600 1.760380 
# 
# From -- ./inp_files/208186.got.cif
#   From: 2010.06.25/outbox.cif.g09.slc.cpg/sg2_105_cif.got.tgz:208186.got - 2010.06.27 13:26:56.
