data_PCOD8004712
_publ_section_title
;
Structure prediction by ZEFSAII (Michael W. Deem and Ramdas Pophale) SiO2 
 PCOD8004712
Probable space group: P -1
;
_chemical_formula_sum "Si O2"
_cell_formula_units_Z 16
_cell_length_a 9.183175
_cell_length_b 17.806188
_cell_length_c 11.121597
_cell_angle_alpha 132.074225
_cell_angle_beta 124.519648
_cell_angle_gamma 36.998344
_cell_volume 810.326142
_symmetry_space_group_name_H-M "P -1"
_symmetry_group_IT_number 2
_symmetry_cell_setting 'triclinic'
loop_
_space_group_symop_operation_xyz
x,y,z
-x,-y,-z
loop_
_atom_site_type_symbol
_atom_site_label
_atom_site_fract_x
_atom_site_fract_y
_atom_site_fract_z
Si Si1 0.244804 0.178735 0.816985
Si Si2 0.573371 0.220116 0.253666
Si Si3 0.274739 0.474480 0.222601
Si Si4 0.100918 0.295651 0.142991
Si Si5 0.752631 0.630223 0.137642
Si Si6 0.575147 0.569964 0.181677
Si Si7 0.333962 0.026008 0.056365
Si Si8 0.225065 0.715468 0.395360
O O1 0.312749 0.241701 0.824730
O O2 0.054142 0.177551 0.665003
O O3 0.504715 0.023647 0.799736
O O4 0.125922 0.267233 0.979983
O O5 0.500004 0.332033 0.239323
O O6 0.330725 0.274821 0.265619
O O7 0.750231 0.199803 0.412664
O O8 0.721970 0.071175 0.097047
O O9 0.299089 0.585768 0.364456
O O10 0.019353 0.534346 0.221460
O O11 0.257867 0.459305 0.056072
O O12 0.101934 0.191139 0.113751
O O13 0.851384 0.446790 0.222979
O O14 0.565377 0.673143 0.201434
O O15 0.402265 0.662002 0.309335
O O16 0.500000 0.500000 0.000000
O O17 0.500000 0.000000 0.000000
#
# Coordination Sequence:
#
# PCOD8004712 Si02
#       8
#     2   2   2   2   2   2   2   2
#     4   9  16  33  54  75  96 129 184 205 248 291
#     4  10  18  33  50  78 108 128 171 215 256 299
#     4  10  16  30  50  74 104 132 172 209 253 297
#     4  10  18  35  53  76 101 139 176 207 248 303
#     4  10  16  29  53  73  97 138 172 210 240 304
#     4  12  20  31  51  78 112 131 166 207 257 318
#     4   8  17  32  56  76  94 136 179 219 234 292
#     4  11  22  28  50  85 110 132 153 217 273 298
#
# _framework density 19.745137
#
# number of rings (size 3 to 8) (size 9 to 14) (size 15 to 20)
#    0.000    2.250    6.250    1.125    0.000    0.500 
#    0.000    5.625    0.000    3.000    0.000    7.875 
#    0.000    0.000    0.000    0.000    0.000    0.000 
#
# Total GULP energy -198235.227342 kJ/mol
# GULP energy per Si atom -12389.701709 kJ/mol
# Density = 1.970020 g / cm^3
# Si number density = 19.745137 Si / 1000 Ang^3
#
#
#
# Elastic Constant Matrix: (Units=GPa)
#
#
# Indices 1 2 3 4 5 6 
#
# 1 87.0064 41.2437 35.8908 -8.4588 7.8847 12.0783
# 2 41.2437 101.3090 35.6086 -12.5382 8.0148 24.9186
# 3 35.8908 35.6086 79.1189 -23.1925 24.3123 1.7898
# 4 -8.4588 -12.5382 -23.1925 21.5522 -5.5240 2.4816
# 5 7.8847 8.0148 24.3123 -5.5240 22.9748 -2.5809
# 6 12.0783 24.9186 1.7898 2.4816 -2.5809 23.5186
#
#
#
# Elastic Compliance Matrix: (Units=1/GPa)
#
#
# Indices 1 2 3 4 5 6 
#
# 1 0.016179 -0.003828 -0.006901 -0.002379 0.002150 -0.003240
# 2 -0.003828 0.017978 -0.003419 0.006889 -0.001675 -0.017732
# 3 -0.006901 -0.003419 0.031547 0.023056 -0.024316 -0.000335
# 4 -0.002379 0.006889 0.023056 0.073603 -0.010166 -0.016714
# 5 0.002150 -0.001675 -0.024316 -0.010166 0.067901 0.011045
# 6 -0.003240 -0.017732 -0.000335 -0.016714 0.011045 0.065973
#
#
# Mechanical properties :
#
#
# Convention : Reuss Voigt Hill
#
# Bulk Modulus (GPa) = 26.73341 54.76893 40.75117
# Shear Modulus (GPa) = 15.92634 23.92188 19.92411
#
# Velocity S-wave (km/s) = 2.84314 3.48448 3.18002
# Velocity P-wave (km/s) = 4.93423 6.63227 5.84524
#
# Compressibility (1/GPa) = 0.03740638
#
# Stress axis : x y z
#
# Youngs Moduli (GPa) = 61.81039 55.62385 31.69899
#
# Poissons Ratio (x) = 0.21295 0.21875
# Poissons Ratio (y) = 0.23664 0.10838
# Poissons Ratio (z) = 0.42654 0.19019
#
# Static dielectric constant tensor:
#      x y z
#    x 3.594640 0.372470 0.316120 
#    y 0.372470 4.498460 0.035100 
#    z 0.316120 0.035100 3.307560 
# 
# 
# High freq. dielectric constant tensor:
#      x y z
#    x 1.756850 0.025910 0.029120 
#    y 0.025910 1.768750 -0.021540 
#    z 0.029120 -0.021540 1.725790 
# 
# From -- ./inp_files/402237.got.cif
#   From: 2010.06.25/outbox.cif.g09.slc.cpg/sg2_202_cif.got.tgz:402237.got - 2010.06.27 13:26:56.
