data_PCOD8004341
_publ_section_title
;
Structure prediction by ZEFSAII (Michael W. Deem and Ramdas Pophale) SiO2 
 PCOD8004341
Probable space group: P -1
;
_chemical_formula_sum "Si O2"
_cell_formula_units_Z 16
_cell_length_a 12.164637
_cell_length_b 12.165241
_cell_length_c 8.605034
_cell_angle_alpha 123.526786
_cell_angle_beta 64.089127
_cell_angle_gamma 72.528766
_cell_volume 660.381478
_symmetry_space_group_name_H-M "P -1"
_symmetry_group_IT_number 2
_symmetry_cell_setting 'triclinic'
loop_
_space_group_symop_operation_xyz
x,y,z
-x,-y,-z
loop_
_atom_site_type_symbol
_atom_site_label
_atom_site_fract_x
_atom_site_fract_y
_atom_site_fract_z
Si Si1 0.295682 0.007955 0.712264
Si Si2 0.042413 0.823565 0.781123
Si Si3 0.179564 0.539554 0.970818
Si Si4 0.352654 0.508035 0.555155
Si Si5 0.351021 0.148975 0.500046
Si Si6 0.431345 0.849549 0.029176
Si Si7 0.047188 0.092136 0.444811
Si Si8 0.488416 0.355257 0.866802
O O1 0.459410 0.931986 0.652709
O O2 0.342680 0.822841 0.480143
O O3 0.279189 0.112206 0.652848
O O4 0.114648 0.150013 0.035382
O O5 0.235467 0.633975 0.575853
O O6 0.058006 0.811394 0.575951
O O7 0.000000 0.000000 0.000000
O O8 0.807132 0.618957 0.230893
O O9 0.989789 0.742805 0.305063
O O10 0.228142 0.602668 0.854193
O O11 0.310412 0.452538 0.966780
O O12 0.500000 0.500000 0.500000
O O13 0.437703 0.294897 0.305041
O O14 0.388072 0.038006 0.230924
O O15 0.514393 0.722747 0.033185
O O16 0.251616 0.917533 0.145798
O O17 0.000000 0.000000 0.500000
O O18 0.500000 0.500000 0.000000
#
# Coordination Sequence:
#
# PCOD8004341 Si02
#       8
#     2   2   2   2   2   2   2   2
#     4   9  22  43  70 108 138 190 237 299 352 428
#     4  12  28  44  73 103 153 180 236 303 367 420
#     4  11  25  43  71 100 142 191 238 292 356 426
#     4  12  27  46  69 111 144 184 241 299 363 424
#     4   9  22  46  74  97 148 188 246 281 360 431
#     4  11  25  43  71 100 142 191 238 292 356 426
#     4  12  27  46  69 111 144 184 241 299 363 424
#     4  10  20  37  70  99 134 179 232 288 361 418
#
# _framework density 24.228418999999999
#
# number of rings (size 3 to 8) (size 9 to 14) (size 15 to 20)
#    0.000    1.250    0.000    5.250   17.500    1.000 
#    0.000    1.250    0.000    0.000    0.000    0.000 
#    0.000    0.000    0.000    0.000    0.000    0.000 
#
# Total GULP energy -198301.347229 kJ/mol
# GULP energy per Si atom -12393.834202 kJ/mol
# Density = 2.417327 g / cm^3
# Si number density = 24.228419 Si / 1000 Ang^3
#
#
#
# Elastic Constant Matrix: (Units=GPa)
#
#
# Indices 1 2 3 4 5 6 
#
# 1 88.3939 29.8262 34.3835 6.1433 21.2261 11.3050
# 2 29.8262 86.5085 29.1230 8.5159 1.6408 -10.1798
# 3 34.3835 29.1230 131.5355 11.9243 19.4488 5.6064
# 4 6.1433 8.5159 11.9243 33.7528 8.6887 10.9083
# 5 21.2261 1.6408 19.4488 8.6887 42.0587 12.2418
# 6 11.3050 -10.1798 5.6064 10.9083 12.2418 47.4739
#
#
#
# Elastic Compliance Matrix: (Units=1/GPa)
#
#
# Indices 1 2 3 4 5 6 
#
# 1 0.015640 -0.005172 -0.002061 0.001875 -0.006124 -0.003442
# 2 -0.005172 0.015053 -0.002163 -0.004366 0.002444 0.005088
# 3 -0.002061 -0.002163 0.009179 -0.001613 -0.002797 0.000035
# 4 0.001875 -0.004366 -0.001613 0.034780 -0.004911 -0.007917
# 5 -0.006124 0.002444 -0.002797 -0.004911 0.030356 -0.004387
# 6 -0.003442 0.005088 0.000035 -0.007917 -0.004387 0.025921
#
#
# Mechanical properties :
#
#
# Convention : Reuss Voigt Hill
#
# Bulk Modulus (GPa) = 47.44052 54.78925 51.11489
# Shear Modulus (GPa) = 31.89821 38.86411 35.38116
#
# Velocity S-wave (km/s) = 3.63238 4.00943 3.82555
# Velocity P-wave (km/s) = 6.10043 6.64054 6.37621
#
# Compressibility (1/GPa) = 0.02107903
#
# Stress axis : x y z
#
# Youngs Moduli (GPa) = 63.93741 66.43123 108.94999
#
# Poissons Ratio (x) = 0.34358 0.22455
# Poissons Ratio (y) = 0.33068 0.23570
# Poissons Ratio (z) = 0.13178 0.14372
#
# Static dielectric constant tensor:
#      x y z
#    x 4.371440 0.168840 0.332930 
#    y 0.168840 4.210370 0.206470 
#    z 0.332930 0.206470 4.827690 
# 
# 
# High freq. dielectric constant tensor:
#      x y z
#    x 1.958810 -0.004280 0.015700 
#    y -0.004280 1.962240 0.010050 
#    z 0.015700 0.010050 1.973590 
# 
# From -- ./inp_files/274032.got.cif
#   From: 2010.06.25/outbox.cif.g09.slc.cpg/sg2_138_cif.got.tgz:274032.got - 2010.06.27 13:26:56.
