data_PCOD8004929
_publ_section_title
;
Structure prediction by ZEFSAII (Michael W. Deem and Ramdas Pophale) SiO2 
 PCOD8004929
Probable space group: P -1
;
_chemical_formula_sum "Si O2"
_cell_formula_units_Z 16
_cell_length_a 8.747654
_cell_length_b 14.133061
_cell_length_c 11.464754
_cell_angle_alpha 117.554125
_cell_angle_beta 78.706600
_cell_angle_gamma 142.053186
_cell_volume 734.695825
_symmetry_space_group_name_H-M "P -1"
_symmetry_group_IT_number 2
_symmetry_cell_setting 'triclinic'
loop_
_space_group_symop_operation_xyz
x,y,z
-x,-y,-z
loop_
_atom_site_type_symbol
_atom_site_label
_atom_site_fract_x
_atom_site_fract_y
_atom_site_fract_z
Si Si1 0.277333 0.740134 0.941735
Si Si2 0.581715 0.739793 0.033759
Si Si3 0.548588 0.528537 0.786385
Si Si4 0.716503 0.400050 0.776112
Si Si5 0.778485 0.663766 0.484588
Si Si6 0.615560 0.086148 0.207611
Si Si7 0.978514 0.877517 0.783415
Si Si8 0.703929 0.185205 0.505064
O O1 0.314361 0.786279 0.825667
O O2 0.979833 0.542487 0.893386
O O3 0.447640 0.731964 0.945877
O O4 0.344606 0.880046 0.091716
O O5 0.507317 0.738783 0.173749
O O6 0.500927 0.570005 0.936173
O O7 0.894872 0.937993 0.098497
O O8 0.703187 0.505722 0.772461
O O9 0.287325 0.354592 0.652803
O O10 0.711830 0.709593 0.796357
O O11 0.698447 0.299499 0.624818
O O12 0.500000 0.500000 0.500000
O O13 0.922724 0.840777 0.630569
O O14 0.991057 0.684242 0.468657
O O15 0.589287 0.131211 0.360661
O O16 0.829549 0.111352 0.198737
O O17 0.500000 0.000000 0.500000
#
# Coordination Sequence:
#
# PCOD8004929 Si02
#       8
#     2   2   2   2   2   2   2   2
#     4  10  20  38  63  91 124 161 213 268 321 382
#     4  11  23  39  62  88 126 173 213 266 331 380
#     4  11  22  40  60  92 124 170 218 268 321 387
#     4  12  24  40  62  95 131 164 219 277 318 384
#     4   9  20  40  66  91 127 169 212 262 319 393
#     4   9  19  38  63  93 126 158 212 272 318 378
#     4   9  18  40  62  86 122 164 212 261 320 391
#     4  11  23  43  68  97 133 174 213 266 336 387
#
# _framework density 21.777718
#
# number of rings (size 3 to 8) (size 9 to 14) (size 15 to 20)
#    0.000    1.750    1.250    4.125    0.000    1.500 
#    6.750    2.500    0.000    0.000    0.000    0.000 
#    0.000    0.000    0.000    0.000    0.000    0.000 
#
# Total GULP energy -198229.257070 kJ/mol
# GULP energy per Si atom -12389.328567 kJ/mol
# Density = 2.172815 g / cm^3
# Si number density = 21.777718 Si / 1000 Ang^3
#
#
#
# Elastic Constant Matrix: (Units=GPa)
#
#
# Indices 1 2 3 4 5 6 
#
# 1 76.2696 29.2640 70.2461 9.3023 -5.8280 0.4081
# 2 29.2640 75.6399 35.6336 2.2617 2.4322 6.3383
# 3 70.2461 35.6336 157.0221 0.8769 9.2149 -1.4319
# 4 9.3023 2.2617 0.8769 33.6146 3.3612 -0.5947
# 5 -5.8280 2.4322 9.2149 3.3612 35.2960 1.1580
# 6 0.4081 6.3383 -1.4319 -0.5947 1.1580 23.6940
#
#
#
# Elastic Compliance Matrix: (Units=1/GPa)
#
#
# Indices 1 2 3 4 5 6 
#
# 1 0.027297 -0.005150 -0.011509 -0.007776 0.008621 -0.000405
# 2 -0.005150 0.016232 -0.001332 0.000445 -0.001524 -0.004248
# 3 -0.011509 -0.001332 0.012130 0.003524 -0.005365 0.001638
# 4 -0.007776 0.000445 0.003524 0.032338 -0.005357 0.001301
# 5 0.008621 -0.001524 -0.005365 -0.005357 0.031829 -0.001755
# 6 -0.000405 -0.004248 0.001638 0.001301 -0.001755 0.043566
#
#
# Mechanical properties :
#
#
# Convention : Reuss Voigt Hill
#
# Bulk Modulus (GPa) = 50.81939 64.35764 57.58852
# Shear Modulus (GPa) = 24.28010 30.10677 27.19344
#
# Velocity S-wave (km/s) = 3.34264 3.72218 3.53750
# Velocity P-wave (km/s) = 6.18739 6.93462 6.57164
#
# Compressibility (1/GPa) = 0.01967753
#
# Stress axis : x y z
#
# Youngs Moduli (GPa) = 36.63438 61.60739 82.44305
#
# Poissons Ratio (x) = 0.31725 0.94885
# Poissons Ratio (y) = 0.18865 0.10978
# Poissons Ratio (z) = 0.42163 0.08204
#
# Static dielectric constant tensor:
#      x y z
#    x 3.721050 0.163350 0.183600 
#    y 0.163350 3.848520 0.123340 
#    z 0.183600 0.123340 4.505780 
# 
# 
# High freq. dielectric constant tensor:
#      x y z
#    x 1.833240 0.009820 0.011250 
#    y 0.009820 1.841170 0.005070 
#    z 0.011250 0.005070 1.884040 
# 
# From -- ./inp_files/399610.got.cif
#   From: 2010.06.25/outbox.cif.g09.slc.cpg/sg2_200_cif.got.tgz:399610.got - 2010.06.27 13:26:56.
