data_PCOD8004414
_publ_section_title
;
Structure prediction by ZEFSAII (Michael W. Deem and Ramdas Pophale) SiO2 
 PCOD8004414
Probable space group: P -1
;
_chemical_formula_sum "Si O2"
_cell_formula_units_Z 16
_cell_length_a 15.130948
_cell_length_b 14.846418
_cell_length_c 14.183014
_cell_angle_alpha 30.212900
_cell_angle_beta 152.086382
_cell_angle_gamma 141.345683
_cell_volume 748.530870
_symmetry_space_group_name_H-M "P -1"
_symmetry_group_IT_number 2
_symmetry_cell_setting 'triclinic'
loop_
_space_group_symop_operation_xyz
x,y,z
-x,-y,-z
loop_
_atom_site_type_symbol
_atom_site_label
_atom_site_fract_x
_atom_site_fract_y
_atom_site_fract_z
Si Si1 0.683004 0.642876 0.747260
Si Si2 0.135155 0.246886 0.359245
Si Si3 0.547496 0.800279 0.825866
Si Si4 0.219912 0.423113 0.620613
Si Si5 0.585530 0.633341 0.335508
Si Si6 0.433894 0.794832 0.514313
Si Si7 0.769966 0.149573 0.202280
Si Si8 0.195554 0.684977 0.721990
O O1 0.859212 0.710287 0.786415
O O2 0.525595 0.561943 0.597868
O O3 0.600410 0.800331 0.587502
O O4 0.724551 0.488745 0.998788
O O5 0.271069 0.379418 0.431181
O O6 0.920262 0.265232 0.173016
O O7 0.215947 0.054921 0.628454
O O8 0.523852 0.750869 0.739096
O O9 0.342478 0.774566 0.704670
O O10 0.639015 0.005777 0.736476
O O11 0.692783 0.667256 0.124421
O O12 0.299701 0.331238 0.685858
O O13 0.270014 0.639198 0.474999
O O14 0.995932 0.378447 0.455326
O O15 0.439766 0.789459 0.068346
O O16 0.834545 0.174343 0.349743
#
# Coordination Sequence:
#
# PCOD8004414 Si02
#       8
#     2   2   2   2   2   2   2   2
#     4  10  22  39  61  88 124 165 205 259 306 369
#     4  11  21  37  58  87 124 162 206 257 301 368
#     4  11  22  45  69  90 130 164 201 271 312 373
#     4  11  22  42  66  95 126 166 208 258 315 376
#     4  10  20  38  58  84 119 161 207 249 307 363
#     4  10  23  44  67  95 124 165 212 253 323 374
#     4  10  21  37  57  87 122 162 206 253 311 362
#     4  11  22  41  64  90 130 166 206 263 312 372
#
# _framework density 21.375204
#
# number of rings (size 3 to 8) (size 9 to 14) (size 15 to 20)
#    0.000    1.500    5.000    1.875    0.000    2.500 
#    9.000    1.250    0.000    0.000    0.000    0.000 
#    0.000    0.000    0.000    0.000    0.000    0.000 
#
# Total GULP energy -198368.814707 kJ/mol
# GULP energy per Si atom -12398.050919 kJ/mol
# Density = 2.132655 g / cm^3
# Si number density = 21.375204 Si / 1000 Ang^3
#
#
#
# Elastic Constant Matrix: (Units=GPa)
#
#
# Indices 1 2 3 4 5 6 
#
# 1 87.2457 33.7747 2.4887 -2.7185 -9.8660 1.7604
# 2 33.7747 89.0786 33.0681 11.6562 5.4258 4.7674
# 3 2.4887 33.0681 39.6098 -2.3330 -0.9500 4.1229
# 4 -2.7185 11.6562 -2.3330 20.3678 -0.3508 2.8290
# 5 -9.8660 5.4258 -0.9500 -0.3508 25.4958 -5.3955
# 6 1.7604 4.7674 4.1229 2.8290 -5.3955 27.8407
#
#
#
# Elastic Compliance Matrix: (Units=1/GPa)
#
#
# Indices 1 2 3 4 5 6 
#
# 1 0.017409 -0.012353 0.010047 0.010664 0.009966 0.000375
# 2 -0.012353 0.028507 -0.024470 -0.020876 -0.012198 -0.000719
# 3 0.010047 -0.024470 0.046923 0.021392 0.010386 -0.003555
# 4 0.010664 -0.020876 0.021392 0.065795 0.009176 -0.005175
# 5 0.009966 -0.012198 0.010386 0.009176 0.047940 0.008279
# 6 0.000375 -0.000719 -0.003555 -0.005175 0.008279 0.038675
#
#
# Mechanical properties :
#
#
# Convention : Reuss Voigt Hill
#
# Bulk Modulus (GPa) = 25.45359 39.39968 32.42664
# Shear Modulus (GPa) = 16.03103 24.51435 20.27269
#
# Velocity S-wave (km/s) = 2.74155 3.39020 3.08299
# Velocity P-wave (km/s) = 4.68565 5.81353 5.27979
#
# Compressibility (1/GPa) = 0.03928719
#
# Stress axis : x y z
#
# Youngs Moduli (GPa) = 57.44135 35.07943 21.31158
#
# Poissons Ratio (x) = 0.43333 -0.21412
# Poissons Ratio (y) = 0.70957 0.52149
# Poissons Ratio (z) = -0.57712 0.85839
#
# Static dielectric constant tensor:
#      x y z
#    x 4.038310 -0.036000 0.072170 
#    y -0.036000 3.985370 -0.019900 
#    z 0.072170 -0.019900 3.452270 
# 
# 
# High freq. dielectric constant tensor:
#      x y z
#    x 1.853840 -0.004210 0.002080 
#    y -0.004210 1.837800 -0.007960 
#    z 0.002080 -0.007960 1.813460 
# 
# From -- ./inp_files/534167.got.cif
#   From: 2010.06.25/outbox.cif.g09.slc.cpg/sg2_268_cif.got.tgz:534167.got - 2010.06.27 13:26:56.
