data_PCOD8004773
_publ_section_title
;
Structure prediction by ZEFSAII (Michael W. Deem and Ramdas Pophale) SiO2 
 PCOD8004773
Probable space group: P -1
;
_chemical_formula_sum "Si O2"
_cell_formula_units_Z 16
_cell_length_a 8.149119
_cell_length_b 8.076074
_cell_length_c 14.048982
_cell_angle_alpha 62.388513
_cell_angle_beta 93.390488
_cell_angle_gamma 55.369936
_cell_volume 604.612147
_symmetry_space_group_name_H-M "P -1"
_symmetry_group_IT_number 2
_symmetry_cell_setting 'triclinic'
loop_
_space_group_symop_operation_xyz
x,y,z
-x,-y,-z
loop_
_atom_site_type_symbol
_atom_site_label
_atom_site_fract_x
_atom_site_fract_y
_atom_site_fract_z
Si Si1 0.106171 0.698244 0.279280
Si Si2 0.277358 0.229321 0.059387
Si Si3 0.332871 0.880877 0.014480
Si Si4 0.746841 0.797241 0.527870
Si Si5 0.106004 0.752075 0.625837
Si Si6 0.796924 0.412720 0.904275
Si Si7 0.288321 0.897827 0.727341
Si Si8 0.448639 0.740341 0.259392
O O1 0.191445 0.466789 0.411821
O O2 0.096926 0.655654 0.178754
O O3 0.266511 0.746614 0.299662
O O4 0.847962 0.943677 0.224347
O O5 0.111342 0.508443 0.031733
O O6 0.180347 0.166377 0.985084
O O7 0.381953 0.009021 0.202370
O O8 0.488061 0.179076 0.036596
O O9 0.189009 0.810526 0.991613
O O10 0.461625 0.690688 0.159139
O O11 0.911204 0.748086 0.630252
O O12 0.767101 0.896543 0.404954
O O13 0.500000 0.000000 0.500000
O O14 0.303477 0.506227 0.633887
O O15 0.000000 0.000000 0.500000
O O16 0.194746 0.768744 0.723290
O O17 0.545160 0.683516 0.817431
#
# Coordination Sequence:
#
# PCOD8004773 Si02
#       8
#     2   2   2   2   2   2   2   2
#     4  11  22  37  58  90 127 165 211 261 304 383
#     4   9  18  33  67  95 119 172 206 262 319 373
#     4   8  17  35  61  98 123 160 218 254 315 386
#     4  11  22  41  60  87 127 162 217 262 312 377
#     4  10  20  38  62  87 122 166 211 259 313 374
#     4  11  20  38  63  89 133 162 213 257 323 368
#     4  11  22  40  60  89 126 168 207 264 312 371
#     4   9  18  39  60  90 130 160 213 257 312 377
#
# _framework density 26.463246999999999
#
# number of rings (size 3 to 8) (size 9 to 14) (size 15 to 20)
#    0.750    1.250    3.750    1.500    1.750    1.000 
#    0.000    3.125    0.000    7.500    0.000    0.000 
#    0.000    0.000    0.000    0.000    0.000    0.000 
#
# Total GULP energy -198210.866052 kJ/mol
# GULP energy per Si atom -12388.179128 kJ/mol
# Density = 2.640302 g / cm^3
# Si number density = 26.463247 Si / 1000 Ang^3
#
#
#
# Elastic Constant Matrix: (Units=GPa)
#
#
# Indices 1 2 3 4 5 6 
#
# 1 136.1950 61.3484 39.8454 0.7318 -17.7777 17.0074
# 2 61.3484 207.4648 41.1438 6.7728 -18.4441 0.9791
# 3 39.8454 41.1438 67.9456 -12.9054 -24.6650 1.3357
# 4 0.7318 6.7728 -12.9054 41.7919 2.1505 -5.8360
# 5 -17.7777 -18.4441 -24.6650 2.1505 42.3627 -9.1042
# 6 17.0074 0.9791 1.3357 -5.8360 -9.1042 38.4530
#
#
#
# Elastic Compliance Matrix: (Units=1/GPa)
#
#
# Indices 1 2 3 4 5 6 
#
# 1 0.010337 -0.001940 -0.005419 -0.002181 -0.000583 -0.004803
# 2 -0.001940 0.006018 -0.002668 -0.001699 0.000479 0.000653
# 3 -0.005419 -0.002668 0.025447 0.008563 0.012185 0.005765
# 4 -0.002181 -0.001699 0.008563 0.027510 0.003145 0.005630
# 5 -0.000583 0.000479 0.012185 0.003145 0.032208 0.007925
# 6 -0.004803 0.000653 0.005765 0.005630 0.007925 0.030644
#
#
# Mechanical properties :
#
#
# Convention : Reuss Voigt Hill
#
# Bulk Modulus (GPa) = 45.97889 77.36453 61.67171
# Shear Modulus (GPa) = 31.35445 42.47272 36.91358
#
# Velocity S-wave (km/s) = 3.44587 4.01055 3.73889
# Velocity P-wave (km/s) = 5.76579 7.12350 6.48030
#
# Compressibility (1/GPa) = 0.02174911
#
# Stress axis : x y z
#
# Youngs Moduli (GPa) = 96.73988 166.17270 39.29696
#
# Poissons Ratio (x) = 0.32239 0.21293
# Poissons Ratio (y) = 0.18768 0.10484
# Poissons Ratio (z) = 0.52419 0.44332
#
# Static dielectric constant tensor:
#      x y z
#    x 5.075710 0.588440 -0.616290 
#    y 0.588440 5.229680 -0.261110 
#    z -0.616290 -0.261110 4.959700 
# 
# 
# High freq. dielectric constant tensor:
#      x y z
#    x 2.088600 -0.004160 0.002080 
#    y -0.004160 2.079960 -0.026370 
#    z 0.002080 -0.026370 2.042710 
# 
# From -- ./inp_files/556061.got.cif
#   From: 2010.06.25/outbox.cif.g09.slc.cpg/sg2_279_cif.got.tgz:556061.got - 2010.06.27 13:26:56.
