data_PCOD8004622
_publ_section_title
;
Structure prediction by ZEFSAII (Michael W. Deem and Ramdas Pophale) SiO2 
 PCOD8004622
Probable space group: P -1
;
_chemical_formula_sum "Si O2"
_cell_formula_units_Z 14
_cell_length_a 5.521918
_cell_length_b 8.983204
_cell_length_c 20.050428
_cell_angle_alpha 45.729890
_cell_angle_beta 105.950445
_cell_angle_gamma 123.027930
_cell_volume 587.778414
_symmetry_space_group_name_H-M "P -1"
_symmetry_group_IT_number 2
_symmetry_cell_setting 'triclinic'
loop_
_space_group_symop_operation_xyz
x,y,z
-x,-y,-z
loop_
_atom_site_type_symbol
_atom_site_label
_atom_site_fract_x
_atom_site_fract_y
_atom_site_fract_z
Si Si1 0.826516 0.636163 0.758613
Si Si2 0.887399 0.498788 0.418618
Si Si3 0.372465 0.213063 0.936144
Si Si4 0.896602 0.960722 0.774386
Si Si5 0.203997 0.282554 0.421464
Si Si6 0.854228 0.195471 0.048390
Si Si7 0.708924 0.392873 0.128376
O O1 0.160125 0.724726 0.775569
O O2 0.623742 0.361858 0.853131
O O3 0.775002 0.830580 0.734168
O O4 0.777344 0.637740 0.677253
O O5 0.533702 0.352877 0.444510
O O6 0.000000 0.500000 0.500000
O O7 0.044612 0.393546 0.417592
O O8 0.978767 0.757870 0.313037
O O9 0.258360 0.382840 0.898309
O O10 0.114629 0.974802 0.953315
O O11 0.528953 0.151636 0.027159
O O12 0.617958 0.824187 0.846394
O O13 0.129450 0.899954 0.846166
O O14 0.000000 0.000000 0.500000
O O15 0.108751 0.482580 0.965521
#
# Coordination Sequence:
#
# PCOD8004622 Si02
#       7
#     2   2   2   2   2   2   2
#     4  10  24  41  66  99 142 188 240 290 367 426
#     4  12  29  51  80 114 147 186 240 305 368 435
#     4   9  20  39  61  91 139 183 248 294 353 428
#     4  11  25  40  67 100 148 179 245 297 369 420
#     4  12  28  50  83 108 147 191 240 298 369 445
#     4  10  20  38  60  95 134 191 240 302 352 417
#     4  10  22  37  63  95 139 190 239 294 354 434
#
# _framework density 23.818501000000001
#
# number of rings (size 3 to 8) (size 9 to 14) (size 15 to 20)
#    0.000    1.429    0.000    3.429   10.000    6.286 
#    0.000    0.000    0.000    0.000    0.000    0.000 
#    0.000    0.000    0.000    0.000    0.000    0.000 
#
# Total GULP energy -173498.770312 kJ/mol
# GULP energy per Si atom -12392.769308 kJ/mol
# Density = 2.376429 g / cm^3
# Si number density = 23.818501 Si / 1000 Ang^3
#
#
#
# Elastic Constant Matrix: (Units=GPa)
#
#
# Indices 1 2 3 4 5 6 
#
# 1 125.5390 47.0033 55.2757 -2.7268 -1.6023 12.1393
# 2 47.0033 98.9157 63.2999 -4.8192 -4.0071 16.5489
# 3 55.2757 63.2999 148.6013 4.3358 16.2239 11.9966
# 4 -2.7268 -4.8192 4.3358 55.9677 5.1719 -3.8056
# 5 -1.6023 -4.0071 16.2239 5.1719 30.6009 -1.8403
# 6 12.1393 16.5489 11.9966 -3.8056 -1.8403 39.1135
#
#
#
# Elastic Compliance Matrix: (Units=1/GPa)
#
#
# Indices 1 2 3 4 5 6 
#
# 1 0.010384 -0.002972 -0.002679 0.000250 0.001470 -0.001050
# 2 -0.002972 0.016292 -0.006084 0.001029 0.004802 -0.003779
# 3 -0.002679 -0.006084 0.011108 -0.000924 -0.006694 -0.000406
# 4 0.000250 0.001029 -0.000924 0.018358 -0.002378 0.001445
# 5 0.001470 0.004802 -0.006694 -0.002378 0.037402 0.001094
# 6 -0.001050 -0.003779 -0.000406 0.001445 0.001094 0.027808
#
#
# Mechanical properties :
#
#
# Convention : Reuss Voigt Hill
#
# Bulk Modulus (GPa) = 69.86366 78.24599 74.05482
# Shear Modulus (GPa) = 33.42404 38.96823 36.19614
#
# Velocity S-wave (km/s) = 3.75010 4.04920 3.90252
# Velocity P-wave (km/s) = 6.93876 7.40159 7.17391
#
# Compressibility (1/GPa) = 0.01431359
#
# Stress axis : x y z
#
# Youngs Moduli (GPa) = 96.30194 61.38024 90.02392
#
# Poissons Ratio (x) = 0.18244 0.24122
# Poissons Ratio (y) = 0.28623 0.54766
# Poissons Ratio (z) = 0.25804 0.37341
#
# Static dielectric constant tensor:
#      x y z
#    x 5.147160 -0.050800 -0.118740 
#    y -0.050800 4.469820 -0.101860 
#    z -0.118740 -0.101860 3.881240 
# 
# 
# High freq. dielectric constant tensor:
#      x y z
#    x 1.959700 -0.005510 0.001090 
#    y -0.005510 1.957270 -0.003350 
#    z 0.001090 -0.003350 1.938560 
# 
# From -- ./inp_files/547801.got.cif
#   From: 2010.06.25/outbox.cif.g09.slc.cpg/sg2_274_cif.got.tgz:547801.got - 2010.06.27 13:26:56.
