data_PCOD8004197
_publ_section_title
;
Structure prediction by ZEFSAII (Michael W. Deem and Ramdas Pophale) SiO2 
 PCOD8004197
Probable space group: P -1
;
_chemical_formula_sum "Si O2"
_cell_formula_units_Z 10
_cell_length_a 8.200922
_cell_length_b 6.919854
_cell_length_c 14.639983
_cell_angle_alpha 62.534606
_cell_angle_beta 136.305638
_cell_angle_gamma 122.746643
_cell_volume 479.189793
_symmetry_space_group_name_H-M "P -1"
_symmetry_group_IT_number 2
_symmetry_cell_setting 'triclinic'
loop_
_space_group_symop_operation_xyz
x,y,z
-x,-y,-z
loop_
_atom_site_type_symbol
_atom_site_label
_atom_site_fract_x
_atom_site_fract_y
_atom_site_fract_z
Si Si1 0.974373 0.804495 0.150452
Si Si2 0.855072 0.673013 0.925592
Si Si3 0.428617 0.722883 0.438992
Si Si4 0.172645 0.808080 0.498448
Si Si5 0.715527 0.553243 0.271136
O O1 0.762971 0.650693 0.166890
O O2 0.232257 0.750797 0.278246
O O3 0.856435 0.727975 0.020854
O O4 0.029691 0.078699 0.132561
O O5 0.577460 0.535366 0.806469
O O6 0.000000 0.500000 0.000000
O O7 0.500000 0.500000 0.500000
O O8 0.317284 0.724245 0.494115
O O9 0.694957 0.923597 0.488468
O O10 0.184351 0.662795 0.625783
O O11 0.881660 0.756864 0.362811
#
# Coordination Sequence:
#
# PCOD8004197 Si02
#       5
#     2   2   2   2   2
#     4  10  23  41  60  91 124 160 204 249 299 362
#     4  11  24  41  64  86 123 167 203 248 298 360
#     4  10  20  37  65  91 121 159 201 249 305 359
#     4   9  20  38  61  90 126 157 194 254 304 358
#     4  10  20  41  64  88 127 159 197 255 306 353
#
# _framework density 20.868556999999999
#
# number of rings (size 3 to 8) (size 9 to 14) (size 15 to 20)
#    0.000    2.000    2.000    0.600    2.800    0.800 
#    0.000   19.000    0.000    0.000    0.000    0.000 
#    0.000    0.000    0.000    0.000    0.000    0.000 
#
# Total GULP energy -123955.900803 kJ/mol
# GULP energy per Si atom -12395.590080 kJ/mol
# Density = 2.082106 g / cm^3
# Si number density = 20.868557 Si / 1000 Ang^3
#
#
#
# Elastic Constant Matrix: (Units=GPa)
#
#
# Indices 1 2 3 4 5 6 
#
# 1 42.5252 36.6147 20.3608 -4.5530 -1.4688 17.8242
# 2 36.6147 138.5494 38.6688 -10.5524 15.0047 19.1627
# 3 20.3608 38.6688 98.0401 -3.8901 9.7685 10.0207
# 4 -4.5530 -10.5524 -3.8901 40.4312 14.1295 8.9742
# 5 -1.4688 15.0047 9.7685 14.1295 36.7879 -7.0635
# 6 17.8242 19.1627 10.0207 8.9742 -7.0635 35.0548
#
#
#
# Elastic Compliance Matrix: (Units=1/GPa)
#
#
# Indices 1 2 3 4 5 6 
#
# 1 0.038250 -0.006284 -0.003441 0.006275 -0.000625 -0.016762
# 2 -0.006284 0.011469 -0.001575 0.006235 -0.008027 -0.005838
# 3 -0.003441 -0.001575 0.012273 0.002327 -0.004093 -0.002318
# 4 0.006275 0.006235 0.002327 0.040063 -0.022534 -0.022061
# 5 -0.000625 -0.008027 -0.004093 -0.022534 0.044116 0.020533
# 6 -0.016762 -0.005838 -0.002318 -0.022061 0.020533 0.050689
#
#
# Mechanical properties :
#
#
# Convention : Reuss Voigt Hill
#
# Bulk Modulus (GPa) = 25.38542 52.26703 38.82622
# Shear Modulus (GPa) = 21.49710 34.68612 28.09161
#
# Velocity S-wave (km/s) = 3.21303 4.08134 3.67293
# Velocity P-wave (km/s) = 5.09466 6.87822 6.05250
#
# Compressibility (1/GPa) = 0.03939270
#
# Stress axis : x y z
#
# Youngs Moduli (GPa) = 26.14412 87.18785 81.48149
#
# Poissons Ratio (x) = 0.54790 0.28034
# Poissons Ratio (y) = 0.16429 0.12832
# Poissons Ratio (z) = 0.08995 0.13731
#
# Static dielectric constant tensor:
#      x y z
#    x 3.568220 0.475940 -0.116730 
#    y 0.475940 3.990140 0.088520 
#    z -0.116730 0.088520 4.035990 
# 
# 
# High freq. dielectric constant tensor:
#      x y z
#    x 1.787460 0.036590 -0.007360 
#    y 0.036590 1.825850 0.004150 
#    z -0.007360 0.004150 1.833170 
# 
# From -- ./inp_files/20021.got.cif
#   From: 2010.06.25/outbox.cif.g09.slc.cpg/sg2_11_cif.got.tgz:20021.got - 2010.06.27 13:26:56.
