data_PCOD8004413
_publ_section_title
;
Structure prediction by ZEFSAII (Michael W. Deem and Ramdas Pophale) SiO2 
 PCOD8004413
Probable space group: P -1
;
_chemical_formula_sum "Si O2"
_cell_formula_units_Z 14
_cell_length_a 25.608923
_cell_length_b 8.026013
_cell_length_c 8.750908
_cell_angle_alpha 69.229881
_cell_angle_beta 37.955922
_cell_angle_gamma 42.683807
_cell_volume 631.436364
_symmetry_space_group_name_H-M "P -1"
_symmetry_group_IT_number 2
_symmetry_cell_setting 'triclinic'
loop_
_space_group_symop_operation_xyz
x,y,z
-x,-y,-z
loop_
_atom_site_type_symbol
_atom_site_label
_atom_site_fract_x
_atom_site_fract_y
_atom_site_fract_z
Si Si1 0.612865 0.830566 0.584704
Si Si2 0.920778 0.298695 0.517241
Si Si3 0.461846 0.794761 0.109813
Si Si4 0.013519 0.543119 0.234832
Si Si5 0.103594 0.693127 0.780825
Si Si6 0.265243 0.234230 0.968993
Si Si7 0.695721 0.138564 0.796132
O O1 0.749489 0.494994 0.426382
O O2 0.604665 0.026339 0.637581
O O3 0.483265 0.920005 0.896831
O O4 0.624772 0.855626 0.369388
O O5 0.008604 0.337382 0.298531
O O6 0.884671 0.305133 0.426999
O O7 0.779589 0.559640 0.856280
O O8 0.000000 0.000000 0.500000
O O9 0.350877 0.847838 0.270598
O O10 0.609229 0.460608 0.923599
O O11 0.119210 0.418174 0.167724
O O12 0.862074 0.883989 0.503881
O O13 0.068824 0.544806 0.952035
O O14 0.000000 0.000000 0.000000
O O15 0.346148 0.932012 0.952056
#
# Coordination Sequence:
#
# PCOD8004413 Si02
#       7
#     2   2   2   2   2   2   2
#     4  10  21  39  56  83 114 151 197 234 285 340
#     4  11  21  34  55  88 120 150 185 232 297 350
#     4  10  22  37  59  80 113 159 195 231 275 347
#     4  10  21  39  61  87 119 151 190 243 296 348
#     4  11  22  38  62  87 117 154 194 242 294 349
#     4  10  22  39  61  86 118 148 189 249 296 339
#     4  10  20  38  58  84 113 150 194 234 287 341
#
# _framework density 22.171671
#
# number of rings (size 3 to 8) (size 9 to 14) (size 15 to 20)
#    0.000    1.714    0.000    6.429    0.000    3.429 
#    0.000    2.857    0.000    1.714    0.000    0.000 
#    0.000    0.000    0.000    0.000    0.000    0.000 
#
# Total GULP energy -173533.288668 kJ/mol
# GULP energy per Si atom -12395.234905 kJ/mol
# Density = 2.212121 g / cm^3
# Si number density = 22.171671 Si / 1000 Ang^3
#
#
#
# Elastic Constant Matrix: (Units=GPa)
#
#
# Indices 1 2 3 4 5 6 
#
# 1 63.3261 18.7004 26.8080 -1.1176 25.8142 -3.0468
# 2 18.7004 115.5705 29.7182 -4.1523 14.6998 -4.4432
# 3 26.8080 29.7182 85.7022 -10.1388 31.7213 3.1361
# 4 -1.1176 -4.1523 -10.1388 41.2703 -10.5614 6.9308
# 5 25.8142 14.6998 31.7213 -10.5614 41.4210 -0.5555
# 6 -3.0468 -4.4432 3.1361 6.9308 -0.5555 33.8222
#
#
#
# Elastic Compliance Matrix: (Units=1/GPa)
#
#
# Indices 1 2 3 4 5 6 
#
# 1 0.022408 -0.001447 -0.002412 -0.003779 -0.012533 0.002621
# 2 -0.001447 0.009716 -0.002841 -0.000095 -0.000376 0.001423
# 3 -0.002412 -0.002841 0.017632 0.001734 -0.010587 -0.002755
# 4 -0.003779 -0.000095 0.001734 0.027611 0.008020 -0.006040
# 5 -0.012533 -0.000376 -0.010587 0.008020 0.042224 -0.001147
# 6 0.002621 0.001423 -0.002755 -0.006040 -0.001147 0.031464
#
#
# Mechanical properties :
#
#
# Convention : Reuss Voigt Hill
#
# Bulk Modulus (GPa) = 27.50407 46.11689 36.81048
# Shear Modulus (GPa) = 28.31698 35.92752 32.12225
#
# Velocity S-wave (km/s) = 3.57763 4.02982 3.81044
# Velocity P-wave (km/s) = 5.43119 6.51902 5.99981
#
# Compressibility (1/GPa) = 0.03635826
#
# Stress axis : x y z
#
# Youngs Moduli (GPa) = 44.62763 102.91841 56.71409
#
# Poissons Ratio (x) = 0.14888 0.13678
# Poissons Ratio (y) = 0.06456 0.16111
# Poissons Ratio (z) = 0.10763 0.29237
#
# Static dielectric constant tensor:
#      x y z
#    x 3.849130 -0.033090 0.050210 
#    y -0.033090 4.339560 -0.227470 
#    z 0.050210 -0.227470 4.101070 
# 
# 
# High freq. dielectric constant tensor:
#      x y z
#    x 1.860920 -0.008430 0.005380 
#    y -0.008430 1.884400 -0.003410 
#    z 0.005380 -0.003410 1.869270 
# 
# From -- ./inp_files/205587.got.cif
#   From: 2010.06.25/outbox.cif.g09.slc.cpg/sg2_103_cif.got.tgz:205587.got - 2010.06.27 13:26:56.
