data_PCOD8004576
_publ_section_title
;
Structure prediction by ZEFSAII (Michael W. Deem and Ramdas Pophale) SiO2 
 PCOD8004576
Probable space group: P -1
;
_chemical_formula_sum "Si O2"
_cell_formula_units_Z 14
_cell_length_a 8.661432
_cell_length_b 8.080438
_cell_length_c 14.517114
_cell_angle_alpha 81.325047
_cell_angle_beta 67.978045
_cell_angle_gamma 128.327039
_cell_volume 627.904212
_symmetry_space_group_name_H-M "P -1"
_symmetry_group_IT_number 2
_symmetry_cell_setting 'triclinic'
loop_
_space_group_symop_operation_xyz
x,y,z
-x,-y,-z
loop_
_atom_site_type_symbol
_atom_site_label
_atom_site_fract_x
_atom_site_fract_y
_atom_site_fract_z
Si Si1 0.969048 0.506175 0.853937
Si Si2 0.102863 0.809409 0.967854
Si Si3 0.308481 0.314579 0.834864
Si Si4 0.225607 0.447187 0.671082
Si Si5 0.142862 0.721139 0.378873
Si Si6 0.659167 0.980896 0.518274
Si Si7 0.190925 0.441984 0.280495
O O1 0.809550 0.523602 0.832119
O O2 0.124552 0.721470 0.877163
O O3 0.154542 0.561875 0.734082
O O4 0.803867 0.240487 0.964546
O O5 0.260349 0.092674 0.900814
O O6 0.817147 0.646701 0.070403
O O7 0.207608 0.271268 0.756451
O O8 0.605379 0.550902 0.747730
O O9 0.044560 0.297769 0.636045
O O10 0.513612 0.696498 0.558479
O O11 0.326228 0.970744 0.378287
O O12 0.275131 0.684027 0.286031
O O13 0.000000 0.500000 0.500000
O O14 0.933269 0.176221 0.397895
O O15 0.500000 0.000000 0.500000
#
# Coordination Sequence:
#
# PCOD8004576 Si02
#       7
#     2   2   2   2   2   2   2
#     4   9  18  37  63  86 102 158 208 232 281 354
#     4   9  20  39  61  78 117 157 195 248 297 335
#     4  10  22  38  55  87 124 151 184 253 304 343
#     4  10  20  38  60  87 124 153 193 238 295 348
#     4   9  18  35  58  85 111 154 204 232 274 346
#     4  11  19  36  63  87 119 155 195 246 275 348
#     4  10  21  34  58  91 117 148 202 239 290 354
#
# _framework density 22.296396000000001
#
# number of rings (size 3 to 8) (size 9 to 14) (size 15 to 20)
#    0.000    2.286    4.286    0.000    2.000    1.714 
#    2.571    2.857    0.000    0.000    0.000    0.000 
#    0.000    0.000    0.000    0.000    0.000    0.000 
#
# Total GULP energy -173439.626293 kJ/mol
# GULP energy per Si atom -12388.544735 kJ/mol
# Density = 2.224565 g / cm^3
# Si number density = 22.296396 Si / 1000 Ang^3
#
#
#
# Elastic Constant Matrix: (Units=GPa)
#
#
# Indices 1 2 3 4 5 6 
#
# 1 87.9229 11.6963 40.7665 3.6716 4.5599 25.9277
# 2 11.6963 61.4967 18.1712 4.0032 7.0762 18.4039
# 3 40.7665 18.1712 77.5022 8.7630 11.3395 15.9919
# 4 3.6716 4.0032 8.7630 22.9460 7.3922 8.1412
# 5 4.5599 7.0762 11.3395 7.3922 41.2123 -2.5507
# 6 25.9277 18.4039 15.9919 8.1412 -2.5507 33.8763
#
#
#
# Elastic Compliance Matrix: (Units=1/GPa)
#
#
# Indices 1 2 3 4 5 6 
#
# 1 0.018462 0.002682 -0.007874 0.004928 -0.002038 -0.013208
# 2 0.002682 0.020901 -0.003375 0.003186 -0.004327 -0.012905
# 3 -0.007874 -0.003375 0.018798 -0.004304 -0.002962 -0.000203
# 4 0.004928 0.003186 -0.004304 0.053333 -0.010531 -0.017081
# 5 -0.002038 -0.004327 -0.002962 -0.010531 0.028555 0.009990
# 6 -0.013208 -0.012905 -0.000203 -0.017081 0.009990 0.051592
#
#
# Mechanical properties :
#
#
# Convention : Reuss Voigt Hill
#
# Bulk Modulus (GPa) = 24.37458 40.90997 32.64227
# Shear Modulus (GPa) = 22.47686 30.02612 26.25149
#
# Velocity S-wave (km/s) = 3.17849 3.67370 3.43503
# Velocity P-wave (km/s) = 4.94229 6.03182 5.51403
#
# Compressibility (1/GPa) = 0.04102635
#
# Stress axis : x y z
#
# Youngs Moduli (GPa) = 54.16401 47.84471 53.19830
#
# Poissons Ratio (x) = -0.12830 0.41886
# Poissons Ratio (y) = -0.14524 0.17956
# Poissons Ratio (z) = 0.42647 0.16149
#
# Static dielectric constant tensor:
#      x y z
#    x 4.098130 0.188890 0.237800 
#    y 0.188890 4.179260 0.276440 
#    z 0.237800 0.276440 4.328110 
# 
# 
# High freq. dielectric constant tensor:
#      x y z
#    x 1.876060 0.007340 0.020400 
#    y 0.007340 1.839690 0.004260 
#    z 0.020400 0.004260 1.883600 
# 
# From -- ./inp_files/202708.got.cif
#   From: 2010.06.25/outbox.cif.g09.slc.cpg/sg2_102_cif.got.tgz:202708.got - 2010.06.27 13:26:56.
