data_PCOD8004709
_publ_section_title
;
Structure prediction by ZEFSAII (Michael W. Deem and Ramdas Pophale) SiO2 
 PCOD8004709
Probable space group: P -1
;
_chemical_formula_sum "Si O2"
_cell_formula_units_Z 14
_cell_length_a 15.390424
_cell_length_b 8.632411
_cell_length_c 23.647360
_cell_angle_alpha 42.051685
_cell_angle_beta 20.404772
_cell_angle_gamma 36.653521
_cell_volume 653.235100
_symmetry_space_group_name_H-M "P -1"
_symmetry_group_IT_number 2
_symmetry_cell_setting 'triclinic'
loop_
_space_group_symop_operation_xyz
x,y,z
-x,-y,-z
loop_
_atom_site_type_symbol
_atom_site_label
_atom_site_fract_x
_atom_site_fract_y
_atom_site_fract_z
Si Si1 0.258508 0.147043 0.178769
Si Si2 0.086966 0.788341 0.905447
Si Si3 0.261509 0.652948 0.029490
Si Si4 0.399059 0.158080 0.461542
Si Si5 0.248628 0.766463 0.602890
Si Si6 0.172461 0.466452 0.246918
Si Si7 0.867255 0.717167 0.941820
O O1 0.229635 0.405487 0.091473
O O2 0.205960 0.213438 0.259729
O O3 0.005484 0.096528 0.324124
O O4 0.567353 0.912972 0.044356
O O5 0.396965 0.726325 0.714315
O O6 0.891374 0.795286 0.970296
O O7 0.109594 0.571240 0.995363
O O8 0.946936 0.070601 0.945358
O O9 0.186700 0.675751 0.136862
O O10 0.577811 0.608125 0.840248
O O11 0.109133 0.413100 0.578492
O O12 0.500000 0.000000 0.500000
O O13 0.372908 0.968597 0.482002
O O14 0.500000 0.500000 0.500000
O O15 0.122239 0.719099 0.750837
#
# Coordination Sequence:
#
# PCOD8004709 Si02
#       7
#     2   2   2   2   2   2   2
#     4  10  20  38  61  91 121 157 206 246 300 365
#     4  11  21  38  62  93 123 154 203 256 307 346
#     4   9  15  33  59  85 116 156 205 239 286 363
#     4  12  20  37  61  89 119 162 207 243 294 365
#     4  12  24  39  62  92 123 162 204 250 300 365
#     4   9  17  31  61  87 113 150 214 241 278 351
#     4  11  23  39  61  93 125 156 197 262 306 346
#
# _framework density 21.431792999999999
#
# number of rings (size 3 to 8) (size 9 to 14) (size 15 to 20)
#    0.857    0.571    4.286    3.000    0.000    0.000 
#    0.000    5.714    0.000    0.000    0.000    0.000 
#    0.000    0.000    0.000    0.000    0.000    0.000 
#
# Total GULP energy -173549.256808 kJ/mol
# GULP energy per Si atom -12396.375486 kJ/mol
# Density = 2.138301 g / cm^3
# Si number density = 21.431793 Si / 1000 Ang^3
#
#
#
# Elastic Constant Matrix: (Units=GPa)
#
#
# Indices 1 2 3 4 5 6 
#
# 1 31.9295 12.8049 9.3473 -0.4515 -15.2498 5.7845
# 2 12.8049 114.5859 29.1670 12.7405 -2.2463 -3.6936
# 3 9.3473 29.1670 111.8488 18.8734 -16.5322 -5.8559
# 4 -0.4515 12.7405 18.8734 40.1948 5.7281 -2.3380
# 5 -15.2498 -2.2463 -16.5322 5.7281 30.2104 -4.1588
# 6 5.7845 -3.6936 -5.8559 -2.3380 -4.1588 27.2636
#
#
#
# Elastic Compliance Matrix: (Units=1/GPa)
#
#
# Indices 1 2 3 4 5 6 
#
# 1 0.044752 -0.004764 0.000721 -0.001862 0.022050 -0.006782
# 2 -0.004764 0.010013 -0.002181 -0.001791 -0.002323 0.001391
# 3 0.000721 -0.002181 0.011785 -0.005831 0.008145 0.002825
# 4 -0.001862 -0.001791 -0.005831 0.029567 -0.009880 -0.000071
# 5 0.022050 -0.002323 0.008145 -0.009880 0.050895 0.003673
# 6 -0.006782 0.001391 0.002825 -0.000071 0.003673 0.039467
#
#
# Mechanical properties :
#
#
# Convention : Reuss Voigt Hill
#
# Bulk Modulus (GPa) = 18.48385 40.11142 29.29763
# Shear Modulus (GPa) = 23.04552 33.33677 28.19114
#
# Velocity S-wave (km/s) = 3.28273 3.94824 3.63076
# Velocity P-wave (km/s) = 4.79704 6.28818 5.59253
#
# Compressibility (1/GPa) = 0.05410129
#
# Stress axis : x y z
#
# Youngs Moduli (GPa) = 22.34539 99.86907 84.85427
#
# Poissons Ratio (x) = 0.47575 -0.06115
# Poissons Ratio (y) = 0.10645 0.18509
# Poissons Ratio (z) = -0.01610 0.21784
#
# Static dielectric constant tensor:
#      x y z
#    x 3.502200 0.206200 -0.203720 
#    y 0.206200 3.858930 0.195250 
#    z -0.203720 0.195250 4.107990 
# 
# 
# High freq. dielectric constant tensor:
#      x y z
#    x 1.810910 0.024200 -0.023310 
#    y 0.024200 1.830970 0.016060 
#    z -0.023310 0.016060 1.843020 
# 
# From -- ./inp_files/623831.got.cif
#   From: 2010.06.25/outbox.cif.g09.slc.cpg/sg2_312_cif.got.tgz:623831.got - 2010.06.27 13:26:56.
