data_PCOD8004440
_publ_section_title
;
Structure prediction by ZEFSAII (Michael W. Deem and Ramdas Pophale) SiO2 
 PCOD8004440
Probable space group: P -1
;
_chemical_formula_sum "Si O2"
_cell_formula_units_Z 12
_cell_length_a 13.707587
_cell_length_b 8.664999
_cell_length_c 13.225369
_cell_angle_alpha 101.773587
_cell_angle_beta 158.067016
_cell_angle_gamma 90.481053
_cell_volume 483.241763
_symmetry_space_group_name_H-M "P -1"
_symmetry_group_IT_number 2
_symmetry_cell_setting 'triclinic'
loop_
_space_group_symop_operation_xyz
x,y,z
-x,-y,-z
loop_
_atom_site_type_symbol
_atom_site_label
_atom_site_fract_x
_atom_site_fract_y
_atom_site_fract_z
Si Si1 0.438472 0.892158 0.287624
Si Si2 0.323115 0.655527 0.972321
Si Si3 0.852111 0.563414 0.775441
Si Si4 0.387098 0.554058 0.685440
Si Si5 0.408040 0.200493 0.386256
Si Si6 0.637315 0.872984 0.111343
O O1 0.689611 0.926737 0.620958
O O2 0.352372 0.049802 0.225832
O O3 0.511533 0.857515 0.240736
O O4 0.175132 0.684712 0.045687
O O5 0.955841 0.568889 0.611225
O O6 0.397469 0.513691 0.074014
O O7 0.454650 0.702908 0.992391
O O8 0.608460 0.459140 0.433819
O O9 0.773625 0.380446 0.746409
O O10 0.786014 0.702249 0.794822
O O11 0.561431 0.772106 0.915497
O O12 0.000000 0.000000 0.500000
O O13 0.500000 0.000000 0.000000
#
# Coordination Sequence:
#
# PCOD8004440 Si02
#       6
#     2   2   2   2   2   2
#     4  10  21  37  61  89 128 168 219 260 327 378
#     4  11  23  44  68  94 130 176 216 263 329 396
#     4  10  21  37  61  89 128 168 219 260 327 378
#     4  11  23  44  68  94 130 176 216 263 329 396
#     4  10  20  38  58  92 124 168 218 266 318 378
#     4  12  26  44  68 102 130 164 216 276 332 390
#
# _framework density 24.832291000000001
#
# number of rings (size 3 to 8) (size 9 to 14) (size 15 to 20)
#    0.000    1.333    1.667    4.000    2.333    0.000 
#    0.000    1.667    0.000    0.000    0.000    0.000 
#    0.000    0.000    0.000    0.000    0.000    0.000 
#
# Total GULP energy -148681.680148 kJ/mol
# GULP energy per Si atom -12390.140012 kJ/mol
# Density = 2.477577 g / cm^3
# Si number density = 24.832291 Si / 1000 Ang^3
#
#
#
# Elastic Constant Matrix: (Units=GPa)
#
#
# Indices 1 2 3 4 5 6 
#
# 1 64.7524 29.6372 6.5853 10.3074 -5.9034 -13.0954
# 2 29.6372 149.9469 18.9723 0.5776 -19.5588 -28.6252
# 3 6.5853 18.9723 55.5820 6.0723 8.2038 -11.1402
# 4 10.3074 0.5776 6.0723 36.7694 -5.6938 0.9386
# 5 -5.9034 -19.5588 8.2038 -5.6938 40.1180 9.4803
# 6 -13.0954 -28.6252 -11.1402 0.9386 9.4803 46.5453
#
#
#
# Elastic Compliance Matrix: (Units=1/GPa)
#
#
# Indices 1 2 3 4 5 6 
#
# 1 0.018316 -0.003000 0.000198 -0.005271 -0.000393 0.003542
# 2 -0.003000 0.008687 -0.002764 0.001686 0.003887 0.003011
# 3 0.000198 -0.002764 0.021618 -0.004901 -0.007661 0.005189
# 4 -0.005271 0.001686 -0.004901 0.030507 0.006205 -0.003498
# 5 -0.000393 0.003887 -0.007661 0.006205 0.030608 -0.005913
# 6 0.003542 0.003011 0.005189 -0.003498 -0.005913 0.026850
#
#
# Mechanical properties :
#
#
# Convention : Reuss Voigt Hill
#
# Bulk Modulus (GPa) = 26.67526 42.29676 34.48601
# Shear Modulus (GPa) = 31.20815 39.02563 35.11689
#
# Velocity S-wave (km/s) = 3.54892 3.96860 3.76461
# Velocity P-wave (km/s) = 5.24963 6.17006 5.72836
#
# Compressibility (1/GPa) = 0.03748792
#
# Stress axis : x y z
#
# Youngs Moduli (GPa) = 54.59708 115.11379 46.25841
#
# Poissons Ratio (x) = 0.34534 -0.00915
# Poissons Ratio (y) = 0.16379 0.12786
# Poissons Ratio (z) = -0.01079 0.31819
#
# Static dielectric constant tensor:
#      x y z
#    x 5.152010 0.040310 -0.502520 
#    y 0.040310 4.467400 0.199480 
#    z -0.502520 0.199480 4.703760 
# 
# 
# High freq. dielectric constant tensor:
#      x y z
#    x 1.989080 -0.008930 -0.010700 
#    y -0.008930 1.997540 0.006430 
#    z -0.010700 0.006430 1.992000 
# 
# From -- ./inp_files/3513.got.cif
#   From: 2010.06.25/outbox.cif.g09.slc.cpg/sg2_2_cif.got.tgz:3513.got - 2010.06.27 13:26:56.
