data_PCOD8004102
_publ_section_title
;
Structure prediction by ZEFSAII (Michael W. Deem and Ramdas Pophale) SiO2 
 PCOD8004102
Probable space group: P -1
;
_chemical_formula_sum "Si O2"
_cell_formula_units_Z 14
_cell_length_a 15.707331
_cell_length_b 8.863039
_cell_length_c 16.208044
_cell_angle_alpha 42.097444
_cell_angle_beta 145.816070
_cell_angle_gamma 152.005292
_cell_volume 594.501840
_symmetry_space_group_name_H-M "P -1"
_symmetry_group_IT_number 2
_symmetry_cell_setting 'triclinic'
loop_
_space_group_symop_operation_xyz
x,y,z
-x,-y,-z
loop_
_atom_site_type_symbol
_atom_site_label
_atom_site_fract_x
_atom_site_fract_y
_atom_site_fract_z
Si Si1 0.470250 0.977691 0.132864
Si Si2 0.759759 0.328382 0.361710
Si Si3 0.462438 0.802621 0.471596
Si Si4 0.065460 0.920291 0.926997
Si Si5 0.513850 0.514277 0.112588
Si Si6 0.645888 0.606162 0.789655
Si Si7 0.135443 0.528839 0.190329
O O1 0.710397 0.234600 0.262407
O O2 0.437262 0.738883 0.140095
O O3 0.328012 0.800101 0.172737
O O4 0.409830 0.145742 0.969049
O O5 0.710406 0.543106 0.251819
O O6 0.000000 0.500000 0.500000
O O7 0.622879 0.031739 0.434129
O O8 0.497579 0.583911 0.615403
O O9 0.219276 0.556655 0.337854
O O10 0.500000 0.000000 0.500000
O O11 0.897825 0.913991 0.839089
O O12 0.003954 0.820606 0.820927
O O13 0.004492 0.625228 0.048556
O O14 0.319817 0.263726 0.991075
O O15 0.387263 0.333438 0.170063
#
# Coordination Sequence:
#
# PCOD8004102 Si02
#       7
#     2   2   2   2   2   2   2
#     4  10  23  42  63  95 135 174 219 271 332 400
#     4  11  25  43  68  96 131 182 225 267 335 398
#     4  11  21  43  69  95 137 173 221 279 329 394
#     4  10  20  37  64 100 126 168 221 270 327 389
#     4  12  22  43  67  96 138 173 221 278 329 394
#     4  11  24  40  67 101 133 171 219 278 337 391
#     4   9  20  39  63  97 130 167 219 274 330 379
#
# _framework density 23.549129000000001
#
# number of rings (size 3 to 8) (size 9 to 14) (size 15 to 20)
#    0.000    1.429    4.286    1.286    2.000    5.143 
#    0.000    0.714    0.000    0.000    0.000    0.000 
#    0.000    0.000    0.000    0.000    0.000    0.000 
#
# Total GULP energy -173480.483786 kJ/mol
# GULP energy per Si atom -12391.463128 kJ/mol
# Density = 2.349553 g / cm^3
# Si number density = 23.549129 Si / 1000 Ang^3
#
#
#
# Elastic Constant Matrix: (Units=GPa)
#
#
# Indices 1 2 3 4 5 6 
#
# 1 63.6853 17.5514 40.0103 14.5060 10.7953 -11.5937
# 2 17.5514 87.8654 46.4974 -2.4584 10.2142 -12.2475
# 3 40.0103 46.4974 159.0725 12.4793 11.0025 -9.2504
# 4 14.5060 -2.4584 12.4793 46.0750 1.5664 -1.1626
# 5 10.7953 10.2142 11.0025 1.5664 35.4877 0.2625
# 6 -11.5937 -12.2475 -9.2504 -1.1626 0.2625 23.7240
#
#
#
# Elastic Compliance Matrix: (Units=1/GPa)
#
#
# Indices 1 2 3 4 5 6 
#
# 1 0.022150 -0.000599 -0.004105 -0.005500 -0.005115 0.008702
# 2 -0.000599 0.014752 -0.003780 0.002254 -0.003036 0.005994
# 3 -0.004105 -0.003780 0.008495 -0.001220 -0.000238 -0.000702
# 4 -0.005500 0.002254 -0.001220 0.023853 0.000356 -0.000835
# 5 -0.005115 -0.003036 -0.000238 0.000356 0.030700 -0.004482
# 6 0.008702 0.005994 -0.000702 -0.000835 -0.004482 0.049233
#
#
# Mechanical properties :
#
#
# Convention : Reuss Voigt Hill
#
# Bulk Modulus (GPa) = 35.17333 57.63793 46.40563
# Shear Modulus (GPa) = 28.46943 34.82827 31.64885
#
# Velocity S-wave (km/s) = 3.48075 3.84990 3.66997
# Velocity P-wave (km/s) = 5.57878 6.65515 6.14059
#
# Compressibility (1/GPa) = 0.02843063
#
# Stress axis : x y z
#
# Youngs Moduli (GPa) = 45.14646 67.78608 117.71438
#
# Poissons Ratio (x) = 0.04058 0.48322
# Poissons Ratio (y) = 0.02702 0.44495
# Poissons Ratio (z) = 0.18533 0.25622
#
# Static dielectric constant tensor:
#      x y z
#    x 4.110130 -0.151270 0.027720 
#    y -0.151270 4.394880 0.190970 
#    z 0.027720 0.190970 4.938430 
# 
# 
# High freq. dielectric constant tensor:
#      x y z
#    x 1.916540 -0.008610 0.001090 
#    y -0.008610 1.924100 0.002550 
#    z 0.001090 0.002550 1.945810 
# 
# From -- ./inp_files/575505.got.cif
#   From: 2010.06.25/outbox.cif.g09.slc.cpg/sg2_288_cif.got.tgz:575505.got - 2010.06.27 13:26:56.
