data_PCOD8004313
_publ_section_title
;
Structure prediction by ZEFSAII (Michael W. Deem and Ramdas Pophale) SiO2 
 PCOD8004313
Probable space group: P -1
;
_chemical_formula_sum "Si O2"
_cell_formula_units_Z 14
_cell_length_a 26.775362
_cell_length_b 12.270718
_cell_length_c 9.628706
_cell_angle_alpha 140.534062
_cell_angle_beta 36.827118
_cell_angle_gamma 159.445109
_cell_volume 661.955465
_symmetry_space_group_name_H-M "P -1"
_symmetry_group_IT_number 2
_symmetry_cell_setting 'triclinic'
loop_
_space_group_symop_operation_xyz
x,y,z
-x,-y,-z
loop_
_atom_site_type_symbol
_atom_site_label
_atom_site_fract_x
_atom_site_fract_y
_atom_site_fract_z
Si Si1 0.727496 0.591160 0.532951
Si Si2 0.683813 0.435967 0.781512
Si Si3 0.361850 0.301533 0.711745
Si Si4 0.944805 0.381525 0.350555
Si Si5 0.963600 0.715104 0.448547
Si Si6 0.421833 0.108698 0.597615
Si Si7 0.163503 0.586509 0.853862
O O1 0.651176 0.453569 0.718790
O O2 0.600225 0.424757 0.542297
O O3 0.803096 0.539907 0.276760
O O4 0.859701 0.958664 0.592622
O O5 0.866194 0.724437 0.679157
O O6 0.608023 0.116321 0.648007
O O7 0.622339 0.469873 0.059722
O O8 0.500000 0.500000 0.500000
O O9 0.372807 0.196268 0.715224
O O10 0.198368 0.993637 0.699899
O O11 0.892884 0.470664 0.483991
O O12 0.000000 0.500000 0.500000
O O13 0.087283 0.565149 0.122480
O O14 0.947664 0.610182 0.225909
O O15 0.324580 0.939795 0.790523
#
# Coordination Sequence:
#
# PCOD8004313 Si02
#       7
#     2   2   2   2   2   2   2
#     4  10  20  37  68 104 125 164 223 275 325 378
#     4  10  21  44  68  93 132 170 223 268 323 394
#     4  12  27  45  65  95 134 180 217 266 336 396
#     4  12  26  43  64 100 135 170 226 274 324 389
#     4  10  20  41  69  94 130 174 220 270 324 386
#     4  10  23  43  67 102 130 170 222 272 327 382
#     4  10  20  43  70  92 133 172 219 274 320 391
#
# _framework density 21.149459
#
# number of rings (size 3 to 8) (size 9 to 14) (size 15 to 20)
#    0.000    1.714    2.857    5.571    4.000    3.429 
#    2.571    1.429    0.000    0.000    0.000    0.000 
#    0.000    0.000    0.000    0.000    0.000    0.000 
#
# Total GULP energy -173560.153246 kJ/mol
# GULP energy per Si atom -12397.153803 kJ/mol
# Density = 2.110132 g / cm^3
# Si number density = 21.149459 Si / 1000 Ang^3
#
#
#
# Elastic Constant Matrix: (Units=GPa)
#
#
# Indices 1 2 3 4 5 6 
#
# 1 86.1640 27.3758 47.2306 4.2792 6.1055 19.1692
# 2 27.3758 104.8844 35.7188 -1.4911 1.5263 27.2110
# 3 47.2306 35.7188 150.3914 -9.4371 1.0288 3.2636
# 4 4.2792 -1.4911 -9.4371 20.9552 -2.2787 2.9375
# 5 6.1055 1.5263 1.0288 -2.2787 20.3801 0.9487
# 6 19.1692 27.2110 3.2636 2.9375 0.9487 39.6926
#
#
#
# Elastic Compliance Matrix: (Units=1/GPa)
#
#
# Indices 1 2 3 4 5 6 
#
# 1 0.016860 -0.000919 -0.005245 -0.005498 -0.005027 -0.006554
# 2 -0.000919 0.012763 -0.002495 0.001114 -0.000049 -0.008182
# 3 -0.005245 -0.002495 0.009108 0.004743 0.001684 0.003103
# 4 -0.005498 0.001114 0.004743 0.052206 0.007280 -0.002536
# 5 -0.005027 -0.000049 0.001684 0.007280 0.051280 0.000559
# 6 -0.006554 -0.008182 0.003103 -0.002536 0.000559 0.033887
#
#
# Mechanical properties :
#
#
# Convention : Reuss Voigt Hill
#
# Bulk Modulus (GPa) = 46.70030 62.45446 54.57738
# Shear Modulus (GPa) = 24.93012 31.61321 28.27167
#
# Velocity S-wave (km/s) = 3.43703 3.87040 3.66013
# Velocity P-wave (km/s) = 6.15467 7.04042 6.61239
#
# Compressibility (1/GPa) = 0.02141314
#
# Stress axis : x y z
#
# Youngs Moduli (GPa) = 59.31089 78.35089 109.79492
#
# Poissons Ratio (x) = 0.07201 0.57589
# Poissons Ratio (y) = 0.05451 0.27393
# Poissons Ratio (z) = 0.31109 0.19548
#
# Static dielectric constant tensor:
#      x y z
#    x 3.768970 0.019660 -0.176270 
#    y 0.019660 3.921050 0.135580 
#    z -0.176270 0.135580 3.612080 
# 
# 
# High freq. dielectric constant tensor:
#      x y z
#    x 1.824480 0.008760 -0.020640 
#    y 0.008760 1.832160 0.004420 
#    z -0.020640 0.004420 1.808910 
# 
# From -- ./inp_files/357091.got.cif
#   From: 2010.06.25/outbox.cif.g09.slc.cpg/sg2_179_cif.got.tgz:357091.got - 2010.06.27 13:26:56.
