data_PCOD8004848
_publ_section_title
;
Structure prediction by ZEFSAII (Michael W. Deem and Ramdas Pophale) SiO2 
 PCOD8004848
Probable space group: P -1
;
_chemical_formula_sum "Si O2"
_cell_formula_units_Z 14
_cell_length_a 16.720617
_cell_length_b 13.652964
_cell_length_c 11.694030
_cell_angle_alpha 100.000957
_cell_angle_beta 106.951980
_cell_angle_gamma 15.785695
_cell_volume 633.342628
_symmetry_space_group_name_H-M "P -1"
_symmetry_group_IT_number 2
_symmetry_cell_setting 'triclinic'
loop_
_space_group_symop_operation_xyz
x,y,z
-x,-y,-z
loop_
_atom_site_type_symbol
_atom_site_label
_atom_site_fract_x
_atom_site_fract_y
_atom_site_fract_z
Si Si1 0.715424 0.031513 0.470405
Si Si2 0.806252 0.075347 0.063750
Si Si3 0.481171 0.647688 0.765756
Si Si4 0.712715 0.033647 0.816830
Si Si5 0.373861 0.559067 0.605142
Si Si6 0.280764 0.350361 0.735715
Si Si7 0.609989 0.937888 0.425878
O O1 0.720586 0.046363 0.340101
O O2 0.558341 0.310233 0.518255
O O3 0.487400 0.194310 0.429674
O O4 0.087146 0.594858 0.585257
O O5 0.736453 0.100401 0.158979
O O6 0.500000 0.500000 0.000000
O O7 0.848263 0.947820 0.954829
O O8 0.143002 0.749977 0.140154
O O9 0.520426 0.492882 0.698623
O O10 0.434789 0.407872 0.699647
O O11 0.543364 0.134270 0.826987
O O12 0.023028 0.638346 0.790696
O O13 0.000000 0.000000 0.500000
O O14 0.476743 0.021192 0.721567
O O15 0.000000 0.500000 0.500000
O O16 0.500000 0.000000 0.500000
#
# Coordination Sequence:
#
# PCOD8004848 Si02
#       7
#     2   2   2   2   2   2   2
#     4  10  23  37  62  94 126 158 197 250 322 368
#     4  12  26  42  61  84 122 172 221 249 291 356
#     4  12  25  40  61  88 129 166 205 255 300 364
#     4  11  23  39  63  86 121 162 210 252 299 361
#     4  11  22  38  60  93 131 160 197 248 318 374
#     4  10  21  39  64  93 120 155 199 258 314 367
#     4  10  20  38  62  93 125 156 197 247 311 380
#
# _framework density 22.104939999999999
#
# number of rings (size 3 to 8) (size 9 to 14) (size 15 to 20)
#    0.000    1.143    1.429    6.000    4.000    4.571 
#    0.000    0.000    0.000    5.143    0.000    0.000 
#    0.000    0.000    0.000    0.000    0.000    0.000 
#
# Total GULP energy -173530.079114 kJ/mol
# GULP energy per Si atom -12395.005651 kJ/mol
# Density = 2.205463 g / cm^3
# Si number density = 22.104940 Si / 1000 Ang^3
#
#
#
# Elastic Constant Matrix: (Units=GPa)
#
#
# Indices 1 2 3 4 5 6 
#
# 1 99.5955 29.1679 34.6697 18.2880 16.0482 -24.1264
# 2 29.1679 81.7309 36.1227 28.2242 15.4190 -14.3599
# 3 34.6697 36.1227 106.0319 24.9909 18.1695 -2.9161
# 4 18.2880 28.2242 24.9909 33.9754 -5.8182 9.3969
# 5 16.0482 15.4190 18.1695 -5.8182 48.1806 0.1627
# 6 -24.1264 -14.3599 -2.9161 9.3969 0.1627 31.3778
#
#
#
# Elastic Compliance Matrix: (Units=1/GPa)
#
#
# Indices 1 2 3 4 5 6 
#
# 1 0.024820 0.014408 0.000219 -0.038890 -0.017783 0.037437
# 2 0.014408 0.040437 0.001355 -0.059957 -0.025653 0.047799
# 3 0.000219 0.001355 0.013747 -0.014406 -0.007452 0.006419
# 4 -0.038890 -0.059957 -0.014406 0.148998 0.055917 -0.103591
# 5 -0.017783 -0.025653 -0.007452 0.055917 0.044596 -0.043083
# 6 0.037437 0.047799 0.006419 -0.103591 -0.043083 0.114373
#
#
# Mechanical properties :
#
#
# Convention : Reuss Voigt Hill
#
# Bulk Modulus (GPa) = 9.01166 54.14211 31.57689
# Shear Modulus (GPa) = 12.75517 35.19998 23.97757
#
# Velocity S-wave (km/s) = 2.40475 3.99482 3.29708
# Velocity P-wave (km/s) = 3.43453 6.76938 5.36752
#
# Compressibility (1/GPa) = 0.11096734
#
# Stress axis : x y z
#
# Youngs Moduli (GPa) = 40.28956 24.72959 72.74317
#
# Poissons Ratio (x) = -0.35630 -0.01592
# Poissons Ratio (y) = -0.58048 -0.09854
# Poissons Ratio (z) = -0.00882 -0.03350
#
# Static dielectric constant tensor:
#      x y z
#    x -2.969210 -8.747910 -2.735460 
#    y -8.747910 -6.984880 -3.235710 
#    z -2.735460 -3.235710 3.028050 
# 
# 
# High freq. dielectric constant tensor:
#      x y z
#    x 1.882320 -0.002260 0.019750 
#    y -0.002260 1.866860 0.024800 
#    z 0.019750 0.024800 1.858000 
# 
# From -- ./inp_files/410532.got.cif
#   From: 2010.06.25/outbox.cif.g09.slc.cpg/sg2_206_cif.got.tgz:410532.got - 2010.06.27 13:26:56.
