data_PCOD8004691
_publ_section_title
;
Structure prediction by ZEFSAII (Michael W. Deem and Ramdas Pophale) SiO2 
 PCOD8004691
Probable space group: P -1
;
_chemical_formula_sum "Si O2"
_cell_formula_units_Z 16
_cell_length_a 6.596330
_cell_length_b 30.288924
_cell_length_c 27.241715
_cell_angle_alpha 8.609015
_cell_angle_beta 55.000041
_cell_angle_gamma 54.348026
_cell_volume 661.865525
_symmetry_space_group_name_H-M "P -1"
_symmetry_group_IT_number 2
_symmetry_cell_setting 'triclinic'
loop_
_space_group_symop_operation_xyz
x,y,z
-x,-y,-z
loop_
_atom_site_type_symbol
_atom_site_label
_atom_site_fract_x
_atom_site_fract_y
_atom_site_fract_z
Si Si1 0.293784 0.475043 0.318523
Si Si2 0.459752 0.176073 0.170365
Si Si3 0.572921 0.491941 0.632618
Si Si4 0.905239 0.050402 0.803426
Si Si5 0.391470 0.191046 0.350961
Si Si6 0.847164 0.212431 0.428037
Si Si7 0.764847 0.022294 0.751134
Si Si8 0.657367 0.695347 0.296998
O O1 0.236953 0.578133 0.269891
O O2 0.100492 0.256399 0.569575
O O3 0.583524 0.331609 0.439187
O O4 0.301537 0.729067 0.996990
O O5 0.556589 0.985285 0.412690
O O6 0.322790 0.970611 0.379676
O O7 0.281601 0.458196 0.905128
O O8 0.380591 0.792548 0.333610
O O9 0.734422 0.510622 0.539598
O O10 0.409618 0.228765 0.942793
O O11 0.966702 0.961258 0.835492
O O12 0.897485 0.774637 0.145492
O O13 0.093994 0.249443 0.322356
O O14 0.500000 0.000000 0.500000
O O15 0.500000 0.500000 0.000000
O O16 0.907596 0.025573 0.675779
O O17 0.500000 0.500000 0.500000
O O18 0.500000 0.000000 0.000000
#
# Coordination Sequence:
#
# PCOD8004691 Si02
#       8
#     2   2   2   2   2   2   2   2
#     4  10  23  39  61  97 128 166 232 281 330 397
#     4  11  25  45  70 102 139 182 226 283 340 409
#     4  10  20  39  62  85 131 169 220 278 334 396
#     4  10  22  37  62  91 128 178 220 280 339 391
#     4  12  28  47  73 107 139 178 228 273 333 421
#     4  11  25  45  72 100 141 182 225 280 348 395
#     4  10  21  39  62  92 128 172 219 281 333 393
#     4  10  20  38  61  89 128 178 224 270 341 405
#
# _framework density 24.174094
#
# number of rings (size 3 to 8) (size 9 to 14) (size 15 to 20)
#    0.000    1.500    2.500    1.500    1.750    7.500 
#    0.000    0.625    0.000    0.000    0.000    0.000 
#    0.000    0.000    0.000    0.000    0.000    0.000 
#
# Total GULP energy -198327.917522 kJ/mol
# GULP energy per Si atom -12395.494845 kJ/mol
# Density = 2.411907 g / cm^3
# Si number density = 24.174094 Si / 1000 Ang^3
#
#
#
# Elastic Constant Matrix: (Units=GPa)
#
#
# Indices 1 2 3 4 5 6 
#
# 1 121.5241 50.4659 52.4698 19.8354 -25.6883 38.8579
# 2 50.4659 152.2775 66.0926 17.7696 -13.8257 18.9231
# 3 52.4698 66.0926 159.0266 20.5842 -34.9020 16.4840
# 4 19.8354 17.7696 20.5842 52.5075 8.1382 -1.0047
# 5 -25.6883 -13.8257 -34.9020 8.1382 59.0297 2.5788
# 6 38.8579 18.9231 16.4840 -1.0047 2.5788 49.2260
#
#
#
# Elastic Compliance Matrix: (Units=1/GPa)
#
#
# Indices 1 2 3 4 5 6 
#
# 1 0.015810 -0.002039 -0.000672 -0.006397 0.007411 -0.011991
# 2 -0.002039 0.008634 -0.002773 -0.001029 -0.000329 -0.000785
# 3 -0.000672 -0.002773 0.009428 -0.003342 0.005177 -0.001900
# 4 -0.006397 -0.001029 -0.003342 0.024616 -0.008724 0.007524
# 5 0.007411 -0.000329 0.005177 -0.008724 0.024743 -0.008932
# 6 -0.011991 -0.000785 -0.001900 0.007524 -0.008932 0.031339
#
#
# Mechanical properties :
#
#
# Convention : Reuss Voigt Hill
#
# Bulk Modulus (GPa) = 43.65810 85.65386 64.65598
# Shear Modulus (GPa) = 37.54524 49.73929 43.64226
#
# Velocity S-wave (km/s) = 3.94524 4.54094 4.25353
# Velocity P-wave (km/s) = 6.23316 7.93741 7.13634
#
# Compressibility (1/GPa) = 0.02290526
#
# Stress axis : x y z
#
# Youngs Moduli (GPa) = 63.24978 115.82088 106.06470
#
# Poissons Ratio (x) = 0.23612 0.07124
# Poissons Ratio (y) = 0.12895 0.29415
# Poissons Ratio (z) = 0.04248 0.32121
#
# Static dielectric constant tensor:
#      x y z
#    x 4.858010 0.438570 0.636650 
#    y 0.438570 5.180590 0.297840 
#    z 0.636650 0.297840 4.894660 
# 
# 
# High freq. dielectric constant tensor:
#      x y z
#    x 1.963290 0.009690 0.010690 
#    y 0.009690 1.986070 0.004510 
#    z 0.010690 0.004510 1.972590 
# 
# From -- ./inp_files/10805.got.cif
#   From: 2010.06.25/outbox.cif.g09.slc.cpg/sg2_6_cif.got.tgz:10805.got - 2010.06.27 13:26:56.
