data_PCOD8004220
_publ_section_title
;
Structure prediction by ZEFSAII (Michael W. Deem and Ramdas Pophale) SiO2 
 PCOD8004220
Probable space group: P -1
;
_chemical_formula_sum "Si O2"
_cell_formula_units_Z 16
_cell_length_a 9.865427
_cell_length_b 13.905284
_cell_length_c 9.455437
_cell_angle_alpha 139.123496
_cell_angle_beta 93.982755
_cell_angle_gamma 66.431755
_cell_volume 717.033886
_symmetry_space_group_name_H-M "P -1"
_symmetry_group_IT_number 2
_symmetry_cell_setting 'triclinic'
loop_
_space_group_symop_operation_xyz
x,y,z
-x,-y,-z
loop_
_atom_site_type_symbol
_atom_site_label
_atom_site_fract_x
_atom_site_fract_y
_atom_site_fract_z
Si Si1 0.848826 0.823837 0.092234
Si Si2 0.665995 0.078779 0.579231
Si Si3 0.110499 0.765961 0.273632
Si Si4 0.403574 0.440016 0.014882
Si Si5 0.071451 0.525679 0.392924
Si Si6 0.353842 0.580774 0.472682
Si Si7 0.137954 0.132931 0.402423
Si Si8 0.831491 0.029922 0.056382
O O1 0.997526 0.793050 0.163958
O O2 0.683728 0.977861 0.322471
O O3 0.858704 0.878678 0.995305
O O4 0.845615 0.649111 0.889788
O O5 0.783762 0.153322 0.667946
O O6 0.720162 0.934533 0.546873
O O7 0.481715 0.234359 0.763965
O O8 0.218425 0.558736 0.084331
O O9 0.012151 0.857821 0.513944
O O10 0.423763 0.476634 0.218244
O O11 0.500000 0.500000 0.000000
O O12 0.204373 0.567510 0.497785
O O13 0.000000 0.500000 0.500000
O O14 0.928883 0.676831 0.455853
O O15 0.500000 0.500000 0.500000
O O16 0.291780 0.783480 0.677135
O O17 0.224080 0.993000 0.127443
O O18 0.000000 0.000000 0.000000
#
# Coordination Sequence:
#
# PCOD8004220 Si02
#       8
#     2   2   2   2   2   2   2   2
#     4  11  23  38  64  93 132 171 221 272 331 385
#     4  10  21  36  65  96 130 171 227 270 321 399
#     4  10  20  37  65  98 129 170 220 277 325 391
#     4  10  20  40  62  96 136 166 214 277 330 386
#     4  12  25  44  66 101 141 173 221 283 337 393
#     4  12  26  44  71  97 133 177 226 276 338 398
#     4  11  20  37  64  91 129 168 223 272 326 384
#     4  12  19  37  68  96 122 173 229 272 316 392
#
# _framework density 22.314146999999998
#
# number of rings (size 3 to 8) (size 9 to 14) (size 15 to 20)
#    0.000    1.000    3.750    5.250    0.000    5.000 
#    0.000    1.250    2.750    0.000    0.000    0.000 
#    0.000    0.000    0.000    0.000    0.000    0.000 
#
# Total GULP energy -198283.118704 kJ/mol
# GULP energy per Si atom -12392.694919 kJ/mol
# Density = 2.226336 g / cm^3
# Si number density = 22.314147 Si / 1000 Ang^3
#
#
#
# Elastic Constant Matrix: (Units=GPa)
#
#
# Indices 1 2 3 4 5 6 
#
# 1 38.4561 31.4759 22.6991 2.4638 -2.5347 1.5487
# 2 31.4759 142.6639 40.6684 10.7672 -14.6017 -1.2154
# 3 22.6991 40.6684 142.0216 18.9154 -19.5165 -2.9806
# 4 2.4638 10.7672 18.9154 53.2917 1.7790 -10.5805
# 5 -2.5347 -14.6017 -19.5165 1.7790 32.1624 5.1270
# 6 1.5487 -1.2154 -2.9806 -10.5805 5.1270 26.4677
#
#
#
# Elastic Compliance Matrix: (Units=1/GPa)
#
#
# Indices 1 2 3 4 5 6 
#
# 1 0.033631 -0.006627 -0.003986 0.000913 -0.002530 -0.001866
# 2 -0.006627 0.009174 -0.000946 -0.001416 0.003225 -0.000488
# 3 -0.003986 -0.000946 0.009057 -0.003221 0.005100 -0.001066
# 4 0.000913 -0.001416 -0.003221 0.022195 -0.005253 0.009409
# 5 -0.002530 0.003225 0.005100 -0.005253 0.037083 -0.008413
# 6 -0.001866 -0.000488 -0.001066 0.009409 -0.008413 0.043140
#
#
# Mechanical properties :
#
#
# Convention : Reuss Voigt Hill
#
# Bulk Modulus (GPa) = 34.79179 56.98093 45.88636
# Shear Modulus (GPa) = 26.74090 37.60423 32.17257
#
# Velocity S-wave (km/s) = 3.46552 4.10960 3.80123
# Velocity P-wave (km/s) = 5.62484 6.93611 6.31460
#
# Compressibility (1/GPa) = 0.02874241
#
# Stress axis : x y z
#
# Youngs Moduli (GPa) = 29.73470 109.00118 110.41581
#
# Poissons Ratio (x) = 0.72240 0.44009
# Poissons Ratio (y) = 0.19707 0.10449
# Poissons Ratio (z) = 0.11852 0.10315
#
# Static dielectric constant tensor:
#      x y z
#    x 3.787910 -0.119480 -0.477540 
#    y -0.119480 4.765880 0.773820 
#    z -0.477540 0.773820 4.878330 
# 
# 
# High freq. dielectric constant tensor:
#      x y z
#    x 1.835200 0.007290 -0.020970 
#    y 0.007290 1.899410 0.006350 
#    z -0.020970 0.006350 1.896700 
# 
# From -- ./inp_files/274681.got.cif
#   From: 2010.06.25/outbox.cif.g09.slc.cpg/sg2_138_cif.got.tgz:274681.got - 2010.06.27 13:26:56.
