data_PCOD8004370
_publ_section_title
;
Structure prediction by ZEFSAII (Michael W. Deem and Ramdas Pophale) SiO2 
 PCOD8004370
Probable space group: P -1
;
_chemical_formula_sum "Si O2"
_cell_formula_units_Z 16
_cell_length_a 19.468663
_cell_length_b 8.166671
_cell_length_c 20.406077
_cell_angle_alpha 64.903357
_cell_angle_beta 158.363926
_cell_angle_gamma 126.870798
_cell_volume 853.216695
_symmetry_space_group_name_H-M "P -1"
_symmetry_group_IT_number 2
_symmetry_cell_setting 'triclinic'
loop_
_space_group_symop_operation_xyz
x,y,z
-x,-y,-z
loop_
_atom_site_type_symbol
_atom_site_label
_atom_site_fract_x
_atom_site_fract_y
_atom_site_fract_z
Si Si1 0.006997 0.830553 0.744630
Si Si2 0.942484 0.756932 0.478566
Si Si3 0.057822 0.566497 0.730877
Si Si4 0.614086 0.052623 0.406913
Si Si5 0.791655 0.942123 0.986375
Si Si6 0.305647 0.273129 0.404482
Si Si7 0.539684 0.437706 0.872196
Si Si8 0.778543 0.986232 0.432632
O O1 0.761096 0.666011 0.596481
O O2 0.972781 0.965752 0.637602
O O3 0.073061 0.684429 0.792632
O O4 0.213300 0.014158 0.947095
O O5 0.656561 0.574478 0.255488
O O6 0.050796 0.694451 0.641067
O O7 0.000000 0.000000 0.500000
O O8 0.072136 0.785830 0.520159
O O9 0.828223 0.305327 0.577149
O O10 0.293127 0.585558 0.929833
O O11 0.596657 0.867967 0.469143
O O12 0.652676 0.027485 0.369484
O O13 0.367130 0.010542 0.202337
O O14 0.695318 0.683169 0.932726
O O15 0.064370 0.114282 0.173864
O O16 0.500000 0.500000 0.500000
O O17 0.418941 0.244507 0.742171
#
# Coordination Sequence:
#
# PCOD8004370 Si02
#       8
#     2   2   2   2   2   2   2   2
#     4   9  19  37  59  80 116 149 186 226 294 333
#     4  10  21  36  55  81 120 147 203 238 271 322
#     4  12  20  37  59  82 114 158 189 233 283 332
#     4  11  21  38  62  84 115 155 187 229 291 337
#     4  10  20  38  60  86 110 152 188 228 287 347
#     4   9  21  40  62  87 115 139 185 239 283 345
#     4  11  20  36  59  82 115 157 191 235 281 330
#     4  10  20  38  56  82 118 153 193 239 279 323
#
# _framework density 18.752562999999999
#
# number of rings (size 3 to 8) (size 9 to 14) (size 15 to 20)
#    0.750    1.000    5.000    0.750    0.000    3.000 
#    2.250    1.875    0.000    3.750    0.000    0.000 
#    0.000    0.000    0.000    0.000    0.000    0.000 
#
# Total GULP energy -198284.708110 kJ/mol
# GULP energy per Si atom -12392.794257 kJ/mol
# Density = 1.870988 g / cm^3
# Si number density = 18.752563 Si / 1000 Ang^3
#
#
#
# Elastic Constant Matrix: (Units=GPa)
#
#
# Indices 1 2 3 4 5 6 
#
# 1 35.6857 12.1818 2.7430 -0.2874 2.6549 -0.1964
# 2 12.1818 79.4579 30.5944 -6.8563 4.6723 2.6937
# 3 2.7430 30.5944 127.2532 -17.1549 7.1924 -3.3871
# 4 -0.2874 -6.8563 -17.1549 40.3261 -2.4484 -0.0497
# 5 2.6549 4.6723 7.1924 -2.4484 23.5814 2.4674
# 6 -0.1964 2.6937 -3.3871 -0.0497 2.4674 22.2319
#
#
#
# Elastic Compliance Matrix: (Units=1/GPa)
#
#
# Indices 1 2 3 4 5 6 
#
# 1 0.029799 -0.004727 0.000618 -0.000496 -0.002788 0.001239
# 2 -0.004727 0.014814 -0.003324 0.001004 -0.001052 -0.002224
# 3 0.000618 -0.003324 0.009257 0.003251 -0.002112 0.002060
# 4 -0.000496 0.001004 0.003251 0.026445 0.001584 0.000252
# 5 -0.002788 -0.001052 -0.002112 0.001584 0.044274 -0.005129
# 6 0.001239 -0.002224 0.002060 0.000252 -0.005129 0.046145
#
#
# Mechanical properties :
#
#
# Convention : Reuss Voigt Hill
#
# Bulk Modulus (GPa) = 25.63933 37.04835 31.34384
# Shear Modulus (GPa) = 25.17614 30.35304 27.76459
#
# Velocity S-wave (km/s) = 3.66805 4.02756 3.85200
# Velocity P-wave (km/s) = 5.62508 6.43643 6.04438
#
# Compressibility (1/GPa) = 0.03900258
#
# Stress axis : x y z
#
# Youngs Moduli (GPa) = 33.55824 67.50446 108.02941
#
# Poissons Ratio (x) = 0.31911 -0.06675
# Poissons Ratio (y) = 0.15864 0.35909
# Poissons Ratio (z) = -0.02073 0.22439
#
# Static dielectric constant tensor:
#      x y z
#    x 3.315180 -0.082220 0.065000 
#    y -0.082220 3.393170 -0.069990 
#    z 0.065000 -0.069990 3.628880 
# 
# 
# High freq. dielectric constant tensor:
#      x y z
#    x 1.694640 -0.010100 0.002430 
#    y -0.010100 1.725220 -0.008990 
#    z 0.002430 -0.008990 1.739400 
# 
# From -- ./inp_files/214980.got.cif
#   From: 2010.06.25/outbox.cif.g09.slc.cpg/sg2_108_cif.got.tgz:214980.got - 2010.06.27 13:26:56.
