data_PCOD8004836
_publ_section_title
;
Structure prediction by ZEFSAII (Michael W. Deem and Ramdas Pophale) SiO2 
 PCOD8004836
Probable space group: P -1
;
_chemical_formula_sum "Si O2"
_cell_formula_units_Z 16
_cell_length_a 8.666254
_cell_length_b 15.595612
_cell_length_c 15.329427
_cell_angle_alpha 35.869988
_cell_angle_beta 127.540022
_cell_angle_gamma 142.000256
_cell_volume 744.948003
_symmetry_space_group_name_H-M "P -1"
_symmetry_group_IT_number 2
_symmetry_cell_setting 'triclinic'
loop_
_space_group_symop_operation_xyz
x,y,z
-x,-y,-z
loop_
_atom_site_type_symbol
_atom_site_label
_atom_site_fract_x
_atom_site_fract_y
_atom_site_fract_z
Si Si1 0.714341 0.900856 0.495229
Si Si2 0.104602 0.327004 0.541265
Si Si3 0.381276 0.789343 0.616607
Si Si4 0.263775 0.933483 0.919801
Si Si5 0.587001 0.731605 0.416389
Si Si6 0.218281 0.728073 0.793246
Si Si7 0.712795 0.343341 0.936738
Si Si8 0.148554 0.100262 0.879286
O O1 0.588656 0.790836 0.634767
O O2 0.565458 0.735455 0.509227
O O3 0.685276 0.060705 0.344058
O O4 0.000000 0.000000 0.500000
O O5 0.322002 0.549774 0.441045
O O6 0.181810 0.260875 0.540990
O O7 0.066281 0.212376 0.711057
O O8 0.859635 0.302993 0.452918
O O9 0.319312 0.692913 0.769704
O O10 0.500000 0.000000 0.500000
O O11 0.153845 0.734824 0.999574
O O12 0.356508 0.080178 0.753355
O O13 0.086123 0.937110 0.924578
O O14 0.500000 0.000000 0.000000
O O15 0.333977 0.705572 0.936378
O O16 0.912780 0.571532 0.811632
O O17 0.448700 0.257669 0.870752
O O18 0.000000 0.000000 0.000000
#
# Coordination Sequence:
#
# PCOD8004836 Si02
#       8
#     2   2   2   2   2   2   2   2
#     4  11  23  40  63  90 122 161 202 257 319 370
#     4  10  23  38  63  93 122 162 206 254 318 364
#     4  10  23  39  62  90 123 161 201 258 311 368
#     4   9  19  36  60  85 118 161 202 245 303 358
#     4  10  20  38  62  92 121 159 204 259 301 374
#     4  10  22  40  65  87 123 164 210 254 301 373
#     4  10  21  41  63  89 119 170 213 243 308 370
#     4  10  23  38  63  90 128 161 201 260 309 372
#
# _framework density 21.478007999999999
#
# number of rings (size 3 to 8) (size 9 to 14) (size 15 to 20)
#    0.000    2.000    1.250    1.500   12.250    0.500 
#    2.250    0.000    0.000    3.000    0.000    0.000 
#    0.000    0.000    0.000    0.000    0.000    0.000 
#
# Total GULP energy -198242.696480 kJ/mol
# GULP energy per Si atom -12390.168530 kJ/mol
# Density = 2.142912 g / cm^3
# Si number density = 21.478008 Si / 1000 Ang^3
#
#
#
# Elastic Constant Matrix: (Units=GPa)
#
#
# Indices 1 2 3 4 5 6 
#
# 1 115.1304 34.2159 26.2149 15.7301 -33.0714 -14.0591
# 2 34.2159 79.3322 7.7094 6.3465 -7.8439 -11.8869
# 3 26.2149 7.7094 43.8249 8.8758 -20.5669 -18.7072
# 4 15.7301 6.3465 8.8758 32.3232 -8.0580 -5.8470
# 5 -33.0714 -7.8439 -20.5669 -8.0580 36.5123 8.2420
# 6 -14.0591 -11.8869 -18.7072 -5.8470 8.2420 33.7954
#
#
#
# Elastic Compliance Matrix: (Units=1/GPa)
#
#
# Indices 1 2 3 4 5 6 
#
# 1 0.013659 -0.004505 -0.002386 -0.002751 0.009454 -0.000005
# 2 -0.004505 0.015001 0.001545 -0.000660 -0.001130 0.004419
# 3 -0.002386 0.001545 0.039179 -0.002911 0.015786 0.016885
# 4 -0.002751 -0.000660 -0.002911 0.034310 0.002786 0.002269
# 5 0.009454 -0.001130 0.015786 0.002786 0.044802 0.001829
# 6 -0.000005 0.004419 0.016885 0.002269 0.001829 0.040435
#
#
# Mechanical properties :
#
#
# Convention : Reuss Voigt Hill
#
# Bulk Modulus (GPa) = 17.49864 41.61867 29.55866
# Shear Modulus (GPa) = 23.02802 31.86934 27.44868
#
# Velocity S-wave (km/s) = 3.27795 3.85621 3.57878
# Velocity P-wave (km/s) = 4.74252 6.26470 5.55599
#
# Compressibility (1/GPa) = 0.05714729
#
# Stress axis : x y z
#
# Youngs Moduli (GPa) = 73.21224 66.66105 25.52406
#
# Poissons Ratio (x) = 0.30031 0.06090
# Poissons Ratio (y) = 0.32983 -0.03944
# Poissons Ratio (z) = 0.17469 -0.10302
#
# Static dielectric constant tensor:
#      x y z
#    x 10.271590 -4.002990 0.591140 
#    y -4.002990 5.920050 -0.535500 
#    z 0.591140 -0.535500 4.112040 
# 
# 
# High freq. dielectric constant tensor:
#      x y z
#    x 1.831050 -0.018960 -0.019540 
#    y -0.018960 1.850300 0.005680 
#    z -0.019540 0.005680 1.831860 
# 
# From -- ./inp_files/346127.got.cif
#   From: 2010.06.25/outbox.cif.g09.slc.cpg/sg2_174_cif.got.tgz:346127.got - 2010.06.27 13:26:56.
