data_PCOD8004285
_publ_section_title
;
Structure prediction by ZEFSAII (Michael W. Deem and Ramdas Pophale) SiO2 
 PCOD8004285
Probable space group: P -1
;
_chemical_formula_sum "Si O2"
_cell_formula_units_Z 12
_cell_length_a 12.112718
_cell_length_b 8.695499
_cell_length_c 7.307649
_cell_angle_alpha 126.342270
_cell_angle_beta 53.170114
_cell_angle_gamma 127.110890
_cell_volume 458.018801
_symmetry_space_group_name_H-M "P -1"
_symmetry_group_IT_number 2
_symmetry_cell_setting 'triclinic'
loop_
_space_group_symop_operation_xyz
x,y,z
-x,-y,-z
loop_
_atom_site_type_symbol
_atom_site_label
_atom_site_fract_x
_atom_site_fract_y
_atom_site_fract_z
Si Si1 0.147051 0.472973 0.890058
Si Si2 0.885579 0.306944 0.584129
Si Si3 0.657871 0.882666 0.902890
Si Si4 0.420074 0.549672 0.443746
Si Si5 0.014025 0.985328 0.192409
Si Si6 0.593843 0.985684 0.628150
O O1 0.195997 0.608147 0.121083
O O2 0.269985 0.571604 0.682254
O O3 0.000000 0.500000 0.000000
O O4 0.116344 0.232058 0.776204
O O5 0.000000 0.500000 0.500000
O O6 0.741639 0.154757 0.502620
O O7 0.979034 0.168842 0.458285
O O8 0.617601 0.635546 0.794632
O O9 0.647362 0.944346 0.746639
O O10 0.824994 0.006474 0.899051
O O11 0.539536 0.933851 0.177429
O O12 0.500000 0.500000 0.500000
O O13 0.531861 0.775083 0.418522
O O14 0.000000 0.000000 0.000000
#
# Coordination Sequence:
#
# PCOD8004285 Si02
#       6
#     2   2   2   2   2   2
#     4  12  24  41  71 101 129 176 236 284 333 403
#     4  12  25  44  66  97 143 185 223 283 347 413
#     4  10  21  41  70 102 131 173 230 287 338 402
#     4  10  20  37  67 102 127 164 227 286 335 389
#     4  12  25  44  66  99 143 185 226 277 347 409
#     4  10  21  41  70  99 133 174 229 284 345 404
#
# _framework density 26.199795999999999
#
# number of rings (size 3 to 8) (size 9 to 14) (size 15 to 20)
#    0.000    1.000    1.667    8.000    0.000    2.000 
#    0.000    1.667    3.667    0.000    0.000    0.000 
#    0.000    0.000    0.000    0.000    0.000    0.000 
#
# Total GULP energy -148741.947211 kJ/mol
# GULP energy per Si atom -12395.162268 kJ/mol
# Density = 2.614016 g / cm^3
# Si number density = 26.199796 Si / 1000 Ang^3
#
#
#
# Elastic Constant Matrix: (Units=GPa)
#
#
# Indices 1 2 3 4 5 6 
#
# 1 97.5308 23.1806 22.2928 -3.5429 -21.7707 23.6500
# 2 23.1806 215.9507 50.5892 26.2173 -12.2275 35.1183
# 3 22.2928 50.5892 78.7664 37.4754 -30.4297 3.9052
# 4 -3.5429 26.2173 37.4754 39.9676 6.2990 -3.6402
# 5 -21.7707 -12.2275 -30.4297 6.2990 44.4087 -6.5003
# 6 23.6500 35.1183 3.9052 -3.6402 -6.5003 36.7804
#
#
#
# Elastic Compliance Matrix: (Units=1/GPa)
#
#
# Indices 1 2 3 4 5 6 
#
# 1 0.013986 0.000716 -0.007518 0.007119 -0.000312 -0.008229
# 2 0.000716 0.006701 -0.005478 0.000609 -0.002621 -0.006680
# 3 -0.007518 -0.005478 0.084495 -0.086252 0.065544 0.004140
# 4 0.007119 0.000609 -0.086252 0.117698 -0.071703 0.002976
# 5 -0.000312 -0.002621 0.065544 -0.071703 0.077058 0.002267
# 6 -0.008229 -0.006680 0.004140 0.002976 0.002267 0.039114
#
#
# Mechanical properties :
#
#
# Convention : Reuss Voigt Hill
#
# Bulk Modulus (GPa) = 12.40341 64.93033 38.66687
# Shear Modulus (GPa) = 12.80464 43.97701 28.39083
#
# Velocity S-wave (km/s) = 2.21312 4.10143 3.29542
# Velocity P-wave (km/s) = 3.35783 6.87499 5.41020
#
# Compressibility (1/GPa) = 0.08062302
#
# Stress axis : x y z
#
# Youngs Moduli (GPa) = 71.50175 149.23036 11.83502
#
# Poissons Ratio (x) = -0.10688 0.08897
# Poissons Ratio (y) = -0.05121 0.06483
# Poissons Ratio (z) = 0.53753 0.81745
#
# Static dielectric constant tensor:
#      x y z
#    x 4.355300 0.162570 -0.542120 
#    y 0.162570 5.428230 0.534520 
#    z -0.542120 0.534520 4.346260 
# 
# 
# High freq. dielectric constant tensor:
#      x y z
#    x 2.037900 0.024080 -0.024130 
#    y 0.024080 2.068130 0.024370 
#    z -0.024130 0.024370 2.047820 
# 
# From -- ./inp_files/150129.got.cif
#   From: 2010.06.25/outbox.cif.g09.slc.cpg/sg2_76_cif.got.tgz:150129.got - 2010.06.27 13:26:56.
