data_PCOD8004247
_publ_section_title
;
Structure prediction by ZEFSAII (Michael W. Deem and Ramdas Pophale) SiO2 
 PCOD8004247
Probable space group: P -1
;
_chemical_formula_sum "Si O2"
_cell_formula_units_Z 16
_cell_length_a 13.462866
_cell_length_b 20.906368
_cell_length_c 21.919198
_cell_angle_alpha 159.192993
_cell_angle_beta 21.415063
_cell_angle_gamma 149.541883
_cell_volume 798.542338
_symmetry_space_group_name_H-M "P -1"
_symmetry_group_IT_number 2
_symmetry_cell_setting 'triclinic'
loop_
_space_group_symop_operation_xyz
x,y,z
-x,-y,-z
loop_
_atom_site_type_symbol
_atom_site_label
_atom_site_fract_x
_atom_site_fract_y
_atom_site_fract_z
Si Si1 0.850650 0.864265 0.631459
Si Si2 0.240885 0.495852 0.686503
Si Si3 0.688087 0.979871 0.170719
Si Si4 0.288299 0.288484 0.182266
Si Si5 0.354810 0.667175 0.432377
Si Si6 0.529058 0.226236 0.119718
Si Si7 0.662317 0.627870 0.099481
Si Si8 0.458792 0.768065 0.219434
O O1 0.830019 0.714310 0.455289
O O2 0.678165 0.809375 0.739367
O O3 0.162040 0.872116 0.481157
O O4 0.748553 0.057799 0.836217
O O5 0.500000 0.500000 0.500000
O O6 0.311642 0.592274 0.795869
O O7 0.989602 0.611096 0.901512
O O8 0.554008 0.183065 0.437306
O O9 0.658585 0.866141 0.147889
O O10 0.574271 0.873504 0.082803
O O11 0.000000 0.000000 0.000000
O O12 0.421661 0.470616 0.247170
O O13 0.357496 0.251344 0.179289
O O14 0.963597 0.304931 0.376906
O O15 0.532480 0.701083 0.301625
O O16 0.580754 0.771099 0.220631
O O17 0.542262 0.437003 0.984594
#
# Coordination Sequence:
#
# PCOD8004247 Si02
#       8
#     2   2   2   2   2   2   2   2
#     4   9  20  38  59  88 120 147 197 253 285 347
#     4   9  20  39  55  87 123 148 190 242 290 353
#     4  10  22  40  56  88 124 152 196 245 290 354
#     4  10  21  40  59  84 122 159 197 239 293 353
#     4  10  21  38  61  87 119 152 198 250 290 346
#     4  10  20  38  62  83 118 161 196 233 297 353
#     4  10  20  37  66  91 117 154 193 249 304 341
#     4  10  20  38  64  90 121 150 193 251 304 337
#
# _framework density 20.036508999999999
#
# number of rings (size 3 to 8) (size 9 to 14) (size 15 to 20)
#    0.000    2.250    1.250    0.750    1.750    2.500 
#   13.500    1.250    0.000    0.000    0.000    0.000 
#    0.000    0.000    0.000    0.000    0.000    0.000 
#
# Total GULP energy -198334.496653 kJ/mol
# GULP energy per Si atom -12395.906041 kJ/mol
# Density = 1.999091 g / cm^3
# Si number density = 20.036509 Si / 1000 Ang^3
#
#
#
# Elastic Constant Matrix: (Units=GPa)
#
#
# Indices 1 2 3 4 5 6 
#
# 1 100.3596 37.8352 54.6891 22.6524 12.4253 5.2475
# 2 37.8352 83.9957 36.5647 -0.4520 3.5864 0.3178
# 3 54.6891 36.5647 102.5284 6.0552 11.7455 10.7496
# 4 22.6524 -0.4520 6.0552 33.9518 8.0455 5.4082
# 5 12.4253 3.5864 11.7455 8.0455 29.9054 3.9246
# 6 5.2475 0.3178 10.7496 5.4082 3.9246 20.5960
#
#
#
# Elastic Compliance Matrix: (Units=1/GPa)
#
#
# Indices 1 2 3 4 5 6 
#
# 1 0.018544 -0.005091 -0.007509 -0.011147 -0.001472 0.002481
# 2 -0.005091 0.015638 -0.003300 0.003855 0.000274 0.001714
# 3 -0.007509 -0.003300 0.015736 0.003903 -0.002831 -0.006734
# 4 -0.011147 0.003855 0.003903 0.039176 -0.006821 -0.008244
# 5 -0.001472 0.000274 -0.002831 -0.006821 0.037423 -0.003492
# 6 0.002481 0.001714 -0.006734 -0.008244 -0.003492 0.054239
#
#
# Mechanical properties :
#
#
# Convention : Reuss Voigt Hill
#
# Bulk Modulus (GPa) = 55.19617 60.56241 57.87929
# Shear Modulus (GPa) = 22.87352 27.41030 25.14191
#
# Velocity S-wave (km/s) = 3.38241 3.70268 3.54617
# Velocity P-wave (km/s) = 6.54690 6.96932 6.76141
#
# Compressibility (1/GPa) = 0.01811720
#
# Stress axis : x y z
#
# Youngs Moduli (GPa) = 53.92636 63.94840 63.55045
#
# Poissons Ratio (x) = 0.32554 0.47720
# Poissons Ratio (y) = 0.27452 0.20973
# Poissons Ratio (z) = 0.40493 0.21104
#
# Static dielectric constant tensor:
#      x y z
#    x 3.725150 0.305690 0.429970 
#    y 0.305690 3.559980 0.116110 
#    z 0.429970 0.116110 3.850670 
# 
# 
# High freq. dielectric constant tensor:
#      x y z
#    x 1.764100 0.013420 0.021270 
#    y 0.013420 1.778410 0.004280 
#    z 0.021270 0.004280 1.790260 
# 
# From -- ./inp_files/612264.got.cif
#   From: 2010.06.25/outbox.cif.g09.slc.cpg/sg2_307_cif.got.tgz:612264.got - 2010.06.27 13:26:56.
