data_PCOD8004823
_publ_section_title
;
Structure prediction by ZEFSAII (Michael W. Deem and Ramdas Pophale) SiO2 
 PCOD8004823
Probable space group: P -1
;
_chemical_formula_sum "Si O2"
_cell_formula_units_Z 16
_cell_length_a 14.003216
_cell_length_b 9.260340
_cell_length_c 11.351279
_cell_angle_alpha 102.888153
_cell_angle_beta 146.751748
_cell_angle_gamma 67.805352
_cell_volume 734.627810
_symmetry_space_group_name_H-M "P -1"
_symmetry_group_IT_number 2
_symmetry_cell_setting 'triclinic'
loop_
_space_group_symop_operation_xyz
x,y,z
-x,-y,-z
loop_
_atom_site_type_symbol
_atom_site_label
_atom_site_fract_x
_atom_site_fract_y
_atom_site_fract_z
Si Si1 0.392873 0.338972 0.764002
Si Si2 0.076360 0.885534 0.450353
Si Si3 0.712252 0.507532 0.816533
Si Si4 0.143027 0.152727 0.449702
Si Si5 0.983365 0.829837 0.934914
Si Si6 0.927516 0.731578 0.102932
Si Si7 0.661015 0.490490 0.499345
Si Si8 0.232919 0.664737 0.768332
O O1 0.316497 0.197179 0.683140
O O2 0.336212 0.392596 0.581118
O O3 0.299820 0.475047 0.790667
O O4 0.615499 0.279218 0.998269
O O5 0.213836 0.723542 0.622692
O O6 0.893563 0.866651 0.192730
O O7 0.181096 0.969332 0.487374
O O8 0.000000 0.000000 0.500000
O O9 0.658405 0.571771 0.639416
O O10 0.525639 0.553799 0.710940
O O11 0.840943 0.598801 0.020241
O O12 0.818954 0.317060 0.895964
O O13 0.132144 0.169857 0.300939
O O14 0.954402 0.271124 0.337024
O O15 0.869948 0.799919 0.925068
O O16 0.000000 0.000000 0.000000
O O17 0.153737 0.665203 0.337841
#
# Coordination Sequence:
#
# PCOD8004823 Si02
#       8
#     2   2   2   2   2   2   2   2
#     4  11  21  38  64  89 117 153 199 252 293 348
#     4  10  22  41  60  85 124 161 199 243 294 356
#     4  10  22  37  65  90 118 161 196 243 301 352
#     4  11  22  40  62  86 120 160 193 242 307 351
#     4  11  21  36  64  92 122 154 192 248 303 354
#     4  11  20  41  64  88 119 161 201 241 293 359
#     4  10  20  38  62  91 121 146 205 249 291 352
#     4  10  23  40  59  89 119 153 203 248 287 352
#
# _framework density 21.779736
#
# number of rings (size 3 to 8) (size 9 to 14) (size 15 to 20)
#    0.000    1.500    2.500    4.125    0.000    0.500 
#    9.000    2.500    0.000    7.500    0.000    0.000 
#    0.000    0.000    0.000    0.000    0.000    0.000 
#
# Total GULP energy -198298.196115 kJ/mol
# GULP energy per Si atom -12393.637257 kJ/mol
# Density = 2.173016 g / cm^3
# Si number density = 21.779736 Si / 1000 Ang^3
#
#
#
# Elastic Constant Matrix: (Units=GPa)
#
#
# Indices 1 2 3 4 5 6 
#
# 1 68.5704 28.9781 35.1818 15.0974 -10.3313 5.9352
# 2 28.9781 112.4775 45.1336 32.9991 9.1860 19.8404
# 3 35.1818 45.1336 95.0916 29.6647 -5.3746 11.5095
# 4 15.0974 32.9991 29.6647 35.9821 7.8664 -0.1479
# 5 -10.3313 9.1860 -5.3746 7.8664 40.7684 -0.9760
# 6 5.9352 19.8404 11.5095 -0.1479 -0.9760 26.7403
#
#
#
# Elastic Compliance Matrix: (Units=1/GPa)
#
#
# Indices 1 2 3 4 5 6 
#
# 1 0.019671 -0.002693 -0.004684 -0.003142 0.005576 -0.000166
# 2 -0.002693 0.015638 -0.001819 -0.011201 -0.002533 -0.010376
# 3 -0.004684 -0.001819 0.017585 -0.011688 0.003674 -0.005110
# 4 -0.003142 -0.011201 -0.011688 0.051118 -0.009342 0.013981
# 5 0.005576 -0.002533 0.003674 -0.009342 0.028801 0.000060
# 6 -0.000166 -0.010376 -0.005110 0.013981 0.000060 0.047411
#
#
# Mechanical properties :
#
#
# Convention : Reuss Voigt Hill
#
# Bulk Modulus (GPa) = 28.98389 54.96960 41.97674
# Shear Modulus (GPa) = 23.79623 31.82122 27.80873
#
# Velocity S-wave (km/s) = 3.30901 3.82651 3.57713
# Velocity P-wave (km/s) = 5.28546 6.69452 6.03128
#
# Compressibility (1/GPa) = 0.03450192
#
# Stress axis : x y z
#
# Youngs Moduli (GPa) = 50.83550 63.94856 56.86643
#
# Poissons Ratio (x) = 0.17219 0.26639
# Poissons Ratio (y) = 0.13688 0.10344
# Poissons Ratio (z) = 0.23814 0.11632
#
# Static dielectric constant tensor:
#      x y z
#    x 4.161400 0.280540 -0.579520 
#    y 0.280540 4.416490 -0.460010 
#    z -0.579520 -0.460010 4.696170 
# 
# 
# High freq. dielectric constant tensor:
#      x y z
#    x 1.854120 0.002920 -0.026200 
#    y 0.002920 1.849800 0.016120 
#    z -0.026200 0.016120 1.850460 
# 
# From -- ./inp_files/348363.got.cif
#   From: 2010.06.25/outbox.cif.g09.slc.cpg/sg2_175_cif.got.tgz:348363.got - 2010.06.27 13:26:56.
