data_PCOD8004277
_publ_section_title
;
Structure prediction by ZEFSAII (Michael W. Deem and Ramdas Pophale) SiO2 
 PCOD8004277
Probable space group: P -1
;
_chemical_formula_sum "Si O2"
_cell_formula_units_Z 14
_cell_length_a 14.201743
_cell_length_b 5.329449
_cell_length_c 21.252639
_cell_angle_alpha 97.906376
_cell_angle_beta 22.331858
_cell_angle_gamma 87.463377
_cell_volume 538.890929
_symmetry_space_group_name_H-M "P -1"
_symmetry_group_IT_number 2
_symmetry_cell_setting 'triclinic'
loop_
_space_group_symop_operation_xyz
x,y,z
-x,-y,-z
loop_
_atom_site_type_symbol
_atom_site_label
_atom_site_fract_x
_atom_site_fract_y
_atom_site_fract_z
Si Si1 0.884857 0.418128 0.258338
Si Si2 0.146853 0.197250 0.431974
Si Si3 0.075874 0.795693 0.304721
Si Si4 0.392365 0.218754 0.018177
Si Si5 0.693620 0.060543 0.443179
Si Si6 0.765627 0.968540 0.068241
Si Si7 0.855103 0.778257 0.139542
O O1 0.776749 0.748926 0.352264
O O2 0.174169 0.191907 0.105695
O O3 0.677713 0.291355 0.407985
O O4 0.992294 0.347637 0.116364
O O5 0.000000 0.500000 0.500000
O O6 0.113357 0.258683 0.529742
O O7 0.478794 0.052858 0.210148
O O8 0.000000 0.000000 0.500000
O O9 0.236721 0.535806 0.150627
O O10 0.883956 0.052484 0.384838
O O11 0.310117 0.847779 0.200679
O O12 0.500000 0.000000 0.000000
O O13 0.375123 0.198243 0.666932
O O14 0.711245 0.002642 0.178365
O O15 0.905333 0.173333 0.970400
O O16 0.000000 0.500000 0.000000
#
# Coordination Sequence:
#
# PCOD8004277 Si02
#       7
#     2   2   2   2   2   2   2
#     4  11  26  43  73 107 147 187 249 310 369 433
#     4  12  29  45  74 110 152 195 245 305 376 448
#     4  10  22  40  64 100 143 190 244 289 362 442
#     4  10  20  37  66  97 142 189 235 293 363 431
#     4  11  25  47  74 105 142 196 245 303 365 447
#     4  11  28  50  74 112 152 195 255 313 377 440
#     4  11  28  51  80 104 149 205 252 312 373 449
#
# _framework density 25.979285999999998
#
# number of rings (size 3 to 8) (size 9 to 14) (size 15 to 20)
#    0.000    1.143    2.857    0.857   12.000    1.143 
#    0.000    0.000    0.000    0.000    0.000    0.000 
#    0.000    0.000    0.000    0.000    0.000    0.000 
#
# Total GULP energy -173438.764104 kJ/mol
# GULP energy per Si atom -12388.483150 kJ/mol
# Density = 2.592016 g / cm^3
# Si number density = 25.979286 Si / 1000 Ang^3
#
#
#
# Elastic Constant Matrix: (Units=GPa)
#
#
# Indices 1 2 3 4 5 6 
#
# 1 89.1193 27.5773 47.2345 -4.8143 -3.0194 -2.5411
# 2 27.5773 130.5909 69.7194 -1.8757 -16.7358 7.4880
# 3 47.2345 69.7194 180.0074 -11.8210 4.5233 6.3228
# 4 -4.8143 -1.8757 -11.8210 42.0631 -5.8877 -7.9497
# 5 -3.0194 -16.7358 4.5233 -5.8877 48.6074 -8.4843
# 6 -2.5411 7.4880 6.3228 -7.9497 -8.4843 45.1831
#
#
#
# Elastic Compliance Matrix: (Units=1/GPa)
#
#
# Indices 1 2 3 4 5 6 
#
# 1 0.013354 -0.001101 -0.003097 0.001112 0.001185 0.001785
# 2 -0.001101 0.010459 -0.003857 -0.000335 0.003744 -0.000611
# 3 -0.003097 -0.003857 0.008031 0.001250 -0.002267 -0.000865
# 4 0.001112 -0.000335 0.001250 0.025762 0.003866 0.005202
# 5 0.001185 0.003744 -0.002267 0.003866 0.023461 0.004849
# 6 0.001785 -0.000611 -0.000865 0.005202 0.004849 0.024281
#
#
# Mechanical properties :
#
#
# Convention : Reuss Voigt Hill
#
# Bulk Modulus (GPa) = 63.55348 76.53112 70.04230
# Shear Modulus (GPa) = 39.46237 44.18315 41.82276
#
# Velocity S-wave (km/s) = 3.90166 4.12844 4.01665
# Velocity P-wave (km/s) = 6.69429 7.22826 6.96639
#
# Compressibility (1/GPa) = 0.01573478
#
# Stress axis : x y z
#
# Youngs Moduli (GPa) = 74.88219 95.61062 124.51470
#
# Poissons Ratio (x) = 0.10528 0.38565
# Poissons Ratio (y) = 0.08245 0.48021
# Poissons Ratio (z) = 0.23192 0.36873
#
# Static dielectric constant tensor:
#      x y z
#    x 45.447570 -8.350820 13.590420 
#    y -8.350820 6.200650 -3.495470 
#    z 13.590420 -3.495470 10.222260 
# 
# 
# High freq. dielectric constant tensor:
#      x y z
#    x 2.062510 -0.005330 -0.005060 
#    y -0.005330 2.026790 -0.007000 
#    z -0.005060 -0.007000 2.068830 
# 
# From -- ./inp_files/611323.got.cif
#   From: 2010.06.25/outbox.cif.g09.slc.cpg/sg2_306_cif.got.tgz:611323.got - 2010.06.27 13:26:56.
