data_PCOD8004805
_publ_section_title
;
Structure prediction by ZEFSAII (Michael W. Deem and Ramdas Pophale) SiO2 
 PCOD8004805
Probable space group: P -1
;
_chemical_formula_sum "Si O2"
_cell_formula_units_Z 16
_cell_length_a 9.314134
_cell_length_b 8.986310
_cell_length_c 17.854897
_cell_angle_alpha 93.362277
_cell_angle_beta 30.727853
_cell_angle_gamma 91.972978
_cell_volume 761.916244
_symmetry_space_group_name_H-M "P -1"
_symmetry_group_IT_number 2
_symmetry_cell_setting 'triclinic'
loop_
_space_group_symop_operation_xyz
x,y,z
-x,-y,-z
loop_
_atom_site_type_symbol
_atom_site_label
_atom_site_fract_x
_atom_site_fract_y
_atom_site_fract_z
Si Si1 0.545382 0.652133 0.853662
Si Si2 0.907385 0.632829 0.191934
Si Si3 0.740910 0.100551 0.594527
Si Si4 0.363065 0.907563 0.852568
Si Si5 0.467994 0.846151 0.466578
Si Si6 0.054980 0.659171 0.738127
Si Si7 0.094372 0.183635 0.044834
Si Si8 0.466290 0.373975 0.786987
O O1 0.590596 0.808522 0.794317
O O2 0.785602 0.630845 0.806688
O O3 0.586409 0.526775 0.767749
O O4 0.237505 0.655203 0.030408
O O5 0.766551 0.779434 0.299412
O O6 0.753414 0.600778 0.181558
O O7 0.859168 0.493586 0.263539
O O8 0.740084 0.110595 0.506397
O O9 0.730159 0.267587 0.638889
O O10 0.471870 0.016430 0.743057
O O11 0.000000 0.000000 0.500000
O O12 0.164329 0.791938 0.896237
O O13 0.195647 0.010785 0.990590
O O14 0.322976 0.716599 0.574859
O O15 0.500000 0.000000 0.500000
O O16 0.981818 0.787588 0.834513
O O17 0.324890 0.300269 0.920523
#
# Coordination Sequence:
#
# PCOD8004805 Si02
#       8
#     2   2   2   2   2   2   2   2
#     4  12  23  39  64 102 127 158 206 270 321 358
#     4  11  23  43  65  92 128 170 213 251 306 386
#     4  10  22  43  63  91 124 162 209 263 308 365
#     4  10  21  37  66  89 119 158 216 257 306 361
#     4  11  26  45  64  89 128 175 210 247 313 390
#     4  12  25  40  62  95 134 161 207 259 323 365
#     4  10  20  38  62  90 118 162 209 255 303 372
#     4  10  21  40  67  90 121 164 212 255 305 373
#
# _framework density 20.999683999999998
#
# number of rings (size 3 to 8) (size 9 to 14) (size 15 to 20)
#    0.000    1.250    2.500    3.375    3.500    1.500 
#    2.250    6.875    0.000    0.000    0.000    0.000 
#    0.000    0.000    0.000    0.000    0.000    0.000 
#
# Total GULP energy -198385.275613 kJ/mol
# GULP energy per Si atom -12399.079726 kJ/mol
# Density = 2.095189 g / cm^3
# Si number density = 20.999684 Si / 1000 Ang^3
#
#
#
# Elastic Constant Matrix: (Units=GPa)
#
#
# Indices 1 2 3 4 5 6 
#
# 1 100.5875 56.2453 37.1353 19.0056 10.5205 2.7306
# 2 56.2453 111.5974 35.4930 13.0871 7.6933 3.5398
# 3 37.1353 35.4930 70.4879 14.6976 6.5114 4.8672
# 4 19.0056 13.0871 14.6976 32.6813 -4.7969 9.8486
# 5 10.5205 7.6933 6.5114 -4.7969 33.8502 2.0605
# 6 2.7306 3.5398 4.8672 9.8486 2.0605 38.2165
#
#
#
# Elastic Compliance Matrix: (Units=1/GPa)
#
#
# Indices 1 2 3 4 5 6 
#
# 1 0.016357 -0.005997 -0.004015 -0.006420 -0.003966 0.001766
# 2 -0.005997 0.013114 -0.003325 -0.000261 -0.000498 -0.000269
# 3 -0.004015 -0.003325 0.019326 -0.005269 -0.002438 -0.000377
# 4 -0.006420 -0.000261 -0.005269 0.041210 0.009515 -0.009979
# 5 -0.003966 -0.000498 -0.002438 0.009515 0.032923 -0.003587
# 6 0.001766 -0.000269 -0.000377 -0.009979 -0.003587 0.028879
#
#
# Mechanical properties :
#
#
# Convention : Reuss Voigt Hill
#
# Bulk Modulus (GPa) = 45.20049 60.04665 52.62357
# Shear Modulus (GPa) = 26.90243 31.20288 29.05266
#
# Velocity S-wave (km/s) = 3.58311 3.85888 3.72355
# Velocity P-wave (km/s) = 6.22008 6.96497 6.60304
#
# Compressibility (1/GPa) = 0.02212365
#
# Stress axis : x y z
#
# Youngs Moduli (GPa) = 61.13685 76.25350 51.74316
#
# Poissons Ratio (x) = 0.45728 0.20774
# Poissons Ratio (y) = 0.36662 0.17206
# Poissons Ratio (z) = 0.24545 0.25356
#
# Static dielectric constant tensor:
#      x y z
#    x 3.747160 -0.111880 0.300150 
#    y -0.111880 3.918840 -0.004280 
#    z 0.300150 -0.004280 4.192280 
# 
# 
# High freq. dielectric constant tensor:
#      x y z
#    x 1.817080 -0.009600 0.015110 
#    y -0.009600 1.838470 0.005740 
#    z 0.015110 0.005740 1.818090 
# 
# From -- ./inp_files/203167.got.cif
#   From: 2010.06.25/outbox.cif.g09.slc.cpg/sg2_102_cif.got.tgz:203167.got - 2010.06.27 13:26:56.
