data_PCOD8004615
_publ_section_title
;
Structure prediction by ZEFSAII (Michael W. Deem and Ramdas Pophale) SiO2 
 PCOD8004615
Probable space group: P -1
;
_chemical_formula_sum "Si O2"
_cell_formula_units_Z 14
_cell_length_a 5.247256
_cell_length_b 10.009643
_cell_length_c 12.252752
_cell_angle_alpha 86.962623
_cell_angle_beta 89.190846
_cell_angle_gamma 96.007182
_cell_volume 638.994906
_symmetry_space_group_name_H-M "P -1"
_symmetry_group_IT_number 2
_symmetry_cell_setting 'triclinic'
loop_
_space_group_symop_operation_xyz
x,y,z
-x,-y,-z
loop_
_atom_site_type_symbol
_atom_site_label
_atom_site_fract_x
_atom_site_fract_y
_atom_site_fract_z
Si Si1 0.717189 0.415869 0.605201
Si Si2 0.019402 0.253903 0.893296
Si Si3 0.501344 0.193801 0.766369
Si Si4 0.522675 0.104344 0.257573
Si Si5 0.935320 0.479463 0.220330
Si Si6 0.942084 0.786804 0.853604
Si Si7 0.429180 0.659045 0.612640
O O1 0.501092 0.314203 0.672463
O O2 0.651091 0.568995 0.580136
O O3 0.771407 0.353059 0.488119
O O4 0.963109 0.429467 0.680401
O O5 0.233370 0.178961 0.833245
O O6 0.105279 0.415446 0.880310
O O7 0.737140 0.219828 0.847300
O O8 0.005235 0.207013 0.019129
O O9 0.521663 0.053861 0.709203
O O10 0.310146 0.139779 0.170021
O O11 0.478800 0.184978 0.367854
O O12 0.810411 0.138876 0.210486
O O13 0.673582 0.399686 0.267453
O O14 0.114254 0.368122 0.181556
#
# Coordination Sequence:
#
# PCOD8004615 Si02
#       7
#     2   2   2   2   2   2   2
#     4  10  20  38  63  87 117 157 199 246 299 355
#     4  11  23  39  63  89 121 161 201 245 297 351
#     4  11  24  41  60  90 125 157 198 247 295 355
#     4  11  24  41  60  90 125 157 198 247 295 355
#     4  10  20  38  60  92 122 152 198 258 292 354
#     4  11  23  39  63  89 121 161 201 245 297 351
#     4  10  20  38  63  87 117 157 199 246 299 355
#
# _framework density 21.909406000000001
#
# number of rings (size 3 to 8) (size 9 to 14) (size 15 to 20)
#    0.000    1.429    2.857    2.571    0.000    4.000 
#    0.000    4.286    0.000    5.143    0.000    0.000 
#    0.000    0.000    0.000    0.000    0.000    0.000 
#
# Total GULP energy -173514.014682 kJ/mol
# GULP energy per Si atom -12393.858192 kJ/mol
# Density = 2.185954 g / cm^3
# Si number density = 21.909406 Si / 1000 Ang^3
#
#
#
# Elastic Constant Matrix: (Units=GPa)
#
#
# Indices 1 2 3 4 5 6 
#
# 1 76.8556 9.6051 3.7219 1.1583 4.8371 -6.0780
# 2 9.6051 118.7616 28.8536 15.9273 4.1911 -12.2844
# 3 3.7219 28.8536 68.7706 8.4672 -2.7752 -1.2638
# 4 1.1583 15.9273 8.4672 16.3205 -0.9195 -1.0792
# 5 4.8371 4.1911 -2.7752 -0.9195 23.1687 -0.9834
# 6 -6.0780 -12.2844 -1.2638 -1.0792 -0.9834 22.8886
#
#
#
# Elastic Compliance Matrix: (Units=1/GPa)
#
#
# Indices 1 2 3 4 5 6 
#
# 1 0.013523 -0.000526 -0.000548 -0.000103 -0.002664 0.003159
# 2 -0.000526 0.011120 -0.003563 -0.008766 -0.002459 0.005113
# 3 -0.000548 -0.003563 0.016775 -0.005129 0.002511 -0.001265
# 4 -0.000103 -0.008766 -0.005129 0.072617 0.003814 -0.001428
# 5 -0.002664 -0.002459 0.002511 0.003814 0.044624 0.000209
# 6 0.003159 0.005113 -0.001265 -0.001428 0.000209 0.047144
#
#
# Mechanical properties :
#
#
# Convention : Reuss Voigt Hill
#
# Bulk Modulus (GPa) = 31.10985 38.74989 34.92987
# Shear Modulus (GPa) = 22.14440 27.28938 24.71689
#
# Velocity S-wave (km/s) = 3.18264 3.53307 3.36242
# Velocity P-wave (km/s) = 5.26647 5.86245 5.57243
#
# Compressibility (1/GPa) = 0.03214416
#
# Stress axis : x y z
#
# Youngs Moduli (GPa) = 73.94967 89.93059 59.61175
#
# Poissons Ratio (x) = 0.04730 0.03266
# Poissons Ratio (y) = 0.03889 0.21239
# Poissons Ratio (z) = 0.04052 0.32041
#
# Static dielectric constant tensor:
#      x y z
#    x 3.680050 -0.014800 0.047420 
#    y -0.014800 4.286220 0.081700 
#    z 0.047420 0.081700 4.010580 
# 
# 
# High freq. dielectric constant tensor:
#      x y z
#    x 1.850250 -0.001140 0.004190 
#    y -0.001140 1.867810 0.008050 
#    z 0.004190 0.008050 1.850510 
# 
# From -- ./inp_files/27556.got.cif
#   From: 2010.06.25/outbox.cif.g09.slc.cpg/sg2_14_cif.got.tgz:27556.got - 2010.06.27 13:26:56.
