data_PCOD8004899
_publ_section_title
;
Structure prediction by ZEFSAII (Michael W. Deem and Ramdas Pophale) SiO2 
 PCOD8004899
Probable space group: P -1
;
_chemical_formula_sum "Si O2"
_cell_formula_units_Z 16
_cell_length_a 14.635353
_cell_length_b 14.939029
_cell_length_c 9.342995
_cell_angle_alpha 129.372594
_cell_angle_beta 79.702004
_cell_angle_gamma 141.336355
_cell_volume 745.064007
_symmetry_space_group_name_H-M "P -1"
_symmetry_group_IT_number 2
_symmetry_cell_setting 'triclinic'
loop_
_space_group_symop_operation_xyz
x,y,z
-x,-y,-z
loop_
_atom_site_type_symbol
_atom_site_label
_atom_site_fract_x
_atom_site_fract_y
_atom_site_fract_z
Si Si1 0.629308 0.232405 0.450612
Si Si2 0.338455 0.987643 0.814559
Si Si3 0.728127 0.087574 0.925821
Si Si4 0.894511 0.511464 0.384951
Si Si5 0.251618 0.277418 0.940734
Si Si6 0.914805 0.744243 0.401025
Si Si7 0.542441 0.432205 0.105106
Si Si8 0.915720 0.676496 0.002594
O O1 0.572924 0.036387 0.289496
O O2 0.763511 0.394553 0.438970
O O3 0.431611 0.088196 0.334258
O O4 0.741583 0.399468 0.728775
O O5 0.109134 0.732479 0.606481
O O6 0.385066 0.055713 0.038471
O O7 0.431031 0.189086 0.899148
O O8 0.876481 0.145460 0.918624
O O9 0.836323 0.329297 0.138230
O O10 0.876400 0.596312 0.365920
O O11 0.394199 0.485389 0.992830
O O12 0.120993 0.242978 0.994622
O O13 0.390004 0.370684 0.119428
O O14 0.114730 0.026967 0.662850
O O15 0.734587 0.638611 0.360476
O O16 0.915093 0.696686 0.192040
#
# Coordination Sequence:
#
# PCOD8004899 Si02
#       8
#     2   2   2   2   2   2   2   2
#     4  11  22  40  63  91 123 159 197 246 298 361
#     4  11  19  40  67  88 121 160 201 245 295 363
#     4  11  22  39  64  90 125 159 193 245 306 360
#     4  11  20  41  66  89 121 162 201 239 300 362
#     4  10  23  41  62  84 122 162 202 250 297 353
#     4  11  23  41  65  89 119 160 203 250 296 358
#     4  10  20  38  63  88 111 156 211 240 291 350
#     4  11  23  39  59  92 126 155 199 248 305 346
#
# _framework density 21.474664000000001
#
# number of rings (size 3 to 8) (size 9 to 14) (size 15 to 20)
#    0.000    1.250    3.750    5.250    0.000    4.500 
#    0.000    5.625    0.000    5.250    0.000    0.000 
#    0.000    0.000    0.000    0.000    0.000    0.000 
#
# Total GULP energy -198335.429337 kJ/mol
# GULP energy per Si atom -12395.964334 kJ/mol
# Density = 2.142579 g / cm^3
# Si number density = 21.474664 Si / 1000 Ang^3
#
#
#
# Elastic Constant Matrix: (Units=GPa)
#
#
# Indices 1 2 3 4 5 6 
#
# 1 174.6510 35.8232 26.1746 10.0610 8.4632 -2.9537
# 2 35.8232 60.8532 24.7269 24.1582 -14.1064 -19.0004
# 3 26.1746 24.7269 49.5128 14.8229 11.2557 1.7405
# 4 10.0610 24.1582 14.8229 23.1225 -0.0450 3.9213
# 5 8.4632 -14.1064 11.2557 -0.0450 35.4769 10.2206
# 6 -2.9537 -19.0004 1.7405 3.9213 10.2206 31.1115
#
#
#
# Elastic Compliance Matrix: (Units=1/GPa)
#
#
# Indices 1 2 3 4 5 6 
#
# 1 0.007523 -0.010504 -0.000154 0.008699 -0.004369 -0.005353
# 2 -0.010504 0.088619 -0.022330 -0.083042 0.028765 0.055391
# 3 -0.000154 -0.022330 0.034785 0.002831 -0.016875 -0.010411
# 4 0.008699 -0.083042 0.002831 0.134725 -0.018238 -0.061037
# 5 -0.004369 0.028765 -0.016875 -0.018238 0.044316 0.005836
# 6 -0.005353 0.055391 -0.010411 -0.061037 0.005836 0.071821
#
#
# Mechanical properties :
#
#
# Convention : Reuss Voigt Hill
#
# Bulk Modulus (GPa) = 15.39608 50.94070 33.16839
# Shear Modulus (GPa) = 10.65152 31.16167 20.90660
#
# Velocity S-wave (km/s) = 2.22953 3.81345 3.12356
# Velocity P-wave (km/s) = 3.71655 6.56983 5.33739
#
# Compressibility (1/GPa) = 0.06495158
#
# Stress axis : x y z
#
# Youngs Moduli (GPa) = 132.91893 11.28420 28.74828
#
# Poissons Ratio (x) = 0.11853 0.00444
# Poissons Ratio (y) = 1.39616 0.64194
# Poissons Ratio (z) = 0.02053 0.25197
#
# Static dielectric constant tensor:
#      x y z
#    x 4.720360 0.001050 0.264290 
#    y 0.001050 3.639310 0.229190 
#    z 0.264290 0.229190 3.841010 
# 
# 
# High freq. dielectric constant tensor:
#      x y z
#    x 1.872630 -0.006170 0.022060 
#    y -0.006170 1.817220 0.026720 
#    z 0.022060 0.026720 1.832110 
# 
# From -- ./inp_files/315888.got.cif
#   From: 2010.06.25/outbox.cif.g09.slc.cpg/sg2_158_cif.got.tgz:315888.got - 2010.06.27 13:26:56.
