data_PCOD8004436
_publ_section_title
;
Structure prediction by ZEFSAII (Michael W. Deem and Ramdas Pophale) SiO2 
 PCOD8004436
Probable space group: P -1
;
_chemical_formula_sum "Si O2"
_cell_formula_units_Z 16
_cell_length_a 5.083066
_cell_length_b 15.733035
_cell_length_c 9.922815
_cell_angle_alpha 75.958942
_cell_angle_beta 94.396831
_cell_angle_gamma 70.505407
_cell_volume 714.844257
_symmetry_space_group_name_H-M "P -1"
_symmetry_group_IT_number 2
_symmetry_cell_setting 'triclinic'
loop_
_space_group_symop_operation_xyz
x,y,z
-x,-y,-z
loop_
_atom_site_type_symbol
_atom_site_label
_atom_site_fract_x
_atom_site_fract_y
_atom_site_fract_z
Si Si1 0.707462 0.582444 0.463656
Si Si2 0.144555 0.669252 0.082201
Si Si3 0.403887 0.260965 0.793925
Si Si4 0.431110 0.794382 0.637895
Si Si5 0.932557 0.314492 0.237138
Si Si6 0.429299 0.902727 0.324962
Si Si7 0.511575 0.517801 0.719813
Si Si8 0.151859 0.987825 0.653928
O O1 0.725167 0.678539 0.370308
O O2 0.610026 0.593741 0.612867
O O3 0.500423 0.554881 0.367407
O O4 0.000000 0.500000 0.500000
O O5 0.327257 0.719629 0.147195
O O6 0.261971 0.554295 0.142413
O O7 0.827308 0.712739 0.108397
O O8 0.143447 0.693772 0.916817
O O9 0.491679 0.153104 0.791914
O O10 0.186658 0.751042 0.654022
O O11 0.428096 0.832140 0.472390
O O12 0.733298 0.716273 0.717854
O O13 0.356488 0.878660 0.713920
O O14 0.780102 0.423422 0.237969
O O15 0.657030 0.949392 0.348889
O O16 0.109818 0.980104 0.262666
O O17 0.000000 0.000000 0.500000
#
# Coordination Sequence:
#
# PCOD8004436 Si02
#       8
#     2   2   2   2   2   2   2   2
#     4  10  20  38  58  89 127 152 188 261 308 345
#     4  11  24  43  57  83 126 168 207 250 286 340
#     4  11  23  39  64  88 121 160 205 249 301 354
#     4  11  23  39  62  94 124 150 194 254 311 357
#     4  12  25  39  62  87 121 168 211 242 284 363
#     4  11  21  37  68  95 121 152 196 244 313 381
#     4  10  23  37  60  87 121 163 205 245 304 353
#     4  10  20  39  61  95 129 151 181 248 323 370
#
# _framework density 22.382497999999998
#
# number of rings (size 3 to 8) (size 9 to 14) (size 15 to 20)
#    0.000    1.250    1.250    6.375    3.500    0.000 
#    0.000    3.125    0.000   15.000    0.000    0.000 
#    0.000    0.000    0.000    0.000    0.000    0.000 
#
# Total GULP energy -198331.144635 kJ/mol
# GULP energy per Si atom -12395.696540 kJ/mol
# Density = 2.233155 g / cm^3
# Si number density = 22.382498 Si / 1000 Ang^3
#
#
#
# Elastic Constant Matrix: (Units=GPa)
#
#
# Indices 1 2 3 4 5 6 
#
# 1 95.1484 18.9834 17.6877 6.1930 -13.4284 -2.4057
# 2 18.9834 107.7895 28.8901 31.1367 -9.2254 -18.9827
# 3 17.6877 28.8901 47.9979 9.4070 -0.8019 -2.8269
# 4 6.1930 31.1367 9.4070 22.0413 -3.8809 -5.5930
# 5 -13.4284 -9.2254 -0.8019 -3.8809 22.6435 4.3627
# 6 -2.4057 -18.9827 -2.8269 -5.5930 4.3627 45.7200
#
#
#
# Elastic Compliance Matrix: (Units=1/GPa)
#
#
# Indices 1 2 3 4 5 6 
#
# 1 0.012375 -0.000644 -0.004147 0.000321 0.007083 -0.000509
# 2 -0.000644 0.018182 -0.006231 -0.021346 0.002319 0.004297
# 3 -0.004147 -0.006231 0.026437 -0.002331 -0.004259 -0.001050
# 4 0.000321 -0.021346 -0.002331 0.077252 0.004648 0.000017
# 5 0.007083 0.002319 -0.004259 0.004648 0.050567 -0.003185
# 6 -0.000509 0.004297 -0.001050 0.000017 -0.003185 0.023871
#
#
# Mechanical properties :
#
#
# Convention : Reuss Voigt Hill
#
# Bulk Modulus (GPa) = 28.61257 42.45090 35.53174
# Shear Modulus (GPa) = 20.62885 30.43928 25.53407
#
# Velocity S-wave (km/s) = 3.03916 3.69176 3.38124
# Velocity P-wave (km/s) = 5.01264 6.09749 5.58149
#
# Compressibility (1/GPa) = 0.03494967
#
# Stress axis : x y z
#
# Youngs Moduli (GPa) = 80.80684 54.99836 37.82558
#
# Poissons Ratio (x) = 0.03542 0.15687
# Poissons Ratio (y) = 0.05204 0.23570
# Poissons Ratio (z) = 0.33512 0.34271
#
# Static dielectric constant tensor:
#      x y z
#    x 3.944800 -0.321140 -0.221670 
#    y -0.321140 4.560070 0.006840 
#    z -0.221670 0.006840 3.844590 
# 
# 
# High freq. dielectric constant tensor:
#      x y z
#    x 1.885900 -0.009830 -0.007910 
#    y -0.009830 1.894410 0.014680 
#    z -0.007910 0.014680 1.854220 
# 
# From -- ./inp_files/137606.got.cif
#   From: 2010.06.25/outbox.cif.g09.slc.cpg/sg2_69_cif.got.tgz:137606.got - 2010.06.27 13:26:56.
