data_PCOD8004972
_publ_section_title
;
Structure prediction by ZEFSAII (Michael W. Deem and Ramdas Pophale) SiO2 
 PCOD8004972
Probable space group: P -1
;
_chemical_formula_sum "Si O2"
_cell_formula_units_Z 14
_cell_length_a 10.905065
_cell_length_b 16.821915
_cell_length_c 7.700892
_cell_angle_alpha 55.802911
_cell_angle_beta 61.710941
_cell_angle_gamma 35.745908
_cell_volume 682.133557
_symmetry_space_group_name_H-M "P -1"
_symmetry_group_IT_number 2
_symmetry_cell_setting 'triclinic'
loop_
_space_group_symop_operation_xyz
x,y,z
-x,-y,-z
loop_
_atom_site_type_symbol
_atom_site_label
_atom_site_fract_x
_atom_site_fract_y
_atom_site_fract_z
Si Si1 0.013259 0.800052 0.923351
Si Si2 0.086900 0.549803 0.744436
Si Si3 0.162138 0.306121 0.950300
Si Si4 0.419724 0.695153 0.701145
Si Si5 0.606156 0.136355 0.788502
Si Si6 0.255863 0.613234 0.296659
Si Si7 0.484624 0.679912 0.077648
O O1 0.202213 0.749745 0.747234
O O2 0.807596 0.968436 0.822732
O O3 0.975063 0.708978 0.014078
O O4 0.081637 0.763111 0.123193
O O5 0.080967 0.453416 0.755139
O O6 0.129735 0.620059 0.515391
O O7 0.269007 0.440936 0.900350
O O8 0.870440 0.677939 0.837178
O O9 0.406567 0.168447 0.905723
O O10 0.432598 0.775913 0.459281
O O11 0.612833 0.523543 0.750819
O O12 0.436280 0.724635 0.852173
O O13 0.637634 0.180536 0.889972
O O14 0.409909 0.613135 0.275142
#
# Coordination Sequence:
#
# PCOD8004972 Si02
#       7
#     2   2   2   2   2   2   2
#     4  11  24  40  62  91 126 160 205 249 299 375
#     4  10  20  38  63  95 117 163 202 255 306 350
#     4  10  21  40  62  85 127 160 207 247 301 361
#     4  11  22  41  65  95 117 162 205 251 309 353
#     4  11  24  44  60  90 128 166 197 248 310 356
#     4  11  21  38  65  96 119 158 205 255 311 345
#     4  10  21  38  66  90 129 150 207 258 293 368
#
# _framework density 20.52384
#
# number of rings (size 3 to 8) (size 9 to 14) (size 15 to 20)
#    0.000    1.429    2.857    4.714    2.000    2.857 
#   10.286    0.714    0.000    0.000    0.000    0.000 
#    0.000    0.000    0.000    0.000    0.000    0.000 
#
# Total GULP energy -173529.594584 kJ/mol
# GULP energy per Si atom -12394.971042 kJ/mol
# Density = 2.047713 g / cm^3
# Si number density = 20.523840 Si / 1000 Ang^3
#
#
#
# Elastic Constant Matrix: (Units=GPa)
#
#
# Indices 1 2 3 4 5 6 
#
# 1 72.1739 6.5002 34.0159 2.1312 -10.2796 12.9422
# 2 6.5002 51.4124 35.0441 2.4059 -4.9360 -12.8340
# 3 34.0159 35.0441 111.7310 20.6406 -15.3972 -7.6532
# 4 2.1312 2.4059 20.6406 28.3164 -3.4048 -4.2507
# 5 -10.2796 -4.9360 -15.3972 -3.4048 24.5861 0.1028
# 6 12.9422 -12.8340 -7.6532 -4.2507 0.1028 23.4607
#
#
#
# Elastic Compliance Matrix: (Units=1/GPa)
#
#
# Indices 1 2 3 4 5 6 
#
# 1 0.019928 -0.001227 -0.006310 0.001720 0.004429 -0.013431
# 2 -0.001227 0.029091 -0.008821 0.006356 0.000621 0.014862
# 3 -0.006310 -0.008821 0.016184 -0.009724 0.004371 0.002153
# 4 0.001720 0.006356 -0.009724 0.043027 0.001835 0.007144
# 5 0.004429 0.000621 0.004371 0.001835 0.045643 -0.000545
# 6 -0.013431 0.014862 0.002153 0.007144 -0.000545 0.060163
#
#
# Mechanical properties :
#
#
# Convention : Reuss Voigt Hill
#
# Bulk Modulus (GPa) = 30.78140 42.93754 36.85947
# Shear Modulus (GPa) = 19.41144 25.92310 22.66727
#
# Velocity S-wave (km/s) = 3.07872 3.55783 3.32691
# Velocity P-wave (km/s) = 5.26008 6.15173 5.72330
#
# Compressibility (1/GPa) = 0.03248715
#
# Stress axis : x y z
#
# Youngs Moduli (GPa) = 50.18061 34.37514 61.78978
#
# Poissons Ratio (x) = 0.04217 0.38987
# Poissons Ratio (y) = 0.06156 0.54508
# Poissons Ratio (z) = 0.31662 0.30324
#
# Static dielectric constant tensor:
#      x y z
#    x 3.816030 0.035160 -0.300500 
#    y 0.035160 3.583510 0.158330 
#    z -0.300500 0.158330 3.714520 
# 
# 
# High freq. dielectric constant tensor:
#      x y z
#    x 1.804600 0.000390 -0.024820 
#    y 0.000390 1.788480 0.017170 
#    z -0.024820 0.017170 1.805870 
# 
# From -- ./inp_files/217270.got.cif
#   From: 2010.06.25/outbox.cif.g09.slc.cpg/sg2_109_cif.got.tgz:217270.got - 2010.06.27 13:26:56.
