data_PCOD8004060
_publ_section_title
;
Structure prediction by ZEFSAII (Michael W. Deem and Ramdas Pophale) SiO2 
 PCOD8004060
Probable space group: P -1
;
_chemical_formula_sum "Si O2"
_cell_formula_units_Z 10
_cell_length_a 9.331988
_cell_length_b 10.306773
_cell_length_c 10.013317
_cell_angle_alpha 138.542748
_cell_angle_beta 76.671922
_cell_angle_gamma 74.833657
_cell_volume 458.196544
_symmetry_space_group_name_H-M "P -1"
_symmetry_group_IT_number 2
_symmetry_cell_setting 'triclinic'
loop_
_space_group_symop_operation_xyz
x,y,z
-x,-y,-z
loop_
_atom_site_type_symbol
_atom_site_label
_atom_site_fract_x
_atom_site_fract_y
_atom_site_fract_z
Si Si1 0.197540 0.331298 0.908338
Si Si2 0.062592 0.119269 0.176737
Si Si3 0.756586 0.661482 0.803564
Si Si4 0.389510 0.775007 0.049418
Si Si5 0.567307 0.225209 0.657682
O O1 0.344401 0.342404 0.806222
O O2 0.296506 0.026974 0.662933
O O3 0.146953 0.456016 0.161821
O O4 0.000000 0.500000 0.000000
O O5 0.208899 0.144809 0.095852
O O6 0.862172 0.412238 0.489920
O O7 0.186899 0.920108 0.122017
O O8 0.000000 0.000000 0.000000
O O9 0.517673 0.837694 0.003909
O O10 0.545274 0.453880 0.767465
O O11 0.331427 0.864032 0.285401
#
# Coordination Sequence:
#
# PCOD8004060 Si02
#       5
#     2   2   2   2   2
#     4  10  20  37  63  92 124 155 199 255 302 361
#     4  11  25  42  62  90 122 163 212 249 294 360
#     4  10  24  42  60  92 121 163 207 244 309 356
#     4  10  21  42  63  88 128 157 200 256 300 366
#     4   9  21  37  62  95 118 159 200 243 315 362
#
# _framework density 21.824695999999999
#
# number of rings (size 3 to 8) (size 9 to 14) (size 15 to 20)
#    0.000    2.000    0.000    1.800    5.600    0.800 
#    7.200    6.000    0.000    0.000    0.000    0.000 
#    0.000    0.000    0.000    0.000    0.000    0.000 
#
# Total GULP energy -123983.200389 kJ/mol
# GULP energy per Si atom -12398.320039 kJ/mol
# Density = 2.177502 g / cm^3
# Si number density = 21.824696 Si / 1000 Ang^3
#
#
#
# Elastic Constant Matrix: (Units=GPa)
#
#
# Indices 1 2 3 4 5 6 
#
# 1 103.1973 46.7118 30.9851 2.9183 21.3652 -23.9276
# 2 46.7118 65.0429 19.6289 4.2245 -2.3210 -9.2668
# 3 30.9851 19.6289 73.4356 -9.0038 24.1645 4.9980
# 4 2.9183 4.2245 -9.0038 17.9667 1.9962 5.1589
# 5 21.3652 -2.3210 24.1645 1.9962 31.3096 3.9646
# 6 -23.9276 -9.2668 4.9980 5.1589 3.9646 47.3464
#
#
#
# Elastic Compliance Matrix: (Units=1/GPa)
#
#
# Indices 1 2 3 4 5 6 
#
# 1 0.022798 -0.015212 -0.000738 -0.001512 -0.017315 0.010237
# 2 -0.015212 0.030801 -0.010292 -0.012013 0.021508 -0.001065
# 3 -0.000738 -0.010292 0.026472 0.019762 -0.021247 -0.005556
# 4 -0.001512 -0.012013 0.019762 0.074039 -0.018346 -0.011732
# 5 -0.017315 0.021508 -0.021247 -0.018346 0.063630 -0.005627
# 6 0.010237 -0.001065 -0.005556 -0.011732 -0.005627 0.028422
#
#
# Mechanical properties :
#
#
# Convention : Reuss Voigt Hill
#
# Bulk Modulus (GPa) = 36.24730 48.48081 42.36405
# Shear Modulus (GPa) = 16.24208 28.94789 22.59498
#
# Velocity S-wave (km/s) = 2.73097 3.64590 3.22109
# Velocity P-wave (km/s) = 5.15643 6.32341 5.76950
#
# Compressibility (1/GPa) = 0.02758826
#
# Stress axis : x y z
#
# Youngs Moduli (GPa) = 43.86299 32.46634 37.77526
#
# Poissons Ratio (x) = 0.49387 0.02787
# Poissons Ratio (y) = 0.66723 0.38880
# Poissons Ratio (z) = 0.03236 0.33416
#
# Static dielectric constant tensor:
#      x y z
#    x 4.011760 0.116300 0.259120 
#    y 0.116300 3.822050 -0.090920 
#    z 0.259120 -0.090920 3.883820 
# 
# 
# High freq. dielectric constant tensor:
#      x y z
#    x 1.864330 0.002660 0.008250 
#    y 0.002660 1.851380 -0.004010 
#    z 0.008250 -0.004010 1.852000 
# 
# From -- ./inp_files/18241.got.cif
#   From: 2010.06.25/outbox.cif.g09.slc.cpg/sg2_10_cif.got.tgz:18241.got - 2010.06.27 13:26:56.
