data_PCOD8004396
_publ_section_title
;
Structure prediction by ZEFSAII (Michael W. Deem and Ramdas Pophale) SiO2 
 PCOD8004396
Probable space group: P -1
;
_chemical_formula_sum "Si O2"
_cell_formula_units_Z 16
_cell_length_a 7.018226
_cell_length_b 14.895149
_cell_length_c 14.617651
_cell_angle_alpha 55.437478
_cell_angle_beta 51.421842
_cell_angle_gamma 92.688687
_cell_volume 770.014819
_symmetry_space_group_name_H-M "P -1"
_symmetry_group_IT_number 2
_symmetry_cell_setting 'triclinic'
loop_
_space_group_symop_operation_xyz
x,y,z
-x,-y,-z
loop_
_atom_site_type_symbol
_atom_site_label
_atom_site_fract_x
_atom_site_fract_y
_atom_site_fract_z
Si Si1 0.327553 0.930030 0.370193
Si Si2 0.806172 0.254606 0.075303
Si Si3 0.677951 0.585749 0.485406
Si Si4 0.758163 0.306870 0.860553
Si Si5 0.313577 0.001897 0.135336
Si Si6 0.504650 0.543234 0.194950
Si Si7 0.387908 0.197577 0.552393
Si Si8 0.378320 0.270572 0.314430
O O1 0.398057 0.831471 0.446705
O O2 0.967858 0.854470 0.547373
O O3 0.575630 0.085842 0.246241
O O4 0.338795 0.927957 0.257646
O O5 0.622981 0.305884 0.143143
O O6 0.914221 0.316807 0.904594
O O7 0.126268 0.325855 0.994125
O O8 0.500000 0.500000 0.500000
O O9 0.619591 0.492941 0.643199
O O10 0.545241 0.667540 0.500662
O O11 0.040448 0.679309 0.294467
O O12 0.690097 0.416035 0.819107
O O13 0.432385 0.153859 0.039521
O O14 0.968274 0.928846 0.247463
O O15 0.500000 0.000000 0.000000
O O16 0.421588 0.410126 0.242600
O O17 0.452363 0.219370 0.411988
#
# Coordination Sequence:
#
# PCOD8004396 Si02
#       8
#     2   2   2   2   2   2   2   2
#     4  10  23  39  63  90 115 161 197 237 301 350
#     4  11  23  43  60  89 121 151 201 249 292 346
#     4  11  22  39  59  86 123 156 193 243 289 352
#     4  11  23  39  61  88 121 155 196 242 294 352
#     4  10  20  38  57  89 122 152 193 242 287 346
#     4  11  24  39  63  89 116 160 198 238 301 351
#     4  10  22  40  61  88 121 155 197 239 293 351
#     4  10  24  41  62  88 120 153 199 251 288 348
#
# _framework density 20.77882
#
# number of rings (size 3 to 8) (size 9 to 14) (size 15 to 20)
#    0.000    1.500    2.500    1.875    1.750    3.500 
#    0.000    0.000    0.000    0.000    0.000    0.000 
#    0.000    0.000    0.000    0.000    0.000    0.000 
#
# Total GULP energy -198400.568431 kJ/mol
# GULP energy per Si atom -12400.035527 kJ/mol
# Density = 2.073153 g / cm^3
# Si number density = 20.778820 Si / 1000 Ang^3
#
#
#
# Elastic Constant Matrix: (Units=GPa)
#
#
# Indices 1 2 3 4 5 6 
#
# 1 79.5436 20.9577 19.4013 -10.3622 -1.9332 -17.5799
# 2 20.9577 67.1862 19.4162 0.8489 5.9529 -6.9176
# 3 19.4013 19.4162 78.3385 3.6903 -7.3021 -3.4213
# 4 -10.3622 0.8489 3.6903 38.0478 1.9578 -1.9221
# 5 -1.9332 5.9529 -7.3021 1.9578 24.6320 -9.7713
# 6 -17.5799 -6.9176 -3.4213 -1.9221 -9.7713 34.6723
#
#
#
# Elastic Compliance Matrix: (Units=1/GPa)
#
#
# Indices 1 2 3 4 5 6 
#
# 1 0.017144 -0.004133 -0.002614 0.005234 0.004827 0.009261
# 2 -0.004133 0.017781 -0.003930 -0.000867 -0.005983 -0.000670
# 3 -0.002614 -0.003930 0.015069 -0.002337 0.005741 0.000866
# 4 0.005234 -0.000867 -0.002337 0.028180 -0.000901 0.003559
# 5 0.004827 -0.005983 0.005741 -0.000901 0.050549 0.016016
# 6 0.009261 -0.000670 0.000866 0.003559 0.016016 0.038200
#
#
# Mechanical properties :
#
#
# Convention : Reuss Voigt Hill
#
# Bulk Modulus (GPa) = 34.91368 38.29098 36.60233
# Shear Modulus (GPa) = 25.27507 30.48997 27.88252
#
# Velocity S-wave (km/s) = 3.49146 3.83477 3.66713
# Velocity P-wave (km/s) = 5.75263 6.17051 5.96523
#
# Compressibility (1/GPa) = 0.02864207
#
# Stress axis : x y z
#
# Youngs Moduli (GPa) = 58.32952 56.24016 66.35932
#
# Poissons Ratio (x) = 0.23243 0.17345
# Poissons Ratio (y) = 0.24106 0.26077
# Poissons Ratio (z) = 0.15246 0.22100
#
# Static dielectric constant tensor:
#      x y z
#    x 2.035890 1.269770 0.114230 
#    y 1.269770 2.910370 -0.054160 
#    z 0.114230 -0.054160 4.340740 
# 
# 
# High freq. dielectric constant tensor:
#      x y z
#    x 1.807090 0.008410 -0.007080 
#    y 0.008410 1.812630 -0.005610 
#    z -0.007080 -0.005610 1.825910 
# 
# From -- ./inp_files/69338.got.cif
#   From: 2010.06.25/outbox.cif.g09.slc.cpg/sg2_35_cif.got.tgz:69338.got - 2010.06.27 13:26:56.
