data_PCOD8004586
_publ_section_title
;
Structure prediction by ZEFSAII (Michael W. Deem and Ramdas Pophale) SiO2 
 PCOD8004586
Probable space group: P -1
;
_chemical_formula_sum "Si O2"
_cell_formula_units_Z 16
_cell_length_a 19.322377
_cell_length_b 7.249038
_cell_length_c 7.732996
_cell_angle_alpha 52.419066
_cell_angle_beta 103.770528
_cell_angle_gamma 120.866803
_cell_volume 732.332961
_symmetry_space_group_name_H-M "P -1"
_symmetry_group_IT_number 2
_symmetry_cell_setting 'triclinic'
loop_
_space_group_symop_operation_xyz
x,y,z
-x,-y,-z
loop_
_atom_site_type_symbol
_atom_site_label
_atom_site_fract_x
_atom_site_fract_y
_atom_site_fract_z
Si Si1 0.920147 0.850122 0.920257
Si Si2 0.737766 0.397617 0.641757
Si Si3 0.601239 0.904298 0.670320
Si Si4 0.987282 0.696513 0.500904
Si Si5 0.475414 0.966887 0.755360
Si Si6 0.604064 0.408556 0.778350
Si Si7 0.151154 0.174143 0.775550
Si Si8 0.889402 0.410579 0.917403
O O1 0.903030 0.559193 0.023014
O O2 0.845357 0.819397 0.014432
O O3 0.932140 0.017450 0.651605
O O4 0.000000 0.000000 0.000000
O O5 0.685411 0.107559 0.693711
O O6 0.690450 0.481339 0.705161
O O7 0.764081 0.620351 0.378833
O O8 0.811411 0.386934 0.786698
O O9 0.583369 0.059135 0.420064
O O10 0.529370 0.823861 0.815624
O O11 0.606969 0.658911 0.732734
O O12 0.910916 0.728165 0.380658
O O13 0.971169 0.580593 0.752663
O O14 0.000000 0.500000 0.500000
O O15 0.534751 0.277543 0.662876
O O16 0.416993 0.820811 0.963142
O O17 0.122699 0.874597 0.872311
#
# Coordination Sequence:
#
# PCOD8004586 Si02
#       8
#     2   2   2   2   2   2   2   2
#     4  10  22  40  62  90 113 151 201 251 309 359
#     4  10  25  39  54  89 120 161 206 237 295 372
#     4  10  20  38  62  87 122 157 195 251 297 348
#     4  10  20  41  64  93 115 148 198 254 308 361
#     4   9  20  36  61  94 118 148 206 249 291 354
#     4  10  20  38  60  88 122 159 199 243 302 349
#     4  10  23  42  59  86 123 156 203 245 301 368
#     4  11  23  42  63  84 125 159 197 255 304 366
#
# _framework density 21.847984
#
# number of rings (size 3 to 8) (size 9 to 14) (size 15 to 20)
#    0.000    2.000    1.250    1.125    0.000    7.000 
#    9.000    2.500    0.000    0.000    0.000    0.000 
#    0.000    0.000    0.000    0.000    0.000    0.000 
#
# Total GULP energy -198277.822148 kJ/mol
# GULP energy per Si atom -12392.363884 kJ/mol
# Density = 2.179826 g / cm^3
# Si number density = 21.847984 Si / 1000 Ang^3
#
#
#
# Elastic Constant Matrix: (Units=GPa)
#
#
# Indices 1 2 3 4 5 6 
#
# 1 96.0912 52.2537 42.6056 -9.6135 -20.0047 -15.0071
# 2 52.2537 160.9136 20.9016 -12.5839 4.3079 -31.7578
# 3 42.6056 20.9016 71.5072 -15.3839 -24.1811 -3.8703
# 4 -9.6135 -12.5839 -15.3839 34.3829 -4.3663 9.2284
# 5 -20.0047 4.3079 -24.1811 -4.3663 40.7151 4.1032
# 6 -15.0071 -31.7578 -3.8703 9.2284 4.1032 34.6288
#
#
#
# Elastic Compliance Matrix: (Units=1/GPa)
#
#
# Indices 1 2 3 4 5 6 
#
# 1 0.017318 -0.004332 -0.007531 -0.000172 0.004251 0.002233
# 2 -0.004332 0.009345 -0.001689 -0.001169 -0.004992 0.007407
# 3 -0.007531 -0.001689 0.026014 0.012542 0.013969 -0.006903
# 4 -0.000172 -0.001169 0.012542 0.038979 0.012843 -0.011654
# 5 0.004251 -0.004992 0.013969 0.012843 0.037766 -0.009072
# 6 0.002233 0.007407 -0.006903 -0.011654 -0.009072 0.040047
#
#
# Mechanical properties :
#
#
# Convention : Reuss Voigt Hill
#
# Bulk Modulus (GPa) = 39.10417 62.22597 50.66507
# Shear Modulus (GPa) = 24.37868 36.12878 30.25373
#
# Velocity S-wave (km/s) = 3.34403 4.07091 3.72524
# Velocity P-wave (km/s) = 5.73125 7.11615 6.46091
#
# Compressibility (1/GPa) = 0.02557272
#
# Stress axis : x y z
#
# Youngs Moduli (GPa) = 57.74280 107.01188 38.44093
#
# Poissons Ratio (x) = 0.46360 0.28949
# Poissons Ratio (y) = 0.25015 0.06493
# Poissons Ratio (z) = 0.43485 0.18074
#
# Static dielectric constant tensor:
#      x y z
#    x 4.139400 -0.234410 -0.646000 
#    y -0.234410 4.016880 0.056930 
#    z -0.646000 0.056930 4.512200 
# 
# 
# High freq. dielectric constant tensor:
#      x y z
#    x 1.848000 -0.020720 -0.019400 
#    y -0.020720 1.865400 0.001490 
#    z -0.019400 0.001490 1.859040 
# 
# From -- ./inp_files/339627.got.cif
#   From: 2010.06.25/outbox.cif.g09.slc.cpg/sg2_170_cif.got.tgz:339627.got - 2010.06.27 13:26:56.
