data_PCOD8004825
_publ_section_title
;
Structure prediction by ZEFSAII (Michael W. Deem and Ramdas Pophale) SiO2 
 PCOD8004825
Probable space group: P -1
;
_chemical_formula_sum "Si O2"
_cell_formula_units_Z 16
_cell_length_a 9.556297
_cell_length_b 16.115324
_cell_length_c 14.909574
_cell_angle_alpha 37.836441
_cell_angle_beta 103.358457
_cell_angle_gamma 132.873769
_cell_volume 755.506503
_symmetry_space_group_name_H-M "P -1"
_symmetry_group_IT_number 2
_symmetry_cell_setting 'triclinic'
loop_
_space_group_symop_operation_xyz
x,y,z
-x,-y,-z
loop_
_atom_site_type_symbol
_atom_site_label
_atom_site_fract_x
_atom_site_fract_y
_atom_site_fract_z
Si Si1 0.622332 0.920183 0.338614
Si Si2 0.824238 0.797438 0.540173
Si Si3 0.746254 0.518159 0.464551
Si Si4 0.381935 0.789573 0.599955
Si Si5 0.821822 0.265832 0.930313
Si Si6 0.482792 0.378805 0.719067
Si Si7 0.382495 0.293667 0.224402
Si Si8 0.741269 0.060385 0.907163
O O1 0.764872 0.892998 0.403820
O O2 0.376095 0.697999 0.427665
O O3 0.535161 0.923353 0.414702
O O4 0.822051 0.168968 0.099963
O O5 0.677404 0.558854 0.675555
O O6 0.729769 0.715123 0.698760
O O7 0.133122 0.018747 0.381613
O O8 0.656929 0.433110 0.625867
O O9 0.652608 0.591399 0.357454
O O10 0.056959 0.743113 0.309477
O O11 0.413681 0.663903 0.755002
O O12 0.071286 0.560487 0.729975
O O13 0.500000 0.000000 0.500000
O O14 0.847380 0.204354 0.893433
O O15 0.549392 0.130843 0.002633
O O16 0.250486 0.095722 0.952297
O O17 0.500000 0.500000 0.000000
#
# Coordination Sequence:
#
# PCOD8004825 Si02
#       8
#     2   2   2   2   2   2   2   2
#     4  10  20  42  64  85 127 166 202 255 314 376
#     4   9  21  38  63  91 121 159 204 262 310 365
#     4  10  20  38  62  91 121 166 199 253 320 363
#     4  11  25  43  66  91 124 166 213 263 312 373
#     4  11  24  40  62  89 125 169 207 253 307 376
#     4  10  21  37  61  92 126 153 206 260 306 374
#     4  10  21  42  66  90 121 163 209 260 315 368
#     4  11  23  38  60  93 126 164 208 251 303 379
#
# _framework density 21.177844
#
# number of rings (size 3 to 8) (size 9 to 14) (size 15 to 20)
#    0.000    1.750    2.500    1.125    1.750    3.000 
#    2.250    0.000    0.000    0.000    0.000    0.000 
#    0.000    0.000    0.000    0.000    0.000    0.000 
#
# Total GULP energy -198336.328261 kJ/mol
# GULP energy per Si atom -12396.020516 kJ/mol
# Density = 2.112964 g / cm^3
# Si number density = 21.177844 Si / 1000 Ang^3
#
#
#
# Elastic Constant Matrix: (Units=GPa)
#
#
# Indices 1 2 3 4 5 6 
#
# 1 54.4601 27.9804 26.5803 -9.3366 -13.6777 -11.1225
# 2 27.9804 101.1696 38.4016 -20.5129 -8.9849 -12.9234
# 3 26.5803 38.4016 94.1986 -4.9273 -8.0944 0.1391
# 4 -9.3366 -20.5129 -4.9273 45.7166 2.8392 1.5384
# 5 -13.6777 -8.9849 -8.0944 2.8392 30.0001 -7.7606
# 6 -11.1225 -12.9234 0.1391 1.5384 -7.7606 29.4048
#
#
#
# Elastic Compliance Matrix: (Units=1/GPa)
#
#
# Indices 1 2 3 4 5 6 
#
# 1 0.029385 -0.002182 -0.006027 0.003012 0.014410 0.013830
# 2 -0.002182 0.014362 -0.004713 0.005092 0.003122 0.006066
# 3 -0.006027 -0.004713 0.014038 -0.001584 -0.001441 -0.004715
# 4 0.003012 0.005092 -0.001584 0.024479 0.000750 0.002302
# 5 0.014410 0.003122 -0.001441 0.000750 0.045222 0.018726
# 6 0.013830 0.006066 -0.004715 0.002302 0.018726 0.046749
#
#
# Mechanical properties :
#
#
# Convention : Reuss Voigt Hill
#
# Bulk Modulus (GPa) = 31.30850 48.41698 39.86274
# Shear Modulus (GPa) = 23.72748 31.48205 27.60476
#
# Velocity S-wave (km/s) = 3.35086 3.85977 3.61428
# Velocity P-wave (km/s) = 5.45772 6.54030 6.02338
#
# Compressibility (1/GPa) = 0.03194020
#
# Stress axis : x y z
#
# Youngs Moduli (GPa) = 34.03139 69.62971 71.23471
#
# Poissons Ratio (x) = 0.15195 0.42930
# Poissons Ratio (y) = 0.07426 0.33575
# Poissons Ratio (z) = 0.20509 0.32819
#
# Static dielectric constant tensor:
#      x y z
#    x 3.639630 -0.028480 -0.054690 
#    y -0.028480 3.976710 -0.007120 
#    z -0.054690 -0.007120 3.877860 
# 
# 
# High freq. dielectric constant tensor:
#      x y z
#    x 1.820430 0.002590 -0.003880 
#    y 0.002590 1.830300 -0.002820 
#    z -0.003880 -0.002820 1.838200 
# 
# From -- ./inp_files/315054.got.cif
#   From: 2010.06.25/outbox.cif.g09.slc.cpg/sg2_158_cif.got.tgz:315054.got - 2010.06.27 13:26:56.
