data_PCOD8004698
_publ_section_title
;
Structure prediction by ZEFSAII (Michael W. Deem and Ramdas Pophale) SiO2 
 PCOD8004698
Probable space group: P -1
;
_chemical_formula_sum "Si O2"
_cell_formula_units_Z 16
_cell_length_a 15.229350
_cell_length_b 10.563766
_cell_length_c 9.874402
_cell_angle_alpha 37.564606
_cell_angle_beta 44.077002
_cell_angle_gamma 56.032083
_cell_volume 673.490393
_symmetry_space_group_name_H-M "P -1"
_symmetry_group_IT_number 2
_symmetry_cell_setting 'triclinic'
loop_
_space_group_symop_operation_xyz
x,y,z
-x,-y,-z
loop_
_atom_site_type_symbol
_atom_site_label
_atom_site_fract_x
_atom_site_fract_y
_atom_site_fract_z
Si Si1 0.445942 0.603815 0.768648
Si Si2 0.567957 0.947394 0.190253
Si Si3 0.870835 0.899391 0.590188
Si Si4 0.198381 0.088936 0.856661
Si Si5 0.398255 0.235543 0.972469
Si Si6 0.036731 0.275230 0.096373
Si Si7 0.059321 0.681543 0.374771
Si Si8 0.697022 0.529054 0.700205
O O1 0.466969 0.842707 0.497069
O O2 0.578902 0.508645 0.748431
O O3 0.396679 0.479838 0.796713
O O4 0.340646 0.571300 0.028489
O O5 0.693391 0.008369 0.084418
O O6 0.514891 0.146529 0.004500
O O7 0.595113 0.782767 0.180809
O O8 0.725289 0.876347 0.731205
O O9 0.882227 0.844379 0.781522
O O10 0.955873 0.736788 0.552990
O O11 0.909418 0.140004 0.320520
O O12 0.259752 0.223582 0.550095
O O13 0.121421 0.264601 0.876284
O O14 0.106504 0.900076 0.064393
O O15 0.000000 0.500000 0.000000
O O16 0.184199 0.596421 0.380406
O O17 0.000000 0.500000 0.500000
#
# Coordination Sequence:
#
# PCOD8004698 Si02
#       8
#     2   2   2   2   2   2   2   2
#     4  10  22  40  63  90 125 165 216 260 310 379
#     4  10  22  39  62  93 125 166 207 262 322 371
#     4  10  22  38  60  91 128 159 209 257 307 381
#     4  10  21  41  64  94 128 165 214 260 315 382
#     4  11  21  39  61  93 128 165 203 264 320 373
#     4  10  20  38  61  90 122 164 206 255 314 372
#     4  11  23  40  63  93 128 171 210 261 315 380
#     4  10  22  41  63  91 124 171 213 260 313 376
#
# _framework density 23.756834000000001
#
# number of rings (size 3 to 8) (size 9 to 14) (size 15 to 20)
#    0.000    1.750    1.250    2.625    0.000    2.500 
#    9.000    7.500    0.000    0.000    0.000    0.000 
#    0.000    0.000    0.000    0.000    0.000    0.000 
#
# Total GULP energy -198240.134049 kJ/mol
# GULP energy per Si atom -12390.008378 kJ/mol
# Density = 2.370276 g / cm^3
# Si number density = 23.756834 Si / 1000 Ang^3
#
#
#
# Elastic Constant Matrix: (Units=GPa)
#
#
# Indices 1 2 3 4 5 6 
#
# 1 40.1844 21.6231 24.8123 1.7116 -7.3499 6.0137
# 2 21.6231 89.3739 31.0396 -3.5463 -18.7738 4.0270
# 3 24.8123 31.0396 134.3072 4.0288 -14.2468 20.2707
# 4 1.7116 -3.5463 4.0288 32.5831 7.1261 -9.8437
# 5 -7.3499 -18.7738 -14.2468 7.1261 37.8314 -3.8296
# 6 6.0137 4.0270 20.2707 -9.8437 -3.8296 36.8107
#
#
#
# Elastic Compliance Matrix: (Units=1/GPa)
#
#
# Indices 1 2 3 4 5 6 
#
# 1 0.031264 -0.005849 -0.003635 -0.003227 0.002095 -0.003111
# 2 -0.005849 0.014349 -0.001939 0.001398 0.005128 0.001361
# 3 -0.003635 -0.001939 0.009659 -0.003223 0.002053 -0.005161
# 4 -0.003227 0.001398 -0.003223 0.036274 -0.006852 0.011136
# 5 0.002095 0.005128 0.002053 -0.006852 0.031388 -0.000601
# 6 -0.003111 0.001361 -0.005161 0.011136 -0.000601 0.033283
#
#
# Mechanical properties :
#
#
# Convention : Reuss Voigt Hill
#
# Bulk Modulus (GPa) = 30.84091 46.53505 38.68798
# Shear Modulus (GPa) = 26.33363 33.87107 30.10235
#
# Velocity S-wave (km/s) = 3.33297 3.77999 3.56350
# Velocity P-wave (km/s) = 5.27463 6.21946 5.76643
#
# Compressibility (1/GPa) = 0.03242446
#
# Stress axis : x y z
#
# Youngs Moduli (GPa) = 31.98610 69.69167 103.53298
#
# Poissons Ratio (x) = 0.40763 0.37638
# Poissons Ratio (y) = 0.18709 0.20074
# Poissons Ratio (z) = 0.11628 0.13513
#
# Static dielectric constant tensor:
#      x y z
#    x 4.050380 0.003050 -0.239210 
#    y 0.003050 4.074170 0.117040 
#    z -0.239210 0.117040 4.471670 
# 
# 
# High freq. dielectric constant tensor:
#      x y z
#    x 1.924600 -0.001740 -0.016560 
#    y -0.001740 1.930140 0.002720 
#    z -0.016560 0.002720 1.956400 
# 
# From -- ./inp_files/464244.got.cif
#   From: 2010.06.25/outbox.cif.g09.slc.cpg/sg2_233_cif.got.tgz:464244.got - 2010.06.27 13:26:56.
