data_PCOD8004696
_publ_section_title
;
Structure prediction by ZEFSAII (Michael W. Deem and Ramdas Pophale) SiO2 
 PCOD8004696
Probable space group: P -1
;
_chemical_formula_sum "Si O2"
_cell_formula_units_Z 16
_cell_length_a 8.648327
_cell_length_b 18.615281
_cell_length_c 11.246247
_cell_angle_alpha 137.705937
_cell_angle_beta 131.995576
_cell_angle_gamma 79.164087
_cell_volume 714.937235
_symmetry_space_group_name_H-M "P -1"
_symmetry_group_IT_number 2
_symmetry_cell_setting 'triclinic'
loop_
_space_group_symop_operation_xyz
x,y,z
-x,-y,-z
loop_
_atom_site_type_symbol
_atom_site_label
_atom_site_fract_x
_atom_site_fract_y
_atom_site_fract_z
Si Si1 0.311737 0.014482 0.577845
Si Si2 0.878237 0.350974 0.784230
Si Si3 0.186312 0.010548 0.763668
Si Si4 0.851242 0.100061 0.134543
Si Si5 0.391461 0.167495 0.448616
Si Si6 0.793452 0.547890 0.702346
Si Si7 0.251629 0.792261 0.122077
Si Si8 0.714697 0.275248 0.359983
O O1 0.292133 0.975041 0.659681
O O2 0.614319 0.146782 0.863715
O O3 0.211516 0.891249 0.289039
O O4 0.110439 0.047859 0.488151
O O5 0.580980 0.278833 0.585228
O O6 0.858985 0.282258 0.565461
O O7 0.000000 0.500000 0.000000
O O8 0.055668 0.354891 0.984838
O O9 0.205699 0.949611 0.819338
O O10 0.395105 0.174317 0.083564
O O11 0.802545 0.211919 0.233136
O O12 0.146721 0.168505 0.331729
O O13 0.673802 0.975845 0.798213
O O14 0.534672 0.211552 0.702755
O O15 0.500000 0.500000 0.500000
O O16 0.798888 0.420855 0.543296
O O17 0.963404 0.643287 0.791875
#
# Coordination Sequence:
#
# PCOD8004696 Si02
#       8
#     2   2   2   2   2   2   2   2
#     4  10  22  36  62  91 124 162 205 251 316 363
#     4   9  20  38  63  88 120 162 205 249 307 374
#     4  11  21  37  58  93 127 161 200 257 308 369
#     4  11  22  35  62  93 129 157 205 260 304 369
#     4  10  20  38  61  90 121 162 201 255 314 356
#     4  10  22  41  64  90 123 165 208 256 310 376
#     4  10  20  40  61  88 120 162 205 257 302 377
#     4  11  22  39  61  94 122 164 207 253 309 368
#
# _framework density 22.379587999999998
#
# number of rings (size 3 to 8) (size 9 to 14) (size 15 to 20)
#    0.000    1.750    2.500    1.875    3.500    0.000 
#    0.000    6.250    0.000    0.000    0.000    0.000 
#    0.000    0.000    0.000    0.000    0.000    0.000 
#
# Total GULP energy -198222.276208 kJ/mol
# GULP energy per Si atom -12388.892263 kJ/mol
# Density = 2.232865 g / cm^3
# Si number density = 22.379588 Si / 1000 Ang^3
#
#
#
# Elastic Constant Matrix: (Units=GPa)
#
#
# Indices 1 2 3 4 5 6 
#
# 1 130.4212 44.9911 64.4086 17.9129 17.9971 2.3056
# 2 44.9911 62.2968 25.8016 15.9283 6.1454 4.4709
# 3 64.4086 25.8016 105.1257 10.3133 23.3592 2.6198
# 4 17.9129 15.9283 10.3133 38.5771 9.4415 0.1515
# 5 17.9971 6.1454 23.3592 9.4415 39.6478 1.9861
# 6 2.3056 4.4709 2.6198 0.1515 1.9861 30.6291
#
#
#
# Elastic Compliance Matrix: (Units=1/GPa)
#
#
# Indices 1 2 3 4 5 6 
#
# 1 0.013355 -0.006622 -0.006185 -0.001559 -0.001049 0.000566
# 2 -0.006622 0.023072 -0.001315 -0.006556 0.001909 -0.002848
# 3 -0.006185 -0.001315 0.014864 0.000898 -0.005948 -0.000233
# 4 -0.001559 -0.006556 0.000898 0.030615 -0.006158 0.001245
# 5 -0.001049 0.001909 -0.005948 -0.006158 0.030455 -0.001635
# 6 0.000566 -0.002848 -0.000233 0.001245 -0.001635 0.033142
#
#
# Mechanical properties :
#
#
# Convention : Reuss Voigt Hill
#
# Bulk Modulus (GPa) = 43.39197 63.13850 53.26523
# Shear Modulus (GPa) = 27.55870 32.61363 30.08616
#
# Velocity S-wave (km/s) = 3.51297 3.82159 3.67053
# Velocity P-wave (km/s) = 5.99047 6.90989 6.46654
#
# Compressibility (1/GPa) = 0.02304574
#
# Stress axis : x y z
#
# Youngs Moduli (GPa) = 74.87618 43.34309 67.27490
#
# Poissons Ratio (x) = 0.28702 0.41612
# Poissons Ratio (y) = 0.49583 0.08850
# Poissons Ratio (z) = 0.46314 0.05702
#
# Static dielectric constant tensor:
#      x y z
#    x 4.222900 0.584270 -0.169230 
#    y 0.584270 4.161400 -0.447550 
#    z -0.169230 -0.447550 4.666180 
# 
# 
# High freq. dielectric constant tensor:
#      x y z
#    x 1.880250 0.013220 0.011770 
#    y 0.013220 1.873800 -0.009140 
#    z 0.011770 -0.009140 1.884480 
# 
# From -- ./inp_files/404964.got.cif
#   From: 2010.06.25/outbox.cif.g09.slc.cpg/sg2_203_cif.got.tgz:404964.got - 2010.06.27 13:26:56.
