data_PCOD8004926
_publ_section_title
;
Structure prediction by ZEFSAII (Michael W. Deem and Ramdas Pophale) SiO2 
 PCOD8004926
Probable space group: P -1
;
_chemical_formula_sum "Si O2"
_cell_formula_units_Z 16
_cell_length_a 9.041199
_cell_length_b 8.385870
_cell_length_c 11.423388
_cell_angle_alpha 125.481051
_cell_angle_beta 90.344174
_cell_angle_gamma 88.910748
_cell_volume 705.132554
_symmetry_space_group_name_H-M "P -1"
_symmetry_group_IT_number 2
_symmetry_cell_setting 'triclinic'
loop_
_space_group_symop_operation_xyz
x,y,z
-x,-y,-z
loop_
_atom_site_type_symbol
_atom_site_label
_atom_site_fract_x
_atom_site_fract_y
_atom_site_fract_z
Si Si1 0.355422 0.734687 0.753019
Si Si2 0.949771 0.902502 0.282966
Si Si3 0.746462 0.240616 0.485669
Si Si4 0.317018 0.395321 0.232176
Si Si5 0.472293 0.648074 0.166849
Si Si6 0.717413 0.040568 0.636788
Si Si7 0.743165 0.672293 0.346555
Si Si8 0.855576 0.927457 0.032110
O O1 0.360315 0.781033 0.635327
O O2 0.524635 0.704080 0.778592
O O3 0.250794 0.548780 0.700309
O O4 0.277284 0.912547 0.897801
O O5 0.890106 0.747128 0.312700
O O6 0.124759 0.892911 0.287226
O O7 0.901478 0.127190 0.410246
O O8 0.894857 0.849521 0.129443
O O9 0.759162 0.474574 0.608993
O O10 0.673156 0.129342 0.546727
O O11 0.342063 0.547844 0.194410
O O12 0.199327 0.241972 0.124674
O O13 0.401351 0.865846 0.230028
O O14 0.619741 0.687437 0.253563
O O15 0.500000 0.500000 0.000000
O O16 0.707869 0.806791 0.518888
O O17 0.000000 0.000000 0.000000
#
# Coordination Sequence:
#
# PCOD8004926 Si02
#       8
#     2   2   2   2   2   2   2   2
#     4  10  22  39  63  91 118 153 200 247 297 351
#     4  10  22  41  62  87 122 160 195 243 296 351
#     4   9  19  38  62  88 117 152 198 245 294 346
#     4  10  21  40  62  86 118 157 197 247 298 350
#     4  10  21  37  59  90 121 154 197 246 296 350
#     4  10  21  39  61  87 121 161 198 240 294 350
#     4  10  20  38  63  91 117 152 199 249 296 349
#     4  11  25  42  59  86 122 161 200 241 294 357
#
# _framework density 22.690767999999998
#
# number of rings (size 3 to 8) (size 9 to 14) (size 15 to 20)
#    0.000    2.000    0.000    3.375    0.000    7.000 
#    0.000   13.125    0.000    0.000    0.000    0.000 
#    0.000    0.000    0.000    0.000    0.000    0.000 
#
# Total GULP energy -198244.735490 kJ/mol
# GULP energy per Si atom -12390.295968 kJ/mol
# Density = 2.263912 g / cm^3
# Si number density = 22.690768 Si / 1000 Ang^3
#
#
#
# Elastic Constant Matrix: (Units=GPa)
#
#
# Indices 1 2 3 4 5 6 
#
# 1 61.6548 1.2457 30.2259 -0.3531 8.4923 -4.5863
# 2 1.2457 48.8169 0.5431 -5.6647 8.7425 -2.8155
# 3 30.2259 0.5431 117.3316 11.8283 1.2459 0.8088
# 4 -0.3531 -5.6647 11.8283 23.2633 7.5199 3.3465
# 5 8.4923 8.7425 1.2459 7.5199 33.0646 6.7896
# 6 -4.5863 -2.8155 0.8088 3.3465 6.7896 20.9328
#
#
#
# Elastic Compliance Matrix: (Units=1/GPa)
#
#
# Indices 1 2 3 4 5 6 
#
# 1 0.020740 0.002058 -0.005866 0.005497 -0.008310 0.006864
# 2 0.002058 0.023561 -0.001471 0.008917 -0.009849 0.005446
# 3 -0.005866 -0.001471 0.010694 -0.006711 0.003415 -0.001931
# 4 0.005497 0.008917 -0.006711 0.053815 -0.015573 -0.000889
# 5 -0.008310 -0.009849 0.003415 -0.015573 0.041308 -0.014186
# 6 0.006864 0.005446 -0.001931 -0.000889 -0.014186 0.054826
#
#
# Mechanical properties :
#
#
# Convention : Reuss Voigt Hill
#
# Bulk Modulus (GPa) = 22.50327 32.42584 27.46456
# Shear Modulus (GPa) = 21.70936 28.50473 25.10704
#
# Velocity S-wave (km/s) = 3.09649 3.54817 3.33000
# Velocity P-wave (km/s) = 4.76689 5.57740 5.18800
#
# Compressibility (1/GPa) = 0.04443798
#
# Stress axis : x y z
#
# Youngs Moduli (GPa) = 48.21607 42.44265 93.50784
#
# Poissons Ratio (x) = -0.08734 0.54848
# Poissons Ratio (y) = -0.09922 0.13756
# Poissons Ratio (z) = 0.28282 0.06244
#
# Static dielectric constant tensor:
#      x y z
#    x -0.046300 2.504580 6.360550 
#    y 2.504580 2.478910 -4.174120 
#    z 6.360550 -4.174120 -6.267730 
# 
# 
# High freq. dielectric constant tensor:
#      x y z
#    x 1.887880 -0.013060 -0.001500 
#    y -0.013060 1.881010 0.011710 
#    z -0.001500 0.011710 1.910940 
# 
# From -- ./inp_files/223692.got.cif
#   From: 2010.06.25/outbox.cif.g09.slc.cpg/sg2_112_cif.got.tgz:223692.got - 2010.06.27 13:26:56.
