data_PCOD8004706
_publ_section_title
;
Structure prediction by ZEFSAII (Michael W. Deem and Ramdas Pophale) SiO2 
 PCOD8004706
Probable space group: P -1
;
_chemical_formula_sum "Si O2"
_cell_formula_units_Z 14
_cell_length_a 4.963194
_cell_length_b 16.910951
_cell_length_c 11.979191
_cell_angle_alpha 42.061205
_cell_angle_beta 115.533045
_cell_angle_gamma 128.340347
_cell_volume 527.472805
_symmetry_space_group_name_H-M "P -1"
_symmetry_group_IT_number 2
_symmetry_cell_setting 'triclinic'
loop_
_space_group_symop_operation_xyz
x,y,z
-x,-y,-z
loop_
_atom_site_type_symbol
_atom_site_label
_atom_site_fract_x
_atom_site_fract_y
_atom_site_fract_z
Si Si1 0.475060 0.652483 0.786453
Si Si2 0.708324 0.178596 0.657730
Si Si3 0.684291 0.907284 0.668955
Si Si4 0.788651 0.576486 0.380773
Si Si5 0.803121 0.602834 0.107735
Si Si6 0.664914 0.116992 0.149869
Si Si7 0.943890 0.793297 0.534053
O O1 0.430708 0.788339 0.656560
O O2 0.151773 0.520993 0.808967
O O3 0.790622 0.685104 0.722221
O O4 0.551551 0.619749 0.958383
O O5 0.364509 0.188235 0.589533
O O6 0.964805 0.264322 0.713212
O O7 0.908567 0.245220 0.507639
O O8 0.599982 0.019356 0.821958
O O9 0.551868 0.858228 0.820726
O O10 0.043457 0.908313 0.714862
O O11 0.763983 0.063614 0.503830
O O12 0.500000 0.500000 0.500000
O O13 0.636891 0.564828 0.241170
O O14 0.000000 0.500000 0.500000
O O15 0.166847 0.743644 0.037780
#
# Coordination Sequence:
#
# PCOD8004706 Si02
#       7
#     2   2   2   2   2   2   2
#     4  10  20  38  61  90 128 163 197 250 304 355
#     4  10  21  40  65  90 123 160 201 250 296 353
#     4   9  19  35  59  89 124 160 199 242 293 360
#     4  12  26  45  67  91 119 158 206 254 303 361
#     4  10  23  40  62  91 124 161 204 249 304 363
#     4   9  20  38  59  89 121 158 201 244 299 356
#     4  10  20  38  64  94 122 159 204 245 299 359
#
# _framework density 26.541654000000001
#
# number of rings (size 3 to 8) (size 9 to 14) (size 15 to 20)
#    0.000    2.000    0.000    3.000    0.000    5.714 
#    0.000   14.286    0.000   12.000    0.000    0.000 
#    0.000    0.000    0.000    0.000    0.000    0.000 
#
# Total GULP energy -173484.342862 kJ/mol
# GULP energy per Si atom -12391.738776 kJ/mol
# Density = 2.648124 g / cm^3
# Si number density = 26.541654 Si / 1000 Ang^3
#
#
#
# Elastic Constant Matrix: (Units=GPa)
#
#
# Indices 1 2 3 4 5 6 
#
# 1 87.9272 41.1163 21.5133 -5.8448 -13.1548 -16.3892
# 2 41.1163 229.5059 72.5974 -23.0282 -0.5188 -27.9360
# 3 21.5133 72.5974 142.5967 -7.3741 -20.7815 -14.9311
# 4 -5.8448 -23.0282 -7.3741 55.1529 -8.9277 5.1607
# 5 -13.1548 -0.5188 -20.7815 -8.9277 32.2614 -5.4674
# 6 -16.3892 -27.9360 -14.9311 5.1607 -5.4674 36.6926
#
#
#
# Elastic Compliance Matrix: (Units=1/GPa)
#
#
# Indices 1 2 3 4 5 6 
#
# 1 0.014526 -0.001868 0.000628 0.001516 0.007779 0.006267
# 2 -0.001868 0.005945 -0.002680 0.001462 -0.001623 0.002153
# 3 0.000628 -0.002680 0.009739 0.001143 0.007334 0.003135
# 4 0.001516 0.001462 0.001143 0.020150 0.007034 0.000469
# 5 0.007779 -0.001623 0.007334 0.007034 0.042607 0.010583
# 6 0.006267 0.002153 0.003135 0.000469 0.010583 0.034479
#
#
# Mechanical properties :
#
#
# Convention : Reuss Voigt Hill
#
# Bulk Modulus (GPa) = 44.70606 81.16487 62.93546
# Shear Modulus (GPa) = 35.02817 46.47489 40.75153
#
# Velocity S-wave (km/s) = 3.63677 4.18906 3.92264
# Velocity P-wave (km/s) = 5.87495 7.35147 6.65429
#
# Compressibility (1/GPa) = 0.02236833
#
# Stress axis : x y z
#
# Youngs Moduli (GPa) = 68.84259 168.21353 102.68251
#
# Poissons Ratio (x) = 0.31430 -0.06449
# Poissons Ratio (y) = 0.12863 0.27521
# Poissons Ratio (z) = -0.04324 0.45085
#
# Static dielectric constant tensor:
#      x y z
#    x 4.834710 -0.218200 -0.055260 
#    y -0.218200 5.537760 -0.614310 
#    z -0.055260 -0.614310 4.929340 
# 
# 
# High freq. dielectric constant tensor:
#      x y z
#    x 2.069500 -0.016410 -0.011120 
#    y -0.016410 2.085420 -0.028720 
#    z -0.011120 -0.028720 2.050740 
# 
# From -- ./inp_files/93332.got.cif
#   From: 2010.06.25/outbox.cif.g09.slc.cpg/sg2_47_cif.got.tgz:93332.got - 2010.06.27 13:26:56.
