data_PCOD8004371
_publ_section_title
;
Structure prediction by ZEFSAII (Michael W. Deem and Ramdas Pophale) SiO2 
 PCOD8004371
Probable space group: P -1
;
_chemical_formula_sum "Si O2"
_cell_formula_units_Z 16
_cell_length_a 8.897421
_cell_length_b 7.628953
_cell_length_c 14.848969
_cell_angle_alpha 67.214105
_cell_angle_beta 82.651763
_cell_angle_gamma 59.489186
_cell_volume 797.585090
_symmetry_space_group_name_H-M "P -1"
_symmetry_group_IT_number 2
_symmetry_cell_setting 'triclinic'
loop_
_space_group_symop_operation_xyz
x,y,z
-x,-y,-z
loop_
_atom_site_type_symbol
_atom_site_label
_atom_site_fract_x
_atom_site_fract_y
_atom_site_fract_z
Si Si1 0.611828 0.142531 0.239874
Si Si2 0.307810 0.600492 0.956034
Si Si3 0.065200 0.228271 0.381865
Si Si4 0.305760 0.161768 0.013954
Si Si5 0.936192 0.737782 0.286512
Si Si6 0.026690 0.716484 0.091391
Si Si7 0.755244 0.775590 0.800728
Si Si8 0.838901 0.020967 0.400739
O O1 0.706128 0.256343 0.157478
O O2 0.408980 0.251902 0.211550
O O3 0.723637 0.881327 0.257589
O O4 0.647054 0.161670 0.340196
O O5 0.269291 0.409646 0.968012
O O6 0.500000 0.500000 0.000000
O O7 0.162771 0.753398 0.012631
O O8 0.191336 0.123224 0.306174
O O9 0.177231 0.104105 0.486123
O O10 0.995921 0.485103 0.346476
O O11 0.902439 0.188684 0.392480
O O12 0.167925 0.145751 0.962550
O O13 0.290299 0.083417 0.132154
O O14 0.500000 0.000000 0.000000
O O15 0.028708 0.777410 0.184324
O O16 0.974081 0.839346 0.353536
O O17 0.083062 0.460516 0.138565
#
# Coordination Sequence:
#
# PCOD8004371 Si02
#       8
#     2   2   2   2   2   2   2   2
#     4  10  21  37  56  86 121 152 200 245 294 352
#     4  11  21  38  56  83 125 156 197 247 286 357
#     4  10  20  41  65  84 116 153 199 255 300 350
#     4  11  23  38  57  87 118 162 199 242 295 351
#     4   9  21  37  62  87 116 152 199 245 292 361
#     4  10  21  35  61  82 117 164 195 236 298 352
#     4  10  20  38  56  87 117 157 199 238 300 358
#     4   9  22  38  64  89 112 152 204 246 306 354
#
# _framework density 20.060556999999999
#
# number of rings (size 3 to 8) (size 9 to 14) (size 15 to 20)
#    0.750    1.250    2.500    2.625    5.250    1.000 
#    2.250    0.000    0.000    1.500    0.000    0.000 
#    0.000    0.000    0.000    0.000    0.000    0.000 
#
# Total GULP energy -198221.920738 kJ/mol
# GULP energy per Si atom -12388.870046 kJ/mol
# Density = 2.001490 g / cm^3
# Si number density = 20.060557 Si / 1000 Ang^3
#
#
#
# Elastic Constant Matrix: (Units=GPa)
#
#
# Indices 1 2 3 4 5 6 
#
# 1 64.9587 7.7919 37.6894 -7.5263 2.2337 -14.7092
# 2 7.7919 41.9972 24.2451 1.6179 -1.2102 -5.2866
# 3 37.6894 24.2451 165.6014 2.8825 3.8805 -6.4317
# 4 -7.5263 1.6179 2.8825 28.5521 0.2312 -3.4648
# 5 2.2337 -1.2102 3.8805 0.2312 29.3281 0.6595
# 6 -14.7092 -5.2866 -6.4317 -3.4648 0.6595 33.5803
#
#
#
# Elastic Compliance Matrix: (Units=1/GPa)
#
#
# Indices 1 2 3 4 5 6 
#
# 1 0.020931 -0.000501 -0.004434 0.007096 -0.001286 0.008998
# 2 -0.000501 0.026492 -0.003664 -0.000897 0.001553 0.003126
# 3 -0.004434 -0.003664 0.007587 -0.001872 -0.000775 -0.001244
# 4 0.007096 -0.000897 -0.001872 0.037933 -0.000776 0.006538
# 5 -0.001286 0.001553 -0.000775 -0.000776 0.034395 -0.001223
# 6 0.008998 0.003126 -0.001244 0.006538 -0.001223 0.034673
#
#
# Mechanical properties :
#
#
# Convention : Reuss Voigt Hill
#
# Bulk Modulus (GPa) = 26.44738 45.77890 36.11314
# Shear Modulus (GPa) = 26.06689 31.81415 28.94052
#
# Velocity S-wave (km/s) = 3.60864 3.98666 3.80235
# Velocity P-wave (km/s) = 5.52951 6.63786 6.10887
#
# Compressibility (1/GPa) = 0.03781093
#
# Stress axis : x y z
#
# Youngs Moduli (GPa) = 47.77580 37.74704 131.81100
#
# Poissons Ratio (x) = 0.01892 0.58448
# Poissons Ratio (y) = 0.02395 0.48294
# Poissons Ratio (z) = 0.21185 0.13830
#
# Static dielectric constant tensor:
#      x y z
#    x 3.395300 -0.065770 -0.088820 
#    y -0.065770 3.634730 0.088770 
#    z -0.088820 0.088770 4.102530 
# 
# 
# High freq. dielectric constant tensor:
#      x y z
#    x 1.757220 -0.006020 0.004300 
#    y -0.006020 1.768030 0.001470 
#    z 0.004300 0.001470 1.801180 
# 
# From -- ./inp_files/490775.got.cif
#   From: 2010.06.25/outbox.cif.g09.slc.cpg/sg2_246_cif.got.tgz:490775.got - 2010.06.27 13:26:56.
