data_PCOD8004225
_publ_section_title
;
Structure prediction by ZEFSAII (Michael W. Deem and Ramdas Pophale) SiO2 
 PCOD8004225
Probable space group: P -1
;
_chemical_formula_sum "Si O2"
_cell_formula_units_Z 16
_cell_length_a 12.018816
_cell_length_b 7.627133
_cell_length_c 13.087889
_cell_angle_alpha 32.778579
_cell_angle_beta 95.748966
_cell_angle_gamma 84.748855
_cell_volume 610.911319
_symmetry_space_group_name_H-M "P -1"
_symmetry_group_IT_number 2
_symmetry_cell_setting 'triclinic'
loop_
_space_group_symop_operation_xyz
x,y,z
-x,-y,-z
loop_
_atom_site_type_symbol
_atom_site_label
_atom_site_fract_x
_atom_site_fract_y
_atom_site_fract_z
Si Si1 0.936479 0.214456 0.012592
Si Si2 0.120852 0.518119 0.914019
Si Si3 0.516600 0.842860 0.687985
Si Si4 0.206374 0.587654 0.682615
Si Si5 0.278210 0.182224 0.603607
Si Si6 0.977952 0.537587 0.598822
Si Si7 0.708464 0.129421 0.637086
Si Si8 0.704299 0.150383 0.021428
O O1 0.798431 0.341299 0.900583
O O2 0.012903 0.455390 0.868959
O O3 0.936302 0.193949 0.148320
O O4 0.999178 0.832110 0.164711
O O5 0.189138 0.171131 0.151724
O O6 0.199298 0.650681 0.774574
O O7 0.500000 0.000000 0.500000
O O8 0.387993 0.913164 0.689091
O O9 0.592142 0.012514 0.683971
O O10 0.575039 0.431451 0.878733
O O11 0.266413 0.810114 0.510467
O O12 0.071925 0.699632 0.573758
O O13 0.284995 0.180474 0.884557
O O14 0.159424 0.263969 0.484000
O O15 0.309393 0.525361 0.468660
O O16 0.251266 0.999068 0.790468
O O17 0.000000 0.500000 0.500000
#
# Coordination Sequence:
#
# PCOD8004225 Si02
#       8
#     2   2   2   2   2   2   2   2
#     4  10  20  37  65  99 137 174 215 280 338 405
#     4  11  22  39  67 102 140 176 223 277 347 395
#     4  12  28  45  66  99 134 178 234 284 330 399
#     4  10  24  41  74 105 132 182 223 276 339 412
#     4  11  23  44  72  94 137 184 221 273 343 398
#     4  11  18  41  69 100 138 174 221 274 339 405
#     4  11  23  48  67  96 139 177 229 276 339 396
#     4  10  22  44  69  95 134 176 226 277 339 398
#
# _framework density 26.190380999999999
#
# number of rings (size 3 to 8) (size 9 to 14) (size 15 to 20)
#    0.000    1.250    6.250    0.750    1.750    4.000 
#    2.250    4.375    0.000    0.000    0.000    0.000 
#    0.000    0.000    0.000    0.000    0.000    0.000 
#
# Total GULP energy -198283.499859 kJ/mol
# GULP energy per Si atom -12392.718741 kJ/mol
# Density = 2.613077 g / cm^3
# Si number density = 26.190381 Si / 1000 Ang^3
#
#
#
# Elastic Constant Matrix: (Units=GPa)
#
#
# Indices 1 2 3 4 5 6 
#
# 1 116.5422 4.2610 20.5057 -28.6512 16.2605 -22.0523
# 2 4.2610 42.0938 16.1383 -9.0367 10.4184 -15.6465
# 3 20.5057 16.1383 96.7207 -16.7387 3.6785 -10.6729
# 4 -28.6512 -9.0367 -16.7387 33.4782 -14.8525 -1.9654
# 5 16.2605 10.4184 3.6785 -14.8525 42.0046 -2.4773
# 6 -22.0523 -15.6465 -10.6729 -1.9654 -2.4773 32.0954
#
#
#
# Elastic Compliance Matrix: (Units=1/GPa)
#
#
# Indices 1 2 3 4 5 6 
#
# 1 0.015049 0.007658 -0.000169 0.015062 -0.001510 0.014823
# 2 0.007658 0.036849 -0.002611 0.014068 -0.005557 0.022790
# 3 -0.000169 -0.002611 0.012186 0.006356 0.002083 0.003213
# 4 0.015062 0.014068 0.006356 0.056172 0.011380 0.023639
# 5 -0.001510 -0.005557 0.002083 0.011380 0.029607 -0.000072
# 6 0.014823 0.022790 0.003213 0.023639 -0.000072 0.054963
#
#
# Mechanical properties :
#
#
# Convention : Reuss Voigt Hill
#
# Bulk Modulus (GPa) = 13.54265 37.46297 25.50281
# Shear Modulus (GPa) = 22.76016 35.81243 29.28629
#
# Velocity S-wave (km/s) = 2.95112 3.70183 3.34759
# Velocity P-wave (km/s) = 4.09808 5.71022 4.96995
#
# Compressibility (1/GPa) = 0.07384082
#
# Stress axis : x y z
#
# Youngs Moduli (GPa) = 66.45095 27.13770 82.06185
#
# Poissons Ratio (x) = -0.20783 0.01383
# Poissons Ratio (y) = -0.50891 0.21429
# Poissons Ratio (z) = 0.01120 0.07087
#
# Static dielectric constant tensor:
#      x y z
#    x 4.835340 0.163300 -0.199450 
#    y 0.163300 4.469320 0.107550 
#    z -0.199450 0.107550 4.571930 
# 
# 
# High freq. dielectric constant tensor:
#      x y z
#    x 2.042240 -0.003810 -0.009210 
#    y -0.003810 2.053700 -0.007300 
#    z -0.009210 -0.007300 2.051570 
# 
# From -- ./inp_files/514818.got.cif
#   From: 2010.06.25/outbox.cif.g09.slc.cpg/sg2_258_cif.got.tgz:514818.got - 2010.06.27 13:26:56.
