data_PCOD8004967
_publ_section_title
;
Structure prediction by ZEFSAII (Michael W. Deem and Ramdas Pophale) SiO2 
 PCOD8004967
Probable space group: P -1
;
_chemical_formula_sum "Si O2"
_cell_formula_units_Z 16
_cell_length_a 14.860538
_cell_length_b 10.027994
_cell_length_c 10.599150
_cell_angle_alpha 136.538997
_cell_angle_beta 131.000015
_cell_angle_gamma 41.040389
_cell_volume 692.442204
_symmetry_space_group_name_H-M "P -1"
_symmetry_group_IT_number 2
_symmetry_cell_setting 'triclinic'
loop_
_space_group_symop_operation_xyz
x,y,z
-x,-y,-z
loop_
_atom_site_type_symbol
_atom_site_label
_atom_site_fract_x
_atom_site_fract_y
_atom_site_fract_z
Si Si1 0.572359 0.399212 0.172173
Si Si2 0.173815 0.092024 0.222750
Si Si3 0.310029 0.049606 0.555508
Si Si4 0.892343 0.105547 0.193661
Si Si5 0.982449 0.629520 0.415243
Si Si6 0.072041 0.255888 0.832105
Si Si7 0.387693 0.932956 0.819873
Si Si8 0.473558 0.832613 0.247005
O O1 0.564214 0.314144 0.245558
O O2 0.499066 0.674718 0.286817
O O3 0.731700 0.293436 0.203263
O O4 0.489489 0.325363 0.951519
O O5 0.237080 0.963894 0.328907
O O6 0.078711 0.361781 0.345815
O O7 0.310196 0.040294 0.229434
O O8 0.091561 0.999753 0.004606
O O9 0.421141 0.076337 0.592287
O O10 0.180160 0.292637 0.657846
O O11 0.381941 0.892162 0.636395
O O12 0.959839 0.903519 0.221243
O O13 0.976885 0.233289 0.356318
O O14 0.003282 0.698319 0.341289
O O15 0.240670 0.132126 0.883531
O O16 0.000000 0.500000 0.000000
O O17 0.500000 0.000000 0.000000
#
# Coordination Sequence:
#
# PCOD8004967 Si02
#       8
#     2   2   2   2   2   2   2   2
#     4   9  19  37  64  93 124 170 218 265 321 385
#     4  11  23  40  64  93 130 173 221 261 317 393
#     4  11  23  38  62  96 132 169 213 269 333 380
#     4  10  21  39  63  94 131 170 222 262 316 394
#     4  11  23  40  65  96 132 172 211 270 332 378
#     4  10  20  39  66  94 125 171 221 261 319 394
#     4  10  20  38  63  94 130 167 211 273 334 378
#     4  10  20  39  65  93 124 170 223 263 315 393
#
# _framework density 23.106622000000002
#
# number of rings (size 3 to 8) (size 9 to 14) (size 15 to 20)
#    0.000    1.750    2.500    1.875    0.000    0.500 
#    0.000    4.375    0.000    1.500    0.000    0.000 
#    0.000    0.000    0.000    0.000    0.000    0.000 
#
# Total GULP energy -198305.436661 kJ/mol
# GULP energy per Si atom -12394.089791 kJ/mol
# Density = 2.305403 g / cm^3
# Si number density = 23.106622 Si / 1000 Ang^3
#
#
#
# Elastic Constant Matrix: (Units=GPa)
#
#
# Indices 1 2 3 4 5 6 
#
# 1 93.5742 33.5877 18.3242 -9.2516 0.6686 13.2034
# 2 33.5877 98.8618 25.6291 -6.2633 0.4927 16.9657
# 3 18.3242 25.6291 118.3426 -16.4898 -10.6967 15.1732
# 4 -9.2516 -6.2633 -16.4898 38.0522 10.3600 -15.6862
# 5 0.6686 0.4927 -10.6967 10.3600 32.7674 -13.4142
# 6 13.2034 16.9657 15.1732 -15.6862 -13.4142 35.5413
#
#
#
# Elastic Compliance Matrix: (Units=1/GPa)
#
#
# Indices 1 2 3 4 5 6 
#
# 1 0.012668 -0.003504 -0.000817 0.001576 -0.002111 -0.002787
# 2 -0.003504 0.012668 -0.001897 -0.001110 -0.002601 -0.005407
# 3 -0.000817 -0.001897 0.009671 0.002751 0.001933 -0.000976
# 4 0.001576 -0.001110 0.002751 0.033918 -0.004987 0.011857
# 5 -0.002111 -0.002601 0.001933 -0.004987 0.038319 0.013462
# 6 -0.002787 -0.005407 -0.000976 0.011857 0.013462 0.042483
#
#
# Mechanical properties :
#
#
# Convention : Reuss Voigt Hill
#
# Bulk Modulus (GPa) = 44.30472 51.76229 48.03350
# Shear Modulus (GPa) = 29.46605 36.82135 33.14370
#
# Velocity S-wave (km/s) = 3.57490 3.99625 3.79143
# Velocity P-wave (km/s) = 6.02126 6.61388 6.32452
#
# Compressibility (1/GPa) = 0.02257096
#
# Stress axis : x y z
#
# Youngs Moduli (GPa) = 78.93702 78.93966 103.40622
#
# Poissons Ratio (x) = 0.27658 0.08446
# Poissons Ratio (y) = 0.27657 0.19620
# Poissons Ratio (z) = 0.06448 0.14978
#
# Static dielectric constant tensor:
#      x y z
#    x 4.217810 0.038970 -0.283080 
#    y 0.038970 4.299160 -0.330220 
#    z -0.283080 -0.330220 4.195540 
# 
# 
# High freq. dielectric constant tensor:
#      x y z
#    x 1.915930 -0.006330 -0.017060 
#    y -0.006330 1.913200 -0.021310 
#    z -0.017060 -0.021310 1.907840 
# 
# From -- ./inp_files/464151.got.cif
#   From: 2010.06.25/outbox.cif.g09.slc.cpg/sg2_233_cif.got.tgz:464151.got - 2010.06.27 13:26:56.
