data_PCOD8004119
_publ_section_title
;
Structure prediction by ZEFSAII (Michael W. Deem and Ramdas Pophale) SiO2 
 PCOD8004119
Probable space group: P -1
;
_chemical_formula_sum "Si O2"
_cell_formula_units_Z 12
_cell_length_a 11.159578
_cell_length_b 17.220434
_cell_length_c 9.284630
_cell_angle_alpha 150.054075
_cell_angle_beta 41.170495
_cell_angle_gamma 138.314935
_cell_volume 561.532996
_symmetry_space_group_name_H-M "P -1"
_symmetry_group_IT_number 2
_symmetry_cell_setting 'triclinic'
loop_
_space_group_symop_operation_xyz
x,y,z
-x,-y,-z
loop_
_atom_site_type_symbol
_atom_site_label
_atom_site_fract_x
_atom_site_fract_y
_atom_site_fract_z
Si Si1 0.641673 0.137946 0.789694
Si Si2 0.124138 0.240740 0.148356
Si Si3 0.288230 0.010311 0.246993
Si Si4 0.740221 0.005606 0.210647
Si Si5 0.083849 0.254060 0.885216
Si Si6 0.092051 0.545690 0.836930
O O1 0.413791 0.059893 0.881919
O O2 0.738281 0.023251 0.610325
O O3 0.696890 0.138801 0.572506
O O4 0.710508 0.314232 0.086747
O O5 0.137503 0.392059 0.481512
O O6 0.273735 0.154512 0.937638
O O7 0.165659 0.311765 0.063235
O O8 0.930041 0.093654 0.097114
O O9 0.237657 0.180646 0.545277
O O10 0.122021 0.872540 0.099024
O O11 0.500000 0.000000 0.000000
O O12 0.054520 0.399494 0.048004
O O13 0.000000 0.500000 0.000000
#
# Coordination Sequence:
#
# PCOD8004119 Si02
#       6
#     2   2   2   2   2   2
#     4  10  20  39  58  90 120 159 201 258 295 363
#     4  11  21  39  63  93 122 163 202 251 312 363
#     4  10  20  37  64  90 122 157 209 252 306 362
#     4  10  21  35  66  87 120 157 209 248 300 365
#     4  10  22  38  62  91 124 160 205 256 303 366
#     4  11  23  39  61  88 128 164 202 250 315 362
#
# _framework density 21.370070999999999
#
# number of rings (size 3 to 8) (size 9 to 14) (size 15 to 20)
#    0.000    1.667    3.333    1.500    0.000    2.000 
#    0.000    1.667    0.000    7.000    0.000    0.000 
#    0.000    0.000    0.000    0.000    0.000    0.000 
#
# Total GULP energy -148672.239737 kJ/mol
# GULP energy per Si atom -12389.353311 kJ/mol
# Density = 2.132143 g / cm^3
# Si number density = 21.370071 Si / 1000 Ang^3
#
#
#
# Elastic Constant Matrix: (Units=GPa)
#
#
# Indices 1 2 3 4 5 6 
#
# 1 99.9615 19.9596 32.1506 16.1608 11.5080 -2.7745
# 2 19.9596 42.5317 18.9769 7.1771 -3.7224 -5.1848
# 3 32.1506 18.9769 104.5051 11.1769 -0.5304 1.4750
# 4 16.1608 7.1771 11.1769 30.9748 3.5707 -4.1352
# 5 11.5080 -3.7224 -0.5304 3.5707 30.8695 -9.2228
# 6 -2.7745 -5.1848 1.4750 -4.1352 -9.2228 36.2096
#
#
#
# Elastic Compliance Matrix: (Units=1/GPa)
#
#
# Indices 1 2 3 4 5 6 
#
# 1 0.013135 -0.004891 -0.002699 -0.004311 -0.005473 -0.001470
# 2 -0.004891 0.029188 -0.003509 -0.003055 0.007264 0.005449
# 3 -0.002699 -0.003509 0.011281 -0.002090 0.000647 -0.001243
# 4 -0.004311 -0.003055 -0.002090 0.036638 -0.002153 0.002953
# 5 -0.005473 0.007264 0.000647 -0.002153 0.038613 0.010184
# 6 -0.001470 0.005449 -0.001243 0.002953 0.010184 0.031266
#
#
# Mechanical properties :
#
#
# Convention : Reuss Voigt Hill
#
# Bulk Modulus (GPa) = 31.83993 43.24138 37.54065
# Shear Modulus (GPa) = 25.93540 31.33819 28.63680
#
# Velocity S-wave (km/s) = 3.48750 3.83358 3.66463
# Velocity P-wave (km/s) = 5.58109 6.31456 5.95912
#
# Compressibility (1/GPa) = 0.03140711
#
# Stress axis : x y z
#
# Youngs Moduli (GPa) = 76.13459 34.26046 88.64715
#
# Poissons Ratio (x) = 0.16755 0.23923
# Poissons Ratio (y) = 0.37234 0.31106
# Poissons Ratio (z) = 0.20546 0.12022
#
# Static dielectric constant tensor:
#      x y z
#    x 4.224340 -0.063490 0.062410 
#    y -0.063490 3.651310 0.136190 
#    z 0.062410 0.136190 3.752960 
# 
# 
# High freq. dielectric constant tensor:
#      x y z
#    x 1.862810 -0.010910 0.009210 
#    y -0.010910 1.807210 -0.001390 
#    z 0.009210 -0.001390 1.831200 
# 
# From -- ./inp_files/150517.got.cif
#   From: 2010.06.25/outbox.cif.g09.slc.cpg/sg2_76_cif.got.tgz:150517.got - 2010.06.27 13:26:56.
