data_PCOD8004072
_publ_section_title
;
Structure prediction by ZEFSAII (Michael W. Deem and Ramdas Pophale) SiO2 
 PCOD8004072
Probable space group: P -1
;
_chemical_formula_sum "Si O2"
_cell_formula_units_Z 16
_cell_length_a 11.054100
_cell_length_b 5.259631
_cell_length_c 14.636737
_cell_angle_alpha 86.828572
_cell_angle_beta 82.199146
_cell_angle_gamma 114.095126
_cell_volume 763.859810
_symmetry_space_group_name_H-M "P -1"
_symmetry_group_IT_number 2
_symmetry_cell_setting 'triclinic'
loop_
_space_group_symop_operation_xyz
x,y,z
-x,-y,-z
loop_
_atom_site_type_symbol
_atom_site_label
_atom_site_fract_x
_atom_site_fract_y
_atom_site_fract_z
Si Si1 0.687606 0.805085 0.300449
Si Si2 0.330851 0.535441 0.153594
Si Si3 0.589180 0.825430 0.496809
Si Si4 0.084985 0.567721 0.116439
Si Si5 0.084922 0.081499 0.844230
Si Si6 0.587040 0.736316 0.694904
Si Si7 0.565424 0.047928 0.172431
Si Si8 0.251939 0.442914 0.971371
O O1 0.697484 0.923170 0.400777
O O2 0.824021 0.775906 0.258192
O O3 0.555306 0.520570 0.308059
O O4 0.682979 0.029680 0.222082
O O5 0.214281 0.649720 0.169796
O O6 0.317375 0.348091 0.248463
O O7 0.304678 0.362548 0.062818
O O8 0.483828 0.775894 0.123701
O O9 0.500000 0.500000 0.500000
O O10 0.660742 0.867647 0.588486
O O11 0.500000 0.000000 0.500000
O O12 0.141445 0.568198 0.006498
O O13 0.025737 0.794578 0.134655
O O14 0.980452 0.250200 0.155818
O O15 0.180691 0.165796 0.922870
O O16 0.552142 0.963579 0.746547
O O17 0.624342 0.327010 0.100895
#
# Coordination Sequence:
#
# PCOD8004072 Si02
#       8
#     2   2   2   2   2   2   2   2
#     4  10  22  36  62  93 120 154 200 259 312 359
#     4   9  24  37  57  90 122 173 200 245 305 367
#     4  10  20  37  63  93 123 150 193 248 321 368
#     4  10  26  40  61  84 124 169 214 248 292 352
#     4  12  22  43  61  86 123 164 213 256 293 348
#     4  10  20  38  60  88 126 153 195 253 315 372
#     4  11  19  38  59  90 127 158 198 256 309 369
#     4  10  22  39  59  89 124 163 213 250 304 352
#
# _framework density 20.946249999999999
#
# number of rings (size 3 to 8) (size 9 to 14) (size 15 to 20)
#    0.750    1.000    2.500    1.875    1.750    1.500 
#    4.500    0.000    0.000    1.500    0.000    0.000 
#    0.000    0.000    0.000    0.000    0.000    0.000 
#
# Total GULP energy -198213.424278 kJ/mol
# GULP energy per Si atom -12388.339017 kJ/mol
# Density = 2.089858 g / cm^3
# Si number density = 20.946250 Si / 1000 Ang^3
#
#
#
# Elastic Constant Matrix: (Units=GPa)
#
#
# Indices 1 2 3 4 5 6 
#
# 1 46.2423 14.4901 42.7839 -4.9371 5.2610 8.2324
# 2 14.4901 48.0669 7.4450 -4.4009 5.9097 -5.8998
# 3 42.7839 7.4450 149.2820 4.5711 4.4113 0.6733
# 4 -4.9371 -4.4009 4.5711 18.6659 -11.5245 -5.4130
# 5 5.2610 5.9097 4.4113 -11.5245 32.8911 -1.3632
# 6 8.2324 -5.8998 0.6733 -5.4130 -1.3632 22.4222
#
#
#
# Elastic Compliance Matrix: (Units=1/GPa)
#
#
# Indices 1 2 3 4 5 6 
#
# 1 0.038250 -0.011231 -0.010409 0.004307 -0.001848 -0.015759
# 2 -0.011231 0.026058 0.001693 0.006045 -0.000482 0.012359
# 3 -0.010409 0.001693 0.009783 -0.004941 -0.001571 0.002685
# 4 0.004307 0.006045 -0.004941 0.080921 0.028128 0.021403
# 5 -0.001848 -0.000482 -0.001571 0.028128 0.041262 0.009898
# 6 -0.015759 0.012359 0.002685 0.021403 0.009898 0.059325
#
#
# Mechanical properties :
#
#
# Convention : Reuss Voigt Hill
#
# Bulk Modulus (GPa) = 29.24259 41.44769 35.34514
# Shear Modulus (GPa) = 16.29237 26.72067 21.50652
#
# Velocity S-wave (km/s) = 2.79196 3.57554 3.20777
# Velocity P-wave (km/s) = 4.93807 6.07261 5.53449
#
# Compressibility (1/GPa) = 0.03419670
#
# Stress axis : x y z
#
# Youngs Moduli (GPa) = 26.14358 38.37652 102.21812
#
# Poissons Ratio (x) = 0.43102 1.06394
# Poissons Ratio (y) = 0.29363 -0.17303
# Poissons Ratio (z) = 0.27212 -0.06496
#
# Static dielectric constant tensor:
#      x y z
#    x 3.721220 -0.034480 0.046910 
#    y -0.034480 3.554760 0.155180 
#    z 0.046910 0.155180 4.330650 
# 
# 
# High freq. dielectric constant tensor:
#      x y z
#    x 1.797500 -0.010840 -0.001170 
#    y -0.010840 1.809320 0.006800 
#    z -0.001170 0.006800 1.817380 
# 
# From -- ./inp_files/510376.got.cif
#   From: 2010.06.25/outbox.cif.g09.slc.cpg/sg2_256_cif.got.tgz:510376.got - 2010.06.27 13:26:56.
