data_PCOD8004552
_publ_section_title
;
Structure prediction by ZEFSAII (Michael W. Deem and Ramdas Pophale) SiO2 
 PCOD8004552
Probable space group: P -1
;
_chemical_formula_sum "Si O2"
_cell_formula_units_Z 16
_cell_length_a 19.780126
_cell_length_b 7.302991
_cell_length_c 6.168967
_cell_angle_alpha 112.342226
_cell_angle_beta 126.060540
_cell_angle_gamma 69.848194
_cell_volume 657.562570
_symmetry_space_group_name_H-M "P -1"
_symmetry_group_IT_number 2
_symmetry_cell_setting 'triclinic'
loop_
_space_group_symop_operation_xyz
x,y,z
-x,-y,-z
loop_
_atom_site_type_symbol
_atom_site_label
_atom_site_fract_x
_atom_site_fract_y
_atom_site_fract_z
Si Si1 0.669381 0.825980 0.268055
Si Si2 0.251595 0.897174 0.766801
Si Si3 0.394461 0.895868 0.350856
Si Si4 0.968186 0.801041 0.973086
Si Si5 0.899145 0.554553 0.054674
Si Si6 0.068412 0.071120 0.492770
Si Si7 0.277986 0.482122 0.407911
Si Si8 0.428633 0.276772 0.336376
O O1 0.722207 0.660807 0.448344
O O2 0.728284 0.906524 0.233912
O O3 0.623731 0.013412 0.404795
O O4 0.598504 0.718747 0.964868
O O5 0.260855 0.712845 0.539079
O O6 0.155748 0.951299 0.701035
O O7 0.310650 0.831082 0.058201
O O8 0.471322 0.704528 0.436585
O O9 0.421490 0.055718 0.308226
O O10 0.906665 0.653186 0.874774
O O11 0.989575 0.935446 0.292710
O O12 0.052641 0.672289 0.967718
O O13 0.923284 0.944473 0.764811
O O14 0.942905 0.690740 0.368240
O O15 0.799154 0.559888 0.912556
O O16 0.367008 0.443974 0.430848
#
# Coordination Sequence:
#
# PCOD8004552 Si02
#       8
#     2   2   2   2   2   2   2   2
#     4  10  20  38  60  85 118 162 204 251 304 356
#     4  11  23  39  60  90 124 160 204 251 301 364
#     4   9  19  37  61  88 119 160 204 250 304 358
#     4  10  23  38  62  91 114 156 202 241 308 366
#     4  11  21  40  61  87 123 155 197 251 301 358
#     4  11  21  40  61  87 123 155 197 251 301 358
#     4  11  23  39  60  90 124 160 204 251 301 364
#     4   9  19  37  61  88 119 160 204 250 304 358
#
# _framework density 24.332286
#
# number of rings (size 3 to 8) (size 9 to 14) (size 15 to 20)
#    0.000    1.750    1.250    4.125    0.000    2.500 
#    0.000    1.250    0.000    0.000    0.000    0.000 
#    0.000    0.000    0.000    0.000    0.000    0.000 
#
# Total GULP energy -198334.140018 kJ/mol
# GULP energy per Si atom -12395.883751 kJ/mol
# Density = 2.427690 g / cm^3
# Si number density = 24.332286 Si / 1000 Ang^3
#
#
#
# Elastic Constant Matrix: (Units=GPa)
#
#
# Indices 1 2 3 4 5 6 
#
# 1 62.0878 16.1460 26.8793 -8.0596 20.0698 -21.4095
# 2 16.1460 85.5390 29.7080 16.1432 8.7018 -23.7655
# 3 26.8793 29.7080 133.8538 13.4652 16.5516 -17.2401
# 4 -8.0596 16.1432 13.4652 32.6969 -7.5187 1.0177
# 5 20.0698 8.7018 16.5516 -7.5187 32.1603 -4.6881
# 6 -21.4095 -23.7655 -17.2401 1.0177 -4.6881 33.9539
#
#
#
# Elastic Compliance Matrix: (Units=1/GPa)
#
#
# Indices 1 2 3 4 5 6 
#
# 1 0.026344 0.000120 -0.002474 0.004218 -0.012227 0.013624
# 2 0.000120 0.017508 -0.000825 -0.009782 -0.004996 0.011514
# 3 -0.002474 -0.000825 0.009440 -0.005068 -0.003946 0.002263
# 4 0.004218 -0.009782 -0.005068 0.041351 0.011353 -0.006432
# 5 -0.012227 -0.004996 -0.003946 0.011353 0.043665 -0.007521
# 6 0.013624 0.011514 0.002263 -0.006432 -0.007521 0.046404
#
#
# Mechanical properties :
#
#
# Convention : Reuss Voigt Hill
#
# Bulk Modulus (GPa) = 21.30718 47.43858 34.37288
# Shear Modulus (GPa) = 24.18781 33.67873 28.93327
#
# Velocity S-wave (km/s) = 3.15630 3.72441 3.45206
# Velocity P-wave (km/s) = 4.69667 6.16712 5.48143
#
# Compressibility (1/GPa) = 0.04693254
#
# Stress axis : x y z
#
# Youngs Moduli (GPa) = 37.95928 57.11724 105.93216
#
# Poissons Ratio (x) = -0.00684 0.26212
# Poissons Ratio (y) = -0.00455 0.08739
# Poissons Ratio (z) = 0.09393 0.04712
#
# Static dielectric constant tensor:
#      x y z
#    x 4.276180 -0.060680 0.141340 
#    y -0.060680 4.134160 -0.048780 
#    z 0.141340 -0.048780 4.715760 
# 
# 
# High freq. dielectric constant tensor:
#      x y z
#    x 1.955040 -0.005700 -0.001020 
#    y -0.005700 1.960610 0.003020 
#    z -0.001020 0.003020 1.980450 
# 
# From -- ./inp_files/53609.got.cif
#   From: 2010.06.25/outbox.cif.g09.slc.cpg/sg2_27_cif.got.tgz:53609.got - 2010.06.27 13:26:56.
