data_PCOD8004417
_publ_section_title
;
Structure prediction by ZEFSAII (Michael W. Deem and Ramdas Pophale) SiO2 
 PCOD8004417
Probable space group: P -1
;
_chemical_formula_sum "Si O2"
_cell_formula_units_Z 14
_cell_length_a 11.123496
_cell_length_b 14.599172
_cell_length_c 11.613213
_cell_angle_alpha 150.455574
_cell_angle_beta 102.006894
_cell_angle_gamma 60.639745
_cell_volume 697.903137
_symmetry_space_group_name_H-M "P -1"
_symmetry_group_IT_number 2
_symmetry_cell_setting 'triclinic'
loop_
_space_group_symop_operation_xyz
x,y,z
-x,-y,-z
loop_
_atom_site_type_symbol
_atom_site_label
_atom_site_fract_x
_atom_site_fract_y
_atom_site_fract_z
Si Si1 0.130102 0.189992 0.806382
Si Si2 0.875498 0.775252 0.813542
Si Si3 0.340284 0.951207 0.138966
Si Si4 0.902808 0.073682 0.305448
Si Si5 0.538158 0.433461 0.568305
Si Si6 0.393224 0.022642 0.840715
Si Si7 0.904402 0.755989 0.407762
O O1 0.133412 0.156180 0.634425
O O2 0.083023 0.040208 0.691912
O O3 0.307561 0.076385 0.759005
O O4 0.005907 0.470468 0.125596
O O5 0.794817 0.939695 0.864984
O O6 0.000000 0.500000 0.500000
O O7 0.961128 0.865154 0.994281
O O8 0.744747 0.805871 0.904523
O O9 0.484619 0.929215 0.090420
O O10 0.263177 0.113695 0.416282
O O11 0.416904 0.677531 0.885251
O O12 0.721173 0.309088 0.498144
O O13 0.008224 0.156382 0.416317
O O14 0.500000 0.500000 0.500000
O O15 0.504507 0.255637 0.404969
#
# Coordination Sequence:
#
# PCOD8004417 Si02
#       7
#     2   2   2   2   2   2   2
#     4   9  21  44  63  85 116 157 205 252 301 339
#     4  10  21  37  60  88 118 157 199 242 298 351
#     4  12  22  37  57  92 121 156 197 238 302 361
#     4  10  21  41  61  87 120 157 198 248 298 351
#     4  10  20  38  58  85 115 159 196 232 297 355
#     4  10  22  40  61  83 123 158 194 249 298 349
#     4  11  23  38  64  90 117 157 203 249 297 359
#
# _framework density 20.060091
#
# number of rings (size 3 to 8) (size 9 to 14) (size 15 to 20)
#    0.000    2.000    2.857    3.429    0.000    3.429 
#    0.000    2.857    0.000    0.000    0.000    0.000 
#    0.000    0.000    0.000    0.000    0.000    0.000 
#
# Total GULP energy -173569.290244 kJ/mol
# GULP energy per Si atom -12397.806446 kJ/mol
# Density = 2.001443 g / cm^3
# Si number density = 20.060091 Si / 1000 Ang^3
#
#
#
# Elastic Constant Matrix: (Units=GPa)
#
#
# Indices 1 2 3 4 5 6 
#
# 1 69.6603 25.2923 44.8756 -4.1530 -3.7035 7.4022
# 2 25.2923 108.8249 59.5983 10.9218 -6.9381 -0.2594
# 3 44.8756 59.5983 146.6076 1.5709 -9.7660 2.2532
# 4 -4.1530 10.9218 1.5709 36.2287 2.0284 1.4303
# 5 -3.7035 -6.9381 -9.7660 2.0284 13.7476 -3.7008
# 6 7.4022 -0.2594 2.2532 1.4303 -3.7008 20.5740
#
#
#
# Elastic Compliance Matrix: (Units=1/GPa)
#
#
# Indices 1 2 3 4 5 6 
#
# 1 0.019259 -0.002191 -0.005061 0.003470 -0.001905 -0.006987
# 2 -0.002191 0.012694 -0.004209 -0.004222 0.004107 0.002441
# 3 -0.005061 -0.004209 0.010343 -0.000053 0.004245 0.001403
# 4 0.003470 -0.004222 -0.000053 0.029842 -0.006877 -0.004608
# 5 -0.001905 0.004107 0.004245 -0.006877 0.082528 0.015596
# 6 -0.006987 0.002441 0.001403 -0.004608 0.015596 0.054122
#
#
# Mechanical properties :
#
#
# Convention : Reuss Voigt Hill
#
# Bulk Modulus (GPa) = 51.61213 64.95837 58.28525
# Shear Modulus (GPa) = 20.99358 27.13183 24.06271
#
# Velocity S-wave (km/s) = 3.23853 3.68166 3.46718
# Velocity P-wave (km/s) = 6.30624 7.10810 6.71914
#
# Compressibility (1/GPa) = 0.01937529
#
# Stress axis : x y z
#
# Youngs Moduli (GPa) = 51.92292 78.77440 96.68505
#
# Poissons Ratio (x) = 0.17257 0.48936
# Poissons Ratio (y) = 0.11375 0.40692
# Poissons Ratio (z) = 0.26280 0.33154
#
# Static dielectric constant tensor:
#      x y z
#    x 3.456680 0.013440 0.032660 
#    y 0.013440 3.848160 0.151420 
#    z 0.032660 0.151420 3.836990 
# 
# 
# High freq. dielectric constant tensor:
#      x y z
#    x 1.762910 0.000040 0.007650 
#    y 0.000040 1.794880 0.011740 
#    z 0.007650 0.011740 1.788610 
# 
# From -- ./inp_files/330623.got.cif
#   From: 2010.06.25/outbox.cif.g09.slc.cpg/sg2_166_cif.got.tgz:330623.got - 2010.06.27 13:26:56.
