data_PCOD8004373
_publ_section_title
;
Structure prediction by ZEFSAII (Michael W. Deem and Ramdas Pophale) SiO2 
 PCOD8004373
Probable space group: P -1
;
_chemical_formula_sum "Si O2"
_cell_formula_units_Z 16
_cell_length_a 14.158810
_cell_length_b 15.542988
_cell_length_c 10.642961
_cell_angle_alpha 137.926944
_cell_angle_beta 31.133159
_cell_angle_gamma 142.836503
_cell_volume 717.847862
_symmetry_space_group_name_H-M "P -1"
_symmetry_group_IT_number 2
_symmetry_cell_setting 'triclinic'
loop_
_space_group_symop_operation_xyz
x,y,z
-x,-y,-z
loop_
_atom_site_type_symbol
_atom_site_label
_atom_site_fract_x
_atom_site_fract_y
_atom_site_fract_z
Si Si1 0.849589 0.007780 0.323038
Si Si2 0.611050 0.141643 0.336039
Si Si3 0.279647 0.580835 0.646044
Si Si4 0.830274 0.391665 0.916790
Si Si5 0.501877 0.905900 0.011719
Si Si6 0.170444 0.103923 0.514083
Si Si7 0.272961 0.383061 0.850446
Si Si8 0.041266 0.813644 0.827121
O O1 0.929144 0.166191 0.336860
O O2 0.623961 0.898902 0.402147
O O3 0.812387 0.000719 0.508831
O O4 0.019372 0.953955 0.048890
O O5 0.705201 0.276708 0.281487
O O6 0.753118 0.179919 0.339048
O O7 0.613699 0.006781 0.113004
O O8 0.242756 0.586550 0.840472
O O9 0.483260 0.564578 0.365961
O O10 0.074020 0.443122 0.679560
O O11 0.717745 0.220506 0.826929
O O12 0.762032 0.482521 0.000260
O O13 0.625980 0.824157 0.726357
O O14 0.500000 0.000000 0.000000
O O15 0.150052 0.240426 0.744624
O O16 0.000000 0.000000 0.500000
O O17 0.165475 0.331551 0.054524
#
# Coordination Sequence:
#
# PCOD8004373 Si02
#       8
#     2   2   2   2   2   2   2   2
#     4  10  20  38  56  92 123 154 201 253 297 346
#     4  12  20  39  61  90 124 156 197 250 307 352
#     4  11  21  35  58  85 120 158 197 243 298 358
#     4  11  23  36  57  85 123 167 198 239 308 358
#     4  12  21  38  56  87 128 153 190 253 304 364
#     4  11  22  35  60  92 125 156 190 248 311 356
#     4  11  20  40  56  86 126 157 205 249 291 360
#     4  10  21  35  63  89 117 157 207 252 291 354
#
# _framework density 22.288844999999998
#
# number of rings (size 3 to 8) (size 9 to 14) (size 15 to 20)
#    0.000    1.000    7.500    2.250    0.000    0.000 
#    0.000    0.000    0.000    0.750    0.000    7.875 
#    0.000    0.000    0.000    0.000    0.000    0.000 
#
# Total GULP energy -198226.243513 kJ/mol
# GULP energy per Si atom -12389.140220 kJ/mol
# Density = 2.223811 g / cm^3
# Si number density = 22.288845 Si / 1000 Ang^3
#
#
#
# Elastic Constant Matrix: (Units=GPa)
#
#
# Indices 1 2 3 4 5 6 
#
# 1 89.0262 43.9518 38.4688 -20.0226 -19.5396 -19.4348
# 2 43.9518 125.4664 18.2093 -32.6438 -6.1600 -14.6949
# 3 38.4688 18.2093 70.3502 -30.9434 -15.8035 3.3695
# 4 -20.0226 -32.6438 -30.9434 37.7821 3.8307 -0.8121
# 5 -19.5396 -6.1600 -15.8035 3.8307 35.3903 -5.5421
# 6 -19.4348 -14.6949 3.3695 -0.8121 -5.5421 34.9552
#
#
#
# Elastic Compliance Matrix: (Units=1/GPa)
#
#
# Indices 1 2 3 4 5 6 
#
# 1 0.022578 -0.004751 -0.010145 -0.001108 0.009260 0.012976
# 2 -0.004751 0.012420 0.004740 0.012074 0.000743 0.002521
# 3 -0.010145 0.004740 0.029900 0.022556 0.005326 -0.005162
# 4 -0.001108 0.012074 0.022556 0.054234 0.006406 0.004561
# 5 0.009260 0.000743 0.005326 0.006406 0.036898 0.010947
# 6 0.012976 0.002521 -0.005162 0.004561 0.010947 0.039222
#
#
# Mechanical properties :
#
#
# Convention : Reuss Voigt Hill
#
# Bulk Modulus (GPa) = 22.42839 54.01138 38.21988
# Shear Modulus (GPa) = 21.69907 33.90638 27.80272
#
# Velocity S-wave (km/s) = 3.12354 3.90452 3.53566
# Velocity P-wave (km/s) = 4.80553 6.67923 5.81830
#
# Compressibility (1/GPa) = 0.04458635
#
# Stress axis : x y z
#
# Youngs Moduli (GPa) = 44.29135 80.51731 33.44466
#
# Poissons Ratio (x) = 0.38251 0.33929
# Poissons Ratio (y) = 0.21041 -0.15853
# Poissons Ratio (z) = 0.44933 -0.38165
#
# Static dielectric constant tensor:
#      x y z
#    x 4.032360 -0.227370 -0.181220 
#    y -0.227370 4.441940 -0.752880 
#    z -0.181220 -0.752880 4.988400 
# 
# 
# High freq. dielectric constant tensor:
#      x y z
#    x 1.856660 -0.027700 -0.015650 
#    y -0.027700 1.866660 -0.031710 
#    z -0.015650 -0.031710 1.886460 
# 
# From -- ./inp_files/284701.got.cif
#   From: 2010.06.25/outbox.cif.g09.slc.cpg/sg2_143_cif.got.tgz:284701.got - 2010.06.27 13:26:56.
