data_PCOD8004083
_publ_section_title
;
Structure prediction by ZEFSAII (Michael W. Deem and Ramdas Pophale) SiO2 
 PCOD8004083
Probable space group: P -1
;
_chemical_formula_sum "Si O2"
_cell_formula_units_Z 14
_cell_length_a 12.294057
_cell_length_b 5.278401
_cell_length_c 14.169032
_cell_angle_alpha 69.911319
_cell_angle_beta 53.193363
_cell_angle_gamma 91.630018
_cell_volume 656.999409
_symmetry_space_group_name_H-M "P -1"
_symmetry_group_IT_number 2
_symmetry_cell_setting 'triclinic'
loop_
_space_group_symop_operation_xyz
x,y,z
-x,-y,-z
loop_
_atom_site_type_symbol
_atom_site_label
_atom_site_fract_x
_atom_site_fract_y
_atom_site_fract_z
Si Si1 0.783154 0.324757 0.484694
Si Si2 0.867540 0.999920 0.633964
Si Si3 0.559107 0.619122 0.852757
Si Si4 0.360113 0.396113 0.828492
Si Si5 0.962780 0.783272 0.961176
Si Si6 0.925147 0.971198 0.324684
Si Si7 0.474812 0.003023 0.716622
O O1 0.815305 0.252432 0.585379
O O2 0.617107 0.178760 0.565261
O O3 0.810714 0.659660 0.421952
O O4 0.872691 0.200874 0.380011
O O5 0.928364 0.057000 0.701479
O O6 0.732711 0.706952 0.742933
O O7 0.000000 0.000000 0.500000
O O8 0.480349 0.382206 0.845600
O O9 0.511391 0.894847 0.814754
O O10 0.500000 0.500000 0.000000
O O11 0.203651 0.289259 0.968264
O O12 0.372684 0.198020 0.759820
O O13 0.391562 0.723096 0.734402
O O14 0.000000 0.500000 0.000000
O O15 0.051635 0.929198 0.806540
O O16 0.000000 0.000000 0.000000
#
# Coordination Sequence:
#
# PCOD8004083 Si02
#       7
#     2   2   2   2   2   2   2
#     4  10  20  37  63  94 132 166 197 251 311 389
#     4   9  19  35  58  99 129 172 200 250 311 390
#     4   9  19  35  56  90 129 166 209 251 309 389
#     4  10  21  40  61  87 119 164 202 256 325 369
#     4  12  26  45  69  90 122 164 219 278 325 364
#     4  11  22  39  62  94 128 163 215 255 314 375
#     4   9  20  35  62  86 124 164 198 243 321 370
#
# _framework density 21.308999
#
# number of rings (size 3 to 8) (size 9 to 14) (size 15 to 20)
#    0.857    1.143    0.000    3.857    2.000    0.571 
#    5.143    0.000    0.000   17.143    0.000    0.000 
#    0.000    0.000    0.000    0.000    0.000    0.000 
#
# Total GULP energy -173435.895340 kJ/mol
# GULP energy per Si atom -12388.278239 kJ/mol
# Density = 2.126050 g / cm^3
# Si number density = 21.308999 Si / 1000 Ang^3
#
#
#
# Elastic Constant Matrix: (Units=GPa)
#
#
# Indices 1 2 3 4 5 6 
#
# 1 47.1610 21.3197 44.0332 -7.5785 -3.0870 8.4329
# 2 21.3197 123.1271 23.1798 2.7348 2.9079 6.1708
# 3 44.0332 23.1798 104.1848 -13.4846 -4.6309 -3.4182
# 4 -7.5785 2.7348 -13.4846 35.2115 2.6548 -4.7677
# 5 -3.0870 2.9079 -4.6309 2.6548 42.4172 -2.1172
# 6 8.4329 6.1708 -3.4182 -4.7677 -2.1172 22.7887
#
#
#
# Elastic Compliance Matrix: (Units=1/GPa)
#
#
# Indices 1 2 3 4 5 6 
#
# 1 0.042341 -0.003138 -0.017723 0.000178 0.000482 -0.017395
# 2 -0.003138 0.009024 -0.001041 -0.001967 -0.000934 -0.001937
# 3 -0.017723 -0.001041 0.018317 0.004647 0.001022 0.010655
# 4 0.000178 -0.001967 0.004647 0.031478 -0.000933 0.007663
# 5 0.000482 -0.000934 0.001022 -0.000933 0.023957 0.002258
# 6 -0.017395 -0.001937 0.010655 0.007663 0.002258 0.054254
#
#
# Mechanical properties :
#
#
# Convention : Reuss Voigt Hill
#
# Bulk Modulus (GPa) = 38.64470 50.17094 44.40782
# Shear Modulus (GPa) = 21.57020 32.47948 27.02484
#
# Velocity S-wave (km/s) = 3.18505 3.90835 3.56509
# Velocity P-wave (km/s) = 5.63035 6.63043 6.15075
#
# Compressibility (1/GPa) = 0.02587677
#
# Stress axis : x y z
#
# Youngs Moduli (GPa) = 23.61784 110.81722 54.59435
#
# Poissons Ratio (x) = 0.34779 0.96758
# Poissons Ratio (y) = 0.07412 0.05682
# Poissons Ratio (z) = 0.41858 0.11534
#
# Static dielectric constant tensor:
#      x y z
#    x 3.921110 0.082470 -0.176510 
#    y 0.082470 3.749190 -0.158010 
#    z -0.176510 -0.158010 3.721990 
# 
# 
# High freq. dielectric constant tensor:
#      x y z
#    x 1.823790 0.007030 -0.021460 
#    y 0.007030 1.829570 -0.011800 
#    z -0.021460 -0.011800 1.829790 
# 
# From -- ./inp_files/524972.got.cif
#   From: 2010.06.25/outbox.cif.g09.slc.cpg/sg2_263_cif.got.tgz:524972.got - 2010.06.27 13:26:56.
