data_PCOD8004837
_publ_section_title
;
Structure prediction by ZEFSAII (Michael W. Deem and Ramdas Pophale) SiO2 
 PCOD8004837
Probable space group: P -1
;
_chemical_formula_sum "Si O2"
_cell_formula_units_Z 14
_cell_length_a 9.282034
_cell_length_b 11.156759
_cell_length_c 14.329893
_cell_angle_alpha 148.782316
_cell_angle_beta 68.231800
_cell_angle_gamma 113.835385
_cell_volume 702.528979
_symmetry_space_group_name_H-M "P -1"
_symmetry_group_IT_number 2
_symmetry_cell_setting 'triclinic'
loop_
_space_group_symop_operation_xyz
x,y,z
-x,-y,-z
loop_
_atom_site_type_symbol
_atom_site_label
_atom_site_fract_x
_atom_site_fract_y
_atom_site_fract_z
Si Si1 0.523400 0.995676 0.237310
Si Si2 0.176170 0.117774 0.818687
Si Si3 0.405866 0.493267 0.922452
Si Si4 0.532259 0.387917 0.627988
Si Si5 0.891831 0.409974 0.553738
Si Si6 0.962568 0.214169 0.090761
Si Si7 0.401995 0.788750 0.827062
O O1 0.476840 0.120905 0.426058
O O2 0.544746 0.187504 0.277730
O O3 0.689575 0.909118 0.155409
O O4 0.391423 0.766510 0.088905
O O5 0.239473 0.316964 0.858339
O O6 0.116804 0.869023 0.616095
O O7 0.034511 0.203734 0.963797
O O8 0.498359 0.394040 0.750037
O O9 0.500000 0.500000 0.000000
O O10 0.718380 0.470860 0.619496
O O11 0.432794 0.545813 0.699109
O O12 0.000000 0.500000 0.500000
O O13 0.966301 0.537800 0.713679
O O14 0.778896 0.196260 0.109139
O O15 0.000000 0.000000 0.000000
O O16 0.500000 0.000000 0.000000
#
# Coordination Sequence:
#
# PCOD8004837 Si02
#       7
#     2   2   2   2   2   2   2
#     4  10  20  38  62  92 122 157 205 251 303 359
#     4  10  22  37  62  91 117 157 208 250 297 358
#     4  10  21  38  61  90 124 163 207 250 298 359
#     4  11  23  39  62  93 127 159 204 254 306 363
#     4  11  21  36  62  90 121 154 201 255 303 354
#     4  12  21  39  62  87 124 154 199 255 305 360
#     4  12  23  39  64  93 123 162 199 254 316 361
#
# _framework density 19.928003
#
# number of rings (size 3 to 8) (size 9 to 14) (size 15 to 20)
#    0.000    1.143    4.286    3.857    0.000    6.286 
#    0.000    0.714    0.000    1.714    0.000    0.000 
#    0.000    0.000    0.000    0.000    0.000    0.000 
#
# Total GULP energy -173592.131565 kJ/mol
# GULP energy per Si atom -12399.437969 kJ/mol
# Density = 1.988265 g / cm^3
# Si number density = 19.928003 Si / 1000 Ang^3
#
#
#
# Elastic Constant Matrix: (Units=GPa)
#
#
# Indices 1 2 3 4 5 6 
#
# 1 95.4289 39.5093 52.0520 0.9303 -6.1165 14.7586
# 2 39.5093 135.5958 70.0409 -8.4619 -6.6483 18.4622
# 3 52.0520 70.0409 166.5312 -6.4478 13.3361 21.1205
# 4 0.9303 -8.4619 -6.4478 37.5177 6.1587 9.0699
# 5 -6.1165 -6.6483 13.3361 6.1587 29.1473 1.5348
# 6 14.7586 18.4622 21.1205 9.0699 1.5348 27.6968
#
#
#
# Elastic Compliance Matrix: (Units=1/GPa)
#
#
# Indices 1 2 3 4 5 6 
#
# 1 0.013992 -0.001534 -0.003721 -0.001279 0.004740 -0.003440
# 2 -0.001534 0.010607 -0.003607 0.002314 0.003494 -0.004454
# 3 -0.003721 -0.003607 0.009784 0.002914 -0.006503 -0.003667
# 4 -0.001279 0.002314 0.002914 0.032072 -0.007156 -0.013189
# 5 0.004740 0.003494 -0.006503 -0.007156 0.040577 0.000199
# 6 -0.003440 -0.004454 -0.003667 -0.013189 0.000199 0.048011
#
#
# Mechanical properties :
#
#
# Convention : Reuss Voigt Hill
#
# Bulk Modulus (GPa) = 60.02906 80.08446 70.05676
# Shear Modulus (GPa) = 28.03946 34.60262 31.32104
#
# Velocity S-wave (km/s) = 3.75512 4.17151 3.96878
# Velocity P-wave (km/s) = 6.99926 7.96719 7.49886
#
# Compressibility (1/GPa) = 0.01665860
#
# Stress axis : x y z
#
# Youngs Moduli (GPa) = 71.46917 94.27642 102.20963
#
# Poissons Ratio (x) = 0.14461 0.38034
# Poissons Ratio (y) = 0.10962 0.36868
# Poissons Ratio (z) = 0.26595 0.34007
#
# Static dielectric constant tensor:
#      x y z
#    x 3.636750 0.074950 -0.000290 
#    y 0.074950 4.100720 0.252790 
#    z -0.000290 0.252790 4.086340 
# 
# 
# High freq. dielectric constant tensor:
#      x y z
#    x 1.743570 0.011690 0.010920 
#    y 0.011690 1.777340 -0.000050 
#    z 0.010920 -0.000050 1.800150 
# 
# From -- ./inp_files/248023.got.cif
#   From: 2010.06.25/outbox.cif.g09.slc.cpg/sg2_125_cif.got.tgz:248023.got - 2010.06.27 13:26:56.
