data_PCOD8004084
_publ_section_title
;
Structure prediction by ZEFSAII (Michael W. Deem and Ramdas Pophale) SiO2 
 PCOD8004084
Probable space group: P -1
;
_chemical_formula_sum "Si O2"
_cell_formula_units_Z 16
_cell_length_a 14.909323
_cell_length_b 12.015244
_cell_length_c 9.186058
_cell_angle_alpha 121.346086
_cell_angle_beta 119.746221
_cell_angle_gamma 110.477363
_cell_volume 698.618678
_symmetry_space_group_name_H-M "P -1"
_symmetry_group_IT_number 2
_symmetry_cell_setting 'triclinic'
loop_
_space_group_symop_operation_xyz
x,y,z
-x,-y,-z
loop_
_atom_site_type_symbol
_atom_site_label
_atom_site_fract_x
_atom_site_fract_y
_atom_site_fract_z
Si Si1 0.408885 0.684787 0.378195
Si Si2 0.788368 0.782926 0.188861
Si Si3 0.802034 0.304185 0.646465
Si Si4 0.820781 0.658113 0.668245
Si Si5 0.681344 0.022809 0.607164
Si Si6 0.550746 0.689563 0.734494
Si Si7 0.829911 0.899715 0.617296
Si Si8 0.030032 0.461446 0.344754
O O1 0.275480 0.635828 0.331100
O O2 0.581616 0.820058 0.711661
O O3 0.488853 0.846829 0.414034
O O4 0.296921 0.441784 0.077944
O O5 0.742809 0.761411 0.304283
O O6 0.719885 0.838234 0.077663
O O7 0.000000 0.000000 0.500000
O O8 0.678140 0.063840 0.461031
O O9 0.821312 0.314364 0.491557
O O10 0.000000 0.500000 0.000000
O O11 0.620971 0.422860 0.401800
O O12 0.801372 0.757179 0.611605
O O13 0.901716 0.615182 0.623219
O O14 0.956454 0.839522 0.034182
O O15 0.712629 0.902186 0.570326
O O16 0.837700 0.267041 0.977302
O O17 0.500000 0.500000 0.500000
O O18 0.000000 0.500000 0.500000
#
# Coordination Sequence:
#
# PCOD8004084 Si02
#       8
#     2   2   2   2   2   2   2   2
#     4  11  22  43  69  98 142 184 234 284 358 419
#     4  11  25  38  66 103 140 180 237 288 352 424
#     4  10  22  42  71  95 133 186 232 286 343 416
#     4  10  20  39  68  94 138 183 223 290 356 420
#     4  10  23  41  67 100 140 182 229 285 356 415
#     4  10  20  37  63  94 136 174 220 279 348 408
#     4  10  21  39  62  98 136 180 227 282 354 419
#     4  10  22  43  70  98 136 185 240 286 347 418
#
# _framework density 22.902338
#
# number of rings (size 3 to 8) (size 9 to 14) (size 15 to 20)
#    0.000    1.750    1.250    3.375    3.500    6.000 
#    2.250    1.875    0.000    0.000    0.000    0.000 
#    0.000    0.000    0.000    0.000    0.000    0.000 
#
# Total GULP energy -198231.119650 kJ/mol
# GULP energy per Si atom -12389.444978 kJ/mol
# Density = 2.285021 g / cm^3
# Si number density = 22.902338 Si / 1000 Ang^3
#
#
#
# Elastic Constant Matrix: (Units=GPa)
#
#
# Indices 1 2 3 4 5 6 
#
# 1 122.8421 59.1455 41.6387 -10.7820 -7.4484 15.1318
# 2 59.1455 157.9835 39.1986 -7.8167 -7.9659 10.2858
# 3 41.6387 39.1986 71.9468 -15.7976 5.7924 1.4799
# 4 -10.7820 -7.8167 -15.7976 33.1599 6.3042 7.4202
# 5 -7.4484 -7.9659 5.7924 6.3042 29.8760 -1.4746
# 6 15.1318 10.2858 1.4799 7.4202 -1.4746 41.7607
#
#
#
# Elastic Compliance Matrix: (Units=1/GPa)
#
#
# Indices 1 2 3 4 5 6 
#
# 1 0.011979 -0.002717 -0.005419 0.000904 0.002947 -0.003536
# 2 -0.002717 0.008285 -0.003280 -0.000767 0.002294 -0.000723
# 3 -0.005419 -0.003280 0.021537 0.009301 -0.008361 0.000060
# 4 0.000904 -0.000767 0.009301 0.038362 -0.010255 -0.007647
# 5 0.002947 0.002294 -0.008361 -0.010255 0.038694 0.001852
# 6 -0.003536 -0.000723 0.000060 -0.007647 0.001852 0.026827
#
#
# Mechanical properties :
#
#
# Convention : Reuss Voigt Hill
#
# Bulk Modulus (GPa) = 52.71553 70.30422 61.50988
# Shear Modulus (GPa) = 28.59785 35.14531 31.87158
#
# Velocity S-wave (km/s) = 3.53751 3.92161 3.73450
# Velocity P-wave (km/s) = 6.30498 7.16027 6.74619
#
# Compressibility (1/GPa) = 0.01896974
#
# Stress axis : x y z
#
# Youngs Moduli (GPa) = 83.48053 120.69326 46.43279
#
# Poissons Ratio (x) = 0.32787 0.25160
# Poissons Ratio (y) = 0.22678 0.15231
# Poissons Ratio (z) = 0.45235 0.39591
#
# Static dielectric constant tensor:
#      x y z
#    x 4.373910 0.073590 0.129450 
#    y 0.073590 6.169290 -1.060910 
#    z 0.129450 -1.060910 4.245030 
# 
# 
# High freq. dielectric constant tensor:
#      x y z
#    x 1.913880 0.000440 0.015710 
#    y 0.000440 1.921000 -0.014770 
#    z 0.015710 -0.014770 1.870120 
# 
# From -- ./inp_files/308370.got.cif
#   From: 2010.06.25/outbox.cif.g09.slc.cpg/sg2_155_cif.got.tgz:308370.got - 2010.06.27 13:26:56.
