data_PCOD8004798
_publ_section_title
;
Structure prediction by ZEFSAII (Michael W. Deem and Ramdas Pophale) SiO2 
 PCOD8004798
Probable space group: P -1
;
_chemical_formula_sum "Si O2"
_cell_formula_units_Z 14
_cell_length_a 11.877294
_cell_length_b 15.968949
_cell_length_c 11.620292
_cell_angle_alpha 124.171872
_cell_angle_beta 49.293899
_cell_angle_gamma 152.963058
_cell_volume 758.291209
_symmetry_space_group_name_H-M "P -1"
_symmetry_group_IT_number 2
_symmetry_cell_setting 'triclinic'
loop_
_space_group_symop_operation_xyz
x,y,z
-x,-y,-z
loop_
_atom_site_type_symbol
_atom_site_label
_atom_site_fract_x
_atom_site_fract_y
_atom_site_fract_z
Si Si1 0.926842 0.988014 0.411756
Si Si2 0.870421 0.729394 0.651240
Si Si3 0.298189 0.586351 0.475102
Si Si4 0.605154 0.506402 0.048977
Si Si5 0.969414 0.892292 0.101941
Si Si6 0.191203 0.563544 0.271012
Si Si7 0.728079 0.954469 0.203461
O O1 0.606188 0.794046 0.452734
O O2 0.089852 0.011673 0.229035
O O3 0.000000 0.000000 0.500000
O O4 0.039553 0.164048 0.444725
O O5 0.775902 0.566191 0.543984
O O6 0.630876 0.649213 0.820748
O O7 0.130134 0.882025 0.682398
O O8 0.226830 0.531797 0.346626
O O9 0.110249 0.564205 0.642480
O O10 0.810517 0.705962 0.116756
O O11 0.500000 0.500000 0.000000
O O12 0.753883 0.485791 0.905005
O O13 0.786369 0.871061 0.139403
O O14 0.192608 0.980580 0.931763
O O15 0.402752 0.778438 0.289416
#
# Coordination Sequence:
#
# PCOD8004798 Si02
#       7
#     2   2   2   2   2   2   2
#     4  11  23  40  59  80 110 151 201 235 262 327
#     4  11  20  35  60  84 112 148 191 229 281 331
#     4  11  22  37  51  86 123 148 176 226 295 339
#     4  12  16  31  56  85 113 147 182 228 283 332
#     4  10  17  30  53  84 109 135 191 235 267 321
#     4  11  20  32  54  86 128 143 169 233 291 350
#     4  10  16  29  53  85 112 139 178 232 281 330
#
# _framework density 18.462564
#
# number of rings (size 3 to 8) (size 9 to 14) (size 15 to 20)
#    0.000    1.143    8.571    1.714    0.000    1.143 
#    2.571    0.000    0.000    4.286    0.000    0.000 
#    0.000    0.000    0.000    0.000    0.000    0.000 
#
# Total GULP energy -173485.704472 kJ/mol
# GULP energy per Si atom -12391.836034 kJ/mol
# Density = 1.842054 g / cm^3
# Si number density = 18.462564 Si / 1000 Ang^3
#
#
#
# Elastic Constant Matrix: (Units=GPa)
#
#
# Indices 1 2 3 4 5 6 
#
# 1 62.8085 33.6657 46.3667 -7.5646 12.3271 -6.9785
# 2 33.6657 114.8980 26.0659 -14.7964 -1.1774 -21.4998
# 3 46.3667 26.0659 62.8036 -6.4444 5.8890 -2.6263
# 4 -7.5646 -14.7964 -6.4444 25.5890 -6.0137 -0.1750
# 5 12.3271 -1.1774 5.8890 -6.0137 28.2192 -3.9623
# 6 -6.9785 -21.4998 -2.6263 -0.1750 -3.9623 17.5216
#
#
#
# Elastic Compliance Matrix: (Units=1/GPa)
#
#
# Indices 1 2 3 4 5 6 
#
# 1 0.041838 -0.005833 -0.027259 -0.000825 -0.012649 0.002551
# 2 -0.005833 0.015260 -0.001103 0.008785 0.007828 0.018094
# 3 -0.027259 -0.001103 0.036029 0.001223 0.003769 -0.005945
# 4 -0.000825 0.008785 0.001223 0.047256 0.012499 0.013933
# 5 -0.012649 0.007828 0.003769 0.012499 0.045344 0.015511
# 6 0.002551 0.018094 -0.005945 0.013933 0.015511 0.083047
#
#
# Mechanical properties :
#
#
# Convention : Reuss Voigt Hill
#
# Bulk Modulus (GPa) = 40.42622 50.30075 45.36349
# Shear Modulus (GPa) = 14.47560 23.22673 18.85116
#
# Velocity S-wave (km/s) = 2.80313 3.55074 3.19885
# Velocity P-wave (km/s) = 5.69391 6.64185 6.18606
#
# Compressibility (1/GPa) = 0.02473642
#
# Stress axis : x y z
#
# Youngs Moduli (GPa) = 23.90179 65.53042 27.75568
#
# Poissons Ratio (x) = 0.38225 0.75659
# Poissons Ratio (y) = 0.13942 0.03061
# Poissons Ratio (z) = 0.65154 0.07227
#
# Static dielectric constant tensor:
#      x y z
#    x 2.839240 -0.194470 0.004530 
#    y -0.194470 3.920280 -0.166900 
#    z 0.004530 -0.166900 3.506170 
# 
# 
# High freq. dielectric constant tensor:
#      x y z
#    x 1.635460 -0.020320 -0.001270 
#    y -0.020320 1.741370 -0.013680 
#    z -0.001270 -0.013680 1.713390 
# 
# From -- ./inp_files/260817.got.cif
#   From: 2010.06.25/outbox.cif.g09.slc.cpg/sg2_131_cif.got.tgz:260817.got - 2010.06.27 13:26:56.
