data_PCOD8004662
_publ_section_title
;
Structure prediction by ZEFSAII (Michael W. Deem and Ramdas Pophale) SiO2 
 PCOD8004662
Probable space group: P -1
;
_chemical_formula_sum "Si O2"
_cell_formula_units_Z 14
_cell_length_a 8.232670
_cell_length_b 13.617168
_cell_length_c 11.541051
_cell_angle_alpha 29.654886
_cell_angle_beta 68.050486
_cell_angle_gamma 68.250234
_cell_volume 590.791406
_symmetry_space_group_name_H-M "P -1"
_symmetry_group_IT_number 2
_symmetry_cell_setting 'triclinic'
loop_
_space_group_symop_operation_xyz
x,y,z
-x,-y,-z
loop_
_atom_site_type_symbol
_atom_site_label
_atom_site_fract_x
_atom_site_fract_y
_atom_site_fract_z
Si Si1 0.372421 0.250642 0.878557
Si Si2 0.733520 0.099984 0.878149
Si Si3 0.972088 0.587765 0.291395
Si Si4 0.196590 0.249803 0.159049
Si Si5 0.303857 0.948231 0.610786
Si Si6 0.102122 0.026618 0.807165
Si Si7 0.841612 0.442533 0.948239
O O1 0.577266 0.276594 0.766331
O O2 0.234251 0.415011 0.685175
O O3 0.350600 0.266204 0.007291
O O4 0.333805 0.029157 0.076314
O O5 0.771617 0.964359 0.123854
O O6 0.921902 0.184137 0.706684
O O7 0.000000 0.500000 0.500000
O O8 0.022029 0.814084 0.041598
O O9 0.101750 0.469640 0.281794
O O10 0.010304 0.305693 0.092836
O O11 0.207182 0.026171 0.437540
O O12 0.231682 0.388375 0.117328
O O13 0.207225 0.066931 0.622610
O O14 0.306322 0.710452 0.868631
O O15 0.500000 0.000000 0.500000
#
# Coordination Sequence:
#
# PCOD8004662 Si02
#       7
#     2   2   2   2   2   2   2
#     4   9  18  33  56  84 111 148 195 240 291 356
#     4   9  17  33  55  78 111 143 188 249 290 336
#     4   9  18  35  56  81 118 156 191 241 303 358
#     4  10  20  38  61  86 122 157 195 245 300 360
#     4  11  22  37  61  90 120 158 199 243 299 359
#     4   9  19  34  56  85 114 150 197 242 293 359
#     4   9  21  38  59  89 121 157 200 245 296 361
#
# _framework density 23.697026000000001
#
# number of rings (size 3 to 8) (size 9 to 14) (size 15 to 20)
#    0.000    2.571    0.000    2.143    0.000    4.000 
#    0.000    3.571    0.000    6.857    0.000    0.000 
#    0.000    0.000    0.000    0.000    0.000    0.000 
#
# Total GULP energy -173510.145444 kJ/mol
# GULP energy per Si atom -12393.581817 kJ/mol
# Density = 2.364309 g / cm^3
# Si number density = 23.697026 Si / 1000 Ang^3
#
#
#
# Elastic Constant Matrix: (Units=GPa)
#
#
# Indices 1 2 3 4 5 6 
#
# 1 109.2443 58.1738 39.0446 23.6783 -4.5806 -24.3557
# 2 58.1738 167.9539 44.3964 41.2453 0.1170 -12.8075
# 3 39.0446 44.3964 74.5093 43.4760 4.5013 -9.8536
# 4 23.6783 41.2453 43.4760 40.5788 3.7660 0.7509
# 5 -4.5806 0.1170 4.5013 3.7660 34.4523 4.6734
# 6 -24.3557 -12.8075 -9.8536 0.7509 4.6734 41.3757
#
#
#
# Elastic Compliance Matrix: (Units=1/GPa)
#
#
# Indices 1 2 3 4 5 6 
#
# 1 0.013892 -0.003060 -0.004530 -0.000409 0.001684 0.005969
# 2 -0.003060 0.008936 0.002045 -0.009530 0.000119 0.001612
# 3 -0.004530 0.002045 0.041448 -0.043780 -0.002447 0.008908
# 4 -0.000409 -0.009530 -0.043780 0.081865 -0.001221 -0.014965
# 5 0.001684 0.000119 -0.002447 -0.001221 0.030100 -0.002932
# 6 0.005969 0.001612 0.008908 -0.014965 -0.002932 0.030905
#
#
# Mechanical properties :
#
#
# Convention : Reuss Voigt Hill
#
# Bulk Modulus (GPa) = 18.80156 70.54857 44.67506
# Shear Modulus (GPa) = 21.18950 37.28754 29.23852
#
# Velocity S-wave (km/s) = 2.99353 3.97105 3.51643
# Velocity P-wave (km/s) = 4.46091 7.13172 5.94815
#
# Compressibility (1/GPa) = 0.05318708
#
# Stress axis : x y z
#
# Youngs Moduli (GPa) = 71.98153 111.90339 24.12657
#
# Poissons Ratio (x) = 0.34241 0.10930
# Poissons Ratio (y) = 0.22025 -0.04934
# Poissons Ratio (z) = 0.32610 -0.22887
#
# Static dielectric constant tensor:
#      x y z
#    x 4.294820 -0.166670 0.101590 
#    y -0.166670 4.749400 0.235210 
#    z 0.101590 0.235210 4.045560 
# 
# 
# High freq. dielectric constant tensor:
#      x y z
#    x 1.931430 -0.006300 0.006630 
#    y -0.006300 1.957430 0.015200 
#    z 0.006630 0.015200 1.914550 
# 
# From -- ./inp_files/203223.got.cif
#   From: 2010.06.25/outbox.cif.g09.slc.cpg/sg2_102_cif.got.tgz:203223.got - 2010.06.27 13:26:56.
