data_PCOD8004542
_publ_section_title
;
Structure prediction by ZEFSAII (Michael W. Deem and Ramdas Pophale) SiO2 
 PCOD8004542
Probable space group: P -1
;
_chemical_formula_sum "Si O2"
_cell_formula_units_Z 16
_cell_length_a 16.298564
_cell_length_b 8.994507
_cell_length_c 14.617903
_cell_angle_alpha 124.999880
_cell_angle_beta 138.572254
_cell_angle_gamma 88.442873
_cell_volume 776.978184
_symmetry_space_group_name_H-M "P -1"
_symmetry_group_IT_number 2
_symmetry_cell_setting 'triclinic'
loop_
_space_group_symop_operation_xyz
x,y,z
-x,-y,-z
loop_
_atom_site_type_symbol
_atom_site_label
_atom_site_fract_x
_atom_site_fract_y
_atom_site_fract_z
Si Si1 0.818872 0.648715 0.941904
Si Si2 0.544838 0.664658 0.236792
Si Si3 0.396299 0.904713 0.474305
Si Si4 0.684492 0.048152 0.901962
Si Si5 0.101422 0.030169 0.456853
Si Si6 0.190364 0.139064 0.167805
Si Si7 0.474814 0.419564 0.264879
Si Si8 0.846508 0.603336 0.243744
O O1 0.798154 0.411747 0.819597
O O2 0.762188 0.685690 0.815463
O O3 0.663745 0.557512 0.849464
O O4 0.017930 0.916452 0.244726
O O5 0.679186 0.773071 0.300495
O O6 0.533518 0.471417 0.224631
O O7 0.641432 0.930263 0.470846
O O8 0.342630 0.499596 0.975490
O O9 0.500000 0.000000 0.500000
O O10 0.505831 0.925231 0.655416
O O11 0.811047 0.068435 0.944917
O O12 0.620914 0.865746 0.874737
O O13 0.809969 0.353462 0.148398
O O14 0.071723 0.202861 0.530911
O O15 0.996443 0.776595 0.347750
O O16 0.347821 0.333192 0.441926
O O17 0.000000 0.000000 0.000000
#
# Coordination Sequence:
#
# PCOD8004542 Si02
#       8
#     2   2   2   2   2   2   2   2
#     4  11  19  35  57  84 120 154 192 235 299 358
#     4  11  22  37  66  89 119 158 202 248 297 361
#     4  11  18  33  59  89 120 154 193 238 301 354
#     4  10  20  38  60  83 119 164 193 242 307 352
#     4  11  23  40  64  88 115 160 210 250 298 350
#     4  11  21  33  56  90 126 153 193 240 297 369
#     4  11  19  38  58  87 123 161 188 238 310 363
#     4  10  23  44  63  83 121 157 206 259 298 340
#
# _framework density 20.592599
#
# number of rings (size 3 to 8) (size 9 to 14) (size 15 to 20)
#    0.000    1.250    5.000    2.625    0.000    1.500 
#    0.000    3.125    0.000    0.000    0.000    0.000 
#    0.000    0.000    0.000    0.000    0.000    0.000 
#
# Total GULP energy -198272.173286 kJ/mol
# GULP energy per Si atom -12392.010830 kJ/mol
# Density = 2.054573 g / cm^3
# Si number density = 20.592599 Si / 1000 Ang^3
#
#
#
# Elastic Constant Matrix: (Units=GPa)
#
#
# Indices 1 2 3 4 5 6 
#
# 1 83.8974 30.4574 20.8158 12.8045 17.2768 0.0467
# 2 30.4574 99.7305 26.0941 23.0575 -1.4328 -1.6586
# 3 20.8158 26.0941 70.5401 18.3524 2.7037 -1.9287
# 4 12.8045 23.0575 18.3524 33.3843 -6.5090 -7.4541
# 5 17.2768 -1.4328 2.7037 -6.5090 36.5802 5.2084
# 6 0.0467 -1.6586 -1.9287 -7.4541 5.2084 21.0355
#
#
#
# Elastic Compliance Matrix: (Units=1/GPa)
#
#
# Indices 1 2 3 4 5 6 
#
# 1 0.016059 -0.003517 -0.002015 -0.004233 -0.008336 0.000066
# 2 -0.003517 0.013220 -0.002213 -0.006709 0.001416 -0.001881
# 3 -0.002015 -0.002213 0.017706 -0.007981 -0.001729 -0.000947
# 4 -0.004233 -0.006709 -0.007981 0.045081 0.008553 0.012606
# 5 -0.008336 0.001416 -0.001729 0.008553 0.033741 -0.005352
# 6 0.000066 -0.001881 -0.000947 0.012606 -0.005352 0.053096
#
#
# Mechanical properties :
#
#
# Convention : Reuss Voigt Hill
#
# Bulk Modulus (GPa) = 31.75072 45.43361 38.59217
# Shear Modulus (GPa) = 24.40310 29.98671 27.19491
#
# Velocity S-wave (km/s) = 3.44618 3.82014 3.63797
# Velocity P-wave (km/s) = 5.59346 6.44740 6.03555
#
# Compressibility (1/GPa) = 0.03149535
#
# Stress axis : x y z
#
# Youngs Moduli (GPa) = 62.27158 75.64119 56.47700
#
# Poissons Ratio (x) = 0.26603 0.11381
# Poissons Ratio (y) = 0.21901 0.12497
# Poissons Ratio (z) = 0.12549 0.16737
#
# Static dielectric constant tensor:
#      x y z
#    x 3.750660 0.019710 0.156330 
#    y 0.019710 3.930080 0.413470 
#    z 0.156330 0.413470 4.037090 
# 
# 
# High freq. dielectric constant tensor:
#      x y z
#    x 1.796610 0.011450 -0.002370 
#    y 0.011450 1.796140 0.010110 
#    z -0.002370 0.010110 1.802630 
# 
# From -- ./inp_files/225616.got.cif
#   From: 2010.06.25/outbox.cif.g09.slc.cpg/sg2_113_cif.got.tgz:225616.got - 2010.06.27 13:26:56.
