data_PCOD8004888
_publ_section_title
;
Structure prediction by ZEFSAII (Michael W. Deem and Ramdas Pophale) SiO2 
 PCOD8004888
Probable space group: P -1
;
_chemical_formula_sum "Si O2"
_cell_formula_units_Z 16
_cell_length_a 18.563805
_cell_length_b 21.030477
_cell_length_c 8.783508
_cell_angle_alpha 52.602288
_cell_angle_beta 118.410775
_cell_angle_gamma 161.480410
_cell_volume 794.294947
_symmetry_space_group_name_H-M "P -1"
_symmetry_group_IT_number 2
_symmetry_cell_setting 'triclinic'
loop_
_space_group_symop_operation_xyz
x,y,z
-x,-y,-z
loop_
_atom_site_type_symbol
_atom_site_label
_atom_site_fract_x
_atom_site_fract_y
_atom_site_fract_z
Si Si1 0.416061 0.997970 0.322109
Si Si2 0.081500 0.491568 0.027094
Si Si3 0.305234 0.879327 0.059917
Si Si4 0.164089 0.872339 0.498662
Si Si5 0.281439 0.436383 0.533458
Si Si6 0.656523 0.914649 0.320858
Si Si7 0.933359 0.821162 0.606323
Si Si8 0.630015 0.654319 0.758150
O O1 0.629380 0.242649 0.094395
O O2 0.500000 0.000000 0.500000
O O3 0.259205 0.820299 0.279187
O O4 0.284163 0.940984 0.375965
O O5 0.962725 0.377265 0.907835
O O6 0.000000 0.500000 0.000000
O O7 0.009224 0.351417 0.264885
O O8 0.500000 0.000000 0.000000
O O9 0.395368 0.052260 0.868719
O O10 0.998806 0.792476 0.379384
O O11 0.362927 0.088931 0.508150
O O12 0.457225 0.672892 0.398556
O O13 0.267180 0.391487 0.411151
O O14 0.391219 0.464981 0.700081
O O15 0.932581 0.133118 0.252529
O O16 0.773622 0.716259 0.726910
O O17 0.159585 0.083861 0.381557
O O18 0.500000 0.500000 0.000000
#
# Coordination Sequence:
#
# PCOD8004888 Si02
#       8
#     2   2   2   2   2   2   2   2
#     4  12  23  37  57  84 111 152 200 249 301 356
#     4  11  21  40  59  80 116 152 195 252 299 347
#     4  11  22  37  61  86 116 158 204 248 303 354
#     4  10  22  39  57  84 118 149 201 248 293 356
#     4  10  20  38  63  85 121 162 191 240 302 348
#     4   9  20  39  60  84 119 160 197 249 297 350
#     4   9  20  40  62  89 121 156 196 237 290 359
#     4  10  21  38  63  93 123 152 193 240 291 352
#
# _framework density 20.143650000000001
#
# number of rings (size 3 to 8) (size 9 to 14) (size 15 to 20)
#    0.000    1.750    2.500    1.875    0.000    3.000 
#    0.000   15.000    0.000    0.000    0.000    0.000 
#    0.000    0.000    0.000    0.000    0.000    0.000 
#
# Total GULP energy -198223.777367 kJ/mol
# GULP energy per Si atom -12388.986085 kJ/mol
# Density = 2.009780 g / cm^3
# Si number density = 20.143650 Si / 1000 Ang^3
#
#
#
# Elastic Constant Matrix: (Units=GPa)
#
#
# Indices 1 2 3 4 5 6 
#
# 1 151.3148 39.9998 50.4793 12.8417 -16.7058 4.1104
# 2 39.9998 98.8646 37.1400 16.2532 -10.2467 -11.1786
# 3 50.4793 37.1400 85.5737 6.2369 -14.4145 4.6475
# 4 12.8417 16.2532 6.2369 32.9924 0.2847 4.9566
# 5 -16.7058 -10.2467 -14.4145 0.2847 31.8350 3.4400
# 6 4.1104 -11.1786 4.6475 4.9566 3.4400 44.8343
#
#
#
# Elastic Compliance Matrix: (Units=1/GPa)
#
#
# Indices 1 2 3 4 5 6 
#
# 1 0.008778 -0.001639 -0.003886 -0.001775 0.002422 -0.000800
# 2 -0.001639 0.014281 -0.004860 -0.006212 0.001071 0.004819
# 3 -0.003886 -0.004860 0.016908 0.001134 0.004374 -0.003069
# 4 -0.001775 -0.006212 0.001134 0.034642 -0.002169 -0.005167
# 5 0.002422 0.001071 0.004374 -0.002169 0.035338 -0.002880
# 6 -0.000800 0.004819 -0.003069 -0.005167 -0.002880 0.024690
#
#
# Mechanical properties :
#
#
# Convention : Reuss Voigt Hill
#
# Bulk Modulus (GPa) = 52.09099 65.66569 58.87834
# Shear Modulus (GPa) = 30.90122 35.80795 33.35459
#
# Velocity S-wave (km/s) = 3.92094 4.22077 4.07361
# Velocity P-wave (km/s) = 6.81280 7.51150 7.17066
#
# Compressibility (1/GPa) = 0.01919718
#
# Stress axis : x y z
#
# Youngs Moduli (GPa) = 113.91802 70.02406 59.14346
#
# Poissons Ratio (x) = 0.11480 0.22983
# Poissons Ratio (y) = 0.18676 0.28741
# Poissons Ratio (z) = 0.44268 0.34029
#
# Static dielectric constant tensor:
#      x y z
#    x 3.867780 -0.372300 0.320490 
#    y -0.372300 3.498740 0.471540 
#    z 0.320490 0.471540 3.185460 
# 
# 
# High freq. dielectric constant tensor:
#      x y z
#    x 1.808880 -0.005780 0.012980 
#    y -0.005780 1.805480 0.018030 
#    z 0.012980 0.018030 1.749640 
# 
# From -- ./inp_files/337612.got.cif
#   From: 2010.06.25/outbox.cif.g09.slc.cpg/sg2_169_cif.got.tgz:337612.got - 2010.06.27 13:26:56.
