data_PCOD8004882
_publ_section_title
;
Structure prediction by ZEFSAII (Michael W. Deem and Ramdas Pophale) SiO2 
 PCOD8004882
Probable space group: P -1
;
_chemical_formula_sum "Si O2"
_cell_formula_units_Z 16
_cell_length_a 8.560176
_cell_length_b 8.305806
_cell_length_c 17.759381
_cell_angle_alpha 50.146130
_cell_angle_beta 78.672563
_cell_angle_gamma 60.337566
_cell_volume 828.400045
_symmetry_space_group_name_H-M "P -1"
_symmetry_group_IT_number 2
_symmetry_cell_setting 'triclinic'
loop_
_space_group_symop_operation_xyz
x,y,z
-x,-y,-z
loop_
_atom_site_type_symbol
_atom_site_label
_atom_site_fract_x
_atom_site_fract_y
_atom_site_fract_z
Si Si1 0.177645 0.397433 0.161171
Si Si2 0.704717 0.390384 0.041728
Si Si3 0.567567 0.464290 0.326801
Si Si4 0.203074 0.490203 0.294295
Si Si5 0.185138 0.636342 0.801612
Si Si6 0.496888 0.117073 0.685952
Si Si7 0.634257 0.028759 0.534601
Si Si8 0.150788 0.068879 0.750455
O O1 0.168048 0.545508 0.192473
O O2 0.007007 0.353893 0.187587
O O3 0.364961 0.145682 0.216364
O O4 0.172798 0.555746 0.043382
O O5 0.708615 0.501392 0.090439
O O6 0.796111 0.100230 0.129060
O O7 0.500000 0.500000 0.000000
O O8 0.399972 0.458125 0.303724
O O9 0.693771 0.495847 0.243114
O O10 0.485975 0.687440 0.324050
O O11 0.690119 0.214416 0.435930
O O12 0.049083 0.703542 0.292887
O O13 0.198099 0.241149 0.386228
O O14 0.150817 0.910911 0.725986
O O15 0.537584 0.146669 0.587126
O O16 0.291666 0.164511 0.695590
O O17 0.500000 0.000000 0.500000
#
# Coordination Sequence:
#
# PCOD8004882 Si02
#       8
#     2   2   2   2   2   2   2   2
#     4  11  20  39  60  86 120 155 195 246 290 346
#     4  10  20  38  63  84 119 155 196 235 300 343
#     4  11  21  40  59  86 120 156 199 238 293 349
#     4  10  21  38  60  88 117 157 194 246 294 342
#     4  10  22  37  60  86 119 157 194 243 290 344
#     4  11  21  37  62  87 120 154 196 242 294 342
#     4   9  20  38  62  85 117 156 194 241 292 348
#     4  10  21  37  59  85 120 151 196 237 297 340
#
# _framework density 19.314340000000001
#
# number of rings (size 3 to 8) (size 9 to 14) (size 15 to 20)
#    0.750    1.000    1.250    5.250    0.000    0.500 
#    0.000   13.125    0.000    0.000    0.000    0.000 
#    0.000    0.000    0.000    0.000    0.000    0.000 
#
# Total GULP energy -198342.283966 kJ/mol
# GULP energy per Si atom -12396.392748 kJ/mol
# Density = 1.927038 g / cm^3
# Si number density = 19.314340 Si / 1000 Ang^3
#
#
#
# Elastic Constant Matrix: (Units=GPa)
#
#
# Indices 1 2 3 4 5 6 
#
# 1 82.7519 19.1751 19.9023 9.3842 -5.3161 -3.8402
# 2 19.1751 92.6542 22.5080 9.5542 12.7723 3.9496
# 3 19.9023 22.5080 86.7945 20.0433 4.4709 -1.8788
# 4 9.3842 9.5542 20.0433 28.2908 3.4503 5.9006
# 5 -5.3161 12.7723 4.4709 3.4503 19.7033 2.4662
# 6 -3.8402 3.9496 -1.8788 5.9006 2.4662 38.1747
#
#
#
# Elastic Compliance Matrix: (Units=1/GPa)
#
#
# Indices 1 2 3 4 5 6 
#
# 1 0.014172 -0.003095 -0.001956 -0.003447 0.006658 0.001752
# 2 -0.003095 0.013270 -0.002164 -0.000625 -0.008695 -0.001132
# 3 -0.001956 -0.002164 0.014824 -0.009464 -0.001118 0.002292
# 4 -0.003447 -0.000625 -0.009464 0.045623 -0.005434 -0.007449
# 5 0.006658 -0.008695 -0.001118 -0.005434 0.059578 -0.001495
# 6 0.001752 -0.001132 0.002292 -0.007449 -0.001495 0.027849
#
#
# Mechanical properties :
#
#
# Convention : Reuss Voigt Hill
#
# Bulk Modulus (GPa) = 35.92380 42.81906 39.37143
# Shear Modulus (GPa) = 25.12243 30.60811 27.86527
#
# Velocity S-wave (km/s) = 3.61045 3.98519 3.80244
# Velocity P-wave (km/s) = 6.00170 6.58736 6.30134
#
# Compressibility (1/GPa) = 0.02783670
#
# Stress axis : x y z
#
# Youngs Moduli (GPa) = 70.56244 75.35615 67.45845
#
# Poissons Ratio (x) = 0.23321 0.13195
# Poissons Ratio (y) = 0.21837 0.14597
# Poissons Ratio (z) = 0.13802 0.16306
#
# Static dielectric constant tensor:
#      x y z
#    x 3.375270 0.140030 0.030300 
#    y 0.140030 3.411350 0.012650 
#    z 0.030300 0.012650 3.803000 
# 
# 
# High freq. dielectric constant tensor:
#      x y z
#    x 1.750450 0.007340 0.001880 
#    y 0.007340 1.744660 0.007090 
#    z 0.001880 0.007090 1.752470 
# 
# From -- ./inp_files/325307.got.cif
#   From: 2010.06.25/outbox.cif.g09.slc.cpg/sg2_163_cif.got.tgz:325307.got - 2010.06.27 13:26:56.
