data_PCOD8004245
_publ_section_title
;
Structure prediction by ZEFSAII (Michael W. Deem and Ramdas Pophale) SiO2 
 PCOD8004245
Probable space group: P -1
;
_chemical_formula_sum "Si O2"
_cell_formula_units_Z 16
_cell_length_a 5.473929
_cell_length_b 15.084658
_cell_length_c 8.841135
_cell_angle_alpha 68.558376
_cell_angle_beta 104.664661
_cell_angle_gamma 89.846795
_cell_volume 653.686902
_symmetry_space_group_name_H-M "P -1"
_symmetry_group_IT_number 2
_symmetry_cell_setting 'triclinic'
loop_
_space_group_symop_operation_xyz
x,y,z
-x,-y,-z
loop_
_atom_site_type_symbol
_atom_site_label
_atom_site_fract_x
_atom_site_fract_y
_atom_site_fract_z
Si Si1 0.616440 0.934234 0.427084
Si Si2 0.834087 0.421833 0.085121
Si Si3 0.183431 0.110039 0.973150
Si Si4 0.739945 0.064590 0.106888
Si Si5 0.381228 0.366203 0.537583
Si Si6 0.231703 0.800726 0.360323
Si Si7 0.436986 0.485286 0.747892
Si Si8 0.032714 0.245936 0.379482
O O1 0.405584 0.888598 0.319140
O O2 0.798143 0.849355 0.587829
O O3 0.500000 0.000000 0.500000
O O4 0.776159 0.998250 0.303008
O O5 0.771996 0.446683 0.235612
O O6 0.969408 0.312923 0.180729
O O7 0.593247 0.420725 0.939320
O O8 0.000000 0.500000 0.000000
O O9 0.044144 0.172002 0.776488
O O10 0.251926 0.999164 0.004615
O O11 0.473976 0.137200 0.033444
O O12 0.993428 0.120630 0.084643
O O13 0.644986 0.297449 0.636389
O O14 0.309548 0.414351 0.658816
O O15 0.390909 0.449182 0.361793
O O16 0.167286 0.302134 0.495614
O O17 0.211362 0.784117 0.549307
#
# Coordination Sequence:
#
# PCOD8004245 Si02
#       8
#     2   2   2   2   2   2   2   2
#     4  11  25  43  63  91 131 179 227 278 341 417
#     4  11  22  41  67  96 136 181 210 269 343 414
#     4  10  20  37  66  90 125 161 222 281 348 396
#     4  10  20  38  63  93 119 170 219 281 343 403
#     4  10  22  40  65 100 127 169 221 282 329 406
#     4  11  22  41  65  93 129 170 225 283 337 402
#     4  10  22  40  66  96 135 168 218 270 343 405
#     4  11  23  41  67  94 129 179 229 273 339 412
#
# _framework density 24.476551000000001
#
# number of rings (size 3 to 8) (size 9 to 14) (size 15 to 20)
#    0.000    1.500    3.750    2.250    1.750    2.000 
#    2.250    1.250    0.000    0.000    0.000    0.000 
#    0.000    0.000    0.000    0.000    0.000    0.000 
#
# Total GULP energy -198284.146985 kJ/mol
# GULP energy per Si atom -12392.759187 kJ/mol
# Density = 2.442084 g / cm^3
# Si number density = 24.476551 Si / 1000 Ang^3
#
#
#
# Elastic Constant Matrix: (Units=GPa)
#
#
# Indices 1 2 3 4 5 6 
#
# 1 116.8125 14.1218 39.6630 -11.8689 -6.8633 -21.0494
# 2 14.1218 82.8562 44.3606 1.7468 1.3609 -21.8935
# 3 39.6630 44.3606 131.3307 -27.7808 -6.5223 -20.1985
# 4 -11.8689 1.7468 -27.7808 40.1406 -11.4061 3.1262
# 5 -6.8633 1.3609 -6.5223 -11.4061 44.3796 -10.8340
# 6 -21.0494 -21.8935 -20.1985 3.1262 -10.8340 26.4485
#
#
#
# Elastic Compliance Matrix: (Units=1/GPa)
#
#
# Indices 1 2 3 4 5 6 
#
# 1 0.011415 0.001589 -0.001453 0.002842 0.004911 0.010967
# 2 0.001589 0.018408 -0.005747 -0.005124 0.000694 0.013003
# 3 -0.001453 -0.005747 0.013292 0.010265 0.005868 0.005428
# 4 0.002842 -0.005124 0.010265 0.036268 0.013123 0.006948
# 5 0.004911 0.000694 0.005868 0.013123 0.032573 0.020756
# 6 0.010967 0.013003 0.005428 0.006948 0.020756 0.069128
#
#
# Mechanical properties :
#
#
# Convention : Reuss Voigt Hill
#
# Bulk Modulus (GPa) = 31.35372 58.58779 44.97076
# Shear Modulus (GPa) = 24.63828 37.71734 31.17781
#
# Velocity S-wave (km/s) = 3.17615 3.92976 3.57288
# Velocity P-wave (km/s) = 5.12719 6.67675 5.95261
#
# Compressibility (1/GPa) = 0.03189414
#
# Stress axis : x y z
#
# Youngs Moduli (GPa) = 87.60114 54.32450 75.23365
#
# Poissons Ratio (x) = -0.08634 0.10928
# Poissons Ratio (y) = -0.13923 0.43240
# Poissons Ratio (z) = 0.12725 0.31222
#
# Static dielectric constant tensor:
#      x y z
#    x 4.684490 -0.168340 -0.042750 
#    y -0.168340 4.257750 -0.361640 
#    z -0.042750 -0.361640 4.675790 
# 
# 
# High freq. dielectric constant tensor:
#      x y z
#    x 1.975600 -0.014800 -0.005020 
#    y -0.014800 1.939190 -0.022110 
#    z -0.005020 -0.022110 1.976450 
# 
# From -- ./inp_files/135029.got.cif
#   From: 2010.06.25/outbox.cif.g09.slc.cpg/sg2_68_cif.got.tgz:135029.got - 2010.06.27 13:26:56.
