data_PCOD8004362
_publ_section_title
;
Structure prediction by ZEFSAII (Michael W. Deem and Ramdas Pophale) SiO2 
 PCOD8004362
Probable space group: P -1
;
_chemical_formula_sum "Si O2"
_cell_formula_units_Z 16
_cell_length_a 12.314397
_cell_length_b 8.770637
_cell_length_c 9.043237
_cell_angle_alpha 64.673144
_cell_angle_beta 69.887825
_cell_angle_gamma 74.909982
_cell_volume 821.590378
_symmetry_space_group_name_H-M "P -1"
_symmetry_group_IT_number 2
_symmetry_cell_setting 'triclinic'
loop_
_space_group_symop_operation_xyz
x,y,z
-x,-y,-z
loop_
_atom_site_type_symbol
_atom_site_label
_atom_site_fract_x
_atom_site_fract_y
_atom_site_fract_z
Si Si1 0.753488 0.625108 0.616230
Si Si2 0.783173 0.003880 0.984608
Si Si3 0.864975 0.331267 0.891750
Si Si4 0.294033 0.182048 0.159607
Si Si5 0.488306 0.455443 0.245508
Si Si6 0.129914 0.342508 0.751782
Si Si7 0.735887 0.477871 0.159782
Si Si8 0.458645 0.781194 0.961107
O O1 0.787913 0.450822 0.762109
O O2 0.752781 0.782897 0.666093
O O3 0.624937 0.619642 0.604017
O O4 0.845887 0.649960 0.436807
O O5 0.874086 0.138963 0.904529
O O6 0.778322 0.949294 0.836501
O O7 0.655715 0.085747 0.063734
O O8 0.821662 0.842901 0.135513
O O9 0.992478 0.386115 0.824023
O O10 0.806498 0.334001 0.081371
O O11 0.432047 0.110396 0.125592
O O12 0.283157 0.357438 0.002931
O O13 0.609591 0.429418 0.294498
O O14 0.523237 0.352403 0.123930
O O15 0.451087 0.658696 0.157078
O O16 0.188999 0.489958 0.744895
#
# Coordination Sequence:
#
# PCOD8004362 Si02
#       8
#     2   2   2   2   2   2   2   2
#     4  10  20  38  56  77 111 143 176 214 271 322
#     4  11  19  34  55  83 104 137 185 221 263 302
#     4  11  20  38  60  75 103 147 191 214 248 320
#     4   8  18  31  55  81 107 138 174 221 263 322
#     4   9  15  31  58  83 100 135 179 224 255 314
#     4  11  24  35  51  83 115 141 170 224 273 309
#     4   9  18  35  58  80 103 138 188 220 256 309
#     4   9  14  29  56  82 103 133 183 217 256 313
#
# _framework density 19.474425
#
# number of rings (size 3 to 8) (size 9 to 14) (size 15 to 20)
#    0.000    2.250    2.500    3.000    0.000    0.500 
#    0.000    4.375    0.000    0.000    0.000    0.000 
#    0.000    0.000    0.000    0.000    0.000    0.000 
#
# Total GULP energy -198279.328362 kJ/mol
# GULP energy per Si atom -12392.458023 kJ/mol
# Density = 1.943010 g / cm^3
# Si number density = 19.474425 Si / 1000 Ang^3
#
#
#
# Elastic Constant Matrix: (Units=GPa)
#
#
# Indices 1 2 3 4 5 6 
#
# 1 91.7214 35.5958 9.5832 8.8034 -0.0902 9.6665
# 2 35.5958 71.0750 20.1121 6.0045 -1.6535 13.9828
# 3 9.5832 20.1121 47.0514 11.9649 5.5233 -0.6100
# 4 8.8034 6.0045 11.9649 13.3906 1.0873 -3.0117
# 5 -0.0902 -1.6535 5.5233 1.0873 14.3708 8.4046
# 6 9.6665 13.9828 -0.6100 -3.0117 8.4046 31.2002
#
#
#
# Elastic Compliance Matrix: (Units=1/GPa)
#
#
# Indices 1 2 3 4 5 6 
#
# 1 0.014333 -0.006463 0.001996 -0.008950 0.000762 -0.002574
# 2 -0.006463 0.022953 -0.010017 -0.000963 0.013694 -0.012262
# 3 0.001996 -0.010017 0.033086 -0.023630 -0.015878 0.006514
# 4 -0.008950 -0.000963 -0.023630 0.106160 -0.007970 0.015137
# 5 0.000762 0.013694 -0.015878 -0.007970 0.097608 -0.033747
# 6 -0.002574 -0.012262 0.006514 0.015137 -0.033747 0.049023
#
#
# Mechanical properties :
#
#
# Convention : Reuss Voigt Hill
#
# Bulk Modulus (GPa) = 24.15142 37.82558 30.98850
# Shear Modulus (GPa) = 13.66375 21.42942 17.54658
#
# Velocity S-wave (km/s) = 2.65169 3.32081 3.00493
# Velocity P-wave (km/s) = 4.66946 5.84543 5.29022
#
# Compressibility (1/GPa) = 0.04140543
#
# Stress axis : x y z
#
# Youngs Moduli (GPa) = 69.76777 43.56690 30.22468
#
# Poissons Ratio (x) = 0.28157 -0.06034
# Poissons Ratio (y) = 0.45091 0.30275
# Poissons Ratio (z) = -0.13928 0.43639
#
# Static dielectric constant tensor:
#      x y z
#    x 3.894000 0.153130 -0.049480 
#    y 0.153130 3.611010 0.191750 
#    z -0.049480 0.191750 3.047500 
# 
# 
# High freq. dielectric constant tensor:
#      x y z
#    x 1.774220 0.007020 -0.005670 
#    y 0.007020 1.754020 0.018950 
#    z -0.005670 0.018950 1.703690 
# 
# From -- ./inp_files/178076.got.cif
#   From: 2010.06.25/outbox.cif.g09.slc.cpg/sg2_90_cif.got.tgz:178076.got - 2010.06.27 13:26:56.
