data_PCOD8004959
_publ_section_title
;
Structure prediction by ZEFSAII (Michael W. Deem and Ramdas Pophale) SiO2 
 PCOD8004959
Probable space group: P -1
;
_chemical_formula_sum "Si O2"
_cell_formula_units_Z 16
_cell_length_a 11.862639
_cell_length_b 9.195090
_cell_length_c 11.662270
_cell_angle_alpha 55.319905
_cell_angle_beta 48.811327
_cell_angle_gamma 80.482403
_cell_volume 740.820535
_symmetry_space_group_name_H-M "P -1"
_symmetry_group_IT_number 2
_symmetry_cell_setting 'triclinic'
loop_
_space_group_symop_operation_xyz
x,y,z
-x,-y,-z
loop_
_atom_site_type_symbol
_atom_site_label
_atom_site_fract_x
_atom_site_fract_y
_atom_site_fract_z
Si Si1 0.185845 0.076245 0.957696
Si Si2 0.129948 0.274211 0.702773
Si Si3 0.335583 0.385383 0.101797
Si Si4 0.666498 0.102204 0.898854
Si Si5 0.831363 0.029256 0.612950
Si Si6 0.829162 0.517283 0.633251
Si Si7 0.129882 0.609529 0.707126
Si Si8 0.194948 0.416615 0.951531
O O1 0.234974 0.189187 0.753531
O O2 0.147309 0.211545 0.016840
O O3 0.329236 0.010030 0.935940
O O4 0.039927 0.885382 0.124119
O O5 0.206578 0.336738 0.498174
O O6 0.114019 0.463877 0.680271
O O7 0.185281 0.409578 0.261755
O O8 0.312922 0.165444 0.221797
O O9 0.500000 0.500000 0.000000
O O10 0.331592 0.446502 0.943546
O O11 0.814904 0.098475 0.721679
O O12 0.687180 0.317981 0.809734
O O13 0.500000 0.000000 0.000000
O O14 0.801789 0.176922 0.477774
O O15 0.000000 0.000000 0.500000
O O16 0.000000 0.500000 0.500000
O O17 0.244160 0.575821 0.747032
O O18 0.955390 0.566273 0.891207
#
# Coordination Sequence:
#
# PCOD8004959 Si02
#       8
#     2   2   2   2   2   2   2   2
#     4  10  21  38  62  90 128 160 203 258 316 367
#     4  10  21  38  61  96 121 157 210 265 304 357
#     4  12  26  42  61  93 133 168 202 256 321 372
#     4  12  24  40  61  93 129 162 201 256 321 367
#     4  12  22  41  67  94 120 164 222 254 299 368
#     4  12  23  39  64  94 122 160 215 259 296 364
#     4  10  20  38  63  94 119 160 211 265 298 365
#     4  10  21  38  62  89 127 163 206 252 319 362
#
# _framework density 21.597674000000001
#
# number of rings (size 3 to 8) (size 9 to 14) (size 15 to 20)
#    0.000    1.000    5.000    2.250    1.750    0.000 
#    0.000    2.500    0.000    0.000    0.000    0.000 
#    0.000    0.000    0.000    0.000    0.000    0.000 
#
# Total GULP energy -198307.787532 kJ/mol
# GULP energy per Si atom -12394.236721 kJ/mol
# Density = 2.154852 g / cm^3
# Si number density = 21.597674 Si / 1000 Ang^3
#
#
#
# Elastic Constant Matrix: (Units=GPa)
#
#
# Indices 1 2 3 4 5 6 
#
# 1 160.8065 30.4930 57.3559 -25.6599 39.6846 5.5486
# 2 30.4930 79.1615 26.1888 -18.2047 21.0446 7.7158
# 3 57.3559 26.1888 65.9355 -23.0915 32.9961 -4.7886
# 4 -25.6599 -18.2047 -23.0915 42.2856 -6.6036 5.8081
# 5 39.6846 21.0446 32.9961 -6.6036 41.8221 -5.1243
# 6 5.5486 7.7158 -4.7886 5.8081 -5.1243 30.1727
#
#
#
# Elastic Compliance Matrix: (Units=1/GPa)
#
#
# Indices 1 2 3 4 5 6 
#
# 1 0.010080 0.000549 -0.005388 0.003136 -0.005635 -0.004410
# 2 0.000549 0.017288 -0.001659 0.006672 -0.007763 -0.007388
# 3 -0.005388 -0.001659 0.034160 0.011510 -0.019016 0.001392
# 4 0.003136 0.006672 0.011510 0.034201 -0.011108 -0.008926
# 5 -0.005635 -0.007763 -0.019016 -0.011108 0.047667 0.010237
# 6 -0.004410 -0.007388 0.001392 -0.008926 0.010237 0.039520
#
#
# Mechanical properties :
#
#
# Convention : Reuss Voigt Hill
#
# Bulk Modulus (GPa) = 20.60539 59.33099 39.96819
# Shear Modulus (GPa) = 23.57486 35.64713 29.61100
#
# Velocity S-wave (km/s) = 3.30744 4.06705 3.70676
# Velocity P-wave (km/s) = 4.91394 7.04168 6.07174
#
# Compressibility (1/GPa) = 0.04853100
#
# Stress axis : x y z
#
# Youngs Moduli (GPa) = 99.21073 57.84330 29.27365
#
# Poissons Ratio (x) = -0.03175 0.15773
# Poissons Ratio (y) = -0.05446 0.04857
# Poissons Ratio (z) = 0.53457 0.09597
#
# Static dielectric constant tensor:
#      x y z
#    x 4.359900 -0.018990 0.838940 
#    y -0.018990 4.315330 -0.126220 
#    z 0.838940 -0.126220 4.043640 
# 
# 
# High freq. dielectric constant tensor:
#      x y z
#    x 1.848650 0.006890 0.035270 
#    y 0.006890 1.862960 -0.013930 
#    z 0.035270 -0.013930 1.825130 
# 
# From -- ./inp_files/272227.got.cif
#   From: 2010.06.25/outbox.cif.g09.slc.cpg/sg2_137_cif.got.tgz:272227.got - 2010.06.27 13:26:56.
