data_PCOD8004611
_publ_section_title
;
Structure prediction by ZEFSAII (Michael W. Deem and Ramdas Pophale) SiO2 
 PCOD8004611
Probable space group: P -1
;
_chemical_formula_sum "Si O2"
_cell_formula_units_Z 16
_cell_length_a 7.559151
_cell_length_b 14.642068
_cell_length_c 20.037209
_cell_angle_alpha 24.389450
_cell_angle_beta 54.900167
_cell_angle_gamma 68.045868
_cell_volume 671.548182
_symmetry_space_group_name_H-M "P -1"
_symmetry_group_IT_number 2
_symmetry_cell_setting 'triclinic'
loop_
_space_group_symop_operation_xyz
x,y,z
-x,-y,-z
loop_
_atom_site_type_symbol
_atom_site_label
_atom_site_fract_x
_atom_site_fract_y
_atom_site_fract_z
Si Si1 0.360732 0.916266 0.810629
Si Si2 0.910557 0.964386 0.820958
Si Si3 0.467127 0.573391 0.098208
Si Si4 0.243252 0.709129 0.779718
Si Si5 0.792487 0.070454 0.916304
Si Si6 0.549401 0.180233 0.472038
Si Si7 0.670752 0.779514 0.264035
Si Si8 0.264118 0.465752 0.349729
O O1 0.372144 0.661551 0.995101
O O2 0.582624 0.068998 0.609416
O O3 0.395999 0.058465 0.777714
O O4 0.112555 0.872023 0.857316
O O5 0.764284 0.956875 0.924710
O O6 0.028409 0.240415 0.581169
O O7 0.722728 0.785226 0.928083
O O8 0.528718 0.349118 0.214437
O O9 0.253857 0.492968 0.253316
O O10 0.226650 0.732491 0.686485
O O11 0.309305 0.971153 0.625804
O O12 0.000000 0.500000 0.000000
O O13 0.697314 0.279331 0.793573
O O14 0.064880 0.197170 0.798025
O O15 0.636211 0.858415 0.144498
O O16 0.497348 0.413586 0.346068
O O17 0.500000 0.500000 0.500000
#
# Coordination Sequence:
#
# PCOD8004611 Si02
#       8
#     2   2   2   2   2   2   2   2
#     4  10  21  43  60  91 129 158 210 250 307 371
#     4  10  23  39  61  92 131 167 207 259 302 355
#     4  11  23  40  66  92 122 167 210 253 313 375
#     4  10  20  40  65  91 118 155 206 253 316 377
#     4  10  21  37  59  89 127 168 214 250 302 360
#     4   9  21  39  61  86 125 159 192 265 316 355
#     4  10  22  38  58  89 131 167 205 261 301 356
#     4  10  20  38  60  91 124 164 213 253 297 372
#
# _framework density 23.825543
#
# number of rings (size 3 to 8) (size 9 to 14) (size 15 to 20)
#    0.000    2.000    1.250    1.875    1.750    5.000 
#    0.000    6.875    0.000    0.000    0.000    0.000 
#    0.000    0.000    0.000    0.000    0.000    0.000 
#
# Total GULP energy -198312.974894 kJ/mol
# GULP energy per Si atom -12394.560931 kJ/mol
# Density = 2.377132 g / cm^3
# Si number density = 23.825543 Si / 1000 Ang^3
#
#
#
# Elastic Constant Matrix: (Units=GPa)
#
#
# Indices 1 2 3 4 5 6 
#
# 1 69.7064 14.0820 34.3211 5.9324 22.2428 -6.9839
# 2 14.0820 91.8158 23.6795 21.8833 19.4611 -3.9354
# 3 34.3211 23.6795 139.6145 34.2064 27.0823 -0.0321
# 4 5.9324 21.8833 34.2064 54.4526 3.9772 14.4824
# 5 22.2428 19.4611 27.0823 3.9772 46.5821 0.9822
# 6 -6.9839 -3.9354 -0.0321 14.4824 0.9822 17.7188
#
#
#
# Elastic Compliance Matrix: (Units=1/GPa)
#
#
# Indices 1 2 3 4 5 6 
#
# 1 0.019353 0.000532 -0.002589 -0.002929 -0.007931 0.010575
# 2 0.000532 0.014517 0.000796 -0.008870 -0.006257 0.011032
# 3 -0.002589 0.000796 0.010488 -0.007840 -0.004648 0.005841
# 4 -0.002929 -0.008870 -0.007840 0.035241 0.007336 -0.032350
# 5 -0.007931 -0.006257 -0.004648 0.007336 0.030201 -0.012194
# 6 0.010575 0.011032 0.005841 -0.032350 -0.012194 0.090183
#
#
# Mechanical properties :
#
#
# Convention : Reuss Voigt Hill
#
# Bulk Modulus (GPa) = 23.90278 49.47800 36.69039
# Shear Modulus (GPa) = 23.09994 39.02097 31.06046
#
# Velocity S-wave (km/s) = 3.11713 4.05134 3.61454
# Velocity P-wave (km/s) = 4.79682 6.53424 5.73175
#
# Compressibility (1/GPa) = 0.04183614
#
# Stress axis : x y z
#
# Youngs Moduli (GPa) = 51.67257 68.88238 95.34858
#
# Poissons Ratio (x) = -0.03664 0.24688
# Poissons Ratio (y) = -0.02748 -0.07594
# Poissons Ratio (z) = 0.13379 -0.05486
#
# Static dielectric constant tensor:
#      x y z
#    x 3.824390 0.047440 0.336780 
#    y 0.047440 5.445320 -0.021890 
#    z 0.336780 -0.021890 4.732560 
# 
# 
# High freq. dielectric constant tensor:
#      x y z
#    x 1.896040 -0.000560 0.021660 
#    y -0.000560 1.959180 0.013360 
#    z 0.021660 0.013360 1.966690 
# 
# From -- ./inp_files/608300.got.cif
#   From: 2010.06.25/outbox.cif.g09.slc.cpg/sg2_305_cif.got.tgz:608300.got - 2010.06.27 13:26:56.
