data_PCOD8004462
_publ_section_title
;
Structure prediction by ZEFSAII (Michael W. Deem and Ramdas Pophale) SiO2 
 PCOD8004462
Probable space group: P -1
;
_chemical_formula_sum "Si O2"
_cell_formula_units_Z 14
_cell_length_a 11.858909
_cell_length_b 15.474449
_cell_length_c 15.999037
_cell_angle_alpha 18.056331
_cell_angle_beta 52.535796
_cell_angle_gamma 60.673923
_cell_volume 673.920550
_symmetry_space_group_name_H-M "P -1"
_symmetry_group_IT_number 2
_symmetry_cell_setting 'triclinic'
loop_
_space_group_symop_operation_xyz
x,y,z
-x,-y,-z
loop_
_atom_site_type_symbol
_atom_site_label
_atom_site_fract_x
_atom_site_fract_y
_atom_site_fract_z
Si Si1 0.623576 0.538556 0.237752
Si Si2 0.295411 0.248695 0.591952
Si Si3 0.850445 0.671512 0.256678
Si Si4 0.846447 0.405162 0.778236
Si Si5 0.707458 0.165090 0.676521
Si Si6 0.951020 0.761517 0.812853
Si Si7 0.002198 0.090474 0.645003
O O1 0.475982 0.417105 0.357656
O O2 0.634619 0.269564 0.534897
O O3 0.769405 0.660156 0.000207
O O4 0.616782 0.807933 0.054173
O O5 0.223314 0.165732 0.793684
O O6 0.217706 0.467650 0.387461
O O7 0.259035 0.940459 0.839889
O O8 0.710698 0.368808 0.569084
O O9 0.981081 0.580987 0.326745
O O10 0.919671 0.890599 0.945987
O O11 0.851713 0.624008 0.653839
O O12 0.886273 0.220952 0.530366
O O13 0.000000 0.000000 0.500000
O O14 0.041940 0.889617 0.741422
O O15 0.000000 0.500000 0.000000
#
# Coordination Sequence:
#
# PCOD8004462 Si02
#       7
#     2   2   2   2   2   2   2
#     4  11  23  42  58  92 129 155 201 248 317 369
#     4  12  26  37  60  91 129 177 197 241 291 360
#     4  11  22  38  64  89 128 164 215 244 286 350
#     4  11  24  40  60  88 129 168 216 237 283 351
#     4  10  20  38  59  83 125 159 196 252 299 356
#     4  11  23  40  70  92 113 148 203 262 319 364
#     4  10  22  40  65  92 122 154 209 261 295 351
#
# _framework density 20.773962000000001
#
# number of rings (size 3 to 8) (size 9 to 14) (size 15 to 20)
#    0.000    1.143    4.286    3.429    6.000    1.143 
#    0.000    0.000    0.000    5.143    0.000    0.000 
#    0.000    0.000    0.000    0.000    0.000    0.000 
#
# Total GULP energy -173481.299649 kJ/mol
# GULP energy per Si atom -12391.521404 kJ/mol
# Density = 2.072668 g / cm^3
# Si number density = 20.773962 Si / 1000 Ang^3
#
#
#
# Elastic Constant Matrix: (Units=GPa)
#
#
# Indices 1 2 3 4 5 6 
#
# 1 122.3771 48.9486 56.4558 -3.9251 -6.1454 3.7929
# 2 48.9486 89.7304 47.3502 -19.6232 -12.9040 8.0632
# 3 56.4558 47.3502 107.3578 -26.3636 -3.2873 -3.1921
# 4 -3.9251 -19.6232 -26.3636 39.2511 8.5046 -1.7614
# 5 -6.1454 -12.9040 -3.2873 8.5046 47.2768 -8.6441
# 6 3.7929 8.0632 -3.1921 -1.7614 -8.6441 13.6509
#
#
#
# Elastic Compliance Matrix: (Units=1/GPa)
#
#
# Indices 1 2 3 4 5 6 
#
# 1 0.012734 -0.004629 -0.006019 -0.005299 0.000449 -0.002610
# 2 -0.004629 0.018185 -0.004630 0.004783 0.001544 -0.008943
# 3 -0.006019 -0.004630 0.016996 0.009088 -0.000851 0.009016
# 4 -0.005299 0.004783 0.009088 0.034530 -0.004532 0.002358
# 5 0.000449 0.001544 -0.000851 -0.004532 0.024943 0.013974
# 6 -0.002610 -0.008943 0.009016 0.002358 0.013974 0.090524
#
#
# Mechanical properties :
#
#
# Convention : Reuss Voigt Hill
#
# Bulk Modulus (GPa) = 57.61591 69.44160 63.52876
# Shear Modulus (GPa) = 21.34432 31.14980 26.24706
#
# Velocity S-wave (km/s) = 3.20887 3.87649 3.55837
# Velocity P-wave (km/s) = 6.44391 7.31683 6.89420
#
# Compressibility (1/GPa) = 0.01735632
#
# Stress axis : x y z
#
# Youngs Moduli (GPa) = 78.53269 54.99106 58.83832
#
# Poissons Ratio (x) = 0.25458 0.35417
# Poissons Ratio (y) = 0.36357 0.27243
# Poissons Ratio (z) = 0.47271 0.25461
#
# Static dielectric constant tensor:
#      x y z
#    x 3.925590 0.076590 0.219140 
#    y 0.076590 4.243460 -1.285210 
#    z 0.219140 -1.285210 5.263710 
# 
# 
# High freq. dielectric constant tensor:
#      x y z
#    x 1.817890 0.015150 0.012030 
#    y 0.015150 1.782100 -0.045820 
#    z 0.012030 -0.045820 1.813680 
# 
# From -- ./inp_files/408980.got.cif
#   From: 2010.06.25/outbox.cif.g09.slc.cpg/sg2_205_cif.got.tgz:408980.got - 2010.06.27 13:26:56.
