data_PCOD8004375
_publ_section_title
;
Structure prediction by ZEFSAII (Michael W. Deem and Ramdas Pophale) SiO2 
 PCOD8004375
Probable space group: P -1
;
_chemical_formula_sum "Si O2"
_cell_formula_units_Z 12
_cell_length_a 7.443019
_cell_length_b 12.244273
_cell_length_c 16.882869
_cell_angle_alpha 28.549263
_cell_angle_beta 114.437419
_cell_angle_gamma 98.145021
_cell_volume 576.010040
_symmetry_space_group_name_H-M "P -1"
_symmetry_group_IT_number 2
_symmetry_cell_setting 'triclinic'
loop_
_space_group_symop_operation_xyz
x,y,z
-x,-y,-z
loop_
_atom_site_type_symbol
_atom_site_label
_atom_site_fract_x
_atom_site_fract_y
_atom_site_fract_z
Si Si1 0.832736 0.313095 0.409898
Si Si2 0.278441 0.339271 0.973944
Si Si3 0.662847 0.860507 0.434617
Si Si4 0.894453 0.861412 0.621855
Si Si5 0.604370 0.447712 0.445760
Si Si6 0.794309 0.087303 0.847362
O O1 0.674138 0.510384 0.184853
O O2 0.732730 0.445644 0.391191
O O3 0.086580 0.269444 0.476436
O O4 0.826223 0.035454 0.579503
O O5 0.088856 0.551881 0.865781
O O6 0.508766 0.153863 0.182670
O O7 0.174403 0.174902 0.020227
O O8 0.680549 0.884249 0.518288
O O9 0.558763 0.675702 0.516148
O O10 0.000000 0.000000 0.500000
O O11 0.792168 0.280858 0.654216
O O12 0.446394 0.752643 0.250471
O O13 0.000000 0.000000 0.000000
#
# Coordination Sequence:
#
# PCOD8004375 Si02
#       6
#     2   2   2   2   2   2
#     4  10  21  35  54  82 108 136 177 217 258 312
#     4   9  18  34  56  78 104 143 177 209 264 313
#     4   9  18  36  54  76 112 141 169 215 261 309
#     4   8  17  32  53  79 109 138 171 214 259 308
#     4  10  22  37  55  80 106 138 177 217 266 310
#     4  10  20  38  57  75 107 141 174 221 265 309
#
# _framework density 20.832972000000002
#
# number of rings (size 3 to 8) (size 9 to 14) (size 15 to 20)
#    0.000    3.000    0.000    2.000    0.000    8.667 
#    0.000   15.000    0.000    0.000    0.000    1.167 
#    0.000    0.000    0.000    0.000    0.000    0.000 
#
# Total GULP energy -148697.470394 kJ/mol
# GULP energy per Si atom -12391.455866 kJ/mol
# Density = 2.078556 g / cm^3
# Si number density = 20.832972 Si / 1000 Ang^3
#
#
#
# Elastic Constant Matrix: (Units=GPa)
#
#
# Indices 1 2 3 4 5 6 
#
# 1 37.5070 -1.1095 12.2988 9.8637 5.2736 -1.4594
# 2 -1.1095 29.9796 -0.5763 0.1513 4.6230 -0.6520
# 3 12.2988 -0.5763 96.6776 -1.0752 10.6296 -0.5578
# 4 9.8637 0.1513 -1.0752 43.3388 6.2061 1.5091
# 5 5.2736 4.6230 10.6296 6.2061 13.8262 1.6318
# 6 -1.4594 -0.6520 -0.5578 1.5091 1.6318 34.4641
#
#
#
# Elastic Compliance Matrix: (Units=1/GPa)
#
#
# Indices 1 2 3 4 5 6 
#
# 1 0.030455 0.002303 -0.003087 -0.006002 -0.007543 0.001903
# 2 0.002303 0.035792 0.001583 0.001473 -0.014894 0.001441
# 3 -0.003087 0.001583 0.011824 0.002342 -0.009545 0.000440
# 4 -0.006002 0.001473 0.002342 0.026191 -0.011667 -0.000783
# 5 -0.007543 -0.014894 -0.009545 -0.011667 0.093309 -0.004663
# 6 0.001903 0.001441 0.000440 -0.000783 -0.004663 0.029386
#
#
# Mechanical properties :
#
#
# Convention : Reuss Voigt Hill
#
# Bulk Modulus (GPa) = 12.55207 20.59890 16.57549
# Shear Modulus (GPa) = 19.84785 28.56257 24.20521
#
# Velocity S-wave (km/s) = 3.08995 3.70676 3.41232
# Velocity P-wave (km/s) = 4.33227 5.31311 4.84756
#
# Compressibility (1/GPa) = 0.07966810
#
# Stress axis : x y z
#
# Youngs Moduli (GPa) = 32.83509 27.93897 84.57476
#
# Poissons Ratio (x) = -0.06433 0.26108
# Poissons Ratio (y) = -0.07561 -0.13386
# Poissons Ratio (z) = 0.10136 -0.04422
#
# Static dielectric constant tensor:
#      x y z
#    x 3.192670 -0.058430 0.125140 
#    y -0.058430 4.587370 -0.251600 
#    z 0.125140 -0.251600 4.140650 
# 
# 
# High freq. dielectric constant tensor:
#      x y z
#    x 1.763780 0.006620 0.010750 
#    y 0.006620 1.832670 -0.010130 
#    z 0.010750 -0.010130 1.827220 
# 
# From -- ./inp_files/176985.got.cif
#   From: 2010.06.25/outbox.cif.g09.slc.cpg/sg2_89_cif.got.tgz:176985.got - 2010.06.27 13:26:56.
