data_PCOD8004614
_publ_section_title
;
Structure prediction by ZEFSAII (Michael W. Deem and Ramdas Pophale) SiO2 
 PCOD8004614
Probable space group: P -1
;
_chemical_formula_sum "Si O2"
_cell_formula_units_Z 14
_cell_length_a 11.712030
_cell_length_b 15.191767
_cell_length_c 8.732791
_cell_angle_alpha 133.120873
_cell_angle_beta 143.118687
_cell_angle_gamma 46.063241
_cell_volume 641.131476
_symmetry_space_group_name_H-M "P -1"
_symmetry_group_IT_number 2
_symmetry_cell_setting 'triclinic'
loop_
_space_group_symop_operation_xyz
x,y,z
-x,-y,-z
loop_
_atom_site_type_symbol
_atom_site_label
_atom_site_fract_x
_atom_site_fract_y
_atom_site_fract_z
Si Si1 0.300736 0.710799 0.536534
Si Si2 0.699669 0.166028 0.640646
Si Si3 0.265827 0.448442 0.182856
Si Si4 0.924476 0.033806 0.287286
Si Si5 0.041410 0.685568 0.775862
Si Si6 0.930869 0.509002 0.680627
Si Si7 0.351766 0.094563 0.332870
O O1 0.322345 0.789171 0.504435
O O2 0.207978 0.600936 0.270687
O O3 0.520362 0.637274 0.756562
O O4 0.168194 0.811536 0.640851
O O5 0.486233 0.162223 0.464681
O O6 0.876999 0.025856 0.676996
O O7 0.774091 0.262327 0.937284
O O8 0.258105 0.422279 0.327048
O O9 0.099717 0.415667 0.864486
O O10 0.000000 0.000000 0.500000
O O11 0.748910 0.977013 0.981089
O O12 0.003403 0.614768 0.802404
O O13 0.829224 0.797700 0.644586
O O14 0.121677 0.584180 0.605823
O O15 0.500000 0.000000 0.500000
#
# Coordination Sequence:
#
# PCOD8004614 Si02
#       7
#     2   2   2   2   2   2   2
#     4  10  20  38  60  92 120 158 202 256 305 363
#     4  10  21  43  63  87 127 164 200 254 312 371
#     4  10  21  36  63  91 124 152 211 256 297 359
#     4   9  22  41  64  90 123 161 205 253 314 368
#     4  10  22  42  64  88 129 163 203 247 318 372
#     4  10  21  40  60  92 120 168 198 253 309 365
#     4  11  25  40  63  94 122 161 212 258 304 373
#
# _framework density 21.836393999999999
#
# number of rings (size 3 to 8) (size 9 to 14) (size 15 to 20)
#    0.000    2.000    1.429    0.857    2.000    6.857 
#    5.143    2.143    0.000    0.000    0.000    0.000 
#    0.000    0.000    0.000    0.000    0.000    0.000 
#
# Total GULP energy -173488.321347 kJ/mol
# GULP energy per Si atom -12392.022953 kJ/mol
# Density = 2.178669 g / cm^3
# Si number density = 21.836394 Si / 1000 Ang^3
#
#
#
# Elastic Constant Matrix: (Units=GPa)
#
#
# Indices 1 2 3 4 5 6 
#
# 1 35.5668 6.6857 9.8824 -0.4293 2.1008 7.1914
# 2 6.6857 85.8715 26.0291 5.5259 -4.9285 -9.8198
# 3 9.8824 26.0291 102.6544 -6.7128 5.1955 -4.1033
# 4 -0.4293 5.5259 -6.7128 22.6085 0.0908 -2.3107
# 5 2.1008 -4.9285 5.1955 0.0908 31.7376 -2.7650
# 6 7.1914 -9.8198 -4.1033 -2.3107 -2.7650 33.1039
#
#
#
# Elastic Compliance Matrix: (Units=1/GPa)
#
#
# Indices 1 2 3 4 5 6 
#
# 1 0.031133 -0.002734 -0.002508 -0.000306 -0.002783 -0.008139
# 2 -0.002734 0.013861 -0.003513 -0.004060 0.003291 0.004262
# 3 -0.002508 -0.003513 0.011303 0.004280 -0.002153 0.001023
# 4 -0.000306 -0.004060 0.004280 0.046755 -0.001222 0.002554
# 5 -0.002783 0.003291 -0.002153 -0.001222 0.032906 0.003977
# 6 -0.008139 0.004262 0.001023 0.002554 0.003977 0.033877
#
#
# Mechanical properties :
#
#
# Convention : Reuss Voigt Hill
#
# Bulk Modulus (GPa) = 25.78258 34.36524 30.07391
# Shear Modulus (GPa) = 24.96557 29.58972 27.27764
#
# Velocity S-wave (km/s) = 3.38494 3.68511 3.53821
# Velocity P-wave (km/s) = 5.20672 5.82052 5.52216
#
# Compressibility (1/GPa) = 0.03878588
#
# Stress axis : x y z
#
# Youngs Moduli (GPa) = 32.11981 72.14699 88.46882
#
# Poissons Ratio (x) = 0.19728 0.22191
# Poissons Ratio (y) = 0.08783 0.31079
# Poissons Ratio (z) = 0.08057 0.25345
#
# Static dielectric constant tensor:
#      x y z
#    x 3.876100 -0.256680 0.037850 
#    y -0.256680 4.247890 0.054750 
#    z 0.037850 0.054750 3.846630 
# 
# 
# High freq. dielectric constant tensor:
#      x y z
#    x 1.845720 -0.009240 0.002550 
#    y -0.009240 1.862660 -0.002760 
#    z 0.002550 -0.002760 1.860250 
# 
# From -- ./inp_files/235175.got.cif
#   From: 2010.06.25/outbox.cif.g09.slc.cpg/sg2_118_cif.got.tgz:235175.got - 2010.06.27 13:26:56.
