data_PCOD8004485
_publ_section_title
;
Structure prediction by ZEFSAII (Michael W. Deem and Ramdas Pophale) SiO2 
 PCOD8004485
Probable space group: P -1
;
_chemical_formula_sum "Si O2"
_cell_formula_units_Z 16
_cell_length_a 16.929105
_cell_length_b 25.769907
_cell_length_c 11.282353
_cell_angle_alpha 31.247926
_cell_angle_beta 40.449659
_cell_angle_gamma 19.072553
_cell_volume 801.576064
_symmetry_space_group_name_H-M "P -1"
_symmetry_group_IT_number 2
_symmetry_cell_setting 'triclinic'
loop_
_space_group_symop_operation_xyz
x,y,z
-x,-y,-z
loop_
_atom_site_type_symbol
_atom_site_label
_atom_site_fract_x
_atom_site_fract_y
_atom_site_fract_z
Si Si1 0.467448 0.920591 0.025866
Si Si2 0.728375 0.915592 0.419753
Si Si3 0.420948 0.171311 0.477198
Si Si4 0.088714 0.089720 0.978567
Si Si5 0.571046 0.163682 0.545335
Si Si6 0.931082 0.094840 0.520429
Si Si7 0.446706 0.457430 0.243331
Si Si8 0.020787 0.527126 0.792251
O O1 0.479211 0.901097 0.193212
O O2 0.712618 0.694736 0.129684
O O3 0.230093 0.021451 0.069369
O O4 0.409325 0.072367 0.748258
O O5 0.986664 0.670764 0.573956
O O6 0.500000 0.000000 0.500000
O O7 0.686524 0.986760 0.461491
O O8 0.731496 0.007864 0.146613
O O9 0.423328 0.254792 0.412165
O O10 0.189988 0.358217 0.286173
O O11 0.047990 0.999963 0.210512
O O12 0.823358 0.336325 0.792070
O O13 0.461495 0.337492 0.400937
O O14 0.869121 0.961015 0.571112
O O15 0.642557 0.336968 0.362910
O O16 0.000000 0.000000 0.500000
O O17 0.500000 0.500000 0.000000
O O18 0.000000 0.500000 0.000000
#
# Coordination Sequence:
#
# PCOD8004485 Si02
#       8
#     2   2   2   2   2   2   2   2
#     4  12  21  38  62  92 122 159 199 249 305 367
#     4  10  20  38  61  84 119 157 198 248 288 355
#     4  11  24  42  56  89 132 159 193 250 313 357
#     4  12  20  37  65  90 114 156 211 254 289 348
#     4  11  23  40  60  90 127 160 195 251 310 367
#     4  10  20  38  59  87 116 155 202 251 297 351
#     4  11  20  38  62  90 117 157 206 250 298 349
#     4  11  21  39  62  88 119 160 210 241 296 361
#
# _framework density 19.960674999999998
#
# number of rings (size 3 to 8) (size 9 to 14) (size 15 to 20)
#    0.000    1.000    8.750    1.875    0.000    0.500 
#    4.500    0.625    0.000    0.750    0.000    0.000 
#    0.000    0.000    0.000    0.000    0.000    0.000 
#
# Total GULP energy -198215.318556 kJ/mol
# GULP energy per Si atom -12388.457410 kJ/mol
# Density = 1.991524 g / cm^3
# Si number density = 19.960675 Si / 1000 Ang^3
#
#
#
# Elastic Constant Matrix: (Units=GPa)
#
#
# Indices 1 2 3 4 5 6 
#
# 1 72.4939 35.8232 37.2954 1.4164 24.2268 -1.9573
# 2 35.8232 108.8738 46.5812 4.1971 10.7898 -15.3157
# 3 37.2954 46.5812 121.1323 19.0342 16.0582 -2.5514
# 4 1.4164 4.1971 19.0342 48.4268 -0.2202 11.8427
# 5 24.2268 10.7898 16.0582 -0.2202 25.8164 -0.4532
# 6 -1.9573 -15.3157 -2.5514 11.8427 -0.4532 16.7879
#
#
#
# Elastic Compliance Matrix: (Units=1/GPa)
#
#
# Indices 1 2 3 4 5 6 
#
# 1 0.024189 -0.005439 -0.003349 0.002135 -0.018407 -0.004653
# 2 -0.005439 0.014362 -0.003195 -0.003339 0.001312 0.014374
# 3 -0.003349 -0.003195 0.011643 -0.004617 -0.002774 0.001646
# 4 0.002135 -0.003339 -0.004617 0.028451 0.002094 -0.023513
# 5 -0.018407 0.001312 -0.002774 0.002094 0.057180 -0.001304
# 6 -0.004653 0.014374 0.001646 -0.023513 -0.001304 0.088939
#
#
# Mechanical properties :
#
#
# Convention : Reuss Voigt Hill
#
# Bulk Modulus (GPa) = 38.12707 60.21106 49.16907
# Shear Modulus (GPa) = 19.41950 30.39288 24.90619
#
# Velocity S-wave (km/s) = 3.12250 3.90633 3.53620
# Velocity P-wave (km/s) = 5.66944 7.11170 6.43113
#
# Compressibility (1/GPa) = 0.02622808
#
# Stress axis : x y z
#
# Youngs Moduli (GPa) = 41.34126 69.62776 85.88716
#
# Poissons Ratio (x) = 0.37868 0.28767
# Poissons Ratio (y) = 0.22484 0.27441
# Poissons Ratio (z) = 0.13847 0.22246
#
# Static dielectric constant tensor:
#      x y z
#    x 3.558610 -0.107230 0.242230 
#    y -0.107230 4.023880 -0.048570 
#    z 0.242230 -0.048570 4.047560 
# 
# 
# High freq. dielectric constant tensor:
#      x y z
#    x 1.735540 -0.008190 0.019880 
#    y -0.008190 1.785150 0.011960 
#    z 0.019880 0.011960 1.792190 
# 
# From -- ./inp_files/467638.got.cif
#   From: 2010.06.25/outbox.cif.g09.slc.cpg/sg2_234_cif.got.tgz:467638.got - 2010.06.27 13:26:56.
