data_PCOD8004477
_publ_section_title
;
Structure prediction by ZEFSAII (Michael W. Deem and Ramdas Pophale) SiO2 
 PCOD8004477
Probable space group: P -1
;
_chemical_formula_sum "Si O2"
_cell_formula_units_Z 16
_cell_length_a 13.983884
_cell_length_b 8.335043
_cell_length_c 17.941586
_cell_angle_alpha 103.202332
_cell_angle_beta 158.213423
_cell_angle_gamma 74.776668
_cell_volume 748.219738
_symmetry_space_group_name_H-M "P -1"
_symmetry_group_IT_number 2
_symmetry_cell_setting 'triclinic'
loop_
_space_group_symop_operation_xyz
x,y,z
-x,-y,-z
loop_
_atom_site_type_symbol
_atom_site_label
_atom_site_fract_x
_atom_site_fract_y
_atom_site_fract_z
Si Si1 0.067542 0.312136 0.365653
Si Si2 0.231352 0.720563 0.294284
Si Si3 0.297473 0.943581 0.496376
Si Si4 0.129645 0.136339 0.710799
Si Si5 0.829077 0.611825 0.710971
Si Si6 0.145770 0.589690 0.554126
Si Si7 0.377385 0.767417 0.855943
Si Si8 0.107673 0.169167 0.080300
O O1 0.003417 0.358108 0.238028
O O2 0.212250 0.461293 0.520497
O O3 0.799107 0.292691 0.211575
O O4 0.267386 0.142740 0.498805
O O5 0.220168 0.891006 0.351572
O O6 0.527616 0.668541 0.477252
O O7 0.133970 0.581720 0.261730
O O8 0.044286 0.741786 0.090076
O O9 0.587287 0.867155 0.721245
O O10 0.115820 0.867932 0.414969
O O11 0.036532 0.239571 0.581130
O O12 0.267652 0.954008 0.769662
O O13 0.329727 0.242353 0.906454
O O14 0.933375 0.713618 0.864867
O O15 0.392579 0.647637 0.781502
O O16 0.000000 0.500000 0.500000
O O17 0.000000 0.000000 0.000000
#
# Coordination Sequence:
#
# PCOD8004477 Si02
#       8
#     2   2   2   2   2   2   2   2
#     4  10  20  38  59  85 119 154 192 239 290 340
#     4  10  21  39  61  87 118 152 191 236 290 344
#     4  10  22  39  59  84 117 154 194 238 285 342
#     4  10  20  40  62  85 116 153 195 239 287 341
#     4  10  21  39  61  87 120 151 188 241 288 342
#     4  10  21  37  58  86 118 151 191 241 290 339
#     4   9  21  39  62  85 114 154 195 239 289 342
#     4  11  22  38  61  87 117 153 192 236 289 347
#
# _framework density 21.384093
#
# number of rings (size 3 to 8) (size 9 to 14) (size 15 to 20)
#    0.000    2.000    0.000    3.000    0.000    5.000 
#    0.000   22.500    0.000    0.000    0.000    0.000 
#    0.000    0.000    0.000    0.000    0.000    0.000 
#
# Total GULP energy -198385.269287 kJ/mol
# GULP energy per Si atom -12399.079330 kJ/mol
# Density = 2.133542 g / cm^3
# Si number density = 21.384093 Si / 1000 Ang^3
#
#
#
# Elastic Constant Matrix: (Units=GPa)
#
#
# Indices 1 2 3 4 5 6 
#
# 1 90.2156 47.8123 49.7214 -2.1084 -18.9967 8.9002
# 2 47.8123 83.1600 38.8132 17.4117 -11.1120 6.1355
# 3 49.7214 38.8132 130.4513 16.8862 -24.2960 -0.2604
# 4 -2.1084 17.4117 16.8862 33.3674 2.7557 -10.3681
# 5 -18.9967 -11.1120 -24.2960 2.7557 28.1673 2.2560
# 6 8.9002 6.1355 -0.2604 -10.3681 2.2560 37.7459
#
#
#
# Elastic Compliance Matrix: (Units=1/GPa)
#
#
# Indices 1 2 3 4 5 6 
#
# 1 0.020859 -0.010779 -0.004995 0.008743 0.004739 -0.001083
# 2 -0.010779 0.021951 -0.000049 -0.013934 0.003115 -0.005040
# 3 -0.004995 -0.000049 0.011983 -0.007375 0.007768 -0.001222
# 4 0.008743 -0.013934 -0.007375 0.046738 -0.011631 0.013686
# 5 0.004739 0.003115 0.007768 -0.011631 0.048378 -0.007656
# 6 -0.001083 -0.005040 -0.001222 0.013686 -0.007656 0.031776
#
#
# Mechanical properties :
#
#
# Convention : Reuss Voigt Hill
#
# Bulk Modulus (GPa) = 43.20105 64.05786 53.62946
# Shear Modulus (GPa) = 22.61980 31.02144 26.82062
#
# Velocity S-wave (km/s) = 3.25589 3.81291 3.54536
# Velocity P-wave (km/s) = 5.86351 7.02889 6.47248
#
# Compressibility (1/GPa) = 0.02314758
#
# Stress axis : x y z
#
# Youngs Moduli (GPa) = 47.94143 45.55687 83.45249
#
# Poissons Ratio (x) = 0.49106 0.41680
# Poissons Ratio (y) = 0.51676 0.00408
# Poissons Ratio (z) = 0.23944 0.00223
#
# Static dielectric constant tensor:
#      x y z
#    x 3.850920 -0.101510 -0.280950 
#    y -0.101510 4.282840 0.319780 
#    z -0.280950 0.319780 4.067840 
# 
# 
# High freq. dielectric constant tensor:
#      x y z
#    x 1.832490 0.005400 -0.013410 
#    y 0.005400 1.858870 0.013180 
#    z -0.013410 0.013180 1.832610 
# 
# From -- ./inp_files/572698.got.cif
#   From: 2010.06.25/outbox.cif.g09.slc.cpg/sg2_287_cif.got.tgz:572698.got - 2010.06.27 13:26:56.
