data_PCOD8004261
_publ_section_title
;
Structure prediction by ZEFSAII (Michael W. Deem and Ramdas Pophale) SiO2 
 PCOD8004261
Probable space group: P -1
;
_chemical_formula_sum "Si O2"
_cell_formula_units_Z 16
_cell_length_a 15.301937
_cell_length_b 12.942230
_cell_length_c 9.058550
_cell_angle_alpha 49.994228
_cell_angle_beta 71.929594
_cell_angle_gamma 37.392440
_cell_volume 752.918899
_symmetry_space_group_name_H-M "P -1"
_symmetry_group_IT_number 2
_symmetry_cell_setting 'triclinic'
loop_
_space_group_symop_operation_xyz
x,y,z
-x,-y,-z
loop_
_atom_site_type_symbol
_atom_site_label
_atom_site_fract_x
_atom_site_fract_y
_atom_site_fract_z
Si Si1 0.152082 0.036838 0.003139
Si Si2 0.449347 0.302887 0.423250
Si Si3 0.008066 0.000776 0.317563
Si Si4 0.735845 0.799252 0.164436
Si Si5 0.531253 0.433195 0.873851
Si Si6 0.316217 0.475067 0.017457
Si Si7 0.108820 0.637307 0.405317
Si Si8 0.401458 0.124591 0.139924
O O1 0.197262 0.130499 0.953756
O O2 0.988694 0.236454 0.811760
O O3 0.137992 0.951367 0.228952
O O4 0.285904 0.823989 0.015876
O O5 0.511317 0.378300 0.364819
O O6 0.289206 0.469543 0.444800
O O7 0.587655 0.031786 0.640301
O O8 0.420750 0.325337 0.244411
O O9 0.844020 0.255670 0.105744
O O10 0.000000 0.000000 0.500000
O O11 0.032781 0.821726 0.403550
O O12 0.880258 0.532634 0.395136
O O13 0.576884 0.985012 0.178362
O O14 0.678871 0.801762 0.040970
O O15 0.415004 0.450381 0.871413
O O16 0.500000 0.500000 0.000000
O O17 0.282618 0.369321 0.061336
#
# Coordination Sequence:
#
# PCOD8004261 Si02
#       8
#     2   2   2   2   2   2   2   2
#     4  12  22  44  68  95 131 173 220 262 322 388
#     4  10  20  37  66  95 122 171 213 261 324 379
#     4  12  26  42  66  97 135 174 213 264 330 387
#     4  10  23  40  63  95 125 172 215 266 325 381
#     4  10  21  37  64 100 125 157 216 271 312 372
#     4  11  21  41  62  95 129 165 217 265 317 382
#     4  11  21  42  68  94 129 170 216 263 322 390
#     4  10  21  40  61  90 135 164 212 268 324 380
#
# _framework density 21.250629
#
# number of rings (size 3 to 8) (size 9 to 14) (size 15 to 20)
#    0.000    1.250    3.750    3.375    0.000    1.000 
#    0.000    5.000    0.000    0.000    0.000    0.000 
#    0.000    0.000    0.000    0.000    0.000    0.000 
#
# Total GULP energy -198327.194849 kJ/mol
# GULP energy per Si atom -12395.449678 kJ/mol
# Density = 2.120226 g / cm^3
# Si number density = 21.250629 Si / 1000 Ang^3
#
#
#
# Elastic Constant Matrix: (Units=GPa)
#
#
# Indices 1 2 3 4 5 6 
#
# 1 52.1961 29.7288 34.9292 -5.7594 -15.4701 7.2896
# 2 29.7288 98.8772 39.4895 -6.4658 -13.3381 9.2267
# 3 34.9292 39.4895 95.2919 -3.5059 -22.3179 4.6180
# 4 -5.7594 -6.4658 -3.5059 33.2598 7.7266 -5.4788
# 5 -15.4701 -13.3381 -22.3179 7.7266 33.3114 -0.7989
# 6 7.2896 9.2267 4.6180 -5.4788 -0.7989 31.2409
#
#
#
# Elastic Compliance Matrix: (Units=1/GPa)
#
#
# Indices 1 2 3 4 5 6 
#
# 1 0.029110 -0.004624 -0.006963 0.001207 0.006626 -0.004016
# 2 -0.004624 0.013246 -0.003534 0.000929 0.000522 -0.002134
# 3 -0.006963 -0.003534 0.015946 -0.001675 0.006427 0.000182
# 4 0.001207 0.000929 -0.001675 0.032937 -0.007703 0.005271
# 5 0.006626 0.000522 0.006427 -0.007703 0.039327 -0.002996
# 6 -0.004016 -0.002134 0.000182 0.005271 -0.002996 0.034398
#
#
# Mechanical properties :
#
#
# Convention : Reuss Voigt Hill
#
# Bulk Modulus (GPa) = 35.63972 50.51781 43.07876
# Shear Modulus (GPa) = 24.44288 29.04360 26.74324
#
# Velocity S-wave (km/s) = 3.39517 3.70092 3.55134
# Velocity P-wave (km/s) = 5.67249 6.48741 6.09358
#
# Compressibility (1/GPa) = 0.02805858
#
# Stress axis : x y z
#
# Youngs Moduli (GPa) = 34.35289 75.49654 62.71178
#
# Poissons Ratio (x) = 0.34908 0.43667
# Poissons Ratio (y) = 0.15884 0.22165
# Poissons Ratio (z) = 0.23920 0.26684
#
# Static dielectric constant tensor:
#      x y z
#    x 3.975900 -0.053790 -0.477920 
#    y -0.053790 3.821410 -0.128510 
#    z -0.477920 -0.128510 4.066360 
# 
# 
# High freq. dielectric constant tensor:
#      x y z
#    x 1.822310 0.008750 -0.022550 
#    y 0.008750 1.833560 -0.010280 
#    z -0.022550 -0.010280 1.837780 
# 
# From -- ./inp_files/277745.got.cif
#   From: 2010.06.25/outbox.cif.g09.slc.cpg/sg2_139_cif.got.tgz:277745.got - 2010.06.27 13:26:56.
