data_PCOD8004738
_publ_section_title
;
Structure prediction by ZEFSAII (Michael W. Deem and Ramdas Pophale) SiO2 
 PCOD8004738
Probable space group: P -1
;
_chemical_formula_sum "Si O2"
_cell_formula_units_Z 14
_cell_length_a 11.574166
_cell_length_b 11.379463
_cell_length_c 14.408260
_cell_angle_alpha 68.337350
_cell_angle_beta 143.983396
_cell_angle_gamma 135.757533
_cell_volume 668.461933
_symmetry_space_group_name_H-M "P -1"
_symmetry_group_IT_number 2
_symmetry_cell_setting 'triclinic'
loop_
_space_group_symop_operation_xyz
x,y,z
-x,-y,-z
loop_
_atom_site_type_symbol
_atom_site_label
_atom_site_fract_x
_atom_site_fract_y
_atom_site_fract_z
Si Si1 0.715732 0.296555 0.057433
Si Si2 0.711014 0.936934 0.802187
Si Si3 0.663954 0.886975 0.315315
Si Si4 0.443028 0.586427 0.642977
Si Si5 0.230794 0.462332 0.219261
Si Si6 0.271826 0.798019 0.711304
Si Si7 0.882462 0.644757 0.022271
O O1 0.442458 0.159151 0.847063
O O2 0.805395 0.486693 0.082351
O O3 0.601541 0.174926 0.112449
O O4 0.009144 0.362453 0.191966
O O5 0.561013 0.791200 0.658352
O O6 0.455948 0.806820 0.754253
O O7 0.000000 0.000000 0.000000
O O8 0.838950 0.142282 0.809379
O O9 0.456727 0.692759 0.298907
O O10 0.665358 0.025279 0.321843
O O11 0.000000 0.000000 0.500000
O O12 0.572145 0.572366 0.641085
O O13 0.581935 0.585128 0.826272
O O14 0.082376 0.409295 0.464137
O O15 0.024540 0.362497 0.018894
#
# Coordination Sequence:
#
# PCOD8004738 Si02
#       7
#     2   2   2   2   2   2   2
#     4  11  21  34  57  88 116 141 176 238 287 325
#     4  10  20  38  62  77 102 156 201 222 260 338
#     4  11  20  38  57  86 112 151 185 218 274 350
#     4   9  20  36  57  79 108 152 193 221 260 339
#     4   9  18  35  59  78 112 148 186 207 283 337
#     4  12  22  35  56  88 116 138 185 241 281 308
#     4   8  17  37  58  77 105 152 188 216 270 336
#
# _framework density 20.9436
#
# number of rings (size 3 to 8) (size 9 to 14) (size 15 to 20)
#    0.857    1.143    1.429    4.286    0.000    0.571 
#    0.000    3.571    0.000    0.000    0.000    0.000 
#    0.000    0.000    0.000    0.000    0.000    0.000 
#
# Total GULP energy -173475.910855 kJ/mol
# GULP energy per Si atom -12391.136490 kJ/mol
# Density = 2.089593 g / cm^3
# Si number density = 20.943600 Si / 1000 Ang^3
#
#
#
# Elastic Constant Matrix: (Units=GPa)
#
#
# Indices 1 2 3 4 5 6 
#
# 1 64.4634 24.9554 30.9865 -0.6228 17.9296 -15.4835
# 2 24.9554 60.5117 16.4791 15.9863 -4.3342 -28.6223
# 3 30.9865 16.4791 93.8471 18.8812 16.2739 -8.2381
# 4 -0.6228 15.9863 18.8812 30.7246 -6.7928 -13.7966
# 5 17.9296 -4.3342 16.2739 -6.7928 27.0798 6.4833
# 6 -15.4835 -28.6223 -8.2381 -13.7966 6.4833 30.1032
#
#
#
# Elastic Compliance Matrix: (Units=1/GPa)
#
#
# Indices 1 2 3 4 5 6 
#
# 1 0.030822 -0.007766 -0.006548 0.011802 -0.018607 0.016093
# 2 -0.007766 0.032850 -0.000711 -0.005283 0.003803 0.023805
# 3 -0.006548 -0.000711 0.016809 -0.013705 -0.008379 -0.003921
# 4 0.011802 -0.005283 -0.013705 0.055142 0.008440 0.020751
# 5 -0.018607 0.003803 -0.008379 0.008440 0.061214 -0.017563
# 6 0.016093 0.023805 -0.003921 0.020751 -0.017563 0.076350
#
#
# Mechanical properties :
#
#
# Convention : Reuss Voigt Hill
#
# Bulk Modulus (GPa) = 19.82976 40.40713 30.11845
# Shear Modulus (GPa) = 15.62270 27.34159 21.48215
#
# Velocity S-wave (km/s) = 2.73416 3.61707 3.20615
# Velocity P-wave (km/s) = 4.41092 6.06461 5.30263
#
# Compressibility (1/GPa) = 0.05042926
#
# Stress axis : x y z
#
# Youngs Moduli (GPa) = 32.44461 30.44152 59.49299
#
# Poissons Ratio (x) = 0.23642 0.38957
# Poissons Ratio (y) = 0.25198 0.04230
# Poissons Ratio (z) = 0.21245 0.02164
#
# Static dielectric constant tensor:
#      x y z
#    x 3.767770 -0.574040 0.002220 
#    y -0.574040 3.977470 0.354780 
#    z 0.002220 0.354780 3.790290 
# 
# 
# High freq. dielectric constant tensor:
#      x y z
#    x 1.801050 -0.038390 0.020430 
#    y -0.038390 1.809780 0.026670 
#    z 0.020430 0.026670 1.813270 
# 
# From -- ./inp_files/518917.got.cif
#   From: 2010.06.25/outbox.cif.g09.slc.cpg/sg2_260_cif.got.tgz:518917.got - 2010.06.27 13:26:56.
