data_PCOD8004240
_publ_section_title
;
Structure prediction by ZEFSAII (Michael W. Deem and Ramdas Pophale) SiO2 
 PCOD8004240
Probable space group: P -1
;
_chemical_formula_sum "Si O2"
_cell_formula_units_Z 16
_cell_length_a 9.324601
_cell_length_b 19.957428
_cell_length_c 20.817556
_cell_angle_alpha 159.700822
_cell_angle_beta 43.148553
_cell_angle_gamma 140.401549
_cell_volume 856.246677
_symmetry_space_group_name_H-M "P -1"
_symmetry_group_IT_number 2
_symmetry_cell_setting 'triclinic'
loop_
_space_group_symop_operation_xyz
x,y,z
-x,-y,-z
loop_
_atom_site_type_symbol
_atom_site_label
_atom_site_fract_x
_atom_site_fract_y
_atom_site_fract_z
Si Si1 0.271573 0.842728 0.460541
Si Si2 0.895136 0.029193 0.758643
Si Si3 0.593310 0.024414 0.740662
Si Si4 0.414320 0.411328 0.516900
Si Si5 0.222950 0.520969 0.907195
Si Si6 0.524617 0.283546 0.599595
Si Si7 0.081133 0.525809 0.815247
Si Si8 0.736895 0.391113 0.498126
O O1 0.309747 0.737763 0.419257
O O2 0.163362 0.653001 0.275734
O O3 0.122128 0.982674 0.646524
O O4 0.500000 0.000000 0.500000
O O5 0.695050 0.836110 0.681515
O O6 0.820412 0.042516 0.721481
O O7 0.929574 0.244920 0.977544
O O8 0.613095 0.942927 0.589395
O O9 0.363757 0.862742 0.703741
O O10 0.585190 0.251469 0.942767
O O11 0.500000 0.500000 0.500000
O O12 0.619185 0.480991 0.563105
O O13 0.233089 0.502427 0.685499
O O14 0.336142 0.368654 0.763848
O O15 0.172901 0.475000 0.806930
O O16 0.000000 0.500000 0.000000
O O17 0.671437 0.438661 0.634617
O O18 0.000000 0.500000 0.500000
#
# Coordination Sequence:
#
# PCOD8004240 Si02
#       8
#     2   2   2   2   2   2   2   2
#     4  11  25  37  58  87 125 163 195 244 313 358
#     4   9  20  41  59  83 118 157 200 249 292 353
#     4   8  20  39  62  84 115 152 209 247 285 359
#     4  10  20  37  66  88 116 156 201 247 304 355
#     4  11  22  38  67  88 114 161 207 249 300 350
#     4  10  22  40  58  89 124 150 204 249 293 366
#     4  10  22  42  59  87 121 154 206 253 288 367
#     4   9  19  38  61  84 120 156 192 248 303 348
#
# _framework density 18.686205000000001
#
# number of rings (size 3 to 8) (size 9 to 14) (size 15 to 20)
#    0.750    1.500    1.250    0.750    8.750    2.500 
#    0.000    0.625    0.000    0.000    0.000    0.000 
#    0.000    0.000    0.000    0.000    0.000    0.000 
#
# Total GULP energy -198254.662566 kJ/mol
# GULP energy per Si atom -12390.916410 kJ/mol
# Density = 1.864367 g / cm^3
# Si number density = 18.686205 Si / 1000 Ang^3
#
#
#
# Elastic Constant Matrix: (Units=GPa)
#
#
# Indices 1 2 3 4 5 6 
#
# 1 99.4931 37.0106 50.0236 5.0923 -8.9161 9.2626
# 2 37.0106 96.7095 36.1907 1.2166 2.7677 15.8244
# 3 50.0236 36.1907 124.7552 17.0090 2.4512 15.5945
# 4 5.0923 1.2166 17.0090 29.3279 2.7561 3.8561
# 5 -8.9161 2.7677 2.4512 2.7561 21.4835 -1.0659
# 6 9.2626 15.8244 15.5945 3.8561 -1.0659 33.2032
#
#
#
# Elastic Compliance Matrix: (Units=1/GPa)
#
#
# Indices 1 2 3 4 5 6 
#
# 1 0.014611 -0.004048 -0.004834 -0.000292 0.007194 0.000389
# 2 -0.004048 0.013466 -0.001919 0.002233 -0.003719 -0.004766
# 3 -0.004834 -0.001919 0.011606 -0.005223 -0.002545 -0.002663
# 4 -0.000292 0.002233 -0.005223 0.037945 -0.004835 -0.003092
# 5 0.007194 -0.003719 -0.002545 -0.004835 0.051079 0.003162
# 6 0.000389 -0.004766 -0.002663 -0.003092 0.003162 0.033992
#
#
# Mechanical properties :
#
#
# Convention : Reuss Voigt Hill
#
# Bulk Modulus (GPa) = 55.31082 63.04529 59.17805
# Shear Modulus (GPa) = 26.27044 29.98510 28.12777
#
# Velocity S-wave (km/s) = 3.75357 4.01017 3.88399
# Velocity P-wave (km/s) = 6.96059 7.43332 7.20083
#
# Compressibility (1/GPa) = 0.01807965
#
# Stress axis : x y z
#
# Youngs Moduli (GPa) = 68.44193 74.26256 86.16491
#
# Poissons Ratio (x) = 0.30064 0.41655
# Poissons Ratio (y) = 0.27707 0.16533
# Poissons Ratio (z) = 0.33087 0.14249
#
# Static dielectric constant tensor:
#      x y z
#    x 3.264170 -0.032680 0.006040 
#    y -0.032680 3.268970 0.224340 
#    z 0.006040 0.224340 3.462920 
# 
# 
# High freq. dielectric constant tensor:
#      x y z
#    x 1.728940 0.001940 0.001420 
#    y 0.001940 1.714300 0.013220 
#    z 0.001420 0.013220 1.717170 
# 
# From -- ./inp_files/332564.got.cif
#   From: 2010.06.25/outbox.cif.g09.slc.cpg/sg2_167_cif.got.tgz:332564.got - 2010.06.27 13:26:56.
