data_PCOD8004562
_publ_section_title
;
Structure prediction by ZEFSAII (Michael W. Deem and Ramdas Pophale) SiO2 
 PCOD8004562
Probable space group: P -1
;
_chemical_formula_sum "Si O2"
_cell_formula_units_Z 16
_cell_length_a 20.728324
_cell_length_b 8.038209
_cell_length_c 23.064627
_cell_angle_alpha 36.696045
_cell_angle_beta 19.438609
_cell_angle_gamma 43.779836
_cell_volume 752.928941
_symmetry_space_group_name_H-M "P -1"
_symmetry_group_IT_number 2
_symmetry_cell_setting 'triclinic'
loop_
_space_group_symop_operation_xyz
x,y,z
-x,-y,-z
loop_
_atom_site_type_symbol
_atom_site_label
_atom_site_fract_x
_atom_site_fract_y
_atom_site_fract_z
Si Si1 0.300297 0.286416 0.718431
Si Si2 0.949505 0.704876 0.595181
Si Si3 0.367895 0.707775 0.958877
Si Si4 0.366887 0.670188 0.833996
Si Si5 0.972967 0.364473 0.196660
Si Si6 0.219581 0.469376 0.510633
Si Si7 0.924950 0.921393 0.920773
Si Si8 0.795166 0.986937 0.549391
O O1 0.500000 0.500000 0.500000
O O2 0.175380 0.406677 0.739595
O O3 0.361797 0.991785 0.730089
O O4 0.159773 0.253881 0.902549
O O5 0.122010 0.525940 0.514670
O O6 0.928732 0.777089 0.524481
O O7 0.738207 0.556648 0.840289
O O8 0.000000 0.000000 0.500000
O O9 0.362420 0.623685 0.919406
O O10 0.583549 0.798398 0.775084
O O11 0.253857 0.969631 0.990995
O O12 0.558581 0.573319 0.672589
O O13 0.180348 0.478067 0.017692
O O14 0.987251 0.283406 0.140013
O O15 0.879238 0.078706 0.389391
O O16 0.209807 0.729489 0.488821
O O17 0.090151 0.187014 0.726360
#
# Coordination Sequence:
#
# PCOD8004562 Si02
#       8
#     2   2   2   2   2   2   2   2
#     4  11  23  41  63  87 118 155 194 244 298 351
#     4   9  19  37  60  86 119 158 197 243 294 347
#     4  10  20  38  60  86 122 159 197 244 292 345
#     4  11  23  39  59  88 120 157 198 243 293 350
#     4  12  23  39  62  89 120 157 197 241 293 353
#     4  10  21  40  62  87 121 156 196 245 295 351
#     4  10  21  40  61  86 117 155 195 242 295 351
#     4  11  21  38  61  89 119 157 198 244 295 348
#
# _framework density 21.250346
#
# number of rings (size 3 to 8) (size 9 to 14) (size 15 to 20)
#    0.000    1.500    0.000    7.875    0.000    0.000 
#    0.000   14.375    0.000    0.000    0.000    0.000 
#    0.000    0.000    0.000    0.000    0.000    0.000 
#
# Total GULP energy -198372.766594 kJ/mol
# GULP energy per Si atom -12398.297912 kJ/mol
# Density = 2.120198 g / cm^3
# Si number density = 21.250346 Si / 1000 Ang^3
#
#
#
# Elastic Constant Matrix: (Units=GPa)
#
#
# Indices 1 2 3 4 5 6 
#
# 1 79.0184 27.2507 39.0579 -2.3376 -8.5261 -18.1740
# 2 27.2507 63.3640 46.0722 7.8893 -3.0805 -7.6900
# 3 39.0579 46.0722 126.3279 -7.7600 -8.8842 -20.2831
# 4 -2.3376 7.8893 -7.7600 35.9581 -5.3762 -3.4797
# 5 -8.5261 -3.0805 -8.8842 -5.3762 40.9525 -1.4939
# 6 -18.1740 -7.6900 -20.2831 -3.4797 -1.4939 37.1567
#
#
#
# Elastic Compliance Matrix: (Units=1/GPa)
#
#
# Indices 1 2 3 4 5 6 
#
# 1 0.017543 -0.005596 -0.001843 0.003156 0.003496 0.006852
# 2 -0.005596 0.024947 -0.008545 -0.008334 -0.002350 -0.003114
# 3 -0.001843 -0.008545 0.012927 0.005429 0.002673 0.005002
# 4 0.003156 -0.008334 0.005429 0.032451 0.005689 0.006050
# 5 0.003496 -0.002350 0.002673 0.005689 0.026452 0.004279
# 6 0.006852 -0.003114 0.005002 0.006050 0.004279 0.033089
#
#
# Mechanical properties :
#
#
# Convention : Reuss Voigt Hill
#
# Bulk Modulus (GPa) = 42.64698 54.83022 48.73860
# Shear Modulus (GPa) = 26.71012 33.23543 29.97278
#
# Velocity S-wave (km/s) = 3.54916 3.95903 3.75968
# Velocity P-wave (km/s) = 6.07518 6.83788 6.46778
#
# Compressibility (1/GPa) = 0.02344832
#
# Stress axis : x y z
#
# Youngs Moduli (GPa) = 57.00379 40.08439 77.35802
#
# Poissons Ratio (x) = 0.22431 0.14258
# Poissons Ratio (y) = 0.31898 0.66106
# Poissons Ratio (z) = 0.10506 0.34254
#
# Static dielectric constant tensor:
#      x y z
#    x 2.769220 -0.180020 -0.945870 
#    y -0.180020 4.019750 0.064430 
#    z -0.945870 0.064430 3.207960 
# 
# 
# High freq. dielectric constant tensor:
#      x y z
#    x 1.829160 -0.016130 -0.007900 
#    y -0.016130 1.830450 -0.008550 
#    z -0.007900 -0.008550 1.848650 
# 
# From -- ./inp_files/217558.got.cif
#   From: 2010.06.25/outbox.cif.g09.slc.cpg/sg2_109_cif.got.tgz:217558.got - 2010.06.27 13:26:56.
