data_PCOD8004180
_publ_section_title
;
Structure prediction by ZEFSAII (Michael W. Deem and Ramdas Pophale) SiO2 
 PCOD8004180
Probable space group: P -1
;
_chemical_formula_sum "Si O2"
_cell_formula_units_Z 16
_cell_length_a 9.344027
_cell_length_b 11.738783
_cell_length_c 23.544788
_cell_angle_alpha 158.846544
_cell_angle_beta 56.084881
_cell_angle_gamma 122.454034
_cell_volume 772.264242
_symmetry_space_group_name_H-M "P -1"
_symmetry_group_IT_number 2
_symmetry_cell_setting 'triclinic'
loop_
_space_group_symop_operation_xyz
x,y,z
-x,-y,-z
loop_
_atom_site_type_symbol
_atom_site_label
_atom_site_fract_x
_atom_site_fract_y
_atom_site_fract_z
Si Si1 0.753501 0.616161 0.628867
Si Si2 0.953344 0.058897 0.208350
Si Si3 0.558873 0.524428 0.297182
Si Si4 0.413754 0.783321 0.344376
Si Si5 0.295738 0.392190 0.491841
Si Si6 0.867506 0.140774 0.638235
Si Si7 0.909163 0.440467 0.133091
Si Si8 0.786404 0.888751 0.272991
O O1 0.554704 0.641609 0.705318
O O2 0.751948 0.741221 0.622657
O O3 0.880148 0.816737 0.734848
O O4 0.818516 0.261354 0.452340
O O5 0.825646 0.317795 0.334547
O O6 0.850119 0.818127 0.162425
O O7 0.014980 0.876585 0.054871
O O8 0.429666 0.537917 0.278152
O O9 0.728220 0.339691 0.157836
O O10 0.628940 0.877160 0.462269
O O11 0.261456 0.665157 0.281566
O O12 0.585167 0.798882 0.276290
O O13 0.500000 0.500000 0.500000
O O14 0.244543 0.127965 0.427047
O O15 0.955742 0.401233 0.779962
O O16 0.000000 0.000000 0.500000
O O17 0.884940 0.691342 0.205301
#
# Coordination Sequence:
#
# PCOD8004180 Si02
#       8
#     2   2   2   2   2   2   2   2
#     4  10  20  37  65  85 117 157 210 243 296 356
#     4  11  22  37  59  89 125 157 196 258 302 353
#     4   9  18  35  59  87 113 155 198 254 290 345
#     4   9  18  34  60  85 111 147 209 250 279 345
#     4  11  24  42  64  92 122 161 201 248 303 360
#     4  12  23  37  65  89 118 163 209 239 293 369
#     4  11  22  36  58  92 125 153 202 252 306 351
#     4   9  18  37  61  85 112 157 204 247 293 356
#
# _framework density 20.718297
#
# number of rings (size 3 to 8) (size 9 to 14) (size 15 to 20)
#    0.000    1.750    1.250    6.375    1.750    0.500 
#    0.000    5.625    0.000    0.000    0.000    0.000 
#    0.000    0.000    0.000    0.000    0.000    0.000 
#
# Total GULP energy -198355.918420 kJ/mol
# GULP energy per Si atom -12397.244901 kJ/mol
# Density = 2.067114 g / cm^3
# Si number density = 20.718297 Si / 1000 Ang^3
#
#
#
# Elastic Constant Matrix: (Units=GPa)
#
#
# Indices 1 2 3 4 5 6 
#
# 1 144.5060 23.0191 53.6362 -14.5371 9.6514 -2.4688
# 2 23.0191 102.5421 35.3493 -21.0349 -3.7208 9.7625
# 3 53.6362 35.3493 84.5133 -33.4387 3.3352 8.4239
# 4 -14.5371 -21.0349 -33.4387 28.8314 1.8640 -8.1684
# 5 9.6514 -3.7208 3.3352 1.8640 19.3902 -1.2657
# 6 -2.4688 9.7625 8.4239 -8.1684 -1.2657 20.0279
#
#
#
# Elastic Compliance Matrix: (Units=1/GPa)
#
#
# Indices 1 2 3 4 5 6 
#
# 1 0.009673 -0.000706 -0.007147 -0.002814 -0.003242 0.003190
# 2 -0.000706 0.012104 -0.002702 0.004351 0.002530 -0.002916
# 3 -0.007147 -0.002702 0.028807 0.027976 -0.004642 -0.000564
# 4 -0.002814 0.004351 0.027976 0.073785 -0.008670 0.015311
# 5 -0.003242 0.002530 -0.004642 -0.008670 0.055322 0.000279
# 6 0.003190 -0.002916 -0.000564 0.015311 0.000279 0.058244
#
#
# Mechanical properties :
#
#
# Convention : Reuss Voigt Hill
#
# Bulk Modulus (GPa) = 33.92888 61.73009 47.82948
# Shear Modulus (GPa) = 18.59625 28.28700 23.44163
#
# Velocity S-wave (km/s) = 2.99921 3.69903 3.36735
# Velocity P-wave (km/s) = 5.32968 6.93566 6.18502
#
# Compressibility (1/GPa) = 0.02947341
#
# Stress axis : x y z
#
# Youngs Moduli (GPa) = 103.37595 82.61607 34.71399
#
# Poissons Ratio (x) = 0.05835 0.24810
# Poissons Ratio (y) = 0.07301 0.09380
# Poissons Ratio (z) = 0.73883 0.22324
#
# Static dielectric constant tensor:
#      x y z
#    x 3.921390 -0.036360 -0.094460 
#    y -0.036360 4.146050 -0.243150 
#    z -0.094460 -0.243150 3.410740 
# 
# 
# High freq. dielectric constant tensor:
#      x y z
#    x 1.818640 0.007300 -0.002320 
#    y 0.007300 1.826940 -0.022950 
#    z -0.002320 -0.022950 1.768480 
# 
# From -- ./inp_files/260403.got.cif
#   From: 2010.06.25/outbox.cif.g09.slc.cpg/sg2_131_cif.got.tgz:260403.got - 2010.06.27 13:26:56.
