data_PCOD8004724
_publ_section_title
;
Structure prediction by ZEFSAII (Michael W. Deem and Ramdas Pophale) SiO2 
 PCOD8004724
Probable space group: P -1
;
_chemical_formula_sum "Si O2"
_cell_formula_units_Z 14
_cell_length_a 21.570536
_cell_length_b 8.819498
_cell_length_c 11.320847
_cell_angle_alpha 139.803945
_cell_angle_beta 30.339846
_cell_angle_gamma 148.578643
_cell_volume 564.078988
_symmetry_space_group_name_H-M "P -1"
_symmetry_group_IT_number 2
_symmetry_cell_setting 'triclinic'
loop_
_space_group_symop_operation_xyz
x,y,z
-x,-y,-z
loop_
_atom_site_type_symbol
_atom_site_label
_atom_site_fract_x
_atom_site_fract_y
_atom_site_fract_z
Si Si1 0.322752 0.250974 0.633527
Si Si2 0.767913 0.338976 0.981728
Si Si3 0.961977 0.300534 0.819282
Si Si4 0.484367 0.217361 0.797217
Si Si5 0.770507 0.625015 0.688496
Si Si6 0.288912 0.938857 0.736164
Si Si7 0.323525 0.822687 0.217941
O O1 0.500000 0.500000 0.500000
O O2 0.264661 0.086657 0.756187
O O3 0.287892 0.034196 0.456816
O O4 0.237070 0.390521 0.822231
O O5 0.914108 0.408466 0.851905
O O6 0.784461 0.319016 0.803130
O O7 0.613721 0.032963 0.093873
O O8 0.144392 0.461092 0.595752
O O9 0.885038 0.958618 0.730579
O O10 0.885811 0.316181 0.077829
O O11 0.610992 0.549020 0.845216
O O12 0.380106 0.182713 0.837723
O O13 0.611783 0.175198 0.521457
O O14 0.722781 0.433817 0.769531
O O15 0.500000 0.000000 0.000000
#
# Coordination Sequence:
#
# PCOD8004724 Si02
#       7
#     2   2   2   2   2   2   2
#     4  12  21  37  66 100 130 163 215 267 323 387
#     4  11  23  43  62 100 131 165 216 268 324 380
#     4  10  26  41  65  90 130 177 207 268 325 376
#     4  10  20  38  65  94 121 160 219 264 311 386
#     4  11  22  45  62  95 126 167 227 255 321 398
#     4  10  20  38  61  94 124 163 205 268 320 362
#     4  12  22  39  70  96 126 172 210 268 326 371
#
# _framework density 24.819220999999999
#
# number of rings (size 3 to 8) (size 9 to 14) (size 15 to 20)
#    0.000    1.143    5.714    0.857    0.000    4.571 
#    0.000    0.714    0.000    0.000    0.000    0.000 
#    0.000    0.000    0.000    0.000    0.000    0.000 
#
# Total GULP energy -173610.291899 kJ/mol
# GULP energy per Si atom -12400.735136 kJ/mol
# Density = 2.476273 g / cm^3
# Si number density = 24.819221 Si / 1000 Ang^3
#
#
#
# Elastic Constant Matrix: (Units=GPa)
#
#
# Indices 1 2 3 4 5 6 
#
# 1 94.9882 44.6790 62.0959 -21.5230 -2.0869 -16.4462
# 2 44.6790 88.8837 44.0413 -7.8569 -7.3887 -20.1305
# 3 62.0959 44.0413 125.4263 -17.2940 5.5038 -6.0482
# 4 -21.5230 -7.8569 -17.2940 48.2052 7.8641 -6.9818
# 5 -2.0869 -7.3887 5.5038 7.8641 41.8958 -0.7189
# 6 -16.4462 -20.1305 -6.0482 -6.9818 -0.7189 30.9637
#
#
#
# Elastic Compliance Matrix: (Units=1/GPa)
#
#
# Indices 1 2 3 4 5 6 
#
# 1 0.020139 -0.004087 -0.007188 0.006923 0.000068 0.008198
# 2 -0.004087 0.017447 -0.003794 0.000338 0.003456 0.008587
# 3 -0.007188 -0.003794 0.012920 0.000755 -0.002929 -0.003658
# 4 0.006923 0.000338 0.000755 0.026321 -0.004466 0.009875
# 5 0.000068 0.003456 -0.002929 -0.004466 0.025727 0.001301
# 6 0.008198 0.008587 -0.003658 0.009875 0.001301 0.043775
#
#
# Mechanical properties :
#
#
# Convention : Reuss Voigt Hill
#
# Bulk Modulus (GPa) = 49.09814 67.88117 58.48966
# Shear Modulus (GPa) = 27.28434 34.77841 31.03137
#
# Velocity S-wave (km/s) = 3.31920 3.74741 3.53979
# Velocity P-wave (km/s) = 5.87492 6.79218 6.35014
#
# Compressibility (1/GPa) = 0.02036737
#
# Stress axis : x y z
#
# Youngs Moduli (GPa) = 49.65580 57.31692 77.40012
#
# Poissons Ratio (x) = 0.23426 0.55637
# Poissons Ratio (y) = 0.20295 0.29363
# Poissons Ratio (z) = 0.35694 0.21744
#
# Static dielectric constant tensor:
#      x y z
#    x 4.734930 0.619310 0.478520 
#    y 0.619310 6.020870 1.389320 
#    z 0.478520 1.389320 6.888140 
# 
# 
# High freq. dielectric constant tensor:
#      x y z
#    x 1.987820 0.017360 0.007130 
#    y 0.017360 2.007730 0.012250 
#    z 0.007130 0.012250 2.037120 
# 
# From -- ./inp_files/353854.got.cif
#   From: 2010.06.25/outbox.cif.g09.slc.cpg/sg2_177_cif.got.tgz:353854.got - 2010.06.27 13:26:56.
