data_PCOD8004089
_publ_section_title
;
Structure prediction by ZEFSAII (Michael W. Deem and Ramdas Pophale) SiO2 
 PCOD8004089
Probable space group: P -1
;
_chemical_formula_sum "Si O2"
_cell_formula_units_Z 16
_cell_length_a 8.119155
_cell_length_b 11.167470
_cell_length_c 14.510421
_cell_angle_alpha 138.933652
_cell_angle_beta 107.613736
_cell_angle_gamma 58.515513
_cell_volume 727.237703
_symmetry_space_group_name_H-M "P -1"
_symmetry_group_IT_number 2
_symmetry_cell_setting 'triclinic'
loop_
_space_group_symop_operation_xyz
x,y,z
-x,-y,-z
loop_
_atom_site_type_symbol
_atom_site_label
_atom_site_fract_x
_atom_site_fract_y
_atom_site_fract_z
Si Si1 0.474161 0.342119 0.106495
Si Si2 0.043429 0.265968 0.376638
Si Si3 0.602312 0.149694 0.832335
Si Si4 0.167720 0.138536 0.519306
Si Si5 0.038029 0.618242 0.202000
Si Si6 0.923621 0.290830 0.943192
Si Si7 0.522287 0.733153 0.314853
Si Si8 0.141291 0.923797 0.890017
O O1 0.256236 0.448759 0.171522
O O2 0.557160 0.503143 0.197200
O O3 0.631071 0.169125 0.099252
O O4 0.463998 0.234813 0.946895
O O5 0.026648 0.202318 0.442678
O O6 0.000000 0.500000 0.500000
O O7 0.887113 0.247093 0.272491
O O8 0.259480 0.097819 0.279795
O O9 0.728575 0.273472 0.919425
O O10 0.463593 0.204398 0.752214
O O11 0.307990 0.245237 0.589226
O O12 0.042000 0.212064 0.633297
O O13 0.304092 0.891479 0.406885
O O14 0.039428 0.730549 0.172562
O O15 0.901583 0.507241 0.103074
O O16 0.102187 0.111782 0.924665
O O17 0.000000 0.000000 0.000000
#
# Coordination Sequence:
#
# PCOD8004089 Si02
#       8
#     2   2   2   2   2   2   2   2
#     4  12  22  37  66  96 123 170 216 265 321 374
#     4  10  21  39  65  95 123 167 218 266 320 373
#     4  10  20  37  63  95 123 162 222 270 300 378
#     4  10  23  40  61  93 130 169 211 268 325 380
#     4  11  25  38  65  96 133 170 205 273 326 384
#     4  10  22  42  61  97 125 172 215 260 324 374
#     4  10  21  38  64  92 122 165 227 261 310 382
#     4  11  23  42  68  95 126 172 219 269 310 378
#
# _framework density 22.001059999999999
#
# number of rings (size 3 to 8) (size 9 to 14) (size 15 to 20)
#    0.000    1.500    3.750    1.875    5.250    1.000 
#    0.000    0.625    0.000    0.000    0.000    0.000 
#    0.000    0.000    0.000    0.000    0.000    0.000 
#
# Total GULP energy -198389.257973 kJ/mol
# GULP energy per Si atom -12399.328623 kJ/mol
# Density = 2.195098 g / cm^3
# Si number density = 22.001060 Si / 1000 Ang^3
#
#
#
# Elastic Constant Matrix: (Units=GPa)
#
#
# Indices 1 2 3 4 5 6 
#
# 1 39.8965 27.2911 20.5460 -1.9326 -9.5011 -11.8387
# 2 27.2911 98.6313 33.8916 -9.5097 -14.3427 -14.2859
# 3 20.5460 33.8916 127.5021 -16.2576 -16.1494 -0.8892
# 4 -1.9326 -9.5097 -16.2576 39.5345 2.2616 8.4547
# 5 -9.5011 -14.3427 -16.1494 2.2616 36.0212 3.1877
# 6 -11.8387 -14.2859 -0.8892 8.4547 3.1877 24.1393
#
#
#
# Elastic Compliance Matrix: (Units=1/GPa)
#
#
# Indices 1 2 3 4 5 6 
#
# 1 0.036967 -0.006408 -0.004247 -0.005012 0.004249 0.015376
# 2 -0.006408 0.013705 -0.002145 0.001067 0.002366 0.004203
# 3 -0.004247 -0.002145 0.009940 0.004244 0.002642 -0.004822
# 4 -0.005012 0.001067 0.004244 0.029621 0.000214 -0.012073
# 5 0.004249 0.002366 0.002642 0.000214 0.031048 -0.000594
# 6 0.015376 0.004203 -0.004822 -0.012073 -0.000594 0.055584
#
#
# Mechanical properties :
#
#
# Convention : Reuss Voigt Hill
#
# Bulk Modulus (GPa) = 28.56264 47.72081 38.14172
# Shear Modulus (GPa) = 23.34984 32.22574 27.78779
#
# Velocity S-wave (km/s) = 3.26130 3.83134 3.55776
# Velocity P-wave (km/s) = 5.21460 6.42725 5.85242
#
# Compressibility (1/GPa) = 0.03501077
#
# Stress axis : x y z
#
# Youngs Moduli (GPa) = 27.05133 72.96840 100.60524
#
# Poissons Ratio (x) = 0.46755 0.42731
# Poissons Ratio (y) = 0.17333 0.21583
# Poissons Ratio (z) = 0.11490 0.15654
#
# Static dielectric constant tensor:
#      x y z
#    x 3.575100 -0.213980 0.107070 
#    y -0.213980 4.081450 -0.092270 
#    z 0.107070 -0.092270 4.211140 
# 
# 
# High freq. dielectric constant tensor:
#      x y z
#    x 1.830860 -0.020300 0.007960 
#    y -0.020300 1.866120 -0.002480 
#    z 0.007960 -0.002480 1.884520 
# 
# From -- ./inp_files/418944.got.cif
#   From: 2010.06.25/outbox.cif.g09.slc.cpg/sg2_210_cif.got.tgz:418944.got - 2010.06.27 13:26:56.
