data_PCOD8004110
_publ_section_title
;
Structure prediction by ZEFSAII (Michael W. Deem and Ramdas Pophale) SiO2 
 PCOD8004110
Probable space group: P -1
;
_chemical_formula_sum "Si O2"
_cell_formula_units_Z 16
_cell_length_a 7.892968
_cell_length_b 18.386157
_cell_length_c 10.900867
_cell_angle_alpha 127.149258
_cell_angle_beta 55.853563
_cell_angle_gamma 144.690975
_cell_volume 720.689543
_symmetry_space_group_name_H-M "P -1"
_symmetry_group_IT_number 2
_symmetry_cell_setting 'triclinic'
loop_
_space_group_symop_operation_xyz
x,y,z
-x,-y,-z
loop_
_atom_site_type_symbol
_atom_site_label
_atom_site_fract_x
_atom_site_fract_y
_atom_site_fract_z
Si Si1 0.637615 0.767743 0.643543
Si Si2 0.849657 0.961391 0.391450
Si Si3 0.733945 0.747025 0.068792
Si Si4 0.806723 0.261857 0.520150
Si Si5 0.089031 0.710645 0.766740
Si Si6 0.646768 0.579640 0.397372
Si Si7 0.807738 0.469132 0.788046
Si Si8 0.597413 0.368398 0.148498
O O1 0.426939 0.786522 0.724854
O O2 0.540846 0.648569 0.474455
O O3 0.620034 0.727388 0.748938
O O4 0.974898 0.905659 0.621490
O O5 0.865858 0.872544 0.219592
O O6 0.514274 0.885321 0.474805
O O7 0.000000 0.000000 0.500000
O O8 0.510950 0.613605 0.105640
O O9 0.535228 0.722800 0.011281
O O10 0.014953 0.777818 0.942245
O O11 0.954609 0.279622 0.348716
O O12 0.792671 0.366435 0.625820
O O13 0.004032 0.294201 0.587545
O O14 0.864898 0.559664 0.748885
O O15 0.500000 0.500000 0.500000
O O16 0.589965 0.475686 0.223721
O O17 0.070231 0.556633 0.874197
#
# Coordination Sequence:
#
# PCOD8004110 Si02
#       8
#     2   2   2   2   2   2   2   2
#     4  10  21  38  63  88 122 164 200 242 297 350
#     4  11  24  45  60  83 125 163 208 250 287 352
#     4  11  23  38  61  87 124 158 196 252 305 352
#     4  10  20  37  64  88 120 166 197 245 297 356
#     4  11  20  35  59  92 119 159 203 242 303 358
#     4   9  18  36  60  94 121 145 194 252 300 351
#     4   9  20  36  59  91 126 153 194 247 310 363
#     4   9  19  38  62  93 122 151 195 255 308 354
#
# _framework density 22.200963000000002
#
# number of rings (size 3 to 8) (size 9 to 14) (size 15 to 20)
#    0.000    2.000    1.250    3.375    0.000    2.500 
#    2.250    0.000    2.750    0.000    0.000    0.000 
#    0.000    0.000    0.000    0.000    0.000    0.000 
#
# Total GULP energy -198267.771653 kJ/mol
# GULP energy per Si atom -12391.735728 kJ/mol
# Density = 2.215043 g / cm^3
# Si number density = 22.200963 Si / 1000 Ang^3
#
#
#
# Elastic Constant Matrix: (Units=GPa)
#
#
# Indices 1 2 3 4 5 6 
#
# 1 51.6011 26.4388 25.2871 0.8752 -8.4786 5.1487
# 2 26.4388 122.0855 33.2974 -0.6443 7.3416 -0.2669
# 3 25.2871 33.2974 116.1637 6.7991 -0.9370 3.0023
# 4 0.8752 -0.6443 6.7991 30.6490 4.5261 0.7918
# 5 -8.4786 7.3416 -0.9370 4.5261 27.9250 0.9858
# 6 5.1487 -0.2669 3.0023 0.7918 0.9858 25.3974
#
#
#
# Elastic Compliance Matrix: (Units=1/GPa)
#
#
# Indices 1 2 3 4 5 6 
#
# 1 0.026045 -0.005166 -0.003904 -0.001258 0.009523 -0.005203
# 2 -0.005166 0.010124 -0.001937 0.001427 -0.004580 0.001516
# 3 -0.003904 -0.001937 0.010151 -0.002176 0.000030 -0.000362
# 4 -0.001258 0.001427 -0.002176 0.034121 -0.006350 -0.000290
# 5 0.009523 -0.004580 0.000030 -0.006350 0.041055 -0.003378
# 6 -0.005203 0.001516 -0.000362 -0.000290 -0.003378 0.040628
#
#
# Mechanical properties :
#
#
# Convention : Reuss Voigt Hill
#
# Bulk Modulus (GPa) = 41.14306 51.09966 46.12136
# Shear Modulus (GPa) = 26.00918 30.44942 28.22930
#
# Velocity S-wave (km/s) = 3.42648 3.70744 3.56973
# Velocity P-wave (km/s) = 5.85036 6.43379 6.14900
#
# Compressibility (1/GPa) = 0.02430543
#
# Stress axis : x y z
#
# Youngs Moduli (GPa) = 38.39565 98.77154 98.51664
#
# Poissons Ratio (x) = 0.51027 0.38459
# Poissons Ratio (y) = 0.19836 0.19084
# Poissons Ratio (z) = 0.14989 0.19133
#
# Static dielectric constant tensor:
#      x y z
#    x 4.603790 0.423670 -0.546320 
#    y 0.423670 4.275680 -0.324650 
#    z -0.546320 -0.324650 4.298270 
# 
# 
# High freq. dielectric constant tensor:
#      x y z
#    x 1.860840 0.011900 -0.004620 
#    y 0.011900 1.869420 -0.014190 
#    z -0.004620 -0.014190 1.867700 
# 
# From -- ./inp_files/271775.got.cif
#   From: 2010.06.25/outbox.cif.g09.slc.cpg/sg2_136_cif.got.tgz:271775.got - 2010.06.27 13:26:56.
