data_PCOD8004637
_publ_section_title
;
Structure prediction by ZEFSAII (Michael W. Deem and Ramdas Pophale) SiO2 
 PCOD8004637
Probable space group: P -1
;
_chemical_formula_sum "Si O2"
_cell_formula_units_Z 16
_cell_length_a 24.634539
_cell_length_b 5.023393
_cell_length_c 12.320047
_cell_angle_alpha 82.853361
_cell_angle_beta 148.237719
_cell_angle_gamma 94.636776
_cell_volume 795.396826
_symmetry_space_group_name_H-M "P -1"
_symmetry_group_IT_number 2
_symmetry_cell_setting 'triclinic'
loop_
_space_group_symop_operation_xyz
x,y,z
-x,-y,-z
loop_
_atom_site_type_symbol
_atom_site_label
_atom_site_fract_x
_atom_site_fract_y
_atom_site_fract_z
Si Si1 0.805847 0.081730 0.705759
Si Si2 0.770132 0.299026 0.229006
Si Si3 0.864758 0.803151 0.290926
Si Si4 0.104867 0.456734 0.031681
Si Si5 0.911490 0.180161 0.667767
Si Si6 0.445306 0.733234 0.039198
Si Si7 0.578074 0.220675 0.252320
Si Si8 0.950465 0.151035 0.248176
O O1 0.862651 0.341392 0.830100
O O2 0.849764 0.021038 0.662636
O O3 0.683743 0.140939 0.496365
O O4 0.827375 0.822507 0.831606
O O5 0.805326 0.528230 0.194261
O O6 0.829706 0.337266 0.442169
O O7 0.797590 0.008084 0.241461
O O8 0.647856 0.332392 0.036490
O O9 0.977255 0.739158 0.539198
O O10 0.879164 0.925491 0.189221
O O11 0.120317 0.600259 0.933017
O O12 0.983499 0.394382 0.837048
O O13 0.983280 0.969284 0.733307
O O14 0.535959 0.504512 0.213224
O O15 0.492432 0.008495 0.143372
O O16 0.400656 0.760217 0.840560
#
# Coordination Sequence:
#
# PCOD8004637 Si02
#       8
#     2   2   2   2   2   2   2   2
#     4  12  25  37  57  86 120 163 198 223 279 346
#     4  11  21  37  61  90 113 155 185 241 296 352
#     4  10  23  36  60  84 118 149 201 237 293 336
#     4  12  24  38  55  83 121 166 196 228 270 343
#     4  11  23  38  56  84 127 157 195 225 276 348
#     4  10  20  38  61  83 117 144 191 238 303 335
#     4  10  21  38  57  86 114 153 187 241 282 348
#     4  10  23  39  56  83 119 161 192 244 278 330
#
# _framework density 20.115743999999999
#
# number of rings (size 3 to 8) (size 9 to 14) (size 15 to 20)
#    0.000    1.250    3.750    2.250    3.500    1.500 
#    0.000    0.000    0.000    0.000    0.000   17.500 
#    0.000    0.000    0.000    0.000    0.000    0.000 
#
# Total GULP energy -198433.790192 kJ/mol
# GULP energy per Si atom -12402.111887 kJ/mol
# Density = 2.006996 g / cm^3
# Si number density = 20.115744 Si / 1000 Ang^3
#
#
#
# Elastic Constant Matrix: (Units=GPa)
#
#
# Indices 1 2 3 4 5 6 
#
# 1 38.8686 10.3038 36.8669 -10.0401 12.7051 16.9874
# 2 10.3038 96.1114 24.9388 -18.0449 1.8351 13.1737
# 3 36.8669 24.9388 81.8348 -25.8859 7.7814 7.1850
# 4 -10.0401 -18.0449 -25.8859 23.8774 3.9325 -8.7176
# 5 12.7051 1.8351 7.7814 3.9325 16.6538 4.6617
# 6 16.9874 13.1737 7.1850 -8.7176 4.6617 32.4545
#
#
#
# Elastic Compliance Matrix: (Units=1/GPa)
#
#
# Indices 1 2 3 4 5 6 
#
# 1 0.080671 0.004203 -0.032537 -0.003997 -0.036756 -0.032522
# 2 0.004203 0.012721 -0.002559 0.007777 -0.004096 -0.004120
# 3 -0.032537 -0.002559 0.036458 0.031711 -0.004794 0.019205
# 4 -0.003997 0.007777 0.031711 0.096029 -0.041944 0.023734
# 5 -0.036756 -0.004096 -0.004794 -0.041944 0.101782 -0.003923
# 6 -0.032522 -0.004120 0.019205 0.023734 -0.003923 0.052194
#
#
# Mechanical properties :
#
#
# Convention : Reuss Voigt Hill
#
# Bulk Modulus (GPa) = 14.69204 40.11488 27.40346
# Shear Modulus (GPa) = 10.76822 24.24416 17.50619
#
# Velocity S-wave (km/s) = 2.31619 3.47541 2.95324
# Velocity P-wave (km/s) = 3.80429 6.00749 5.02805
#
# Compressibility (1/GPa) = 0.06806407
#
# Stress axis : x y z
#
# Youngs Moduli (GPa) = 12.39606 78.60985 27.42866
#
# Poissons Ratio (x) = -0.33042 0.89246
# Poissons Ratio (y) = -0.05210 0.07019
# Poissons Ratio (z) = 0.40333 0.20116
#
# Static dielectric constant tensor:
#      x y z
#    x 3.459050 0.133890 -0.088000 
#    y 0.133890 3.727100 -0.067350 
#    z -0.088000 -0.067350 3.558180 
# 
# 
# High freq. dielectric constant tensor:
#      x y z
#    x 1.763550 0.006170 0.000380 
#    y 0.006170 1.802210 -0.003270 
#    z 0.000380 -0.003270 1.761960 
# 
# From -- ./inp_files/473418.got.cif
#   From: 2010.06.25/outbox.cif.g09.slc.cpg/sg2_237_cif.got.tgz:473418.got - 2010.06.27 13:26:56.
