data_PCOD8004682
_publ_section_title
;
Structure prediction by ZEFSAII (Michael W. Deem and Ramdas Pophale) SiO2 
 PCOD8004682
Probable space group: P -1
;
_chemical_formula_sum "Si O2"
_cell_formula_units_Z 16
_cell_length_a 14.104078
_cell_length_b 7.877804
_cell_length_c 15.155546
_cell_angle_alpha 92.735318
_cell_angle_beta 134.403376
_cell_angle_gamma 123.736524
_cell_volume 679.027757
_symmetry_space_group_name_H-M "P -1"
_symmetry_group_IT_number 2
_symmetry_cell_setting 'triclinic'
loop_
_space_group_symop_operation_xyz
x,y,z
-x,-y,-z
loop_
_atom_site_type_symbol
_atom_site_label
_atom_site_fract_x
_atom_site_fract_y
_atom_site_fract_z
Si Si1 0.578887 0.519618 0.414538
Si Si2 0.254043 0.463119 0.650853
Si Si3 0.190760 0.292826 0.069930
Si Si4 0.492023 0.946332 0.094409
Si Si5 0.192797 0.869460 0.177254
Si Si6 0.258252 0.139765 0.748317
Si Si7 0.939827 0.025226 0.192739
Si Si8 0.930870 0.356325 0.096541
O O1 0.664139 0.482313 0.393619
O O2 0.448333 0.548983 0.290010
O O3 0.811724 0.813726 0.628415
O O4 0.389656 0.213897 0.343246
O O5 0.338606 0.739342 0.739610
O O6 0.355525 0.421615 0.780061
O O7 0.972630 0.160009 0.463335
O O8 0.085562 0.369688 0.997081
O O9 0.000000 0.000000 0.000000
O O10 0.210860 0.230514 0.985098
O O11 0.562011 0.824084 0.151660
O O12 0.500000 0.000000 0.000000
O O13 0.226421 0.680220 0.949769
O O14 0.181322 0.697679 0.232555
O O15 0.226949 0.870521 0.095597
O O16 0.213970 0.125504 0.822767
O O17 0.001889 0.277886 0.204623
#
# Coordination Sequence:
#
# PCOD8004682 Si02
#       8
#     2   2   2   2   2   2   2   2
#     4  10  21  39  67  89 122 174 201 267 325 373
#     4  10  22  44  63  92 135 163 221 268 322 389
#     4  10  20  38  61  89 121 162 206 263 312 373
#     4  12  23  39  67  96 127 172 211 262 334 386
#     4  10  22  40  63  86 125 169 207 259 320 371
#     4  10  24  41  66  94 127 176 212 271 322 386
#     4  11  21  41  64  91 131 156 218 262 315 395
#     4  11  22  41  59  91 128 162 213 262 309 389
#
# _framework density 23.563103000000002
#
# number of rings (size 3 to 8) (size 9 to 14) (size 15 to 20)
#    0.000    1.500    5.000    0.375    1.750    4.000 
#    0.000    0.000    0.000    0.000    0.000    0.000 
#    0.000    0.000    0.000    0.000    0.000    0.000 
#
# Total GULP energy -198272.820023 kJ/mol
# GULP energy per Si atom -12392.051251 kJ/mol
# Density = 2.350947 g / cm^3
# Si number density = 23.563103 Si / 1000 Ang^3
#
#
#
# Elastic Constant Matrix: (Units=GPa)
#
#
# Indices 1 2 3 4 5 6 
#
# 1 97.8303 9.5474 15.1324 -18.9269 11.6392 2.2979
# 2 9.5474 87.1972 4.2270 -16.8046 -3.9194 5.0514
# 3 15.1324 4.2270 62.6066 -15.4169 19.7160 5.6366
# 4 -18.9269 -16.8046 -15.4169 31.3294 -2.6250 0.3219
# 5 11.6392 -3.9194 19.7160 -2.6250 35.3336 -8.3805
# 6 2.2979 5.0514 5.6366 0.3219 -8.3805 30.3905
#
#
#
# Elastic Compliance Matrix: (Units=1/GPa)
#
#
# Indices 1 2 3 4 5 6 
#
# 1 0.012100 -0.000026 0.000348 0.007141 -0.004175 -0.002202
# 2 -0.000026 0.013046 0.000833 0.007501 0.001047 -0.002112
# 3 0.000348 0.000833 0.024041 0.011348 -0.014680 -0.008792
# 4 0.007141 0.007501 0.011348 0.045408 -0.005902 -0.006000
# 5 -0.004175 0.001047 -0.014680 -0.005902 0.040916 0.014210
# 6 -0.002202 -0.002112 -0.008792 -0.006000 0.014210 0.039035
#
#
# Mechanical properties :
#
#
# Convention : Reuss Voigt Hill
#
# Bulk Modulus (GPa) = 19.41803 33.93862 26.67832
# Shear Modulus (GPa) = 26.39902 33.99254 30.19578
#
# Velocity S-wave (km/s) = 3.35080 3.80230 3.58367
# Velocity P-wave (km/s) = 4.81967 5.80614 5.33575
#
# Compressibility (1/GPa) = 0.05149854
#
# Stress axis : x y z
#
# Youngs Moduli (GPa) = 82.64263 76.65339 41.59532
#
# Poissons Ratio (x) = 0.00197 -0.01450
# Poissons Ratio (y) = 0.00213 -0.03465
# Poissons Ratio (z) = -0.02880 -0.06385
#
# Static dielectric constant tensor:
#      x y z
#    x 1.597490 4.163830 1.804210 
#    y 4.163830 -1.850010 -2.436030 
#    z 1.804210 -2.436030 3.542180 
# 
# 
# High freq. dielectric constant tensor:
#      x y z
#    x 1.937030 0.015400 0.012960 
#    y 0.015400 1.940590 -0.008060 
#    z 0.012960 -0.008060 1.912250 
# 
# From -- ./inp_files/528636.got.cif
#   From: 2010.06.25/outbox.cif.g09.slc.cpg/sg2_265_cif.got.tgz:528636.got - 2010.06.27 13:26:56.
