data_PCOD8004949
_publ_section_title
;
Structure prediction by ZEFSAII (Michael W. Deem and Ramdas Pophale) SiO2 
 PCOD8004949
Probable space group: P -1
;
_chemical_formula_sum "Si O2"
_cell_formula_units_Z 16
_cell_length_a 9.888642
_cell_length_b 14.701617
_cell_length_c 15.443603
_cell_angle_alpha 43.454597
_cell_angle_beta 43.908035
_cell_angle_gamma 79.571827
_cell_volume 746.502552
_symmetry_space_group_name_H-M "P -1"
_symmetry_group_IT_number 2
_symmetry_cell_setting 'triclinic'
loop_
_space_group_symop_operation_xyz
x,y,z
-x,-y,-z
loop_
_atom_site_type_symbol
_atom_site_label
_atom_site_fract_x
_atom_site_fract_y
_atom_site_fract_z
Si Si1 0.409418 0.652305 0.463922
Si Si2 0.657318 0.841228 0.814211
Si Si3 0.091084 0.246916 0.929050
Si Si4 0.413139 0.987060 0.804967
Si Si5 0.781995 0.129624 0.833838
Si Si6 0.983252 0.992657 0.734395
Si Si7 0.964761 0.572172 0.616384
Si Si8 0.231834 0.287730 0.292989
O O1 0.257512 0.464560 0.719916
O O2 0.705278 0.749580 0.222112
O O3 0.204916 0.586785 0.523136
O O4 0.456233 0.802236 0.399998
O O5 0.654105 0.992425 0.677995
O O6 0.748841 0.878490 0.845857
O O7 0.855114 0.842260 0.661300
O O8 0.340200 0.637127 0.092270
O O9 0.998006 0.143182 0.137691
O O10 0.806260 0.132461 0.088480
O O11 0.253333 0.874599 0.045164
O O12 0.980369 0.347564 0.561452
O O13 0.911478 0.049787 0.809685
O O14 0.500000 0.000000 0.000000
O O15 0.263391 0.192067 0.421964
O O16 0.997512 0.716863 0.565892
O O17 0.500000 0.500000 0.000000
#
# Coordination Sequence:
#
# PCOD8004949 Si02
#       8
#     2   2   2   2   2   2   2   2
#     4  11  22  39  59  87 134 167 200 249 298 377
#     4  11  22  38  66  93 115 163 210 259 316 353
#     4  11  25  40  58  91 133 172 203 239 312 378
#     4  12  22  39  63  88 129 169 202 248 313 369
#     4  11  19  34  59  91 123 156 206 259 306 357
#     4  11  21  39  61  90 125 157 208 260 300 370
#     4  10  20  38  63  93 123 156 210 265 304 369
#     4   9  21  41  66  92 118 154 209 270 311 354
#
# _framework density 21.433281999999998
#
# number of rings (size 3 to 8) (size 9 to 14) (size 15 to 20)
#    0.000    1.250    5.000    1.500    0.000    2.500 
#    4.500    0.625    0.000    1.500    0.000    0.000 
#    0.000    0.000    0.000    0.000    0.000    0.000 
#
# Total GULP energy -198250.562186 kJ/mol
# GULP energy per Si atom -12390.660137 kJ/mol
# Density = 2.138450 g / cm^3
# Si number density = 21.433282 Si / 1000 Ang^3
#
#
#
# Elastic Constant Matrix: (Units=GPa)
#
#
# Indices 1 2 3 4 5 6 
#
# 1 115.1362 28.8712 37.4325 -4.1443 14.8194 -4.2215
# 2 28.8712 94.0139 34.1460 -13.8643 6.4587 -11.1768
# 3 37.4325 34.1460 106.1935 -23.9769 32.3561 -7.4031
# 4 -4.1443 -13.8643 -23.9769 35.7988 -6.4627 2.1102
# 5 14.8194 6.4587 32.3561 -6.4627 36.3740 -7.1186
# 6 -4.2215 -11.1768 -7.4031 2.1102 -7.1186 24.5324
#
#
#
# Elastic Compliance Matrix: (Units=1/GPa)
#
#
# Indices 1 2 3 4 5 6 
#
# 1 0.010330 -0.002367 -0.002819 -0.001889 -0.001711 -0.000486
# 2 -0.002367 0.013458 -0.003440 0.002895 0.003199 0.005365
# 3 -0.002819 -0.003440 0.016810 0.007485 -0.012085 -0.001130
# 4 -0.001889 0.002895 0.007485 0.033771 -0.000354 0.000245
# 5 -0.001711 0.003199 -0.012085 -0.000354 0.040106 0.009184
# 6 -0.000486 0.005365 -0.001130 0.000245 0.009184 0.045426
#
#
# Mechanical properties :
#
#
# Convention : Reuss Voigt Hill
#
# Bulk Modulus (GPa) = 42.83472 57.36035 50.09753
# Shear Modulus (GPa) = 27.03640 33.66730 30.35185
#
# Velocity S-wave (km/s) = 3.55550 3.96763 3.76720
# Velocity P-wave (km/s) = 6.07322 6.91446 6.50745
#
# Compressibility (1/GPa) = 0.02334555
#
# Stress axis : x y z
#
# Youngs Moduli (GPa) = 96.80604 74.30455 59.48832
#
# Poissons Ratio (x) = 0.17589 0.16770
# Poissons Ratio (y) = 0.22916 0.20464
# Poissons Ratio (z) = 0.27291 0.25561
#
# Static dielectric constant tensor:
#      x y z
#    x 3.790260 -0.231620 0.352970 
#    y -0.231620 4.473000 -0.075350 
#    z 0.352970 -0.075350 4.375460 
# 
# 
# High freq. dielectric constant tensor:
#      x y z
#    x 1.815290 -0.012030 0.005970 
#    y -0.012030 1.844840 -0.021420 
#    z 0.005970 -0.021420 1.857390 
# 
# From -- ./inp_files/279827.got.cif
#   From: 2010.06.25/outbox.cif.g09.slc.cpg/sg2_140_cif.got.tgz:279827.got - 2010.06.27 13:26:56.
