data_PCOD8004342
_publ_section_title
;
Structure prediction by ZEFSAII (Michael W. Deem and Ramdas Pophale) SiO2 
 PCOD8004342
Probable space group: P -1
;
_chemical_formula_sum "Si O2"
_cell_formula_units_Z 14
_cell_length_a 7.800164
_cell_length_b 7.655931
_cell_length_c 10.847799
_cell_angle_alpha 118.222968
_cell_angle_beta 82.325996
_cell_angle_gamma 81.244341
_cell_volume 548.201516
_symmetry_space_group_name_H-M "P -1"
_symmetry_group_IT_number 2
_symmetry_cell_setting 'triclinic'
loop_
_space_group_symop_operation_xyz
x,y,z
-x,-y,-z
loop_
_atom_site_type_symbol
_atom_site_label
_atom_site_fract_x
_atom_site_fract_y
_atom_site_fract_z
Si Si1 0.651842 0.602374 0.134692
Si Si2 0.723904 0.766617 0.433303
Si Si3 0.342035 0.997435 0.869087
Si Si4 0.897142 0.423104 0.630472
Si Si5 0.746669 0.278959 0.825858
Si Si6 0.334533 0.818165 0.559011
Si Si7 0.254671 0.112547 0.172397
O O1 0.744449 0.629240 0.262480
O O2 0.657254 0.773402 0.090869
O O3 0.442980 0.620324 0.187692
O O4 0.752644 0.385733 0.994031
O O5 0.550758 0.746842 0.520849
O O6 0.899347 0.672543 0.468033
O O7 0.713694 0.002249 0.478663
O O8 0.263070 0.891189 0.727545
O O9 0.541600 0.867934 0.837490
O O10 0.221146 0.016441 0.010108
O O11 0.893153 0.322518 0.732988
O O12 0.755861 0.362066 0.530939
O O13 0.871418 0.664612 0.722009
O O14 0.781225 0.035495 0.764001
#
# Coordination Sequence:
#
# PCOD8004342 Si02
#       7
#     2   2   2   2   2   2   2
#     4   9  17  37  64  96 129 179 214 275 329 389
#     4  10  22  39  71 101 130 177 232 267 336 407
#     4   9  19  39  67  94 135 179 222 273 334 396
#     4  12  23  42  73 101 133 178 220 277 345 392
#     4  10  20  37  70  99 137 171 221 280 335 393
#     4  10  22  43  70  97 134 180 224 276 330 404
#     4  10  22  39  67 105 134 173 228 277 330 405
#
# _framework density 25.538053999999999
#
# number of rings (size 3 to 8) (size 9 to 14) (size 15 to 20)
#    0.000    2.000    2.857    0.429    4.000    1.143 
#    0.000    1.429    9.429    0.000    0.000    0.000 
#    0.000    0.000    0.000    0.000    0.000    0.000 
#
# Total GULP energy -173637.438585 kJ/mol
# GULP energy per Si atom -12402.674185 kJ/mol
# Density = 2.547993 g / cm^3
# Si number density = 25.538054 Si / 1000 Ang^3
#
#
#
# Elastic Constant Matrix: (Units=GPa)
#
#
# Indices 1 2 3 4 5 6 
#
# 1 84.9182 31.3511 39.5068 17.4215 -6.5052 -5.5648
# 2 31.3511 98.4455 50.4451 18.0055 -7.2034 0.0337
# 3 39.5068 50.4451 106.0952 4.4604 8.0778 2.6268
# 4 17.4215 18.0055 4.4604 40.2284 -5.6093 -3.4201
# 5 -6.5052 -7.2034 8.0778 -5.6093 23.9333 3.3483
# 6 -5.5648 0.0337 2.6268 -3.4201 3.3483 25.4120
#
#
#
# Elastic Compliance Matrix: (Units=1/GPa)
#
#
# Indices 1 2 3 4 5 6 
#
# 1 0.016463 -0.000953 -0.005879 -0.005168 0.004552 0.002919
# 2 -0.000953 0.015502 -0.007225 -0.004993 0.005803 -0.000919
# 3 -0.005879 -0.007225 0.015591 0.002788 -0.008180 -0.001436
# 4 -0.005168 -0.004993 0.002788 0.029597 0.002780 0.002204
# 5 0.004552 0.005803 -0.008180 0.002780 0.048769 -0.004217
# 6 0.002919 -0.000919 -0.001436 0.002204 -0.004217 0.040993
#
#
# Mechanical properties :
#
#
# Convention : Reuss Voigt Hill
#
# Bulk Modulus (GPa) = 51.43409 59.11830 55.27619
# Shear Modulus (GPa) = 24.81269 29.12512 26.96891
#
# Velocity S-wave (km/s) = 3.12043 3.38073 3.25318
# Velocity P-wave (km/s) = 5.75905 6.19988 5.98352
#
# Compressibility (1/GPa) = 0.01944236
#
# Stress axis : x y z
#
# Youngs Moduli (GPa) = 60.74117 64.50835 64.13948
#
# Poissons Ratio (x) = 0.06148 0.37707
# Poissons Ratio (y) = 0.05789 0.46340
# Poissons Ratio (z) = 0.35709 0.46607
#
# Static dielectric constant tensor:
#      x y z
#    x 4.221500 0.047790 0.034240 
#    y 0.047790 4.315840 -0.018180 
#    z 0.034240 -0.018180 4.691610 
# 
# 
# High freq. dielectric constant tensor:
#      x y z
#    x 1.985990 -0.000580 0.005670 
#    y -0.000580 2.008620 -0.000460 
#    z 0.005670 -0.000460 2.037850 
# 
# From -- ./inp_files/377077.got.cif
#   From: 2010.06.25/outbox.cif.g09.slc.cpg/sg2_189_cif.got.tgz:377077.got - 2010.06.27 13:26:56.
