data_PCOD8004021
_publ_section_title
;
Structure prediction by ZEFSAII (Michael W. Deem and Ramdas Pophale) SiO2 
 PCOD8004021
Probable space group: P -1
;
_chemical_formula_sum "Si O2"
_cell_formula_units_Z 14
_cell_length_a 12.794879
_cell_length_b 9.880258
_cell_length_c 20.620872
_cell_angle_alpha 116.045589
_cell_angle_beta 151.496204
_cell_angle_gamma 43.954580
_cell_volume 700.720516
_symmetry_space_group_name_H-M "P -1"
_symmetry_group_IT_number 2
_symmetry_cell_setting 'triclinic'
loop_
_space_group_symop_operation_xyz
x,y,z
-x,-y,-z
loop_
_atom_site_type_symbol
_atom_site_label
_atom_site_fract_x
_atom_site_fract_y
_atom_site_fract_z
Si Si1 0.797747 0.202759 0.380376
Si Si2 0.021966 0.702755 0.051849
Si Si3 0.727763 0.679114 0.109609
Si Si4 0.061098 0.248818 0.131671
Si Si5 0.234367 0.265034 0.619070
Si Si6 0.606597 0.067267 0.152657
Si Si7 0.635221 0.202897 0.938178
O O1 0.397251 0.456637 0.233317
O O2 0.823727 0.089722 0.305151
O O3 0.000007 0.247631 0.497871
O O4 0.000000 0.000000 0.500000
O O5 0.985887 0.667844 0.950163
O O6 0.735209 0.774996 0.955474
O O7 0.968102 0.912433 0.065617
O O8 0.532563 0.685711 0.059324
O O9 0.051751 0.403322 0.204261
O O10 0.831259 0.790153 0.216302
O O11 0.468864 0.844106 0.943032
O O12 0.422005 0.969546 0.282316
O O13 0.748968 0.301413 0.991112
O O14 0.345241 0.282135 0.750499
O O15 0.000000 0.500000 0.500000
#
# Coordination Sequence:
#
# PCOD8004021 Si02
#       7
#     2   2   2   2   2   2   2
#     4  12  22  35  62  92 123 154 195 255 309 347
#     4  10  20  37  63  89 115 152 211 250 286 350
#     4  10  21  37  63  87 117 155 210 243 287 354
#     4  11  20  38  66  88 115 161 208 242 292 359
#     4  11  24  40  62  91 126 153 198 257 306 352
#     4  10  22  39  61  87 120 157 203 250 290 352
#     4  10  21  40  64  89 115 159 203 249 293 358
#
# _framework density 19.979434999999999
#
# number of rings (size 3 to 8) (size 9 to 14) (size 15 to 20)
#    0.000    1.429    1.429    6.857    2.000    0.000 
#    0.000    1.429    9.429    0.000    0.000    0.000 
#    0.000    0.000    0.000    0.000    0.000    0.000 
#
# Total GULP energy -173525.869950 kJ/mol
# GULP energy per Si atom -12394.704996 kJ/mol
# Density = 1.993396 g / cm^3
# Si number density = 19.979435 Si / 1000 Ang^3
#
#
#
# Elastic Constant Matrix: (Units=GPa)
#
#
# Indices 1 2 3 4 5 6 
#
# 1 120.3370 56.6375 40.8093 -7.0090 -4.3016 -3.3963
# 2 56.6375 125.1208 62.1613 -3.7511 -1.3358 -0.4972
# 3 40.8093 62.1613 104.1924 -8.7086 -6.9931 5.6627
# 4 -7.0090 -3.7511 -8.7086 31.6655 9.6149 0.9584
# 5 -4.3016 -1.3358 -6.9931 9.6149 23.5062 -2.4437
# 6 -3.3963 -0.4972 5.6627 0.9584 -2.4437 40.0816
#
#
#
# Elastic Compliance Matrix: (Units=1/GPa)
#
#
# Indices 1 2 3 4 5 6 
#
# 1 0.010938 -0.004009 -0.001800 0.001146 0.000890 0.001158
# 2 -0.004009 0.012918 -0.006330 -0.000646 -0.001552 0.000636
# 3 -0.001800 -0.006330 0.014547 0.002150 0.002532 -0.002183
# 4 0.001146 -0.000646 0.002150 0.036794 -0.014443 -0.001975
# 5 0.000890 -0.001552 0.002532 -0.014443 0.049597 0.003068
# 6 0.001158 0.000636 -0.002183 -0.001975 0.003068 0.025598
#
#
# Mechanical properties :
#
#
# Convention : Reuss Voigt Hill
#
# Bulk Modulus (GPa) = 70.78647 74.31851 72.55249
# Shear Modulus (GPa) = 27.87419 31.72013 29.79716
#
# Velocity S-wave (km/s) = 3.73922 3.98884 3.86604
# Velocity P-wave (km/s) = 7.35859 7.64805 7.50472
#
# Compressibility (1/GPa) = 0.01412699
#
# Stress axis : x y z
#
# Youngs Moduli (GPa) = 91.42100 77.41145 68.74166
#
# Poissons Ratio (x) = 0.31031 0.12375
# Poissons Ratio (y) = 0.36647 0.43510
# Poissons Ratio (z) = 0.16457 0.48998
#
# Static dielectric constant tensor:
#      x y z
#    x 3.764160 -0.019910 -0.073840 
#    y -0.019910 4.187980 0.034330 
#    z -0.073840 0.034330 3.584680 
# 
# 
# High freq. dielectric constant tensor:
#      x y z
#    x 1.784100 0.010350 -0.007100 
#    y 0.010350 1.808180 -0.001390 
#    z -0.007100 -0.001390 1.744980 
# 
# From -- ./inp_files/179017.got.cif
#   From: 2010.06.25/outbox.cif.g09.slc.cpg/sg2_90_cif.got.tgz:179017.got - 2010.06.27 13:26:56.
