data_PCOD8004869
_publ_section_title
;
Structure prediction by ZEFSAII (Michael W. Deem and Ramdas Pophale) SiO2 
 PCOD8004869
Probable space group: P -1
;
_chemical_formula_sum "Si O2"
_cell_formula_units_Z 14
_cell_length_a 15.230362
_cell_length_b 21.255661
_cell_length_c 12.314463
_cell_angle_alpha 151.892175
_cell_angle_beta 29.472521
_cell_angle_gamma 159.451155
_cell_volume 634.774180
_symmetry_space_group_name_H-M "P -1"
_symmetry_group_IT_number 2
_symmetry_cell_setting 'triclinic'
loop_
_space_group_symop_operation_xyz
x,y,z
-x,-y,-z
loop_
_atom_site_type_symbol
_atom_site_label
_atom_site_fract_x
_atom_site_fract_y
_atom_site_fract_z
Si Si1 0.646214 0.044964 0.022010
Si Si2 0.167887 0.684708 0.348333
Si Si3 0.783396 0.593596 0.118381
Si Si4 0.160966 0.115130 0.393882
Si Si5 0.244337 0.179159 0.792160
Si Si6 0.474049 0.060757 0.455928
Si Si7 0.340668 0.473782 0.271167
O O1 0.540366 0.074559 0.279606
O O2 0.953984 0.239645 0.978622
O O3 0.500000 0.000000 0.000000
O O4 0.602738 0.863519 0.821257
O O5 0.273856 0.774196 0.490999
O O6 0.862161 0.555050 0.480058
O O7 0.313352 0.849186 0.351771
O O8 0.214818 0.556627 0.068951
O O9 0.757037 0.684095 0.385432
O O10 0.535424 0.484848 0.144646
O O11 0.000000 0.000000 0.500000
O O12 0.006836 0.004789 0.282092
O O13 0.298465 0.098522 0.703921
O O14 0.495675 0.328174 0.670295
O O15 0.182324 0.288221 0.079607
#
# Coordination Sequence:
#
# PCOD8004869 Si02
#       7
#     2   2   2   2   2   2   2
#     4  11  23  41  73  96 131 176 222 278 328 388
#     4  11  26  43  64  96 143 177 214 270 334 403
#     4  11  23  43  66 102 130 167 225 278 328 389
#     4  10  20  38  62  97 131 162 213 273 332 384
#     4  11  21  40  66  99 129 169 224 279 324 380
#     4  11  24  44  64  98 135 180 220 264 338 402
#     4  11  23  40  69 100 129 166 225 283 327 380
#
# _framework density 22.055088000000001
#
# number of rings (size 3 to 8) (size 9 to 14) (size 15 to 20)
#    0.000    1.143    4.286    3.429    4.000    1.714 
#    2.571    3.571    0.000    0.000    0.000    0.000 
#    0.000    0.000    0.000    0.000    0.000    0.000 
#
# Total GULP energy -173570.583686 kJ/mol
# GULP energy per Si atom -12397.898835 kJ/mol
# Density = 2.200489 g / cm^3
# Si number density = 22.055088 Si / 1000 Ang^3
#
#
#
# Elastic Constant Matrix: (Units=GPa)
#
#
# Indices 1 2 3 4 5 6 
#
# 1 117.0610 41.7594 52.1224 5.7808 -13.0165 13.2547
# 2 41.7594 65.3015 49.9757 19.3093 -12.5612 8.5810
# 3 52.1224 49.9757 122.6559 26.4624 -23.7240 1.0748
# 4 5.7808 19.3093 26.4624 33.6267 1.9483 -8.9462
# 5 -13.0165 -12.5612 -23.7240 1.9483 47.1192 8.8359
# 6 13.2547 8.5810 1.0748 -8.9462 8.8359 28.1308
#
#
#
# Elastic Compliance Matrix: (Units=1/GPa)
#
#
# Indices 1 2 3 4 5 6 
#
# 1 0.012368 -0.005537 -0.003445 0.002837 0.000713 -0.003328
# 2 -0.005537 0.031259 -0.004988 -0.017440 0.007774 -0.014724
# 3 -0.003445 -0.004988 0.014782 -0.009101 0.005947 -0.002183
# 4 0.002837 -0.017440 -0.009101 0.054401 -0.015677 0.026555
# 5 0.000713 0.007774 0.005947 -0.015677 0.030411 -0.017472
# 6 -0.003328 -0.014724 -0.002183 0.026555 -0.017472 0.055624
#
#
# Mechanical properties :
#
#
# Convention : Reuss Voigt Hill
#
# Bulk Modulus (GPa) = 32.82029 65.85927 49.33978
# Shear Modulus (GPa) = 21.10229 32.51940 26.81085
#
# Velocity S-wave (km/s) = 3.09657 3.84404 3.49037
# Velocity P-wave (km/s) = 5.26292 7.04473 6.21798
#
# Compressibility (1/GPa) = 0.03046895
#
# Stress axis : x y z
#
# Youngs Moduli (GPa) = 80.85635 31.99057 67.65009
#
# Poissons Ratio (x) = 0.17714 0.23302
# Poissons Ratio (y) = 0.44773 0.33744
# Poissons Ratio (z) = 0.27851 0.15957
#
# Static dielectric constant tensor:
#      x y z
#    x 3.877560 0.118940 -0.248330 
#    y 0.118940 3.739320 0.368060 
#    z -0.248330 0.368060 4.528250 
# 
# 
# High freq. dielectric constant tensor:
#      x y z
#    x 1.865210 0.017040 -0.019270 
#    y 0.017040 1.836520 0.020510 
#    z -0.019270 0.020510 1.885710 
# 
# From -- ./inp_files/256576.got.cif
#   From: 2010.06.25/outbox.cif.g09.slc.cpg/sg2_129_cif.got.tgz:256576.got - 2010.06.27 13:26:56.
