data_PCOD8004420
_publ_section_title
;
Structure prediction by ZEFSAII (Michael W. Deem and Ramdas Pophale) SiO2 
 PCOD8004420
Probable space group: P -1
;
_chemical_formula_sum "Si O2"
_cell_formula_units_Z 12
_cell_length_a 15.365158
_cell_length_b 12.551417
_cell_length_c 11.994728
_cell_angle_alpha 54.193555
_cell_angle_beta 152.589099
_cell_angle_gamma 142.925138
_cell_volume 575.260547
_symmetry_space_group_name_H-M "P -1"
_symmetry_group_IT_number 2
_symmetry_cell_setting 'triclinic'
loop_
_space_group_symop_operation_xyz
x,y,z
-x,-y,-z
loop_
_atom_site_type_symbol
_atom_site_label
_atom_site_fract_x
_atom_site_fract_y
_atom_site_fract_z
Si Si1 0.970729 0.638319 0.908767
Si Si2 0.253721 0.044243 0.308109
Si Si3 0.906599 0.639997 0.091168
Si Si4 0.166902 0.690749 0.775569
Si Si5 0.523559 0.944487 0.236305
Si Si6 0.381049 0.538721 0.584037
O O1 0.727845 0.568455 0.594253
O O2 0.874604 0.618999 0.935228
O O3 0.000000 0.500000 0.000000
O O4 0.272695 0.862764 0.084462
O O5 0.277314 0.051247 0.466832
O O6 0.538684 0.262711 0.451614
O O7 0.202741 0.868030 0.316852
O O8 0.000000 0.000000 0.000000
O O9 0.898754 0.491324 0.226153
O O10 0.649922 0.588042 0.889187
O O11 0.872610 0.608931 0.525358
O O12 0.295487 0.835344 0.729346
O O13 0.391521 0.803367 0.064664
#
# Coordination Sequence:
#
# PCOD8004420 Si02
#       6
#     2   2   2   2   2   2
#     4  11  18  36  62  83 107 151 197 241 277 326
#     4  10  21  36  56  88 118 148 193 238 280 339
#     4  11  21  35  59  85 115 152 190 234 290 338
#     4  10  21  39  61  81 117 156 187 238 283 337
#     4  10  20  38  59  83 117 152 190 237 285 335
#     4  10  20  38  58  86 114 148 196 238 280 335
#
# _framework density 20.860112999999998
#
# number of rings (size 3 to 8) (size 9 to 14) (size 15 to 20)
#    0.000    1.667    5.000    0.500    0.000    4.667 
#    0.000   14.167    0.000    0.000    0.000    0.000 
#    0.000    0.000    0.000    0.000    0.000    0.000 
#
# Total GULP energy -148703.913990 kJ/mol
# GULP energy per Si atom -12391.992833 kJ/mol
# Density = 2.081263 g / cm^3
# Si number density = 20.860113 Si / 1000 Ang^3
#
#
#
# Elastic Constant Matrix: (Units=GPa)
#
#
# Indices 1 2 3 4 5 6 
#
# 1 51.9018 47.5243 20.9656 7.1020 14.5024 7.4877
# 2 47.5243 131.7160 26.4545 18.2184 12.7759 18.0709
# 3 20.9656 26.4545 84.1446 6.2390 -1.6886 9.5853
# 4 7.1020 18.2184 6.2390 30.5002 4.9333 0.4300
# 5 14.5024 12.7759 -1.6886 4.9333 22.6720 2.1252
# 6 7.4877 18.0709 9.5853 0.4300 2.1252 35.7301
#
#
#
# Elastic Compliance Matrix: (Units=1/GPa)
#
#
# Indices 1 2 3 4 5 6 
#
# 1 0.035962 -0.010283 -0.006285 0.001983 -0.018147 0.000406
# 2 -0.010283 0.012582 -0.000533 -0.005106 0.000940 -0.004060
# 3 -0.006285 -0.000533 0.014184 -0.002064 0.006066 -0.002554
# 4 0.001983 -0.005106 -0.002064 0.036862 -0.006817 0.002683
# 5 -0.018147 0.000940 0.006066 -0.006817 0.057273 -0.001624
# 6 0.000406 -0.004060 -0.002554 0.002683 -0.001624 0.030705
#
#
# Mechanical properties :
#
#
# Convention : Reuss Voigt Hill
#
# Bulk Modulus (GPa) = 35.05748 50.85013 42.95380
# Shear Modulus (GPa) = 21.61887 29.30167 25.46027
#
# Velocity S-wave (km/s) = 3.22277 3.75196 3.49739
# Velocity P-wave (km/s) = 5.53993 6.57262 6.07824
#
# Compressibility (1/GPa) = 0.02852459
#
# Stress axis : x y z
#
# Youngs Moduli (GPa) = 27.80684 79.48127 70.50326
#
# Poissons Ratio (x) = 0.81731 0.44311
# Poissons Ratio (y) = 0.28594 0.03761
# Poissons Ratio (z) = 0.17477 0.04240
#
# Static dielectric constant tensor:
#      x y z
#    x 3.562200 0.121280 -0.197320 
#    y 0.121280 4.141550 0.415640 
#    z -0.197320 0.415640 3.979270 
# 
# 
# High freq. dielectric constant tensor:
#      x y z
#    x 1.779970 0.012120 -0.007210 
#    y 0.012120 1.819210 0.024160 
#    z -0.007210 0.024160 1.822350 
# 
# From -- ./inp_files/158096.got.cif
#   From: 2010.06.25/outbox.cif.g09.slc.cpg/sg2_80_cif.got.tgz:158096.got - 2010.06.27 13:26:56.
