data_PCOD8004763
_publ_section_title
;
Structure prediction by ZEFSAII (Michael W. Deem and Ramdas Pophale) SiO2 
 PCOD8004763
Probable space group: P -1
;
_chemical_formula_sum "Si O2"
_cell_formula_units_Z 16
_cell_length_a 21.968061
_cell_length_b 10.851423
_cell_length_c 22.759553
_cell_angle_alpha 32.507051
_cell_angle_beta 12.886790
_cell_angle_gamma 33.865210
_cell_volume 648.726081
_symmetry_space_group_name_H-M "P -1"
_symmetry_group_IT_number 2
_symmetry_cell_setting 'triclinic'
loop_
_space_group_symop_operation_xyz
x,y,z
-x,-y,-z
loop_
_atom_site_type_symbol
_atom_site_label
_atom_site_fract_x
_atom_site_fract_y
_atom_site_fract_z
Si Si1 0.528333 0.339886 0.159579
Si Si2 0.088918 0.827342 0.692474
Si Si3 0.881463 0.873615 0.289267
Si Si4 0.580639 0.071879 0.109485
Si Si5 0.010953 0.115941 0.371327
Si Si6 0.860626 0.362886 0.069307
Si Si7 0.250046 0.392992 0.587864
Si Si8 0.528438 0.866006 0.950356
O O1 0.262556 0.221594 0.479877
O O2 0.531957 0.306967 0.098433
O O3 0.497960 0.604064 0.101875
O O4 0.804091 0.218457 0.975860
O O5 0.034518 0.915680 0.642251
O O6 0.406522 0.874627 0.383714
O O7 0.010116 0.565894 0.879532
O O8 0.898225 0.982856 0.854037
O O9 0.711819 0.791199 0.425754
O O10 0.851949 0.150435 0.207376
O O11 0.516910 0.109407 0.086411
O O12 0.909752 0.374368 0.380435
O O13 0.839767 0.932434 0.642913
O O14 0.334037 0.041872 0.102677
O O15 0.550541 0.448464 0.307094
O O16 0.055757 0.286240 0.862006
#
# Coordination Sequence:
#
# PCOD8004763 Si02
#       8
#     2   2   2   2   2   2   2   2
#     4  12  25  41  56  84 127 164 195 240 288 347
#     4   9  18  34  61  91 112 140 196 254 291 337
#     4  12  26  41  57  88 125 160 197 238 291 353
#     4  10  20  38  62  87 115 154 199 242 290 346
#     4   9  18  34  61  91 112 140 196 254 291 337
#     4  11  21  40  66  90 115 152 197 247 296 350
#     4  11  21  40  66  90 115 152 197 247 296 350
#     4  10  20  38  62  87 115 154 199 242 290 346
#
# _framework density 24.663723000000001
#
# number of rings (size 3 to 8) (size 9 to 14) (size 15 to 20)
#    0.000    1.500    0.000    7.875    0.000    0.000 
#    0.000   12.500    0.000    0.000    0.000    0.000 
#    0.000    0.000    0.000    0.000    0.000    0.000 
#
# Total GULP energy -198361.166737 kJ/mol
# GULP energy per Si atom -12397.572921 kJ/mol
# Density = 2.460759 g / cm^3
# Si number density = 24.663723 Si / 1000 Ang^3
#
#
#
# Elastic Constant Matrix: (Units=GPa)
#
#
# Indices 1 2 3 4 5 6 
#
# 1 21.9894 -0.1145 19.9053 3.5741 -0.2327 -5.3324
# 2 -0.1145 119.8972 45.8349 -6.0083 3.4489 -19.6684
# 3 19.9053 45.8349 140.6109 -2.5511 0.2762 -14.3378
# 4 3.5741 -6.0083 -2.5511 42.8761 -0.3529 7.7258
# 5 -0.2327 3.4489 0.2762 -0.3529 37.7307 2.2342
# 6 -5.3324 -19.6684 -14.3378 7.7258 2.2342 28.3714
#
#
#
# Elastic Compliance Matrix: (Units=1/GPa)
#
#
# Indices 1 2 3 4 5 6 
#
# 1 0.057260 0.004972 -0.008651 -0.006711 -0.000795 0.011727
# 2 0.004972 0.010847 -0.003543 -0.000353 -0.001345 0.006866
# 3 -0.008651 -0.003543 0.009559 0.000697 0.000175 0.000545
# 4 -0.006711 -0.000353 0.000697 0.025342 0.000703 -0.008110
# 5 -0.000795 -0.001345 0.000175 0.000703 0.026822 -0.003297
# 6 0.011727 0.006866 0.000545 -0.008110 -0.003297 0.044954
#
#
# Mechanical properties :
#
#
# Convention : Reuss Voigt Hill
#
# Bulk Modulus (GPa) = 15.81738 45.97209 30.89474
# Shear Modulus (GPa) = 23.77531 36.25376 30.01453
#
# Velocity S-wave (km/s) = 3.10817 3.83812 3.49227
# Velocity P-wave (km/s) = 4.39410 6.19044 5.36794
#
# Compressibility (1/GPa) = 0.06322161
#
# Stress axis : x y z
#
# Youngs Moduli (GPa) = 17.46431 92.19096 104.60905
#
# Poissons Ratio (x) = -0.45839 0.90498
# Poissons Ratio (y) = -0.08684 0.37067
# Poissons Ratio (z) = 0.15108 0.32667
#
# Static dielectric constant tensor:
#      x y z
#    x 4.203570 0.143940 0.043600 
#    y 0.143940 4.205460 0.072650 
#    z 0.043600 0.072650 4.965330 
# 
# 
# High freq. dielectric constant tensor:
#      x y z
#    x 1.975030 0.017120 0.005600 
#    y 0.017120 1.968570 0.003040 
#    z 0.005600 0.003040 2.007930 
# 
# From -- ./inp_files/621236.got.cif
#   From: 2010.06.25/outbox.cif.g09.slc.cpg/sg2_311_cif.got.tgz:621236.got - 2010.06.27 13:26:56.
