data_PCOD8004851
_publ_section_title
;
Structure prediction by ZEFSAII (Michael W. Deem and Ramdas Pophale) SiO2 
 PCOD8004851
Probable space group: P -1
;
_chemical_formula_sum "Si O2"
_cell_formula_units_Z 16
_cell_length_a 10.810851
_cell_length_b 19.201975
_cell_length_c 9.418894
_cell_angle_alpha 61.684419
_cell_angle_beta 108.905328
_cell_angle_gamma 147.195156
_cell_volume 921.071040
_symmetry_space_group_name_H-M "P -1"
_symmetry_group_IT_number 2
_symmetry_cell_setting 'triclinic'
loop_
_space_group_symop_operation_xyz
x,y,z
-x,-y,-z
loop_
_atom_site_type_symbol
_atom_site_label
_atom_site_fract_x
_atom_site_fract_y
_atom_site_fract_z
Si Si1 0.432441 0.168509 0.139385
Si Si2 0.814598 0.090973 0.821469
Si Si3 0.392291 0.907214 0.685962
Si Si4 0.959553 0.977310 0.673038
Si Si5 0.888369 0.774374 0.946678
Si Si6 0.866613 0.679998 0.745317
Si Si7 0.205415 0.249299 0.609031
Si Si8 0.479979 0.622256 0.144599
O O1 0.619468 0.194988 0.231718
O O2 0.302691 0.132498 0.269747
O O3 0.248136 0.034766 0.092029
O O4 0.553200 0.300865 0.972195
O O5 0.009374 0.201616 0.665404
O O6 0.578986 0.022748 0.768172
O O7 0.914981 0.167293 0.936936
O O8 0.143197 0.819176 0.705549
O O9 0.500000 0.000000 0.500000
O O10 0.011914 0.914329 0.799369
O O11 0.000000 0.000000 0.500000
O O12 0.134496 0.124232 0.671221
O O13 0.804846 0.675725 0.885645
O O14 0.667261 0.681999 0.048383
O O15 0.749877 0.682175 0.587991
O O16 0.765155 0.542224 0.814221
O O17 0.438431 0.357051 0.684764
#
# Coordination Sequence:
#
# PCOD8004851 Si02
#       8
#     2   2   2   2   2   2   2   2
#     4   8  18  34  52  73 100 136 167 204 254 296
#     4   8  17  34  53  73 100 129 165 214 257 287
#     4  10  19  35  55  75 101 130 177 212 245 298
#     4  10  16  29  54  80 100 123 168 222 260 287
#     4  10  20  32  51  80 105 128 165 217 264 292
#     4  12  21  32  52  78 106 139 169 202 249 308
#     4  10  18  33  53  78 102 131 172 210 255 296
#     4  10  21  35  51  74 108 139 166 205 250 310
#
# _framework density 17.371081
#
# number of rings (size 3 to 8) (size 9 to 14) (size 15 to 20)
#    0.750    1.500    2.500    1.500    0.000    4.000 
#    0.000    0.000    0.000    0.000    0.000    1.750 
#    0.000    0.000    0.000    0.000    0.000    0.000 
#
# Total GULP energy -198224.121856 kJ/mol
# GULP energy per Si atom -12389.007616 kJ/mol
# Density = 1.733154 g / cm^3
# Si number density = 17.371081 Si / 1000 Ang^3
#
#
#
# Elastic Constant Matrix: (Units=GPa)
#
#
# Indices 1 2 3 4 5 6 
#
# 1 35.9167 10.1077 14.8041 13.0917 7.8122 -0.1186
# 2 10.1077 72.1339 34.5464 10.2926 3.1739 -7.0217
# 3 14.8041 34.5464 85.1991 20.0016 5.4635 -1.2457
# 4 13.0917 10.2926 20.0016 27.2676 -4.8407 0.0712
# 5 7.8122 3.1739 5.4635 -4.8407 25.4912 1.6611
# 6 -0.1186 -7.0217 -1.2457 0.0712 1.6611 22.1289
#
#
#
# Elastic Compliance Matrix: (Units=1/GPa)
#
#
# Indices 1 2 3 4 5 6 
#
# 1 0.039522 -0.001634 -0.000238 -0.021010 -0.015909 0.000942
# 2 -0.001634 0.017994 -0.006546 -0.001389 -0.000953 0.005408
# 3 -0.000238 -0.006546 0.017310 -0.010973 -0.004860 -0.000704
# 4 -0.021010 -0.001389 -0.010973 0.058954 0.020347 -0.002888
# 5 -0.015909 -0.000953 -0.004860 0.020347 0.049418 -0.004436
# 6 0.000942 0.005408 -0.000704 -0.002888 -0.004436 0.047214
#
#
# Mechanical properties :
#
#
# Convention : Reuss Voigt Hill
#
# Bulk Modulus (GPa) = 17.24460 34.68513 25.96487
# Shear Modulus (GPa) = 18.75625 23.89699 21.32662
#
# Velocity S-wave (km/s) = 3.28950 3.71304 3.50767
# Velocity P-wave (km/s) = 4.93726 6.19618 5.60220
#
# Compressibility (1/GPa) = 0.05798915
#
# Stress axis : x y z
#
# Youngs Moduli (GPa) = 25.30239 55.57532 57.76915
#
# Poissons Ratio (x) = 0.09083 0.01376
# Poissons Ratio (y) = 0.04135 0.37814
# Poissons Ratio (z) = 0.00603 0.36378
#
# Static dielectric constant tensor:
#      x y z
#    x 3.086540 -0.059330 0.105420 
#    y -0.059330 3.150700 0.066230 
#    z 0.105420 0.066230 3.437690 
# 
# 
# High freq. dielectric constant tensor:
#      x y z
#    x 1.640230 -0.005990 0.005410 
#    y -0.005990 1.656870 0.004500 
#    z 0.005410 0.004500 1.677800 
# 
# From -- ./inp_files/253115.got.cif
#   From: 2010.06.25/outbox.cif.g09.slc.cpg/sg2_127_cif.got.tgz:253115.got - 2010.06.27 13:26:56.
