data_PCOD8004211
_publ_section_title
;
Structure prediction by ZEFSAII (Michael W. Deem and Ramdas Pophale) SiO2 
 PCOD8004211
Probable space group: P -1
;
_chemical_formula_sum "Si O2"
_cell_formula_units_Z 16
_cell_length_a 11.894808
_cell_length_b 12.063170
_cell_length_c 9.188952
_cell_angle_alpha 36.109589
_cell_angle_beta 100.093710
_cell_angle_gamma 100.820867
_cell_volume 762.591688
_symmetry_space_group_name_H-M "P -1"
_symmetry_group_IT_number 2
_symmetry_cell_setting 'triclinic'
loop_
_space_group_symop_operation_xyz
x,y,z
-x,-y,-z
loop_
_atom_site_type_symbol
_atom_site_label
_atom_site_fract_x
_atom_site_fract_y
_atom_site_fract_z
Si Si1 0.091936 0.471644 0.732801
Si Si2 0.926264 0.260673 0.129759
Si Si3 0.660217 0.493953 0.132743
Si Si4 0.654258 0.798516 0.579656
Si Si5 0.906633 0.838142 0.500881
Si Si6 0.521943 0.515094 0.659642
Si Si7 0.659516 0.231509 0.156125
Si Si8 0.036646 0.212904 0.743147
O O1 0.203982 0.483915 0.842678
O O2 0.109503 0.312257 0.784408
O O3 0.074922 0.670912 0.438179
O O4 0.979398 0.415476 0.864273
O O5 0.793203 0.285953 0.096035
O O6 0.994268 0.278954 0.280022
O O7 0.947497 0.058754 0.280336
O O8 0.599222 0.484239 0.285012
O O9 0.630092 0.303144 0.235009
O O10 0.614342 0.668067 0.846451
O O11 0.790448 0.793455 0.609549
O O12 0.595637 0.709880 0.513643
O O13 0.621336 0.010398 0.371763
O O14 0.885480 0.780329 0.390509
O O15 0.500000 0.500000 0.500000
O O16 0.588874 0.335246 0.909281
O O17 0.000000 0.000000 0.000000
#
# Coordination Sequence:
#
# PCOD8004211 Si02
#       8
#     2   2   2   2   2   2   2   2
#     4  11  24  38  63  93 128 176 205 255 327 378
#     4  10  20  38  66 100 125 159 216 254 318 380
#     4  11  24  43  65  95 123 166 219 264 314 378
#     4  10  22  43  70  95 122 167 213 267 325 360
#     4  10  20  37  65  93 131 163 204 264 312 385
#     4  11  27  45  64  92 131 166 217 267 316 378
#     4  10  23  42  69  96 126 166 213 268 311 382
#     4  11  24  39  55  90 137 172 209 253 315 388
#
# _framework density 20.981083999999999
#
# number of rings (size 3 to 8) (size 9 to 14) (size 15 to 20)
#    0.000    1.500    2.500    2.250    5.250    5.500 
#    0.000    0.000    0.000    0.000    0.000    0.000 
#    0.000    0.000    0.000    0.000    0.000    0.000 
#
# Total GULP energy -198424.720445 kJ/mol
# GULP energy per Si atom -12401.545028 kJ/mol
# Density = 2.093333 g / cm^3
# Si number density = 20.981084 Si / 1000 Ang^3
#
#
#
# Elastic Constant Matrix: (Units=GPa)
#
#
# Indices 1 2 3 4 5 6 
#
# 1 76.7597 27.8700 32.5416 -2.7772 1.6106 -2.8219
# 2 27.8700 147.9556 80.3134 -1.4434 -1.1357 -0.1846
# 3 32.5416 80.3134 116.4522 -14.0678 6.1969 -3.5797
# 4 -2.7772 -1.4434 -14.0678 42.2154 -2.1846 -1.4807
# 5 1.6106 -1.1357 6.1969 -2.1846 29.5097 3.4385
# 6 -2.8219 -0.1846 -3.5797 -1.4807 3.4385 32.9318
#
#
#
# Elastic Compliance Matrix: (Units=1/GPa)
#
#
# Indices 1 2 3 4 5 6 
#
# 1 0.014877 -0.000889 -0.003530 -0.000208 -0.000225 0.000900
# 2 -0.000889 0.011208 -0.007901 -0.002241 0.002112 -0.001194
# 3 -0.003530 -0.007901 0.015822 0.004666 -0.003313 0.001929
# 4 -0.000208 -0.002241 0.004666 0.025240 0.000634 0.001546
# 5 -0.000225 0.002112 -0.003313 0.000634 0.035191 -0.004014
# 6 0.000900 -0.001194 0.001929 0.001546 -0.004014 0.031134
#
#
# Mechanical properties :
#
#
# Convention : Reuss Voigt Hill
#
# Bulk Modulus (GPa) = 57.91210 69.17969 63.54590
# Shear Modulus (GPa) = 30.51236 34.29420 32.40328
#
# Velocity S-wave (km/s) = 3.81764 4.04732 3.93415
# Velocity P-wave (km/s) = 6.86254 7.40844 7.14071
#
# Compressibility (1/GPa) = 0.01726755
#
# Stress axis : x y z
#
# Youngs Moduli (GPa) = 67.21733 89.22162 63.20297
#
# Poissons Ratio (x) = 0.07932 0.22308
# Poissons Ratio (y) = 0.05976 0.49938
# Poissons Ratio (z) = 0.23725 0.70496
#
# Static dielectric constant tensor:
#      x y z
#    x 3.602230 -0.020040 0.038520 
#    y -0.020040 3.997430 -0.093210 
#    z 0.038520 -0.093210 3.772950 
# 
# 
# High freq. dielectric constant tensor:
#      x y z
#    x 1.813470 -0.005230 0.002330 
#    y -0.005230 1.836430 -0.008020 
#    z 0.002330 -0.008020 1.820050 
# 
# From -- ./inp_files/256025.got.cif
#   From: 2010.06.25/outbox.cif.g09.slc.cpg/sg2_129_cif.got.tgz:256025.got - 2010.06.27 13:26:56.
