data_PCOD8004563
_publ_section_title
;
Structure prediction by ZEFSAII (Michael W. Deem and Ramdas Pophale) SiO2 
 PCOD8004563
Probable space group: P -1
;
_chemical_formula_sum "Si O2"
_cell_formula_units_Z 16
_cell_length_a 13.159967
_cell_length_b 11.914294
_cell_length_c 11.939339
_cell_angle_alpha 23.881975
_cell_angle_beta 79.284161
_cell_angle_gamma 79.407898
_cell_volume 744.217870
_symmetry_space_group_name_H-M "P -1"
_symmetry_group_IT_number 2
_symmetry_cell_setting 'triclinic'
loop_
_space_group_symop_operation_xyz
x,y,z
-x,-y,-z
loop_
_atom_site_type_symbol
_atom_site_label
_atom_site_fract_x
_atom_site_fract_y
_atom_site_fract_z
Si Si1 0.165947 0.335854 0.212614
Si Si2 0.391437 0.152218 0.904372
Si Si3 0.743408 0.344103 0.902614
Si Si4 0.970084 0.136579 0.998502
Si Si5 0.972801 0.319510 0.417382
Si Si6 0.367166 0.179615 0.637605
Si Si7 0.206496 0.753937 0.638034
Si Si8 0.604221 0.246551 0.548474
O O1 0.246685 0.476894 0.150127
O O2 0.050100 0.370437 0.251874
O O3 0.193494 0.011613 0.489426
O O4 0.173650 0.478620 0.960024
O O5 0.329970 0.144674 0.806567
O O6 0.408216 0.467194 0.645075
O O7 0.500000 0.000000 0.000000
O O8 0.339780 0.983953 0.170242
O O9 0.854168 0.264881 0.898417
O O10 0.676270 0.522373 0.665085
O O11 0.683096 0.066675 0.197760
O O12 0.045665 0.390059 0.777375
O O13 0.000000 0.000000 0.000000
O O14 0.976996 0.911015 0.300995
O O15 0.865116 0.216733 0.484489
O O16 0.490743 0.155143 0.617866
O O17 0.325475 0.725926 0.600697
#
# Coordination Sequence:
#
# PCOD8004563 Si02
#       8
#     2   2   2   2   2   2   2   2
#     4  11  23  43  62  87 119 159 208 255 299 356
#     4  10  20  38  60  86 122 160 195 243 295 355
#     4  11  23  40  63  87 119 166 206 237 294 371
#     4  11  24  42  62  96 131 154 193 252 298 357
#     4  11  23  42  66  91 119 162 203 241 305 375
#     4  11  21  39  63  88 121 167 200 235 296 372
#     4  12  24  41  65  90 120 157 201 265 308 336
#     4  11  23  39  59  95 126 151 203 256 295 352
#
# _framework density 21.499081
#
# number of rings (size 3 to 8) (size 9 to 14) (size 15 to 20)
#    0.000    1.000    0.000   10.125    0.000    3.000 
#    0.000    3.750    0.000    0.000    0.000    0.000 
#    0.000    0.000    0.000    0.000    0.000    0.000 
#
# Total GULP energy -198467.243894 kJ/mol
# GULP energy per Si atom -12404.202743 kJ/mol
# Density = 2.145015 g / cm^3
# Si number density = 21.499081 Si / 1000 Ang^3
#
#
#
# Elastic Constant Matrix: (Units=GPa)
#
#
# Indices 1 2 3 4 5 6 
#
# 1 91.6941 47.2593 25.1479 0.5597 -7.9326 2.4374
# 2 47.2593 101.3657 18.8252 -13.8873 -6.4332 1.5982
# 3 25.1479 18.8252 103.2871 -0.3911 -3.0994 0.6338
# 4 0.5597 -13.8873 -0.3911 48.8229 12.8693 -8.5399
# 5 -7.9326 -6.4332 -3.0994 12.8693 33.0610 -2.4775
# 6 2.4374 1.5982 0.6338 -8.5399 -2.4775 25.0816
#
#
#
# Elastic Compliance Matrix: (Units=1/GPa)
#
#
# Indices 1 2 3 4 5 6 
#
# 1 0.015543 -0.007025 -0.002406 -0.003390 0.003320 -0.001828
# 2 -0.007025 0.013834 -0.000823 0.004411 -0.000694 0.001255
# 3 -0.002406 -0.000823 0.010426 -0.000210 0.000321 -0.000017
# 4 -0.003390 0.004411 -0.000210 0.025614 -0.009357 0.007851
# 5 0.003320 -0.000694 0.000321 -0.009357 0.034577 -0.000057
# 6 -0.001828 0.001255 -0.000017 0.007851 -0.000057 0.042635
#
#
# Mechanical properties :
#
#
# Convention : Reuss Voigt Hill
#
# Bulk Modulus (GPa) = 51.82413 53.20129 52.51271
# Shear Modulus (GPa) = 29.48685 35.06740 32.27712
#
# Velocity S-wave (km/s) = 3.70745 4.04308 3.87890
# Velocity P-wave (km/s) = 6.51801 6.82605 6.67381
#
# Compressibility (1/GPa) = 0.01929603
#
# Stress axis : x y z
#
# Youngs Moduli (GPa) = 64.33926 72.28760 95.90994
#
# Poissons Ratio (x) = 0.50779 0.23075
# Poissons Ratio (y) = 0.45195 0.07892
# Poissons Ratio (z) = 0.15480 0.05948
#
# Static dielectric constant tensor:
#      x y z
#    x 3.716660 0.182010 0.005890 
#    y 0.182010 4.027540 0.100130 
#    z 0.005890 0.100130 4.344470 
# 
# 
# High freq. dielectric constant tensor:
#      x y z
#    x 1.830590 0.010240 -0.000940 
#    y 0.010240 1.840900 -0.007570 
#    z -0.000940 -0.007570 1.867850 
# 
# From -- ./inp_files/452073.got.cif
#   From: 2010.06.25/outbox.cif.g09.slc.cpg/sg2_227_cif.got.tgz:452073.got - 2010.06.27 13:26:56.
