data_PCOD8004517
_publ_section_title
;
Structure prediction by ZEFSAII (Michael W. Deem and Ramdas Pophale) SiO2 
 PCOD8004517
Probable space group: P -1
;
_chemical_formula_sum "Si O2"
_cell_formula_units_Z 14
_cell_length_a 11.571890
_cell_length_b 11.854114
_cell_length_c 11.834169
_cell_angle_alpha 39.693457
_cell_angle_beta 140.351545
_cell_angle_gamma 119.188782
_cell_volume 639.313055
_symmetry_space_group_name_H-M "P -1"
_symmetry_group_IT_number 2
_symmetry_cell_setting 'triclinic'
loop_
_space_group_symop_operation_xyz
x,y,z
-x,-y,-z
loop_
_atom_site_type_symbol
_atom_site_label
_atom_site_fract_x
_atom_site_fract_y
_atom_site_fract_z
Si Si1 0.027789 0.361978 0.376158
Si Si2 0.232569 0.530737 0.241080
Si Si3 0.752805 0.589289 0.154427
Si Si4 0.463539 0.644319 0.711804
Si Si5 0.427684 0.750420 0.368141
Si Si6 0.356053 0.147171 0.928830
Si Si7 0.709820 0.282927 0.072759
O O1 0.954027 0.506796 0.311013
O O2 0.878388 0.243230 0.323242
O O3 0.044929 0.482063 0.184154
O O4 0.229799 0.228044 0.662240
O O5 0.320358 0.599822 0.365270
O O6 0.356205 0.339000 0.432080
O O7 0.200771 0.695806 0.998898
O O8 0.702093 0.406774 0.303822
O O9 0.750809 0.736676 0.135558
O O10 0.604667 0.697682 0.865846
O O11 0.395549 0.793973 0.445957
O O12 0.565219 0.470596 0.849128
O O13 0.349672 0.939653 0.098407
O O14 0.577177 0.142251 0.083155
#
# Coordination Sequence:
#
# PCOD8004517 Si02
#       7
#     2   2   2   2   2   2   2
#     4  11  21  37  61  87 115 150 187 230 283 341
#     4  10  20  38  60  80 112 153 192 234 280 335
#     4   9  18  35  59  84 112 149 189 229 279 335
#     4   8  16  35  59  81 111 151 190 228 275 336
#     4  10  21  37  59  85 113 151 192 232 283 334
#     4  11  22  37  59  86 117 149 186 236 283 331
#     4   9  20  38  60  85 111 148 193 233 279 333
#
# _framework density 21.898503000000002
#
# number of rings (size 3 to 8) (size 9 to 14) (size 15 to 20)
#    0.000    2.286    0.000    5.143    0.000    2.857 
#    0.000   10.000    0.000    0.000    0.000    0.000 
#    0.000    0.000    0.000    0.000    0.000    0.000 
#
# Total GULP energy -173460.423525 kJ/mol
# GULP energy per Si atom -12390.030252 kJ/mol
# Density = 2.184866 g / cm^3
# Si number density = 21.898503 Si / 1000 Ang^3
#
#
#
# Elastic Constant Matrix: (Units=GPa)
#
#
# Indices 1 2 3 4 5 6 
#
# 1 118.1584 19.3850 30.4897 2.0755 -11.8137 3.8568
# 2 19.3850 47.6862 37.6637 10.2142 3.2823 7.6935
# 3 30.4897 37.6637 65.0459 2.0319 -14.7261 1.1852
# 4 2.0755 10.2142 2.0319 29.5645 -0.0509 -2.6811
# 5 -11.8137 3.2823 -14.7261 -0.0509 27.1146 8.8401
# 6 3.8568 7.6935 1.1852 -2.6811 8.8401 24.4161
#
#
#
# Elastic Compliance Matrix: (Units=1/GPa)
#
#
# Indices 1 2 3 4 5 6 
#
# 1 0.009908 -0.001736 -0.002739 -0.000106 0.003777 -0.002264
# 2 -0.001736 0.059741 -0.038948 -0.018724 -0.026163 -0.009243
# 3 -0.002739 -0.038948 0.045052 0.010759 0.027433 0.001767
# 4 -0.000106 -0.018724 0.010759 0.040277 0.005600 0.007790
# 5 0.003777 -0.026163 0.027433 0.005600 0.061617 -0.015379
# 6 -0.002264 -0.009243 0.001767 0.007790 -0.015379 0.050564
#
#
# Mechanical properties :
#
#
# Convention : Reuss Voigt Hill
#
# Bulk Modulus (GPa) = 35.90037 45.10749 40.50393
# Shear Modulus (GPa) = 13.76303 25.77586 19.76944
#
# Velocity S-wave (km/s) = 2.50969 3.43455 3.00788
# Velocity P-wave (km/s) = 4.98274 6.03087 5.53168
#
# Compressibility (1/GPa) = 0.02785486
#
# Stress axis : x y z
#
# Youngs Moduli (GPa) = 100.92461 16.73897 22.19636
#
# Poissons Ratio (x) = 0.02906 0.06081
# Poissons Ratio (y) = 0.17521 0.86450
# Poissons Ratio (z) = 0.27648 0.65195
#
# Static dielectric constant tensor:
#      x y z
#    x 4.353100 -0.000140 -0.292910 
#    y -0.000140 3.678050 0.293460 
#    z -0.292910 0.293460 3.710660 
# 
# 
# High freq. dielectric constant tensor:
#      x y z
#    x 1.871710 -0.006240 -0.018960 
#    y -0.006240 1.838030 0.030090 
#    z -0.018960 0.030090 1.831270 
# 
# From -- ./inp_files/278727.got.cif
#   From: 2010.06.25/outbox.cif.g09.slc.cpg/sg2_140_cif.got.tgz:278727.got - 2010.06.27 13:26:56.
