data_PCOD8004594
_publ_section_title
;
Structure prediction by ZEFSAII (Michael W. Deem and Ramdas Pophale) SiO2 
 PCOD8004594
Probable space group: P -1
;
_chemical_formula_sum "Si O2"
_cell_formula_units_Z 14
_cell_length_a 8.064875
_cell_length_b 14.901277
_cell_length_c 9.012562
_cell_angle_alpha 136.882638
_cell_angle_beta 72.278069
_cell_angle_gamma 82.057335
_cell_volume 587.283056
_symmetry_space_group_name_H-M "P -1"
_symmetry_group_IT_number 2
_symmetry_cell_setting 'triclinic'
loop_
_space_group_symop_operation_xyz
x,y,z
-x,-y,-z
loop_
_atom_site_type_symbol
_atom_site_label
_atom_site_fract_x
_atom_site_fract_y
_atom_site_fract_z
Si Si1 0.784486 0.339596 0.312514
Si Si2 0.407544 0.681540 0.242157
Si Si3 0.005234 0.129193 0.248020
Si Si4 0.384332 0.329544 0.110933
Si Si5 0.717644 0.705901 0.387622
Si Si6 0.028848 0.373701 0.050662
Si Si7 0.578593 0.140207 0.100696
O O1 0.961771 0.262375 0.301135
O O2 0.639896 0.524893 0.613899
O O3 0.652414 0.260573 0.254723
O O4 0.893923 0.313905 0.090527
O O5 0.164119 0.790667 0.478343
O O6 0.537810 0.698053 0.351743
O O7 0.500000 0.500000 0.000000
O O8 0.432799 0.732166 0.133997
O O9 0.000000 0.000000 0.000000
O O10 0.227912 0.042756 0.166253
O O11 0.172190 0.375574 0.142917
O O12 0.464205 0.183014 0.024249
O O13 0.587924 0.842731 0.710142
O O14 0.882552 0.550649 0.245842
O O15 0.838397 0.736299 0.260397
#
# Coordination Sequence:
#
# PCOD8004594 Si02
#       7
#     2   2   2   2   2   2   2
#     4  11  20  37  62  94 117 162 209 256 291 370
#     4  11  20  36  63  96 120 150 211 258 297 349
#     4  10  21  39  61  92 126 161 197 258 309 364
#     4  11  22  36  63  92 124 157 205 261 299 361
#     4  10  20  38  60  89 123 164 196 250 310 361
#     4  10  23  36  60  91 129 155 209 252 306 354
#     4  11  22  38  66  86 125 162 209 246 317 355
#
# _framework density 23.838591000000001
#
# number of rings (size 3 to 8) (size 9 to 14) (size 15 to 20)
#    0.000    1.429    5.714    0.857    2.000    0.571 
#    0.000    1.429    0.000    0.000    0.000    0.000 
#    0.000    0.000    0.000    0.000    0.000    0.000 
#
# Total GULP energy -173487.293977 kJ/mol
# GULP energy per Si atom -12391.949570 kJ/mol
# Density = 2.378433 g / cm^3
# Si number density = 23.838591 Si / 1000 Ang^3
#
#
#
# Elastic Constant Matrix: (Units=GPa)
#
#
# Indices 1 2 3 4 5 6 
#
# 1 56.9048 43.0485 35.1529 -11.2389 -16.1953 -9.6956
# 2 43.0485 128.7738 46.8288 -31.7052 -27.2259 -27.2297
# 3 35.1529 46.8288 140.7613 -30.8195 -48.1277 -7.1183
# 4 -11.2389 -31.7052 -30.8195 48.7570 1.5167 -12.2321
# 5 -16.1953 -27.2259 -48.1277 1.5167 34.3754 5.4402
# 6 -9.6956 -27.2297 -7.1183 -12.2321 5.4402 45.0671
#
#
#
# Elastic Compliance Matrix: (Units=1/GPa)
#
#
# Indices 1 2 3 4 5 6 
#
# 1 0.025458 -0.007253 -0.004020 -0.001412 0.000684 -0.000006
# 2 -0.007253 0.018375 0.005391 0.016434 0.015912 0.012933
# 3 -0.004020 0.005391 0.019816 0.015823 0.028410 0.006388
# 4 -0.001412 0.016434 0.015823 0.045200 0.029208 0.020867
# 5 0.000684 0.015912 0.028410 0.029208 0.078493 0.012701
# 6 -0.000006 0.012933 0.006388 0.020867 0.012701 0.035142
#
#
# Mechanical properties :
#
#
# Convention : Reuss Voigt Hill
#
# Bulk Modulus (GPa) = 19.27347 64.05559 41.66453
# Shear Modulus (GPa) = 19.87729 39.06722 29.47225
#
# Velocity S-wave (km/s) = 2.89074 4.05263 3.51996
# Velocity P-wave (km/s) = 4.38684 6.98765 5.83402
#
# Compressibility (1/GPa) = 0.05188480
#
# Stress axis : x y z
#
# Youngs Moduli (GPa) = 39.27971 54.42220 50.46396
#
# Poissons Ratio (x) = 0.39472 0.20289
# Poissons Ratio (y) = 0.28489 -0.27205
# Poissons Ratio (z) = 0.15792 -0.29339
#
# Static dielectric constant tensor:
#      x y z
#    x 4.338880 -0.409710 -0.404190 
#    y -0.409710 4.932210 -0.198030 
#    z -0.404190 -0.198030 4.402060 
# 
# 
# High freq. dielectric constant tensor:
#      x y z
#    x 1.945560 -0.017120 -0.016790 
#    y -0.017120 1.952390 -0.021150 
#    z -0.016790 -0.021150 1.939690 
# 
# From -- ./inp_files/204067.got.cif
#   From: 2010.06.25/outbox.cif.g09.slc.cpg/sg2_103_cif.got.tgz:204067.got - 2010.06.27 13:26:56.
