data_PCOD8004657
_publ_section_title
;
Structure prediction by ZEFSAII (Michael W. Deem and Ramdas Pophale) SiO2 
 PCOD8004657
Probable space group: P -1
;
_chemical_formula_sum "Si O2"
_cell_formula_units_Z 16
_cell_length_a 23.384665
_cell_length_b 9.089194
_cell_length_c 8.264995
_cell_angle_alpha 113.552565
_cell_angle_beta 150.006278
_cell_angle_gamma 67.007614
_cell_volume 801.218075
_symmetry_space_group_name_H-M "P -1"
_symmetry_group_IT_number 2
_symmetry_cell_setting 'triclinic'
loop_
_space_group_symop_operation_xyz
x,y,z
-x,-y,-z
loop_
_atom_site_type_symbol
_atom_site_label
_atom_site_fract_x
_atom_site_fract_y
_atom_site_fract_z
Si Si1 0.112495 0.418348 0.314767
Si Si2 0.105285 0.106606 0.312719
Si Si3 0.346707 0.405048 0.760285
Si Si4 0.890021 0.606341 0.344301
Si Si5 0.401763 0.958801 0.508979
Si Si6 0.333444 0.282174 0.333185
Si Si7 0.647902 0.940808 0.220121
Si Si8 0.468378 0.641673 0.362622
O O1 0.097209 0.227071 0.191882
O O2 0.211564 0.460602 0.455705
O O3 0.140564 0.473583 0.592570
O O4 0.000000 0.500000 0.000000
O O5 0.086311 0.208199 0.477941
O O6 0.237847 0.023945 0.587477
O O7 0.000000 0.000000 0.000000
O O8 0.384061 0.365180 0.651006
O O9 0.365972 0.248709 0.857873
O O10 0.406942 0.561023 0.028539
O O11 0.000000 0.500000 0.500000
O O12 0.787273 0.619176 0.968393
O O13 0.389134 0.786381 0.318649
O O14 0.326867 0.094122 0.278743
O O15 0.351115 0.956923 0.566238
O O16 0.535461 0.999903 0.864031
O O17 0.417181 0.287619 0.388768
O O18 0.500000 0.500000 0.500000
#
# Coordination Sequence:
#
# PCOD8004657 Si02
#       8
#     2   2   2   2   2   2   2   2
#     4   9  19  39  62  81 115 161 199 246 308 361
#     4   9  20  39  61  89 122 155 204 256 304 358
#     4  10  20  38  61  85 121 161 205 246 303 361
#     4  10  21  39  63  88 119 163 204 248 312 363
#     4  10  21  38  63  90 122 167 206 244 318 369
#     4  11  23  40  61  87 128 162 207 248 307 383
#     4   9  18  40  62  84 124 171 196 249 311 378
#     4  12  22  38  59  96 128 154 203 262 307 357
#
# _framework density 19.969595000000002
#
# number of rings (size 3 to 8) (size 9 to 14) (size 15 to 20)
#    0.750    1.250    1.250    3.000    0.000    0.000 
#    9.000    0.000    0.000    3.000    0.000    0.000 
#    0.000    0.000    0.000    0.000    0.000    0.000 
#
# Total GULP energy -198225.622565 kJ/mol
# GULP energy per Si atom -12389.101410 kJ/mol
# Density = 1.992414 g / cm^3
# Si number density = 19.969595 Si / 1000 Ang^3
#
#
#
# Elastic Constant Matrix: (Units=GPa)
#
#
# Indices 1 2 3 4 5 6 
#
# 1 81.4525 37.0364 18.7298 2.8793 2.2124 -19.2905
# 2 37.0364 90.7886 39.9125 -1.5517 -8.6709 -26.0263
# 3 18.7298 39.9125 78.6271 -8.6594 2.6279 -4.4022
# 4 2.8793 -1.5517 -8.6594 43.8655 -3.1990 -5.5647
# 5 2.2124 -8.6709 2.6279 -3.1990 35.8762 -4.3629
# 6 -19.2905 -26.0263 -4.4022 -5.5647 -4.3629 36.7267
#
#
#
# Elastic Compliance Matrix: (Units=1/GPa)
#
#
# Indices 1 2 3 4 5 6 
#
# 1 0.015881 -0.004914 -0.001098 -0.000997 -0.001642 0.004382
# 2 -0.004914 0.021415 -0.009092 0.001460 0.007814 0.012655
# 3 -0.001098 -0.009092 0.017700 0.002331 -0.003826 -0.005000
# 4 -0.000997 0.001460 0.002331 0.024203 0.002987 0.004813
# 5 -0.001642 0.007814 -0.003826 0.002987 0.031432 0.008402
# 6 0.004382 0.012655 -0.005000 0.004813 0.008402 0.039625
#
#
# Mechanical properties :
#
#
# Convention : Reuss Voigt Hill
#
# Bulk Modulus (GPa) = 40.34159 49.13616 44.73887
# Shear Modulus (GPa) = 26.49329 33.63966 30.06647
#
# Velocity S-wave (km/s) = 3.64632 4.10877 3.88443
# Velocity P-wave (km/s) = 6.16221 6.86791 6.52461
#
# Compressibility (1/GPa) = 0.02478831
#
# Stress axis : x y z
#
# Youngs Moduli (GPa) = 62.96637 46.69627 56.49758
#
# Poissons Ratio (x) = 0.22945 0.06206
# Poissons Ratio (y) = 0.30939 0.51367
# Poissons Ratio (z) = 0.06917 0.42456
#
# Static dielectric constant tensor:
#      x y z
#    x 3.650560 -0.186470 0.001360 
#    y -0.186470 3.659270 0.097490 
#    z 0.001360 0.097490 3.686980 
# 
# 
# High freq. dielectric constant tensor:
#      x y z
#    x 1.777740 -0.021750 -0.008900 
#    y -0.021750 1.767240 -0.015160 
#    z -0.008900 -0.015160 1.763520 
# 
# From -- ./inp_files/351874.got.cif
#   From: 2010.06.25/outbox.cif.g09.slc.cpg/sg2_176_cif.got.tgz:351874.got - 2010.06.27 13:26:56.
