data_PCOD8004392
_publ_section_title
;
Structure prediction by ZEFSAII (Michael W. Deem and Ramdas Pophale) SiO2 
 PCOD8004392
Probable space group: P -1
;
_chemical_formula_sum "Si O2"
_cell_formula_units_Z 16
_cell_length_a 27.220930
_cell_length_b 15.000067
_cell_length_c 18.117586
_cell_angle_alpha 20.391322
_cell_angle_beta 19.225967
_cell_angle_gamma 20.555901
_cell_volume 759.317156
_symmetry_space_group_name_H-M "P -1"
_symmetry_group_IT_number 2
_symmetry_cell_setting 'triclinic'
loop_
_space_group_symop_operation_xyz
x,y,z
-x,-y,-z
loop_
_atom_site_type_symbol
_atom_site_label
_atom_site_fract_x
_atom_site_fract_y
_atom_site_fract_z
Si Si1 0.569426 0.026789 0.603566
Si Si2 0.145208 0.182543 0.882102
Si Si3 0.619379 0.592718 0.301944
Si Si4 0.171484 0.730515 0.978202
Si Si5 0.659053 0.573571 0.498539
Si Si6 0.890081 0.582074 0.821447
Si Si7 0.129641 0.816671 0.625887
Si Si8 0.335095 0.572504 0.019978
O O1 0.476686 0.112558 0.746622
O O2 0.687342 0.181826 0.315029
O O3 0.437658 0.142061 0.634320
O O4 0.665819 0.682999 0.730293
O O5 0.255212 0.346417 0.617231
O O6 0.045618 0.311671 0.847047
O O7 0.025803 0.227487 0.087523
O O8 0.267377 0.851493 0.950761
O O9 0.500000 0.500000 0.500000
O O10 0.717700 0.328121 0.422239
O O11 0.732085 0.673008 0.026808
O O12 0.163334 0.483306 0.131772
O O13 0.206687 0.620998 0.097267
O O14 0.000000 0.000000 0.000000
O O15 0.805842 0.321885 0.438716
O O16 0.523639 0.479756 0.796324
O O17 0.934243 0.844768 0.548415
#
# Coordination Sequence:
#
# PCOD8004392 Si02
#       8
#     2   2   2   2   2   2   2   2
#     4  10  23  40  61  88 122 156 198 245 297 352
#     4  11  24  41  63  89 121 155 203 251 293 352
#     4  10  20  38  57  87 120 155 197 242 287 351
#     4  11  23  39  57  87 130 156 192 247 291 355
#     4  10  23  45  61  88 122 153 202 255 293 349
#     4  11  23  39  61  91 122 157 198 242 298 357
#     4  10  24  39  62  91 117 160 200 240 305 353
#     4  11  24  39  64  91 116 163 200 240 304 354
#
# _framework density 21.071563000000001
#
# number of rings (size 3 to 8) (size 9 to 14) (size 15 to 20)
#    0.000    1.500    2.500    1.500    3.500    3.000 
#    0.000    0.000    0.000    0.000    0.000    0.000 
#    0.000    0.000    0.000    0.000    0.000    0.000 
#
# Total GULP energy -198417.699142 kJ/mol
# GULP energy per Si atom -12401.106196 kJ/mol
# Density = 2.102360 g / cm^3
# Si number density = 21.071563 Si / 1000 Ang^3
#
#
#
# Elastic Constant Matrix: (Units=GPa)
#
#
# Indices 1 2 3 4 5 6 
#
# 1 77.8192 9.9993 21.0325 2.1513 -20.3473 11.2441
# 2 9.9993 85.5268 19.8412 -8.9105 -3.2704 11.1022
# 3 21.0325 19.8412 53.7662 -14.1065 -12.1183 -11.9398
# 4 2.1513 -8.9105 -14.1065 39.4655 -0.0004 -2.5020
# 5 -20.3473 -3.2704 -12.1183 -0.0004 29.1160 1.2107
# 6 11.2441 11.1022 -11.9398 -2.5020 1.2107 23.4071
#
#
#
# Elastic Compliance Matrix: (Units=1/GPa)
#
#
# Indices 1 2 3 4 5 6 
#
# 1 0.022063 0.002866 -0.013404 -0.006619 0.010996 -0.020071
# 2 0.002866 0.015434 -0.010248 -0.001226 0.000056 -0.014059
# 3 -0.013404 -0.010248 0.039882 0.014763 0.004710 0.032977
# 4 -0.006619 -0.001226 0.014763 0.031627 0.000773 0.014632
# 5 0.010996 0.000056 0.004710 0.000773 0.044209 -0.005110
# 6 -0.020071 -0.014059 0.032977 0.014632 -0.005110 0.077681
#
#
# Mechanical properties :
#
#
# Convention : Reuss Voigt Hill
#
# Bulk Modulus (GPa) = 27.92617 35.42869 31.67743
# Shear Modulus (GPa) = 17.58068 29.48035 23.53052
#
# Velocity S-wave (km/s) = 2.89161 3.74446 3.34532
# Velocity P-wave (km/s) = 4.94271 5.96193 5.47608
#
# Compressibility (1/GPa) = 0.03580870
#
# Stress axis : x y z
#
# Youngs Moduli (GPa) = 45.32499 64.79269 25.07382
#
# Poissons Ratio (x) = -0.18572 0.33609
# Poissons Ratio (y) = -0.12992 0.25695
# Poissons Ratio (z) = 0.60753 0.66398
#
# Static dielectric constant tensor:
#      x y z
#    x 3.785100 0.030300 0.294320 
#    y 0.030300 3.924650 0.131610 
#    z 0.294320 0.131610 3.123240 
# 
# 
# High freq. dielectric constant tensor:
#      x y z
#    x 1.825870 0.003420 -0.002760 
#    y 0.003420 1.833100 0.007700 
#    z -0.002760 0.007700 1.821560 
# 
# From -- ./inp_files/69571.got.cif
#   From: 2010.06.25/outbox.cif.g09.slc.cpg/sg2_35_cif.got.tgz:69571.got - 2010.06.27 13:26:56.
