data_PCOD8004925
_publ_section_title
;
Structure prediction by ZEFSAII (Michael W. Deem and Ramdas Pophale) SiO2 
 PCOD8004925
Probable space group: P -1
;
_chemical_formula_sum "Si O2"
_cell_formula_units_Z 16
_cell_length_a 9.094489
_cell_length_b 10.985732
_cell_length_c 17.572376
_cell_angle_alpha 137.995753
_cell_angle_beta 114.700158
_cell_angle_gamma 96.501675
_cell_volume 765.374337
_symmetry_space_group_name_H-M "P -1"
_symmetry_group_IT_number 2
_symmetry_cell_setting 'triclinic'
loop_
_space_group_symop_operation_xyz
x,y,z
-x,-y,-z
loop_
_atom_site_type_symbol
_atom_site_label
_atom_site_fract_x
_atom_site_fract_y
_atom_site_fract_z
Si Si1 0.269419 0.243570 0.297693
Si Si2 0.285090 0.516877 0.996116
Si Si3 0.294164 0.401822 0.209645
Si Si4 0.761999 0.830982 0.285764
Si Si5 0.243302 0.295862 0.609325
Si Si6 0.179877 0.119437 0.904950
Si Si7 0.580369 0.204743 0.051081
Si Si8 0.130934 0.736061 0.992154
O O1 0.500000 0.500000 0.500000
O O2 0.223755 0.289830 0.226493
O O3 0.075831 0.156567 0.275486
O O4 0.252839 0.012034 0.179476
O O5 0.269088 0.400468 0.857599
O O6 0.194670 0.317078 0.951436
O O7 0.141692 0.589652 0.992078
O O8 0.546424 0.778179 0.187411
O O9 0.566127 0.645672 0.377200
O O10 0.133767 0.444674 0.170298
O O11 0.244316 0.204283 0.046620
O O12 0.765695 0.839621 0.381469
O O13 0.995102 0.092938 0.422006
O O14 0.286075 0.536056 0.753444
O O15 0.363979 0.116355 0.915939
O O16 0.739677 0.227850 0.037546
O O17 0.500000 0.000000 0.000000
#
# Coordination Sequence:
#
# PCOD8004925 Si02
#       8
#     2   2   2   2   2   2   2   2
#     4  11  25  44  62  90 128 167 208 265 320 374
#     4  11  20  39  65  93 128 165 211 261 311 372
#     4  10  21  42  64  87 124 169 206 244 323 385
#     4  10  20  38  63  90 133 164 205 256 316 374
#     4  10  20  39  64  92 122 171 207 254 320 367
#     4  10  21  41  66  88 124 177 203 248 327 379
#     4  11  19  37  66  95 118 167 221 254 302 380
#     4  11  22  40  65  93 125 166 215 257 308 382
#
# _framework density 20.904803999999999
#
# number of rings (size 3 to 8) (size 9 to 14) (size 15 to 20)
#    0.000    1.500    3.750    4.500    1.750    2.000 
#    4.500    1.250    0.000    0.000    0.000    0.000 
#    0.000    0.000    0.000    0.000    0.000    0.000 
#
# Total GULP energy -198281.588594 kJ/mol
# GULP energy per Si atom -12392.599287 kJ/mol
# Density = 2.085722 g / cm^3
# Si number density = 20.904804 Si / 1000 Ang^3
#
#
#
# Elastic Constant Matrix: (Units=GPa)
#
#
# Indices 1 2 3 4 5 6 
#
# 1 110.1945 32.4360 40.7764 13.2713 24.4442 2.8464
# 2 32.4360 109.5357 31.4838 7.2211 15.4654 -7.1356
# 3 40.7764 31.4838 99.8822 13.4276 35.6394 -1.8816
# 4 13.2713 7.2211 13.4276 24.7559 8.7737 2.7796
# 5 24.4442 15.4654 35.6394 8.7737 36.8392 6.0352
# 6 2.8464 -7.1356 -1.8816 2.7796 6.0352 37.0974
#
#
#
# Elastic Compliance Matrix: (Units=1/GPa)
#
#
# Indices 1 2 3 4 5 6 
#
# 1 0.011806 -0.002108 -0.002403 -0.002993 -0.003815 -0.000588
# 2 -0.002108 0.010702 -0.001809 -0.000728 -0.001571 0.002439
# 3 -0.002403 -0.001809 0.016962 -0.002812 -0.013906 0.003170
# 4 -0.002993 -0.000728 -0.002812 0.045983 -0.005513 -0.002601
# 5 -0.003815 -0.001571 -0.013906 -0.005513 0.046388 -0.007848
# 6 -0.000588 0.002439 0.003170 -0.002601 -0.007848 0.029103
#
#
# Mechanical properties :
#
#
# Convention : Reuss Voigt Hill
#
# Bulk Modulus (GPa) = 37.26867 58.77832 48.02350
# Shear Modulus (GPa) = 27.39325 34.06624 30.72974
#
# Velocity S-wave (km/s) = 3.62384 4.04120 3.83820
# Velocity P-wave (km/s) = 5.94779 7.06776 6.53182
#
# Compressibility (1/GPa) = 0.02683219
#
# Stress axis : x y z
#
# Youngs Moduli (GPa) = 84.69932 93.43974 58.95378
#
# Poissons Ratio (x) = 0.19696 0.14166
# Poissons Ratio (y) = 0.17853 0.10663
# Poissons Ratio (z) = 0.20352 0.16900
#
# Static dielectric constant tensor:
#      x y z
#    x 4.152800 0.157250 0.416640 
#    y 0.157250 3.803840 0.032420 
#    z 0.416640 0.032420 3.875110 
# 
# 
# High freq. dielectric constant tensor:
#      x y z
#    x 1.820530 0.016770 0.027840 
#    y 0.016770 1.823170 -0.003600 
#    z 0.027840 -0.003600 1.798900 
# 
# From -- ./inp_files/559309.got.cif
#   From: 2010.06.25/outbox.cif.g09.slc.cpg/sg2_280_cif.got.tgz:559309.got - 2010.06.27 13:26:56.
