data_PCOD8004393
_publ_section_title
;
Structure prediction by ZEFSAII (Michael W. Deem and Ramdas Pophale) SiO2 
 PCOD8004393
Probable space group: P -1
;
_chemical_formula_sum "Si O2"
_cell_formula_units_Z 16
_cell_length_a 8.173290
_cell_length_b 11.395250
_cell_length_c 22.454121
_cell_angle_alpha 33.433275
_cell_angle_beta 51.548110
_cell_angle_gamma 42.219215
_cell_volume 774.225196
_symmetry_space_group_name_H-M "P -1"
_symmetry_group_IT_number 2
_symmetry_cell_setting 'triclinic'
loop_
_space_group_symop_operation_xyz
x,y,z
-x,-y,-z
loop_
_atom_site_type_symbol
_atom_site_label
_atom_site_fract_x
_atom_site_fract_y
_atom_site_fract_z
Si Si1 0.902385 0.956555 0.173799
Si Si2 0.747930 0.420777 0.945115
Si Si3 0.296792 0.907406 0.634504
Si Si4 0.196391 0.029611 0.406716
Si Si5 0.250841 0.468767 0.234131
Si Si6 0.565094 0.700938 0.550718
Si Si7 0.857849 0.119444 0.723726
Si Si8 0.646594 0.928745 0.768829
O O1 0.089138 0.678082 0.229561
O O2 0.990444 0.997194 0.201007
O O3 0.628917 0.001131 0.216662
O O4 0.935247 0.143434 0.043580
O O5 0.722030 0.412053 0.883406
O O6 0.815295 0.627461 0.861400
O O7 0.500000 0.500000 0.000000
O O8 0.486626 0.718562 0.719383
O O9 0.347805 0.762488 0.621264
O O10 0.296582 0.162284 0.514283
O O11 0.033446 0.989849 0.682980
O O12 0.123023 0.311284 0.316975
O O13 0.236680 0.980412 0.347590
O O14 0.458337 0.817405 0.461807
O O15 0.000000 0.000000 0.500000
O O16 0.749278 0.411076 0.625992
O O17 0.651991 0.050175 0.780529
#
# Coordination Sequence:
#
# PCOD8004393 Si02
#       8
#     2   2   2   2   2   2   2   2
#     4  11  22  41  65  91 127 163 210 265 310 375
#     4   9  19  40  66  88 121 163 207 262 320 365
#     4  10  20  38  57  87 127 165 210 257 306 366
#     4  10  21  39  58  88 131 168 202 261 311 363
#     4  10  20  38  64  92 123 166 211 254 315 375
#     4  10  21  36  57  88 124 169 212 248 311 367
#     4  12  23  39  64  91 127 164 208 259 308 374
#     4  10  24  41  61  96 122 165 214 255 317 374
#
# _framework density 20.665821999999999
#
# number of rings (size 3 to 8) (size 9 to 14) (size 15 to 20)
#    0.000    1.750    1.250    4.500    1.750    1.000 
#    2.250    0.000    0.000    4.500    0.000    0.000 
#    0.000    0.000    0.000    0.000    0.000    0.000 
#
# Total GULP energy -198217.869910 kJ/mol
# GULP energy per Si atom -12388.616869 kJ/mol
# Density = 2.061879 g / cm^3
# Si number density = 20.665822 Si / 1000 Ang^3
#
#
#
# Elastic Constant Matrix: (Units=GPa)
#
#
# Indices 1 2 3 4 5 6 
#
# 1 116.8010 34.3133 43.2539 -1.4803 9.6436 25.1401
# 2 34.3133 92.0248 38.2967 -1.1630 9.2897 7.2274
# 3 43.2539 38.2967 116.9887 -0.1766 16.4496 5.6275
# 4 -1.4803 -1.1630 -0.1766 40.2083 -1.3301 2.6601
# 5 9.6436 9.2897 16.4496 -1.3301 19.0329 5.0927
# 6 25.1401 7.2274 5.6275 2.6601 5.0927 24.9187
#
#
#
# Elastic Compliance Matrix: (Units=1/GPa)
#
#
# Indices 1 2 3 4 5 6 
#
# 1 0.013174 -0.002554 -0.003592 0.001227 0.000992 -0.012073
# 2 -0.002554 0.013363 -0.003068 0.000203 -0.002533 -0.000110
# 3 -0.003592 -0.003068 0.011819 -0.000663 -0.007887 0.003527
# 4 0.001227 0.000203 -0.000663 0.025304 0.002804 -0.004421
# 5 0.000992 -0.002533 -0.007887 0.002804 0.063430 -0.011748
# 6 -0.012073 -0.000110 0.003527 -0.004421 -0.011748 0.054419
#
#
# Mechanical properties :
#
#
# Convention : Reuss Voigt Hill
#
# Bulk Modulus (GPa) = 50.18207 61.94914 56.06560
# Shear Modulus (GPa) = 24.20385 30.82868 27.51626
#
# Velocity S-wave (km/s) = 3.42600 3.86654 3.65291
# Velocity P-wave (km/s) = 6.32339 7.06931 6.70673
#
# Compressibility (1/GPa) = 0.01992744
#
# Stress axis : x y z
#
# Youngs Moduli (GPa) = 75.90612 74.83500 84.61293
#
# Poissons Ratio (x) = 0.19113 0.30390
# Poissons Ratio (y) = 0.19386 0.25962
# Poissons Ratio (z) = 0.27263 0.22962
#
# Static dielectric constant tensor:
#      x y z
#    x 3.742020 0.163600 0.166640 
#    y 0.163600 3.726070 -0.102290 
#    z 0.166640 -0.102290 4.409940 
# 
# 
# High freq. dielectric constant tensor:
#      x y z
#    x 1.799260 0.012320 0.014810 
#    y 0.012320 1.807650 -0.002430 
#    z 0.014810 -0.002430 1.811450 
# 
# From -- ./inp_files/284771.got.cif
#   From: 2010.06.25/outbox.cif.g09.slc.cpg/sg2_143_cif.got.tgz:284771.got - 2010.06.27 13:26:56.
