data_PCOD8004423
_publ_section_title
;
Structure prediction by ZEFSAII (Michael W. Deem and Ramdas Pophale) SiO2 
 PCOD8004423
Probable space group: P -1
;
_chemical_formula_sum "Si O2"
_cell_formula_units_Z 16
_cell_length_a 11.672914
_cell_length_b 15.014930
_cell_length_c 9.545585
_cell_angle_alpha 50.102840
_cell_angle_beta 67.875565
_cell_angle_gamma 38.505730
_cell_volume 771.135187
_symmetry_space_group_name_H-M "P -1"
_symmetry_group_IT_number 2
_symmetry_cell_setting 'triclinic'
loop_
_space_group_symop_operation_xyz
x,y,z
-x,-y,-z
loop_
_atom_site_type_symbol
_atom_site_label
_atom_site_fract_x
_atom_site_fract_y
_atom_site_fract_z
Si Si1 0.149980 0.465343 0.558189
Si Si2 0.162272 0.096682 0.371404
Si Si3 0.865891 0.847839 0.249420
Si Si4 0.411868 0.161267 0.548965
Si Si5 0.020259 0.786095 0.955382
Si Si6 0.770876 0.126421 0.200601
Si Si7 0.348538 0.381763 0.120669
Si Si8 0.883373 0.494209 0.152072
O O1 0.352449 0.297283 0.560170
O O2 0.164020 0.417225 0.763495
O O3 0.000000 0.500000 0.500000
O O4 0.075619 0.651116 0.399324
O O5 0.006290 0.289692 0.322677
O O6 0.363497 0.020850 0.355406
O O7 0.175906 0.967318 0.580305
O O8 0.102590 0.104316 0.236124
O O9 0.696390 0.883617 0.341054
O O10 0.869311 0.853977 0.073728
O O11 0.830941 0.998331 0.177412
O O12 0.363599 0.247944 0.330268
O O13 0.176941 0.575092 0.074347
O O14 0.121766 0.830510 0.913909
O O15 0.544690 0.312415 0.112845
O O16 0.309384 0.392052 0.962149
O O17 0.000000 0.500000 0.000000
#
# Coordination Sequence:
#
# PCOD8004423 Si02
#       8
#     2   2   2   2   2   2   2   2
#     4  10  20  38  58  86 123 161 186 242 309 362
#     4  10  24  39  62  93 119 158 200 258 299 353
#     4  11  22  37  62  89 122 159 198 247 310 358
#     4  10  22  40  62  92 124 155 197 248 319 360
#     4  11  23  42  62  87 123 164 208 242 296 357
#     4  11  23  42  63  87 121 165 208 247 289 359
#     4  10  23  39  64  92 117 160 203 254 297 355
#     4  11  22  36  61  92 124 152 197 248 308 363
#
# _framework density 20.748631
#
# number of rings (size 3 to 8) (size 9 to 14) (size 15 to 20)
#    0.000    1.500    2.500    2.625    7.000    2.500 
#    0.000    0.000    0.000    1.500    0.000    0.000 
#    0.000    0.000    0.000    0.000    0.000    0.000 
#
# Total GULP energy -198402.615727 kJ/mol
# GULP energy per Si atom -12400.163483 kJ/mol
# Density = 2.070141 g / cm^3
# Si number density = 20.748631 Si / 1000 Ang^3
#
#
#
# Elastic Constant Matrix: (Units=GPa)
#
#
# Indices 1 2 3 4 5 6 
#
# 1 93.3852 26.7033 46.2244 -0.4702 7.6441 4.2801
# 2 26.7033 74.4083 38.1826 19.1450 26.4828 6.5433
# 3 46.2244 38.1826 91.4411 12.6839 26.7576 -4.0662
# 4 -0.4702 19.1450 12.6839 31.6698 2.4089 9.3200
# 5 7.6441 26.4828 26.7576 2.4089 33.3670 3.9335
# 6 4.2801 6.5433 -4.0662 9.3200 3.9335 28.0459
#
#
#
# Elastic Compliance Matrix: (Units=1/GPa)
#
#
# Indices 1 2 3 4 5 6 
#
# 1 0.017302 -0.005902 -0.010705 0.009544 0.009478 -0.007317
# 2 -0.005902 0.025759 -0.000341 -0.014828 -0.018019 0.002296
# 3 -0.010705 -0.000341 0.023407 -0.011366 -0.016548 0.011205
# 4 0.009544 -0.014828 -0.011366 0.049353 0.017312 -0.018474
# 5 0.009478 -0.018019 -0.016548 0.017312 0.055676 -0.013203
# 6 -0.007317 0.002296 0.011205 -0.018474 -0.013203 0.045852
#
#
# Mechanical properties :
#
#
# Convention : Reuss Voigt Hill
#
# Bulk Modulus (GPa) = 30.70052 53.49502 42.09777
# Shear Modulus (GPa) = 19.07652 28.49150 23.78401
#
# Velocity S-wave (km/s) = 3.03547 3.70966 3.38937
# Velocity P-wave (km/s) = 5.20711 6.64734 5.97081
#
# Compressibility (1/GPa) = 0.03257274
#
# Stress axis : x y z
#
# Youngs Moduli (GPa) = 57.79583 38.82177 42.72247
#
# Poissons Ratio (x) = 0.22912 0.45734
# Poissons Ratio (y) = 0.34111 0.01456
# Poissons Ratio (z) = 0.61870 0.01323
#
# Static dielectric constant tensor:
#      x y z
#    x 3.601750 0.081700 0.203860 
#    y 0.081700 4.132210 -0.067740 
#    z 0.203860 -0.067740 3.899010 
# 
# 
# High freq. dielectric constant tensor:
#      x y z
#    x 1.788340 0.009830 0.009820 
#    y 0.009830 1.820970 0.001210 
#    z 0.009820 0.001210 1.819780 
# 
# From -- ./inp_files/186934.got.cif
#   From: 2010.06.25/outbox.cif.g09.slc.cpg/sg2_94_cif.got.tgz:186934.got - 2010.06.27 13:26:56.
