data_PCOD8004200
_publ_section_title
;
Structure prediction by ZEFSAII (Michael W. Deem and Ramdas Pophale) SiO2 
 PCOD8004200
Probable space group: P -1
;
_chemical_formula_sum "Si O2"
_cell_formula_units_Z 16
_cell_length_a 8.124527
_cell_length_b 8.761506
_cell_length_c 12.407904
_cell_angle_alpha 96.115825
_cell_angle_beta 101.769027
_cell_angle_gamma 52.802270
_cell_volume 688.593281
_symmetry_space_group_name_H-M "P -1"
_symmetry_group_IT_number 2
_symmetry_cell_setting 'triclinic'
loop_
_space_group_symop_operation_xyz
x,y,z
-x,-y,-z
loop_
_atom_site_type_symbol
_atom_site_label
_atom_site_fract_x
_atom_site_fract_y
_atom_site_fract_z
Si Si1 0.015839 0.940494 0.665647
Si Si2 0.221858 0.681837 0.992738
Si Si3 0.811698 0.013163 0.856277
Si Si4 0.794332 0.910220 0.447886
Si Si5 0.038748 0.448447 0.677941
Si Si6 0.651387 0.467737 0.230304
Si Si7 0.737832 0.485942 0.800864
Si Si8 0.363868 0.166727 0.298522
O O1 0.832645 0.950435 0.576151
O O2 0.206285 0.720432 0.693121
O O3 0.923161 0.044995 0.775674
O O4 0.089386 0.046925 0.619294
O O5 0.372770 0.567273 0.902365
O O6 0.295463 0.802748 0.066897
O O7 0.212930 0.548076 0.067806
O O8 0.984717 0.820941 0.928568
O O9 0.645712 0.983806 0.783585
O O10 0.899749 0.683640 0.429337
O O11 0.545829 0.049460 0.402310
O O12 0.953865 0.374961 0.752771
O O13 0.854249 0.677149 0.652763
O O14 0.253922 0.413186 0.742573
O O15 0.413788 0.579004 0.253530
O O16 0.598222 0.714426 0.771829
#
# Coordination Sequence:
#
# PCOD8004200 Si02
#       8
#     2   2   2   2   2   2   2   2
#     4  10  20  42  64  90 129 167 211 271 314 382
#     4  10  20  37  65  91 125 172 216 256 327 381
#     4  10  21  39  62  91 129 167 212 270 316 378
#     4  11  23  40  68  93 125 174 213 259 331 380
#     4  10  23  42  64  93 136 162 212 271 314 377
#     4  11  21  42  63  94 133 164 216 272 312 387
#     4  10  21  40  64  91 130 169 208 267 318 377
#     4  10  22  42  61  94 135 161 217 267 310 387
#
# _framework density 23.235776999999999
#
# number of rings (size 3 to 8) (size 9 to 14) (size 15 to 20)
#    0.750    1.000    3.750    1.125    1.750    3.000 
#    0.000    7.500    0.000    0.000    0.000    0.000 
#    0.000    0.000    0.000    0.000    0.000    0.000 
#
# Total GULP energy -198275.506869 kJ/mol
# GULP energy per Si atom -12392.219179 kJ/mol
# Density = 2.318289 g / cm^3
# Si number density = 23.235777 Si / 1000 Ang^3
#
#
#
# Elastic Constant Matrix: (Units=GPa)
#
#
# Indices 1 2 3 4 5 6 
#
# 1 116.3283 13.2762 16.9011 9.3070 20.0283 13.0871
# 2 13.2762 70.9801 22.1760 5.9898 4.7012 -12.2554
# 3 16.9011 22.1760 91.6965 8.7268 19.2743 -1.6651
# 4 9.3070 5.9898 8.7268 33.7983 4.1100 4.6054
# 5 20.0283 4.7012 19.2743 4.1100 28.2559 2.5124
# 6 13.0871 -12.2554 -1.6651 4.6054 2.5124 13.2712
#
#
#
# Elastic Compliance Matrix: (Units=1/GPa)
#
#
# Indices 1 2 3 4 5 6 
#
# 1 0.011799 -0.004285 -0.000097 0.000282 -0.006336 -0.014503
# 2 -0.004285 0.020544 -0.003359 -0.004977 0.000463 0.024415
# 3 -0.000097 -0.003359 0.013744 -0.002029 -0.008545 0.001040
# 4 0.000282 -0.004977 -0.002029 0.033322 -0.001373 -0.016432
# 5 -0.006336 0.000463 -0.008545 -0.001373 0.046068 -0.002641
# 6 -0.014503 0.024415 0.001040 -0.016432 -0.002641 0.118533
#
#
# Mechanical properties :
#
#
# Convention : Reuss Voigt Hill
#
# Bulk Modulus (GPa) = 32.67376 42.63462 37.65419
# Shear Modulus (GPa) = 18.53953 30.17517 24.35735
#
# Velocity S-wave (km/s) = 2.82775 3.60759 3.24121
# Velocity P-wave (km/s) = 4.97533 5.97842 5.49979
#
# Compressibility (1/GPa) = 0.03060560
#
# Stress axis : x y z
#
# Youngs Moduli (GPa) = 84.74969 48.67554 72.75962
#
# Poissons Ratio (x) = 0.20857 0.00705
# Poissons Ratio (y) = 0.36315 0.24440
# Poissons Ratio (z) = 0.00821 0.16350
#
# Static dielectric constant tensor:
#      x y z
#    x 4.093310 0.111270 0.105040 
#    y 0.111270 4.001670 -0.185600 
#    z 0.105040 -0.185600 4.193190 
# 
# 
# High freq. dielectric constant tensor:
#      x y z
#    x 1.918370 0.007870 0.005650 
#    y 0.007870 1.913990 -0.019210 
#    z 0.005650 -0.019210 1.918870 
# 
# From -- ./inp_files/492995.got.cif
#   From: 2010.06.25/outbox.cif.g09.slc.cpg/sg2_247_cif.got.tgz:492995.got - 2010.06.27 13:26:56.
