data_PCOD8004557
_publ_section_title
;
Structure prediction by ZEFSAII (Michael W. Deem and Ramdas Pophale) SiO2 
 PCOD8004557
Probable space group: P -1
;
_chemical_formula_sum "Si O2"
_cell_formula_units_Z 14
_cell_length_a 9.015100
_cell_length_b 11.356209
_cell_length_c 14.892376
_cell_angle_alpha 117.129919
_cell_angle_beta 130.143321
_cell_angle_gamma 102.718122
_cell_volume 679.278850
_symmetry_space_group_name_H-M "P -1"
_symmetry_group_IT_number 2
_symmetry_cell_setting 'triclinic'
loop_
_space_group_symop_operation_xyz
x,y,z
-x,-y,-z
loop_
_atom_site_type_symbol
_atom_site_label
_atom_site_fract_x
_atom_site_fract_y
_atom_site_fract_z
Si Si1 0.555746 0.606453 0.311428
Si Si2 0.234149 0.987754 0.019423
Si Si3 0.702236 0.315855 0.874036
Si Si4 0.045337 0.068167 0.276383
Si Si5 0.755818 0.424852 0.309871
Si Si6 0.912842 0.154908 0.897251
Si Si7 0.590946 0.219489 0.995758
O O1 0.564268 0.729528 0.283572
O O2 0.671464 0.728132 0.491424
O O3 0.760899 0.586960 0.357717
O O4 0.219207 0.388543 0.114605
O O5 0.977428 0.858027 0.798667
O O6 0.128368 0.956743 0.068980
O O7 0.401634 0.935119 0.057491
O O8 0.439947 0.218054 0.153933
O O9 0.652484 0.131594 0.777705
O O10 0.717732 0.349813 0.999192
O O11 0.000000 0.500000 0.000000
O O12 0.097245 0.940660 0.228021
O O13 0.752666 0.921385 0.172971
O O14 0.000000 0.500000 0.500000
O O15 0.798300 0.382532 0.213418
#
# Coordination Sequence:
#
# PCOD8004557 Si02
#       7
#     2   2   2   2   2   2   2
#     4  11  22  38  61  88 120 158 203 240 290 359
#     4  10  20  38  60  85 128 154 192 252 299 350
#     4   9  22  42  61  84 120 159 205 244 292 351
#     4  11  21  36  62  91 117 157 201 240 305 350
#     4  11  21  37  60  96 122 150 202 245 297 363
#     4  10  21  42  59  86 124 159 194 252 293 346
#     4  10  20  39  63  84 121 164 191 251 299 340
#
# _framework density 20.610092999999999
#
# number of rings (size 3 to 8) (size 9 to 14) (size 15 to 20)
#    0.000    1.714    2.857    3.857    0.000    2.286 
#    7.714    0.000    0.000    0.000    0.000    0.000 
#    0.000    0.000    0.000    0.000    0.000    0.000 
#
# Total GULP energy -173509.530472 kJ/mol
# GULP energy per Si atom -12393.537891 kJ/mol
# Density = 2.056318 g / cm^3
# Si number density = 20.610093 Si / 1000 Ang^3
#
#
#
# Elastic Constant Matrix: (Units=GPa)
#
#
# Indices 1 2 3 4 5 6 
#
# 1 103.2496 40.6647 34.5578 -3.5112 -20.6453 -7.1530
# 2 40.6647 111.9573 27.7574 -21.7721 -7.8061 -14.9744
# 3 34.5578 27.7574 92.9106 -5.1780 -27.6915 -19.4863
# 4 -3.5112 -21.7721 -5.1780 27.8030 -5.7256 5.6506
# 5 -20.6453 -7.8061 -27.6915 -5.7256 26.1995 -3.3526
# 6 -7.1530 -14.9744 -19.4863 5.6506 -3.3526 41.5545
#
#
#
# Elastic Compliance Matrix: (Units=1/GPa)
#
#
# Indices 1 2 3 4 5 6 
#
# 1 0.013300 -0.003845 -0.001108 -0.000046 0.008289 0.001059
# 2 -0.003845 0.012842 -0.000540 0.009476 0.002633 0.002636
# 3 -0.001108 -0.000540 0.020998 0.006113 0.023846 0.010554
# 4 -0.000046 0.009476 0.006113 0.048371 0.019987 0.001309
# 5 0.008289 0.002633 0.023846 0.019987 0.077242 0.017072
# 6 0.001059 0.002636 0.010554 0.001309 0.017072 0.031345
#
#
# Mechanical properties :
#
#
# Convention : Reuss Voigt Hill
#
# Bulk Modulus (GPa) = 27.66112 57.11970 42.39041
# Shear Modulus (GPa) = 22.01322 32.78722 27.40022
#
# Velocity S-wave (km/s) = 3.27169 3.99285 3.65013
# Velocity P-wave (km/s) = 5.26519 7.00227 6.19492
#
# Compressibility (1/GPa) = 0.03615183
#
# Stress axis : x y z
#
# Youngs Moduli (GPa) = 75.18892 77.87130 47.62346
#
# Poissons Ratio (x) = 0.29945 0.05277
# Poissons Ratio (y) = 0.28913 0.02574
# Poissons Ratio (z) = 0.08331 0.04209
#
# Static dielectric constant tensor:
#      x y z
#    x 3.875330 -0.307570 -0.083730 
#    y -0.307570 4.240570 -0.386190 
#    z -0.083730 -0.386190 3.688140 
# 
# 
# High freq. dielectric constant tensor:
#      x y z
#    x 1.817310 -0.018690 -0.009700 
#    y -0.018690 1.814090 -0.017700 
#    z -0.009700 -0.017700 1.777160 
# 
# From -- ./inp_files/172678.got.cif
#   From: 2010.06.25/outbox.cif.g09.slc.cpg/sg2_87_cif.got.tgz:172678.got - 2010.06.27 13:26:56.
