data_PCOD8004751
_publ_section_title
;
Structure prediction by ZEFSAII (Michael W. Deem and Ramdas Pophale) SiO2 
 PCOD8004751
Probable space group: P -1
;
_chemical_formula_sum "Si O2"
_cell_formula_units_Z 14
_cell_length_a 9.183970
_cell_length_b 12.250436
_cell_length_c 14.239307
_cell_angle_alpha 107.545967
_cell_angle_beta 114.549428
_cell_angle_gamma 126.632747
_cell_volume 769.954192
_symmetry_space_group_name_H-M "P -1"
_symmetry_group_IT_number 2
_symmetry_cell_setting 'triclinic'
loop_
_space_group_symop_operation_xyz
x,y,z
-x,-y,-z
loop_
_atom_site_type_symbol
_atom_site_label
_atom_site_fract_x
_atom_site_fract_y
_atom_site_fract_z
Si Si1 0.721763 0.270355 0.828090
Si Si2 0.331651 0.996952 0.828445
Si Si3 0.759240 0.291947 0.181953
Si Si4 0.939470 0.573443 0.439422
Si Si5 0.396553 0.671171 0.375126
Si Si6 0.717789 0.650372 0.514372
Si Si7 0.485459 0.049466 0.409142
O O1 0.507234 0.137916 0.822057
O O2 0.577568 0.254203 0.699822
O O3 0.771454 0.168319 0.775272
O O4 0.000000 0.500000 0.000000
O O5 0.289700 0.834441 0.784250
O O6 0.489212 0.136203 0.999371
O O7 0.018860 0.868570 0.698848
O O8 0.763025 0.419437 0.262873
O O9 0.059928 0.444751 0.248220
O O10 0.750353 0.554948 0.437042
O O11 0.000000 0.500000 0.500000
O O12 0.230504 0.805953 0.539939
O O13 0.585552 0.669404 0.417240
O O14 0.536833 0.828768 0.540642
O O15 0.500000 0.500000 0.500000
O O16 0.500000 0.000000 0.500000
#
# Coordination Sequence:
#
# PCOD8004751 Si02
#       7
#     2   2   2   2   2   2   2
#     4  11  20  36  60  88 114 155 201 237 283 350
#     4  11  21  36  60  85 117 154 194 235 297 343
#     4  10  20  38  62  85 112 153 199 241 282 354
#     4  11  19  37  61  86 113 154 196 235 288 354
#     4  10  21  37  60  87 119 150 195 247 291 336
#     4  12  22  37  60  91 120 149 193 248 296 342
#     4   9  19  36  57  84 112 152 196 234 278 350
#
# _framework density 18.182898999999999
#
# number of rings (size 3 to 8) (size 9 to 14) (size 15 to 20)
#    0.000    1.429    5.714    0.857    0.000    0.571 
#    0.000    2.143    0.000    1.714    0.000    0.000 
#    0.000    0.000    0.000    0.000    0.000    0.000 
#
# Total GULP energy -173464.595244 kJ/mol
# GULP energy per Si atom -12390.328232 kJ/mol
# Density = 1.814151 g / cm^3
# Si number density = 18.182899 Si / 1000 Ang^3
#
#
#
# Elastic Constant Matrix: (Units=GPa)
#
#
# Indices 1 2 3 4 5 6 
#
# 1 116.4175 39.8611 46.8507 0.1099 -4.3583 -0.7379
# 2 39.8611 127.3935 29.0844 8.0761 8.3335 15.4787
# 3 46.8507 29.0844 123.9536 13.1316 -9.0187 -3.8802
# 4 0.1099 8.0761 13.1316 25.0387 -6.0462 2.6477
# 5 -4.3583 8.3335 -9.0187 -6.0462 28.0021 2.6971
# 6 -0.7379 15.4787 -3.8802 2.6477 2.6971 28.1043
#
#
#
# Elastic Compliance Matrix: (Units=1/GPa)
#
#
# Indices 1 2 3 4 5 6 
#
# 1 0.011225 -0.003144 -0.003668 0.003293 0.002115 0.001007
# 2 -0.003144 0.010240 -0.001358 -0.003019 -0.004122 -0.005230
# 3 -0.003668 -0.001358 0.010500 -0.004834 0.001943 0.002370
# 4 0.003293 -0.003019 -0.004834 0.046366 0.010277 -0.004272
# 5 0.002115 -0.004122 0.001943 0.010277 0.040329 -0.002244
# 6 0.001007 -0.005230 0.002370 -0.004272 -0.002244 0.039434
#
#
# Mechanical properties :
#
#
# Convention : Reuss Voigt Hill
#
# Bulk Modulus (GPa) = 64.00360 66.59522 65.29941
# Shear Modulus (GPa) = 27.83286 33.02694 30.42990
#
# Velocity S-wave (km/s) = 3.91668 4.26652 4.09534
# Velocity P-wave (km/s) = 7.46526 7.80869 7.63891
#
# Compressibility (1/GPa) = 0.01562412
#
# Stress axis : x y z
#
# Youngs Moduli (GPa) = 89.08574 97.65530 95.23391
#
# Poissons Ratio (x) = 0.30705 0.34936
# Poissons Ratio (y) = 0.28011 0.12934
# Poissons Ratio (z) = 0.32681 0.13262
#
# Static dielectric constant tensor:
#      x y z
#    x 3.172030 -0.074750 -0.567420 
#    y -0.074750 3.646060 0.157060 
#    z -0.567420 0.157060 3.694540 
# 
# 
# High freq. dielectric constant tensor:
#      x y z
#    x 1.674100 0.011400 -0.031180 
#    y 0.011400 1.729250 0.010340 
#    z -0.031180 0.010340 1.706950 
# 
# From -- ./inp_files/180558.got.cif
#   From: 2010.06.25/outbox.cif.g09.slc.cpg/sg2_91_cif.got.tgz:180558.got - 2010.06.27 13:26:56.
