data_PCOD8004018
_publ_section_title
;
Structure prediction by ZEFSAII (Michael W. Deem and Ramdas Pophale) SiO2 
 PCOD8004018
Probable space group: P -1
;
_chemical_formula_sum "Si O2"
_cell_formula_units_Z 14
_cell_length_a 11.438176
_cell_length_b 25.923572
_cell_length_c 8.352432
_cell_angle_alpha 33.722011
_cell_angle_beta 33.569198
_cell_angle_gamma 31.832015
_cell_volume 653.935045
_symmetry_space_group_name_H-M "P -1"
_symmetry_group_IT_number 2
_symmetry_cell_setting 'triclinic'
loop_
_space_group_symop_operation_xyz
x,y,z
-x,-y,-z
loop_
_atom_site_type_symbol
_atom_site_label
_atom_site_fract_x
_atom_site_fract_y
_atom_site_fract_z
Si Si1 0.796071 0.968837 0.303211
Si Si2 0.677237 0.823041 0.673013
Si Si3 0.727279 0.902343 0.902079
Si Si4 0.074902 0.584813 0.368696
Si Si5 0.257584 0.746046 0.796176
Si Si6 0.616862 0.749493 0.591562
Si Si7 0.731979 0.651217 0.293280
O O1 0.868359 0.867909 0.357676
O O2 0.735286 0.933639 0.631562
O O3 0.562467 0.079010 0.221673
O O4 0.000000 0.000000 0.000000
O O5 0.609911 0.813109 0.593668
O O6 0.770101 0.711691 0.945141
O O7 0.001585 0.859171 0.773198
O O8 0.678189 0.803156 0.230036
O O9 0.500000 0.000000 0.000000
O O10 0.254265 0.456813 0.512894
O O11 0.845860 0.626239 0.648888
O O12 0.963903 0.614883 0.238581
O O13 0.228216 0.641890 0.092447
O O14 0.362362 0.753218 0.833934
O O15 0.462808 0.727076 0.479938
#
# Coordination Sequence:
#
# PCOD8004018 Si02
#       7
#     2   2   2   2   2   2   2
#     4  11  24  41  62  88 122 167 211 259 308 365
#     4  11  23  40  58  87 130 159 206 256 315 367
#     4  11  22  42  63  90 121 166 213 253 305 368
#     4   9  20  38  64  92 119 160 211 255 307 373
#     4  10  20  37  63  88 123 158 213 251 304 374
#     4  10  22  40  58  92 126 165 202 256 311 374
#     4  10  20  39  65  90 122 163 202 264 310 367
#
# _framework density 21.408854999999999
#
# number of rings (size 3 to 8) (size 9 to 14) (size 15 to 20)
#    0.000    1.714    1.429    3.857    0.000    4.571 
#    0.000    0.714    0.000    0.000    0.000    0.000 
#    0.000    0.000    0.000    0.000    0.000    0.000 
#
# Total GULP energy -173440.851991 kJ/mol
# GULP energy per Si atom -12388.632285 kJ/mol
# Density = 2.136013 g / cm^3
# Si number density = 21.408855 Si / 1000 Ang^3
#
#
#
# Elastic Constant Matrix: (Units=GPa)
#
#
# Indices 1 2 3 4 5 6 
#
# 1 143.9469 46.0807 69.6128 -12.2673 -32.4732 13.1355
# 2 46.0807 117.6374 36.9248 -5.7662 -6.6698 -0.1832
# 3 69.6128 36.9248 101.7465 -16.5294 -18.4254 -3.4829
# 4 -12.2673 -5.7662 -16.5294 31.5728 -5.1194 -5.2478
# 5 -32.4732 -6.6698 -18.4254 -5.1194 36.3348 -2.2935
# 6 13.1355 -0.1832 -3.4829 -5.2478 -2.2935 31.1305
#
#
#
# Elastic Compliance Matrix: (Units=1/GPa)
#
#
# Indices 1 2 3 4 5 6 
#
# 1 0.013536 -0.002650 -0.006775 0.001598 0.008046 -0.005623
# 2 -0.002650 0.010117 -0.002213 -0.000488 -0.001656 0.000726
# 3 -0.006775 -0.002213 0.017458 0.007799 0.003894 0.006401
# 4 0.001598 -0.000488 0.007799 0.039399 0.011329 0.007672
# 5 0.008046 -0.001656 0.003894 0.011329 0.038090 0.001747
# 6 -0.005623 0.000726 0.006401 0.007672 0.001747 0.036638
#
#
# Mechanical properties :
#
#
# Convention : Reuss Voigt Hill
#
# Bulk Modulus (GPa) = 56.07016 74.28528 65.17772
# Shear Modulus (GPa) = 27.10625 33.85511 30.48068
#
# Velocity S-wave (km/s) = 3.56212 3.98095 3.77734
# Velocity P-wave (km/s) = 6.57003 7.47692 7.03810
#
# Compressibility (1/GPa) = 0.01783480
#
# Stress axis : x y z
#
# Youngs Moduli (GPa) = 73.87585 98.84763 57.27947
#
# Poissons Ratio (x) = 0.26194 0.38809
# Poissons Ratio (y) = 0.19577 0.12675
# Poissons Ratio (z) = 0.50054 0.21873
#
# Static dielectric constant tensor:
#      x y z
#    x 4.041990 0.024290 -0.316340 
#    y 0.024290 4.217980 -0.206770 
#    z -0.316340 -0.206770 3.816440 
# 
# 
# High freq. dielectric constant tensor:
#      x y z
#    x 1.840330 0.003510 -0.024370 
#    y 0.003510 1.846410 -0.012890 
#    z -0.024370 -0.012890 1.823840 
# 
# From -- ./inp_files/34543.got.cif
#   From: 2010.06.25/outbox.cif.g09.slc.cpg/sg2_18_cif.got.tgz:34543.got - 2010.06.27 13:26:56.
