data_PCOD8004091
_publ_section_title
;
Structure prediction by ZEFSAII (Michael W. Deem and Ramdas Pophale) SiO2 
 PCOD8004091
Probable space group: P -1
;
_chemical_formula_sum "Si O2"
_cell_formula_units_Z 14
_cell_length_a 20.055210
_cell_length_b 9.105184
_cell_length_c 11.483706
_cell_angle_alpha 112.905458
_cell_angle_beta 145.706303
_cell_angle_gamma 42.510827
_cell_volume 651.915505
_symmetry_space_group_name_H-M "P -1"
_symmetry_group_IT_number 2
_symmetry_cell_setting 'triclinic'
loop_
_space_group_symop_operation_xyz
x,y,z
-x,-y,-z
loop_
_atom_site_type_symbol
_atom_site_label
_atom_site_fract_x
_atom_site_fract_y
_atom_site_fract_z
Si Si1 0.296739 0.733431 0.845646
Si Si2 0.893842 0.130739 0.764605
Si Si3 0.829457 0.417040 0.098449
Si Si4 0.027351 0.486730 0.837387
Si Si5 0.431550 0.585347 0.253289
Si Si6 0.149291 0.135614 0.103365
Si Si7 0.061605 0.676233 0.521262
O O1 0.181957 0.692969 0.645279
O O2 0.500000 0.500000 0.000000
O O3 0.333258 0.725845 0.031158
O O4 0.167565 0.022284 0.702719
O O5 0.663134 0.356447 0.514359
O O6 0.978381 0.904892 0.731212
O O7 0.948859 0.246338 0.829854
O O8 0.000000 0.000000 0.000000
O O9 0.828546 0.550234 0.037300
O O10 0.846616 0.477861 0.269979
O O11 0.630041 0.526843 0.830388
O O12 0.861649 0.762835 0.756581
O O13 0.915034 0.496132 0.586335
O O14 0.163314 0.244343 0.050357
O O15 0.339797 0.813980 0.280992
#
# Coordination Sequence:
#
# PCOD8004091 Si02
#       7
#     2   2   2   2   2   2   2
#     4  10  20  37  63  96 120 162 212 259 308 370
#     4  11  22  43  67  92 121 166 213 266 307 368
#     4  10  22  40  63  98 125 168 207 259 316 367
#     4  11  21  42  62  92 136 167 204 259 316 371
#     4  10  22  40  67  93 122 166 217 258 310 371
#     4  10  23  41  63  92 127 170 214 251 314 372
#     4  10  21  38  65  89 130 165 205 259 310 368
#
# _framework density 21.475176000000001
#
# number of rings (size 3 to 8) (size 9 to 14) (size 15 to 20)
#    0.000    1.714    2.857    1.286    4.000    2.286 
#    0.000    7.143    0.000    5.143    0.000    0.000 
#    0.000    0.000    0.000    0.000    0.000    0.000 
#
# Total GULP energy -173602.610008 kJ/mol
# GULP energy per Si atom -12400.186429 kJ/mol
# Density = 2.142630 g / cm^3
# Si number density = 21.475176 Si / 1000 Ang^3
#
#
#
# Elastic Constant Matrix: (Units=GPa)
#
#
# Indices 1 2 3 4 5 6 
#
# 1 122.4281 39.2911 35.2298 7.6589 11.8215 11.2757
# 2 39.2911 100.9760 51.2438 26.6418 17.2619 -10.8694
# 3 35.2298 51.2438 107.2935 -3.0960 27.0019 -5.8699
# 4 7.6589 26.6418 -3.0960 28.9455 -15.1517 -3.1256
# 5 11.8215 17.2619 27.0019 -15.1517 36.7908 -1.6389
# 6 11.2757 -10.8694 -5.8699 -3.1256 -1.6389 37.4665
#
#
#
# Elastic Compliance Matrix: (Units=1/GPa)
#
#
# Indices 1 2 3 4 5 6 
#
# 1 0.010277 -0.002880 -0.001953 -0.001437 -0.001306 -0.004411
# 2 -0.002880 0.030217 -0.008604 -0.039622 -0.023078 0.003970
# 3 -0.001953 -0.008604 0.015076 0.008717 -0.002763 0.001060
# 4 -0.001437 -0.039622 0.008717 0.100833 0.054229 0.001087
# 5 -0.001306 -0.023078 -0.002763 0.054229 0.062813 0.000537
# 6 -0.004411 0.003970 0.001060 0.001087 0.000537 0.029450
#
#
# Mechanical properties :
#
#
# Convention : Reuss Voigt Hill
#
# Bulk Modulus (GPa) = 34.84978 64.69189 49.77084
# Shear Modulus (GPa) = 17.53731 34.30276 25.92004
#
# Velocity S-wave (km/s) = 2.86078 4.00099 3.47793
# Velocity P-wave (km/s) = 5.21299 7.17867 6.27330
#
# Compressibility (1/GPa) = 0.02869458
#
# Stress axis : x y z
#
# Youngs Moduli (GPa) = 97.30817 33.09360 66.33172
#
# Poissons Ratio (x) = 0.09532 0.12954
# Poissons Ratio (y) = 0.28028 0.57074
# Poissons Ratio (z) = 0.19004 0.28475
#
# Static dielectric constant tensor:
#      x y z
#    x 3.639410 0.128140 -0.725670 
#    y 0.128140 3.908240 0.510440 
#    z -0.725670 0.510440 2.799630 
# 
# 
# High freq. dielectric constant tensor:
#      x y z
#    x 1.860150 -0.008450 -0.004280 
#    y -0.008450 1.838580 0.020490 
#    z -0.004280 0.020490 1.820310 
# 
# From -- ./inp_files/278828.got.cif
#   From: 2010.06.25/outbox.cif.g09.slc.cpg/sg2_140_cif.got.tgz:278828.got - 2010.06.27 13:26:56.
