data_PCOD8004099
_publ_section_title
;
Structure prediction by ZEFSAII (Michael W. Deem and Ramdas Pophale) SiO2 
 PCOD8004099
Probable space group: P -1
;
_chemical_formula_sum "Si O2"
_cell_formula_units_Z 16
_cell_length_a 12.783859
_cell_length_b 19.636846
_cell_length_c 23.428694
_cell_angle_alpha 15.805970
_cell_angle_beta 145.442021
_cell_angle_gamma 153.088995
_cell_volume 696.195520
_symmetry_space_group_name_H-M "P -1"
_symmetry_group_IT_number 2
_symmetry_cell_setting 'triclinic'
loop_
_space_group_symop_operation_xyz
x,y,z
-x,-y,-z
loop_
_atom_site_type_symbol
_atom_site_label
_atom_site_fract_x
_atom_site_fract_y
_atom_site_fract_z
Si Si1 0.846392 0.773466 0.060493
Si Si2 0.275166 0.801247 0.367429
Si Si3 0.708359 0.453681 0.727202
Si Si4 0.028485 0.506582 0.292728
Si Si5 0.629481 0.378564 0.562301
Si Si6 0.555192 0.857181 0.553887
Si Si7 0.745917 0.212003 0.052570
Si Si8 0.080510 0.181281 0.291467
O O1 0.019646 0.794107 0.074389
O O2 0.663640 0.390362 0.302527
O O3 0.699358 0.880586 0.885585
O O4 0.000000 0.000000 0.000000
O O5 0.364207 0.711562 0.426902
O O6 0.455126 0.912750 0.409713
O O7 0.000000 0.500000 0.500000
O O8 0.473695 0.428680 0.635746
O O9 0.766205 0.355140 0.774464
O O10 0.669401 0.204199 0.959051
O O11 0.935859 0.829154 0.540880
O O12 0.105474 0.404662 0.464687
O O13 0.764135 0.197864 0.402512
O O14 0.478252 0.044841 0.800408
O O15 0.658590 0.680296 0.722907
O O16 0.931856 0.142330 0.199569
O O17 0.890708 0.580353 0.841407
#
# Coordination Sequence:
#
# PCOD8004099 Si02
#       8
#     2   2   2   2   2   2   2   2
#     4  12  24  46  73  97 134 178 230 280 341 409
#     4  12  25  44  73 104 130 177 234 283 333 406
#     4  10  22  40  64  95 138 178 226 274 342 398
#     4  11  25  44  66 102 143 179 221 285 347 402
#     4  11  23  42  68  98 136 181 227 273 338 403
#     4  11  24  44  70 101 137 175 225 287 345 397
#     4  10  20  37  63  98 133 181 227 275 330 404
#     4   9  20  36  63  96 137 174 224 278 341 396
#
# _framework density 22.982049
#
# number of rings (size 3 to 8) (size 9 to 14) (size 15 to 20)
#    0.000    1.250    2.500    2.625    0.000    9.000 
#    0.000    8.750    0.000    0.000    0.000    0.000 
#    0.000    0.000    0.000    0.000    0.000    0.000 
#
# Total GULP energy -198359.826513 kJ/mol
# GULP energy per Si atom -12397.489157 kJ/mol
# Density = 2.292974 g / cm^3
# Si number density = 22.982049 Si / 1000 Ang^3
#
#
#
# Elastic Constant Matrix: (Units=GPa)
#
#
# Indices 1 2 3 4 5 6 
#
# 1 144.7667 50.4780 53.9700 17.0116 18.5115 4.8997
# 2 50.4780 154.1394 43.2272 26.5819 5.5405 -2.7879
# 3 53.9700 43.2272 102.1585 19.9002 -2.3848 -3.3052
# 4 17.0116 26.5819 19.9002 42.2335 1.9370 0.7500
# 5 18.5115 5.5405 -2.3848 1.9370 35.8810 6.3143
# 6 4.8997 -2.7879 -3.3052 0.7500 6.3143 30.7374
#
#
#
# Elastic Compliance Matrix: (Units=1/GPa)
#
#
# Indices 1 2 3 4 5 6 
#
# 1 0.009950 -0.001730 -0.004578 -0.000514 -0.004929 -0.001210
# 2 -0.001730 0.008230 -0.001843 -0.003610 -0.000484 0.001011
# 3 -0.004578 -0.001843 0.013836 -0.003702 0.003516 0.001418
# 4 -0.000514 -0.003610 -0.003702 0.027955 -0.000726 -0.001177
# 5 -0.004929 -0.000484 0.003516 -0.000726 0.031707 -0.005376
# 6 -0.001210 0.001011 0.001418 -0.001177 -0.005376 0.034104
#
#
# Mechanical properties :
#
#
# Convention : Reuss Voigt Hill
#
# Bulk Modulus (GPa) = 63.64853 77.37945 70.51399
# Shear Modulus (GPa) = 33.93913 38.66299 36.30106
#
# Velocity S-wave (km/s) = 3.84704 4.10605 3.97865
# Velocity P-wave (km/s) = 6.89115 7.49814 7.20105
#
# Compressibility (1/GPa) = 0.01571128
#
# Stress axis : x y z
#
# Youngs Moduli (GPa) = 100.50751 121.51392 72.27277
#
# Poissons Ratio (x) = 0.21028 0.33088
# Poissons Ratio (y) = 0.17393 0.13323
# Poissons Ratio (z) = 0.46015 0.22400
#
# Static dielectric constant tensor:
#      x y z
#    x 4.245520 0.158360 0.120520 
#    y 0.158360 4.488420 0.334140 
#    z 0.120520 0.334140 4.293240 
# 
# 
# High freq. dielectric constant tensor:
#      x y z
#    x 1.910390 0.005210 0.010360 
#    y 0.005210 1.923900 0.003630 
#    z 0.010360 0.003630 1.900170 
# 
# From -- ./inp_files/595955.got.cif
#   From: 2010.06.25/outbox.cif.g09.slc.cpg/sg2_298_cif.got.tgz:595955.got - 2010.06.27 13:26:56.
