data_PCOD8004987
_publ_section_title
;
Structure prediction by ZEFSAII (Michael W. Deem and Ramdas Pophale) SiO2 
 PCOD8004987
Probable space group: P -1
;
_chemical_formula_sum "Si O2"
_cell_formula_units_Z 16
_cell_length_a 12.422094
_cell_length_b 9.416969
_cell_length_c 8.886087
_cell_angle_alpha 57.218624
_cell_angle_beta 115.986046
_cell_angle_gamma 125.070955
_cell_volume 702.967273
_symmetry_space_group_name_H-M "P -1"
_symmetry_group_IT_number 2
_symmetry_cell_setting 'triclinic'
loop_
_space_group_symop_operation_xyz
x,y,z
-x,-y,-z
loop_
_atom_site_type_symbol
_atom_site_label
_atom_site_fract_x
_atom_site_fract_y
_atom_site_fract_z
Si Si1 0.538003 0.214673 0.422126
Si Si2 0.185580 0.618323 0.650053
Si Si3 0.334345 0.067266 0.926435
Si Si4 0.969406 0.205306 0.713210
Si Si5 0.045032 0.876355 0.900771
Si Si6 0.572736 0.234527 0.771810
Si Si7 0.801714 0.512259 0.965654
Si Si8 0.367052 0.326127 0.066734
O O1 0.662633 0.337280 0.321253
O O2 0.574810 0.294357 0.567575
O O3 0.405470 0.231734 0.283984
O O4 0.500000 0.000000 0.500000
O O5 0.150795 0.776492 0.460881
O O6 0.095466 0.408244 0.653294
O O7 0.173456 0.626116 0.821492
O O8 0.429636 0.198542 0.776810
O O9 0.182585 0.928112 0.861749
O O10 0.309301 0.189385 0.968780
O O11 0.412486 0.957564 0.106429
O O12 0.927705 0.153922 0.890577
O O13 0.996423 0.038310 0.753380
O O14 0.937972 0.673320 0.884406
O O15 0.696549 0.399724 0.837766
O O16 0.751053 0.628527 0.978298
O O17 0.500000 0.500000 0.000000
#
# Coordination Sequence:
#
# PCOD8004987 Si02
#       8
#     2   2   2   2   2   2   2   2
#     4  12  25  40  69 100 127 173 223 276 323 401
#     4  10  20  38  63  97 129 172 219 271 321 389
#     4  11  22  42  67  96 135 178 216 267 329 394
#     4   9  19  36  65  95 129 171 226 267 313 394
#     4  10  21  38  66  97 131 175 218 275 326 385
#     4  11  25  43  66  98 134 173 221 273 332 392
#     4  11  24  43  68  99 134 174 220 273 330 391
#     4  12  22  42  69  99 130 176 218 270 333 383
#
# _framework density 22.760663999999998
#
# number of rings (size 3 to 8) (size 9 to 14) (size 15 to 20)
#    0.000    1.250    3.750    3.000    3.500    1.000 
#    0.000    0.000    0.000    2.250    0.000    0.000 
#    0.000    0.000    0.000    0.000    0.000    0.000 
#
# Total GULP energy -198387.969607 kJ/mol
# GULP energy per Si atom -12399.248100 kJ/mol
# Density = 2.270886 g / cm^3
# Si number density = 22.760664 Si / 1000 Ang^3
#
#
#
# Elastic Constant Matrix: (Units=GPa)
#
#
# Indices 1 2 3 4 5 6 
#
# 1 68.1575 34.1761 22.6445 6.9361 3.9259 24.1324
# 2 34.1761 91.9243 31.8149 3.1236 -22.7880 17.7251
# 3 22.6445 31.8149 97.5228 -3.0916 9.1991 -1.0171
# 4 6.9361 3.1236 -3.0916 29.6973 -5.4106 -1.2660
# 5 3.9259 -22.7880 9.1991 -5.4106 28.0852 -7.9359
# 6 24.1324 17.7251 -1.0171 -1.2660 -7.9359 44.9320
#
#
#
# Elastic Compliance Matrix: (Units=1/GPa)
#
#
# Indices 1 2 3 4 5 6 
#
# 1 0.027857 -0.011404 -0.001453 -0.009417 -0.018447 -0.014019
# 2 -0.011404 0.023030 -0.006960 0.003872 0.023635 0.001166
# 3 -0.001453 -0.006960 0.013777 0.000936 -0.009140 0.002250
# 4 -0.009417 0.003872 0.000936 0.038325 0.013518 0.007018
# 5 -0.018447 0.023635 -0.009140 0.013518 0.066493 0.012502
# 6 -0.014019 0.001166 0.002250 0.007018 0.012502 0.031782
#
#
# Mechanical properties :
#
#
# Convention : Reuss Voigt Hill
#
# Bulk Modulus (GPa) = 39.94923 48.31952 44.13438
# Shear Modulus (GPa) = 20.06096 31.80751 25.93424
#
# Velocity S-wave (km/s) = 2.97204 3.74234 3.37921
# Velocity P-wave (km/s) = 5.41916 6.32052 5.88712
#
# Compressibility (1/GPa) = 0.02503177
#
# Stress axis : x y z
#
# Youngs Moduli (GPa) = 35.89710 43.42203 72.58398
#
# Poissons Ratio (x) = 0.49518 0.10545
# Poissons Ratio (y) = 0.40936 0.50516
# Poissons Ratio (z) = 0.05215 0.30220
#
# Static dielectric constant tensor:
#      x y z
#    x 4.554040 0.104220 0.342060 
#    y 0.104220 4.067630 -0.363210 
#    z 0.342060 -0.363210 4.243140 
# 
# 
# High freq. dielectric constant tensor:
#      x y z
#    x 1.898320 0.018310 0.011320 
#    y 0.018310 1.901260 -0.013570 
#    z 0.011320 -0.013570 1.887770 
# 
# From -- ./inp_files/242658.got.cif
#   From: 2010.06.25/outbox.cif.g09.slc.cpg/sg2_122_cif.got.tgz:242658.got - 2010.06.27 13:26:56.
