data_PCOD8004042
_publ_section_title
;
Structure prediction by ZEFSAII (Michael W. Deem and Ramdas Pophale) SiO2 
 PCOD8004042
Probable space group: P -1
;
_chemical_formula_sum "Si O2"
_cell_formula_units_Z 16
_cell_length_a 14.517705
_cell_length_b 11.307573
_cell_length_c 19.241167
_cell_angle_alpha 144.774381
_cell_angle_beta 149.640232
_cell_angle_gamma 28.903678
_cell_volume 746.776584
_symmetry_space_group_name_H-M "P -1"
_symmetry_group_IT_number 2
_symmetry_cell_setting 'triclinic'
loop_
_space_group_symop_operation_xyz
x,y,z
-x,-y,-z
loop_
_atom_site_type_symbol
_atom_site_label
_atom_site_fract_x
_atom_site_fract_y
_atom_site_fract_z
Si Si1 0.576882 0.022240 0.295614
Si Si2 0.380521 0.756940 0.973883
Si Si3 0.855075 0.272587 0.070532
Si Si4 0.303506 0.906175 0.451172
Si Si5 0.398321 0.646973 0.642257
Si Si6 0.941316 0.468615 0.635268
Si Si7 0.227049 0.780665 0.741014
Si Si8 0.773771 0.662555 0.473110
O O1 0.823723 0.777759 0.352882
O O2 0.530892 0.157665 0.405367
O O3 0.556671 0.200890 0.307943
O O4 0.416510 0.938704 0.130303
O O5 0.193770 0.745175 0.887956
O O6 0.283913 0.879910 0.893497
O O7 0.608501 0.475632 0.974826
O O8 0.006351 0.376295 0.205113
O O9 0.000000 0.000000 0.000000
O O10 0.377658 0.637968 0.339601
O O11 0.362480 0.047965 0.502352
O O12 0.039402 0.064243 0.371412
O O13 0.204394 0.623759 0.473720
O O14 0.331233 0.796127 0.744049
O O15 0.813232 0.654839 0.576855
O O16 0.342872 0.481080 0.686048
O O17 0.000000 0.500000 0.500000
#
# Coordination Sequence:
#
# PCOD8004042 Si02
#       8
#     2   2   2   2   2   2   2   2
#     4  11  22  42  61  91 125 165 207 254 301 369
#     4  10  24  39  62  89 128 166 199 250 317 364
#     4  10  22  38  61  94 127 160 202 250 315 376
#     4  11  22  37  64  90 120 161 208 262 304 359
#     4  11  24  39  63  90 123 162 216 252 298 357
#     4  10  20  37  63  91 118 161 197 259 307 358
#     4  10  22  40  60  88 123 165 201 257 306 368
#     4   9  16  32  58  84 114 144 195 245 304 345
#
# _framework density 21.425418000000001
#
# number of rings (size 3 to 8) (size 9 to 14) (size 15 to 20)
#    0.000    1.750    3.750    2.250    5.250    4.500 
#    0.000    0.625    0.000    0.000    0.000    0.000 
#    0.000    0.000    0.000    0.000    0.000    0.000 
#
# Total GULP energy -198217.934607 kJ/mol
# GULP energy per Si atom -12388.620913 kJ/mol
# Density = 2.137665 g / cm^3
# Si number density = 21.425418 Si / 1000 Ang^3
#
#
#
# Elastic Constant Matrix: (Units=GPa)
#
#
# Indices 1 2 3 4 5 6 
#
# 1 12.3594 47.3175 -9.5824 10.8458 5.4945 25.2432
# 2 47.3175 13.6480 50.3963 -13.9733 -11.4500 -0.2549
# 3 -9.5824 50.3963 60.3108 5.4328 -5.1289 3.6473
# 4 10.8458 -13.9733 5.4328 11.9968 3.6938 -5.0195
# 5 5.4945 -11.4500 -5.1289 3.6938 32.4434 4.0278
# 6 25.2432 -0.2549 3.6473 -5.0195 4.0278 31.5086
#
#
#
# Elastic Compliance Matrix: (Units=1/GPa)
#
#
# Indices 1 2 3 4 5 6 
#
# 1 0.011815 0.016335 -0.012241 0.010792 0.001392 -0.006375
# 2 0.016335 0.006791 -0.000610 -0.014049 0.003069 -0.015591
# 3 -0.012241 -0.000610 0.014151 0.007046 0.002174 0.009008
# 4 0.010792 -0.014049 0.007046 0.058448 -0.012492 0.001333
# 5 0.001392 0.003069 0.002174 -0.012492 0.034396 -0.007729
# 6 -0.006375 -0.015591 0.009008 0.001333 -0.007729 0.036876
#
#
# Mechanical properties :
#
#
# Convention : Reuss Voigt Hill
#
# Bulk Modulus (GPa) = 25.17275 29.17568 27.17422
# Shear Modulus (GPa) = 29.62935 15.06888 22.34911
#
# Velocity S-wave (km/s) = 3.72278 2.65489 3.23323
# Velocity P-wave (km/s) = 5.50030 4.80050 5.16227
#
# Compressibility (1/GPa) = 0.03972549
#
# Stress axis : x y z
#
# Youngs Moduli (GPa) = 84.63942 147.24314 70.66508
#
# Poissons Ratio (x) = -2.40517 0.86498
# Poissons Ratio (y) = -1.38256 0.04312
# Poissons Ratio (z) = 1.03603 0.08985
#
# Static dielectric constant tensor:
#      x y z
#    x 3.835750 0.085830 0.018820 
#    y 0.085830 3.879850 0.083170 
#    z 0.018820 0.083170 3.846410 
# 
# 
# High freq. dielectric constant tensor:
#      x y z
#    x 1.834310 -0.004360 -0.002290 
#    y -0.004360 1.834060 0.007170 
#    z -0.002290 0.007170 1.825580 
# 
# From -- ./inp_files/532533.got.cif
#   From: 2010.06.25/outbox.cif.g09.slc.cpg/sg2_267_cif.got.tgz:532533.got - 2010.06.27 13:26:56.
