data_PCOD8004364
_publ_section_title
;
Structure prediction by ZEFSAII (Michael W. Deem and Ramdas Pophale) SiO2 
 PCOD8004364
Probable space group: P -1
;
_chemical_formula_sum "Si O2"
_cell_formula_units_Z 16
_cell_length_a 10.136775
_cell_length_b 18.716161
_cell_length_c 5.112629
_cell_angle_alpha 109.087516
_cell_angle_beta 81.248156
_cell_angle_gamma 74.142568
_cell_volume 850.076162
_symmetry_space_group_name_H-M "P -1"
_symmetry_group_IT_number 2
_symmetry_cell_setting 'triclinic'
loop_
_space_group_symop_operation_xyz
x,y,z
-x,-y,-z
loop_
_atom_site_type_symbol
_atom_site_label
_atom_site_fract_x
_atom_site_fract_y
_atom_site_fract_z
Si Si1 0.469085 0.167862 0.869165
Si Si2 0.314881 0.676278 0.545849
Si Si3 0.057262 0.073548 0.538630
Si Si4 0.351544 0.902857 0.771925
Si Si5 0.592665 0.497024 0.718434
Si Si6 0.662526 0.952292 0.321224
Si Si7 0.906781 0.156289 0.176103
Si Si8 0.503264 0.670201 0.981875
O O1 0.590672 0.134192 0.573292
O O2 0.331945 0.139499 0.840258
O O3 0.530588 0.134795 0.093003
O O4 0.417672 0.264975 0.996423
O O5 0.282723 0.591247 0.430497
O O6 0.165181 0.747905 0.644723
O O7 0.382452 0.684380 0.814521
O O8 0.425577 0.681700 0.298515
O O9 0.228628 0.043940 0.478357
O O10 0.014831 0.117445 0.329268
O O11 0.000000 0.000000 0.500000
O O12 0.995177 0.139506 0.862918
O O13 0.210780 0.885317 0.862372
O O14 0.307263 0.000471 0.885109
O O15 0.500000 0.500000 0.500000
O O16 0.627118 0.580530 0.812264
O O17 0.500000 0.500000 0.000000
O O18 0.500000 0.000000 0.500000
#
# Coordination Sequence:
#
# PCOD8004364 Si02
#       8
#     2   2   2   2   2   2   2   2
#     4  11  20  34  53  80 106 140 180 215 266 320
#     4  10  18  31  49  77 108 139 174 212 269 318
#     4  12  26  40  56  79 106 141 184 227 268 315
#     4  11  21  35  55  78 104 142 178 218 266 317
#     4   8  16  26  44  73 108 138 165 211 262 316
#     4  10  25  40  57  76 107 142 182 225 269 316
#     4  12  22  36  59  76 108 142 180 219 272 319
#     4  10  16  29  50  77 109 138 173 215 266 313
#
# _framework density 18.821843999999999
#
# number of rings (size 3 to 8) (size 9 to 14) (size 15 to 20)
#    0.000    1.500    3.750    2.250    1.750    2.000 
#    0.000    0.000    0.000    0.000    0.000    1.750 
#    0.000    0.000    0.000    0.000    0.000    0.000 
#
# Total GULP energy -198234.787367 kJ/mol
# GULP energy per Si atom -12389.674210 kJ/mol
# Density = 1.877900 g / cm^3
# Si number density = 18.821844 Si / 1000 Ang^3
#
#
#
# Elastic Constant Matrix: (Units=GPa)
#
#
# Indices 1 2 3 4 5 6 
#
# 1 89.2799 32.2566 6.2423 11.5500 14.7649 -2.2882
# 2 32.2566 130.7737 19.0013 30.6421 15.6981 8.0570
# 3 6.2423 19.0013 70.9122 1.8150 8.3999 -2.8690
# 4 11.5500 30.6421 1.8150 37.0885 -4.3601 8.0831
# 5 14.7649 15.6981 8.3999 -4.3601 19.3044 3.9655
# 6 -2.2882 8.0570 -2.8690 8.0831 3.9655 21.9265
#
#
#
# Elastic Compliance Matrix: (Units=1/GPa)
#
#
# Indices 1 2 3 4 5 6 
#
# 1 0.014934 -0.000872 0.001097 -0.007257 -0.014327 0.007289
# 2 -0.000872 0.011950 -0.001447 -0.011176 -0.011250 0.001484
# 3 0.001097 -0.001447 0.015564 -0.001874 -0.007842 0.004792
# 4 -0.007257 -0.011176 -0.001874 0.046281 0.029885 -0.019362
# 5 -0.014327 -0.011250 -0.007842 0.029885 0.087243 -0.025183
# 6 0.007289 0.001484 0.004792 -0.019362 -0.025183 0.058142
#
#
# Mechanical properties :
#
#
# Convention : Reuss Voigt Hill
#
# Bulk Modulus (GPa) = 24.99731 45.10733 35.05232
# Shear Modulus (GPa) = 20.00866 31.22826 25.61846
#
# Velocity S-wave (km/s) = 3.26399 4.07769 3.69331
# Velocity P-wave (km/s) = 5.24544 6.79614 6.07051
#
# Compressibility (1/GPa) = 0.04000431
#
# Stress axis : x y z
#
# Youngs Moduli (GPa) = 66.96145 83.68253 64.25150
#
# Poissons Ratio (x) = 0.07296 -0.07047
# Poissons Ratio (y) = 0.05838 0.09294
# Poissons Ratio (z) = -0.07344 0.12105
#
# Static dielectric constant tensor:
#      x y z
#    x 3.258310 0.227430 0.224870 
#    y 0.227430 4.452370 0.196150 
#    z 0.224870 0.196150 3.761420 
# 
# 
# High freq. dielectric constant tensor:
#      x y z
#    x 1.672580 0.000140 0.020800 
#    y 0.000140 1.750620 -0.006370 
#    z 0.020800 -0.006370 1.746550 
# 
# From -- ./inp_files/48591.got.cif
#   From: 2010.06.25/outbox.cif.g09.slc.cpg/sg2_25_cif.got.tgz:48591.got - 2010.06.27 13:26:56.
