data_PCOD8004799
_publ_section_title
;
Structure prediction by ZEFSAII (Michael W. Deem and Ramdas Pophale) SiO2 
 PCOD8004799
Probable space group: P -1
;
_chemical_formula_sum "Si O2"
_cell_formula_units_Z 16
_cell_length_a 11.665446
_cell_length_b 6.555493
_cell_length_c 13.180207
_cell_angle_alpha 134.953214
_cell_angle_beta 101.604276
_cell_angle_gamma 75.640430
_cell_volume 690.514770
_symmetry_space_group_name_H-M "P -1"
_symmetry_group_IT_number 2
_symmetry_cell_setting 'triclinic'
loop_
_space_group_symop_operation_xyz
x,y,z
-x,-y,-z
loop_
_atom_site_type_symbol
_atom_site_label
_atom_site_fract_x
_atom_site_fract_y
_atom_site_fract_z
Si Si1 0.641471 0.665005 0.809971
Si Si2 0.979055 0.291204 0.236375
Si Si3 0.432313 0.075084 0.830181
Si Si4 0.527589 0.789163 0.337414
Si Si5 0.038968 0.658109 0.965616
Si Si6 0.716288 0.415220 0.925027
Si Si7 0.238933 0.248272 0.337144
Si Si8 0.269559 0.593219 0.662727
O O1 0.572532 0.412518 0.747756
O O2 0.733108 0.646028 0.915953
O O3 0.718278 0.591108 0.697438
O O4 0.546195 0.956470 0.879619
O O5 0.981754 0.482859 0.199211
O O6 0.867160 0.374411 0.318242
O O7 0.095925 0.289510 0.324347
O O8 0.967710 0.980988 0.076539
O O9 0.473643 0.037588 0.707732
O O10 0.322104 0.895325 0.763303
O O11 0.395254 0.416321 0.972044
O O12 0.656429 0.596576 0.304363
O O13 0.500000 0.000000 0.500000
O O14 0.179189 0.644298 0.996533
O O15 0.000000 0.500000 0.000000
O O16 0.701056 0.091332 0.768200
O O17 0.284151 0.411280 0.497443
#
# Coordination Sequence:
#
# PCOD8004799 Si02
#       8
#     2   2   2   2   2   2   2   2
#     4  11  23  39  62  91 124 163 205 252 309 364
#     4  10  22  39  63  92 122 159 206 251 303 365
#     4  11  24  40  64  92 124 162 207 256 303 364
#     4  11  23  41  64  91 126 165 205 252 307 368
#     4  10  20  38  62  89 123 162 202 252 306 359
#     4  11  23  39  61  91 124 159 204 255 306 362
#     4  11  24  41  63  90 127 163 202 255 308 363
#     4  11  23  41  64  92 124 164 206 250 305 366
#
# _framework density 23.171119999999998
#
# number of rings (size 3 to 8) (size 9 to 14) (size 15 to 20)
#    0.000    1.250    0.000    6.000    0.000    8.000 
#    0.000    0.000    0.000    7.500    0.000    0.000 
#    0.000    0.000    0.000    0.000    0.000    0.000 
#
# Total GULP energy -198239.603408 kJ/mol
# GULP energy per Si atom -12389.975213 kJ/mol
# Density = 2.311838 g / cm^3
# Si number density = 23.171120 Si / 1000 Ang^3
#
#
#
# Elastic Constant Matrix: (Units=GPa)
#
#
# Indices 1 2 3 4 5 6 
#
# 1 95.1415 31.9109 13.6963 4.3745 -16.3877 -2.2971
# 2 31.9109 117.8535 35.4892 -18.4253 -13.0034 -8.9894
# 3 13.6963 35.4892 97.4468 -8.0895 -20.1558 -6.1646
# 4 4.3745 -18.4253 -8.0895 36.5439 -0.7892 -7.1427
# 5 -16.3877 -13.0034 -20.1558 -0.7892 25.0579 -9.8817
# 6 -2.2971 -8.9894 -6.1646 -7.1427 -9.8817 34.5107
#
#
#
# Elastic Compliance Matrix: (Units=1/GPa)
#
#
# Indices 1 2 3 4 5 6 
#
# 1 0.013025 -0.003073 0.001007 -0.002267 0.008539 0.002222
# 2 -0.003073 0.012002 -0.001953 0.007171 0.005044 0.005501
# 3 0.001007 -0.001953 0.014530 0.003788 0.014216 0.007008
# 4 -0.002267 0.007171 0.003788 0.034857 0.011468 0.012892
# 5 0.008539 0.005044 0.014216 0.011468 0.070551 0.026996
# 6 0.002222 0.005501 0.007008 0.012892 0.026996 0.042208
#
#
# Mechanical properties :
#
#
# Convention : Reuss Voigt Hill
#
# Bulk Modulus (GPa) = 31.72588 52.51498 42.12043
# Shear Modulus (GPa) = 24.30526 34.51219 29.40873
#
# Velocity S-wave (km/s) = 3.24226 3.86352 3.56644
# Velocity P-wave (km/s) = 5.26669 6.52806 5.93100
#
# Compressibility (1/GPa) = 0.03152001
#
# Stress axis : x y z
#
# Youngs Moduli (GPa) = 76.77599 83.31648 68.82415
#
# Poissons Ratio (x) = 0.25601 -0.06930
# Poissons Ratio (y) = 0.23591 0.13439
# Poissons Ratio (z) = -0.07730 0.16269
#
# Static dielectric constant tensor:
#      x y z
#    x 3.847070 0.303560 -0.475800 
#    y 0.303560 3.913770 0.319740 
#    z -0.475800 0.319740 3.442970 
# 
# 
# High freq. dielectric constant tensor:
#      x y z
#    x 1.925720 -0.015910 -0.005250 
#    y -0.015910 1.928800 -0.023830 
#    z -0.005250 -0.023830 1.905890 
# 
# From -- ./inp_files/71678.got.cif
#   From: 2010.06.25/outbox.cif.g09.slc.cpg/sg2_36_cif.got.tgz:71678.got - 2010.06.27 13:26:56.
