data_PCOD8004039
_publ_section_title
;
Structure prediction by ZEFSAII (Michael W. Deem and Ramdas Pophale) SiO2 
 PCOD8004039
Probable space group: P -1
;
_chemical_formula_sum "Si O2"
_cell_formula_units_Z 12
_cell_length_a 6.108067
_cell_length_b 5.676607
_cell_length_c 17.817585
_cell_angle_alpha 70.322828
_cell_angle_beta 121.576956
_cell_angle_gamma 105.721945
_cell_volume 492.123119
_symmetry_space_group_name_H-M "P -1"
_symmetry_group_IT_number 2
_symmetry_cell_setting 'triclinic'
loop_
_space_group_symop_operation_xyz
x,y,z
-x,-y,-z
loop_
_atom_site_type_symbol
_atom_site_label
_atom_site_fract_x
_atom_site_fract_y
_atom_site_fract_z
Si Si1 0.196775 0.063122 0.296700
Si Si2 0.033704 0.758911 0.629814
Si Si3 0.347976 0.192446 0.560950
Si Si4 0.642844 0.786595 0.001434
Si Si5 0.423122 0.446649 0.694115
Si Si6 0.192170 0.917777 0.145864
O O1 0.955353 0.081554 0.307681
O O2 0.360300 0.329121 0.309824
O O3 0.344857 0.832723 0.378553
O O4 0.120607 0.040626 0.198685
O O5 0.743564 0.701877 0.547092
O O6 0.185137 0.514478 0.697411
O O7 0.203909 0.912151 0.579777
O O8 0.283848 0.366151 0.599495
O O9 0.924063 0.758794 0.090108
O O10 0.500000 0.500000 0.000000
O O11 0.500000 0.000000 0.000000
O O12 0.699575 0.872600 0.917042
O O13 0.567614 0.240118 0.784255
#
# Coordination Sequence:
#
# PCOD8004039 Si02
#       6
#     2   2   2   2   2   2
#     4  10  22  38  62  97 135 183 225 292 351 408
#     4  10  20  37  63  90 134 185 237 278 351 405
#     4   9  20  38  56  92 136 181 237 289 327 420
#     4  11  28  50  83 110 139 196 231 293 380 442
#     4  10  22  38  61  96 134 181 226 293 347 411
#     4  10  26  48  69 105 150 167 245 295 350 453
#
# _framework density 24.384139999999999
#
# number of rings (size 3 to 8) (size 9 to 14) (size 15 to 20)
#    0.000    2.000    0.000    1.000    4.667   10.000 
#    0.000    0.000    0.000    0.000    0.000    0.000 
#    0.000    0.000    0.000    0.000    0.000    0.000 
#
# Total GULP energy -148660.442017 kJ/mol
# GULP energy per Si atom -12388.370168 kJ/mol
# Density = 2.432864 g / cm^3
# Si number density = 24.384140 Si / 1000 Ang^3
#
#
#
# Elastic Constant Matrix: (Units=GPa)
#
#
# Indices 1 2 3 4 5 6 
#
# 1 119.7049 43.8300 71.6613 6.7193 -7.6395 -38.1446
# 2 43.8300 117.4287 60.9171 10.4114 -2.2466 -19.0495
# 3 71.6613 60.9171 164.5395 16.1992 -6.2091 -20.0677
# 4 6.7193 10.4114 16.1992 24.6018 0.0040 -1.5435
# 5 -7.6395 -2.2466 -6.2091 0.0040 28.1895 4.4077
# 6 -38.1446 -19.0495 -20.0677 -1.5435 4.4077 52.8829
#
#
#
# Elastic Compliance Matrix: (Units=1/GPa)
#
#
# Indices 1 2 3 4 5 6 
#
# 1 0.014320 -0.001666 -0.004639 0.000341 0.001498 0.007854
# 2 -0.001666 0.011148 -0.003004 -0.002181 -0.000482 0.001651
# 3 -0.004639 -0.003004 0.009488 -0.003772 0.000750 -0.001001
# 4 0.000341 -0.002181 -0.003772 0.043922 -0.000821 -0.000621
# 5 0.001498 -0.000482 0.000750 -0.000821 0.036298 -0.001858
# 6 0.007854 0.001651 -0.001001 -0.000621 -0.001858 0.024926
#
#
# Mechanical properties :
#
#
# Convention : Reuss Voigt Hill
#
# Bulk Modulus (GPa) = 61.20732 83.83220 72.51976
# Shear Modulus (GPa) = 30.45703 36.15249 33.30476
#
# Velocity S-wave (km/s) = 3.53803 3.85466 3.69973
# Velocity P-wave (km/s) = 6.46884 7.36652 6.93223
#
# Compressibility (1/GPa) = 0.01633791
#
# Stress axis : x y z
#
# Youngs Moduli (GPa) = 69.83136 89.70385 105.39832
#
# Poissons Ratio (x) = 0.14943 0.48897
# Poissons Ratio (y) = 0.11633 0.31660
# Poissons Ratio (z) = 0.32397 0.26946
#
# Static dielectric constant tensor:
#      x y z
#    x 4.619970 -0.241200 0.268300 
#    y -0.241200 4.417670 0.042810 
#    z 0.268300 0.042810 4.524690 
# 
# 
# High freq. dielectric constant tensor:
#      x y z
#    x 1.973150 -0.006810 0.007310 
#    y -0.006810 1.971950 0.005140 
#    z 0.007310 0.005140 1.967790 
# 
# From -- ./inp_files/3344.got.cif
#   From: 2010.06.25/outbox.cif.g09.slc.cpg/sg2_2_cif.got.tgz:3344.got - 2010.06.27 13:26:56.
