data_PCOD8004515
_publ_section_title
;
Structure prediction by ZEFSAII (Michael W. Deem and Ramdas Pophale) SiO2 
 PCOD8004515
Probable space group: P -1
;
_chemical_formula_sum "Si O2"
_cell_formula_units_Z 16
_cell_length_a 8.907485
_cell_length_b 18.446762
_cell_length_c 9.497524
_cell_angle_alpha 85.510099
_cell_angle_beta 54.912453
_cell_angle_gamma 46.202033
_cell_volume 775.135199
_symmetry_space_group_name_H-M "P -1"
_symmetry_group_IT_number 2
_symmetry_cell_setting 'triclinic'
loop_
_space_group_symop_operation_xyz
x,y,z
-x,-y,-z
loop_
_atom_site_type_symbol
_atom_site_label
_atom_site_fract_x
_atom_site_fract_y
_atom_site_fract_z
Si Si1 0.054838 0.561599 0.390550
Si Si2 0.465596 0.735618 0.027274
Si Si3 0.288531 0.678387 0.912115
Si Si4 0.093181 0.297556 0.299161
Si Si5 0.105760 0.524486 0.804494
Si Si6 0.890787 0.667068 0.168738
Si Si7 0.748024 0.272610 0.402211
Si Si8 0.235605 0.862196 0.409711
O O1 0.409090 0.461860 0.202517
O O2 0.000000 0.500000 0.500000
O O3 0.932640 0.665706 0.534482
O O4 0.881304 0.626961 0.327335
O O5 0.278867 0.752998 0.004290
O O6 0.566386 0.787140 0.921808
O O7 0.789231 0.591105 0.898934
O O8 0.251550 0.807857 0.267704
O O9 0.256501 0.715522 0.763909
O O10 0.040735 0.698724 0.089809
O O11 0.845005 0.414353 0.312246
O O12 0.002975 0.242228 0.343665
O O13 0.411876 0.383167 0.636642
O O14 0.048541 0.558047 0.996104
O O15 0.563960 0.792080 0.270708
O O16 0.859844 0.157265 0.402309
O O17 0.000000 0.000000 0.500000
#
# Coordination Sequence:
#
# PCOD8004515 Si02
#       8
#     2   2   2   2   2   2   2   2
#     4  12  22  35  60 100 144 164 192 244 312 394
#     4   9  22  38  63  89 132 150 200 264 314 375
#     4  12  21  39  59 104 129 163 199 252 323 383
#     4  10  20  38  59  97 133 160 203 243 314 392
#     4   9  19  37  58  95 129 158 197 244 315 384
#     4  11  25  39  63  90 136 164 205 256 313 376
#     4  12  22  37  69  89 128 174 203 256 312 375
#     4  11  27  47  63  86 120 169 227 266 306 361
#
# _framework density 20.641562
#
# number of rings (size 3 to 8) (size 9 to 14) (size 15 to 20)
#    0.750    0.500    3.750    2.250    5.250    1.000 
#    0.000    3.750    0.000    0.000    0.000    0.000 
#    0.000    0.000    0.000    0.000    0.000    0.000 
#
# Total GULP energy -198254.791107 kJ/mol
# GULP energy per Si atom -12390.924444 kJ/mol
# Density = 2.059458 g / cm^3
# Si number density = 20.641562 Si / 1000 Ang^3
#
#
#
# Elastic Constant Matrix: (Units=GPa)
#
#
# Indices 1 2 3 4 5 6 
#
# 1 149.5346 41.8476 47.7437 -9.6974 6.3821 -4.0811
# 2 41.8476 109.1323 46.4824 -9.2641 -0.7365 4.9563
# 3 47.7437 46.4824 86.1552 -20.2358 12.1350 -8.0297
# 4 -9.6974 -9.2641 -20.2358 23.5653 -9.6717 6.1188
# 5 6.3821 -0.7365 12.1350 -9.6717 30.6217 -6.9773
# 6 -4.0811 4.9563 -8.0297 6.1188 -6.9773 11.2136
#
#
#
# Elastic Compliance Matrix: (Units=1/GPa)
#
#
# Indices 1 2 3 4 5 6 
#
# 1 0.008363 -0.001773 -0.003724 -0.000956 -0.000266 0.001517
# 2 -0.001773 0.013662 -0.007209 0.002211 0.001491 -0.012125
# 3 -0.003724 -0.007209 0.021241 0.010350 -0.002272 0.009980
# 4 -0.000956 0.002211 0.010350 0.061665 0.010892 -0.020785
# 5 -0.000266 0.001491 -0.002272 0.010892 0.041005 0.017188
# 6 0.001517 -0.012125 0.009980 -0.020785 0.017188 0.124272
#
#
# Mechanical properties :
#
#
# Convention : Reuss Voigt Hill
#
# Bulk Modulus (GPa) = 56.00780 68.55217 62.27999
# Shear Modulus (GPa) = 16.57983 26.99668 21.78825
#
# Velocity S-wave (km/s) = 2.83720 3.62039 3.25245
# Velocity P-wave (km/s) = 6.15835 7.12454 6.65900
#
# Compressibility (1/GPa) = 0.01785466
#
# Stress axis : x y z
#
# Youngs Moduli (GPa) = 119.57118 73.19605 47.07842
#
# Poissons Ratio (x) = 0.12975 0.17531
# Poissons Ratio (y) = 0.21196 0.33940
# Poissons Ratio (z) = 0.44527 0.52769
#
# Static dielectric constant tensor:
#      x y z
#    x 3.868260 -0.063990 0.026670 
#    y -0.063990 3.305730 -0.369860 
#    z 0.026670 -0.369860 3.784180 
# 
# 
# High freq. dielectric constant tensor:
#      x y z
#    x 1.822540 -0.000480 0.001860 
#    y -0.000480 1.758410 -0.042550 
#    z 0.001860 -0.042550 1.804430 
# 
# From -- ./inp_files/217444.got.cif
#   From: 2010.06.25/outbox.cif.g09.slc.cpg/sg2_109_cif.got.tgz:217444.got - 2010.06.27 13:26:56.
