data_PCOD8004602
_publ_section_title
;
Structure prediction by ZEFSAII (Michael W. Deem and Ramdas Pophale) SiO2 
 PCOD8004602
Probable space group: P -1
;
_chemical_formula_sum "Si O2"
_cell_formula_units_Z 14
_cell_length_a 17.031361
_cell_length_b 7.028763
_cell_length_c 9.310837
_cell_angle_alpha 132.913280
_cell_angle_beta 56.198638
_cell_angle_gamma 105.023626
_cell_volume 665.110847
_symmetry_space_group_name_H-M "P -1"
_symmetry_group_IT_number 2
_symmetry_cell_setting 'triclinic'
loop_
_space_group_symop_operation_xyz
x,y,z
-x,-y,-z
loop_
_atom_site_type_symbol
_atom_site_label
_atom_site_fract_x
_atom_site_fract_y
_atom_site_fract_z
Si Si1 0.059364 0.711547 0.752743
Si Si2 0.938927 0.296219 0.706653
Si Si3 0.198270 0.835769 0.433988
Si Si4 0.631419 0.574992 0.388164
Si Si5 0.494149 0.430617 0.221833
Si Si6 0.158788 0.466280 0.802433
Si Si7 0.589336 0.171948 0.728286
O O1 0.129999 0.733624 0.563475
O O2 0.129902 0.596685 0.748524
O O3 0.992537 0.499423 0.670027
O O4 0.000000 0.000000 0.000000
O O5 0.833776 0.285741 0.743797
O O6 0.925748 0.419641 0.942068
O O7 0.000000 0.000000 0.500000
O O8 0.311300 0.720809 0.290092
O O9 0.175946 0.151467 0.612017
O O10 0.578213 0.419789 0.249047
O O11 0.599195 0.575830 0.589327
O O12 0.743340 0.442761 0.202546
O O13 0.613898 0.871867 0.499884
O O14 0.472310 0.682739 0.266731
O O15 0.527795 0.191011 0.950602
#
# Coordination Sequence:
#
# PCOD8004602 Si02
#       7
#     2   2   2   2   2   2   2
#     4  12  23  41  65  87 123 162 203 250 303 356
#     4  12  23  41  65  87 123 162 203 250 303 356
#     4  11  23  40  60  91 122 161 202 250 302 355
#     4  10  21  37  62  85 121 155 195 242 299 356
#     4  10  20  38  60  90 114 156 200 234 298 358
#     4  11  23  41  59  91 124 158 200 257 300 353
#     4  10  21  37  61  86 123 152 193 249 295 351
#
# _framework density 21.049121
#
# number of rings (size 3 to 8) (size 9 to 14) (size 15 to 20)
#    0.000    1.143    2.857    4.286    0.000    0.000 
#    0.000    0.000   12.571    0.000    0.000    0.000 
#    0.000    0.000    0.000    0.000    0.000    0.000 
#
# Total GULP energy -173533.545234 kJ/mol
# GULP energy per Si atom -12395.253231 kJ/mol
# Density = 2.100121 g / cm^3
# Si number density = 21.049121 Si / 1000 Ang^3
#
#
#
# Elastic Constant Matrix: (Units=GPa)
#
#
# Indices 1 2 3 4 5 6 
#
# 1 80.5821 21.2549 11.4483 -2.5694 4.9031 -8.7643
# 2 21.2549 72.8282 16.2614 -0.4481 -0.5354 3.2415
# 3 11.4483 16.2614 65.7372 -1.0187 -1.9909 -4.3088
# 4 -2.5694 -0.4481 -1.0187 31.9190 0.7072 -1.6412
# 5 4.9031 -0.5354 -1.9909 0.7072 26.0343 -2.2022
# 6 -8.7643 3.2415 -4.3088 -1.6412 -2.2022 30.6230
#
#
#
# Elastic Compliance Matrix: (Units=1/GPa)
#
#
# Indices 1 2 3 4 5 6 
#
# 1 0.014330 -0.004100 -0.001260 0.001331 -0.002556 0.004245
# 2 -0.004100 0.015838 -0.003410 -0.000399 0.000568 -0.003310
# 3 -0.001260 -0.003410 0.016493 0.000468 0.001624 0.002463
# 4 0.001331 -0.000399 0.000468 0.031574 -0.000902 0.002116
# 5 -0.002556 0.000568 0.001624 -0.000902 0.039240 0.002210
# 6 0.004245 -0.003310 0.002463 0.002116 0.002210 0.034839
#
#
# Mechanical properties :
#
#
# Convention : Reuss Voigt Hill
#
# Bulk Modulus (GPa) = 34.33962 35.23073 34.78518
# Shear Modulus (GPa) = 27.84562 29.06080 28.45321
#
# Velocity S-wave (km/s) = 3.64110 3.71970 3.68061
# Velocity P-wave (km/s) = 5.83320 5.93481 5.88422
#
# Compressibility (1/GPa) = 0.02912088
#
# Stress axis : x y z
#
# Youngs Moduli (GPa) = 69.78379 63.13905 60.63250
#
# Poissons Ratio (x) = 0.25890 0.07639
# Poissons Ratio (y) = 0.28615 0.20674
# Poissons Ratio (z) = 0.08791 0.21529
#
# Static dielectric constant tensor:
#      x y z
#    x 4.080870 0.068850 -0.034270 
#    y 0.068850 3.754010 -0.265110 
#    z -0.034270 -0.265110 3.425660 
# 
# 
# High freq. dielectric constant tensor:
#      x y z
#    x 1.837140 -0.003080 -0.000880 
#    y -0.003080 1.827150 -0.008830 
#    z -0.000880 -0.008830 1.823160 
# 
# From -- ./inp_files/38381.got.cif
#   From: 2010.06.25/outbox.cif.g09.slc.cpg/sg2_20_cif.got.tgz:38381.got - 2010.06.27 13:26:56.
