data_PCOD8004128
_publ_section_title
;
Structure prediction by ZEFSAII (Michael W. Deem and Ramdas Pophale) SiO2 
 PCOD8004128
Probable space group: P -1
;
_chemical_formula_sum "Si O2"
_cell_formula_units_Z 16
_cell_length_a 16.706890
_cell_length_b 19.785415
_cell_length_c 10.698719
_cell_angle_alpha 24.843132
_cell_angle_beta 33.238788
_cell_angle_gamma 31.090698
_cell_volume 738.056640
_symmetry_space_group_name_H-M "P -1"
_symmetry_group_IT_number 2
_symmetry_cell_setting 'triclinic'
loop_
_space_group_symop_operation_xyz
x,y,z
-x,-y,-z
loop_
_atom_site_type_symbol
_atom_site_label
_atom_site_fract_x
_atom_site_fract_y
_atom_site_fract_z
Si Si1 0.442560 0.767591 0.115008
Si Si2 0.177599 0.478070 0.332561
Si Si3 0.281043 0.002912 0.329268
Si Si4 0.402005 0.087688 0.787415
Si Si5 0.878480 0.188898 0.005580
Si Si6 0.816543 0.130382 0.919057
Si Si7 0.996736 0.332907 0.218677
Si Si8 0.731486 0.440112 0.189713
O O1 0.351934 0.810845 0.028128
O O2 0.621059 0.620225 0.104508
O O3 0.346136 0.700622 0.452518
O O4 0.458353 0.943058 0.846307
O O5 0.290907 0.278959 0.557046
O O6 0.000000 0.500000 0.500000
O O7 0.163393 0.607435 0.251026
O O8 0.254938 0.530825 0.023547
O O9 0.182982 0.200004 0.180944
O O10 0.448392 0.903243 0.351174
O O11 0.173830 0.892293 0.669893
O O12 0.304110 0.020349 0.123406
O O13 0.778898 0.164415 0.058452
O O14 0.069283 0.075738 0.917837
O O15 0.906990 0.251988 0.562529
O O16 0.908102 0.373600 0.131811
O O17 0.000000 0.500000 0.000000
#
# Coordination Sequence:
#
# PCOD8004128 Si02
#       8
#     2   2   2   2   2   2   2   2
#     4  10  21  44  63  92 126 163 213 253 311 378
#     4  12  26  41  63  97 127 163 206 262 313 365
#     4  10  23  42  62  90 123 170 210 246 319 365
#     4  11  24  41  63  94 125 164 207 262 310 368
#     4  10  22  43  62  90 126 165 208 254 304 378
#     4   9  21  38  65  89 121 169 205 249 311 365
#     4  10  20  37  64  91 123 163 205 259 302 368
#     4  10  23  40  65  95 123 168 205 254 318 365
#
# _framework density 21.678550999999999
#
# number of rings (size 3 to 8) (size 9 to 14) (size 15 to 20)
#    0.000    1.750    0.000    3.000    5.250    1.000 
#    9.000    5.000    0.000    0.000    0.000    0.000 
#    0.000    0.000    0.000    0.000    0.000    0.000 
#
# Total GULP energy -198435.586147 kJ/mol
# GULP energy per Si atom -12402.224134 kJ/mol
# Density = 2.162921 g / cm^3
# Si number density = 21.678551 Si / 1000 Ang^3
#
#
#
# Elastic Constant Matrix: (Units=GPa)
#
#
# Indices 1 2 3 4 5 6 
#
# 1 73.1500 25.4534 30.6490 -7.0315 22.6885 -2.1284
# 2 25.4534 88.2909 36.6162 -23.3830 2.5263 -0.0865
# 3 30.6490 36.6162 58.4695 -22.1211 5.4361 7.4623
# 4 -7.0315 -23.3830 -22.1211 45.0450 5.6593 0.7236
# 5 22.6885 2.5263 5.4361 5.6593 30.2951 -9.3188
# 6 -2.1284 -0.0865 7.4623 0.7236 -9.3188 36.4293
#
#
#
# Elastic Compliance Matrix: (Units=1/GPa)
#
#
# Indices 1 2 3 4 5 6 
#
# 1 0.023196 -0.002514 -0.009069 -0.000145 -0.015760 -0.000822
# 2 -0.002514 0.016282 -0.007763 0.003999 0.001739 0.001847
# 3 -0.009069 -0.007763 0.032094 0.010799 -0.002815 -0.008057
# 4 -0.000145 0.003999 0.010799 0.030840 -0.009543 -0.005265
# 5 -0.015760 0.001739 -0.002815 -0.009543 0.050915 0.012874
# 6 -0.000822 0.001847 -0.008057 -0.005265 0.012874 0.032455
#
#
# Mechanical properties :
#
#
# Convention : Reuss Voigt Hill
#
# Bulk Modulus (GPa) = 30.41460 45.03861 37.72660
# Shear Modulus (GPa) = 21.23752 30.83334 26.03543
#
# Velocity S-wave (km/s) = 3.13334 3.77543 3.46927
# Velocity P-wave (km/s) = 5.21063 6.31078 5.78691
#
# Compressibility (1/GPa) = 0.03287895
#
# Stress axis : x y z
#
# Youngs Moduli (GPa) = 43.11156 61.41908 31.15863
#
# Poissons Ratio (x) = 0.15441 0.28258
# Poissons Ratio (y) = 0.10839 0.24188
# Poissons Ratio (z) = 0.39098 0.47680
#
# Static dielectric constant tensor:
#      x y z
#    x 3.813980 -0.062300 0.244110 
#    y -0.062300 3.996160 -0.041600 
#    z 0.244110 -0.041600 3.847560 
# 
# 
# High freq. dielectric constant tensor:
#      x y z
#    x 1.848800 -0.001360 0.011740 
#    y -0.001360 1.859390 -0.004410 
#    z 0.011740 -0.004410 1.849350 
# 
# From -- ./inp_files/392631.got.cif
#   From: 2010.06.25/outbox.cif.g09.slc.cpg/sg2_197_cif.got.tgz:392631.got - 2010.06.27 13:26:56.
