data_PCOD8004266
_publ_section_title
;
Structure prediction by ZEFSAII (Michael W. Deem and Ramdas Pophale) SiO2 
 PCOD8004266
Probable space group: P -1
;
_chemical_formula_sum "Si O2"
_cell_formula_units_Z 16
_cell_length_a 14.196847
_cell_length_b 7.908595
_cell_length_c 11.454605
_cell_angle_alpha 120.032617
_cell_angle_beta 85.726166
_cell_angle_gamma 133.418479
_cell_volume 730.713998
_symmetry_space_group_name_H-M "P -1"
_symmetry_group_IT_number 2
_symmetry_cell_setting 'triclinic'
loop_
_space_group_symop_operation_xyz
x,y,z
-x,-y,-z
loop_
_atom_site_type_symbol
_atom_site_label
_atom_site_fract_x
_atom_site_fract_y
_atom_site_fract_z
Si Si1 0.643782 0.625841 0.490382
Si Si2 0.534340 0.329466 0.158922
Si Si3 0.167888 0.372779 0.403729
Si Si4 0.140295 0.554561 0.694786
Si Si5 0.733486 0.902472 0.221176
Si Si6 0.728588 0.310660 0.034641
Si Si7 0.840973 0.223823 0.553928
Si Si8 0.922956 0.872669 0.087308
O O1 0.500000 0.500000 0.500000
O O2 0.612475 0.445136 0.316912
O O3 0.701797 0.577856 0.573133
O O4 0.748755 0.970480 0.572825
O O5 0.575133 0.593503 0.176994
O O6 0.603414 0.273043 0.051019
O O7 0.360944 0.032442 0.088837
O O8 0.119473 0.348951 0.532460
O O9 0.213498 0.638450 0.418571
O O10 0.042174 0.063560 0.242867
O O11 0.160676 0.506099 0.805005
O O12 0.003044 0.484777 0.676762
O O13 0.280074 0.908667 0.775958
O O14 0.808100 0.866800 0.113724
O O15 0.838436 0.095949 0.390065
O O16 0.829409 0.525236 0.988965
O O17 0.000000 0.000000 0.000000
#
# Coordination Sequence:
#
# PCOD8004266 Si02
#       8
#     2   2   2   2   2   2   2   2
#     4  11  24  40  60  89 126 167 206 247 304 378
#     4   9  20  40  57  86 124 160 205 250 297 366
#     4  11  21  40  66  91 121 157 203 263 312 352
#     4  11  18  36  69  97 111 149 211 270 308 349
#     4   9  18  36  61  88 121 149 202 257 302 360
#     4  10  21  36  63  89 116 162 207 250 306 357
#     4  10  20  37  66  96 117 150 212 265 306 357
#     4  11  22  38  58  89 126 161 197 249 314 371
#
# _framework density 21.896391000000001
#
# number of rings (size 3 to 8) (size 9 to 14) (size 15 to 20)
#    0.000    1.750    3.750    1.500    0.000    3.000 
#    2.250    0.625    0.000    0.000    0.000    0.000 
#    0.000    0.000    0.000    0.000    0.000    0.000 
#
# Total GULP energy -198248.512581 kJ/mol
# GULP energy per Si atom -12390.532036 kJ/mol
# Density = 2.184655 g / cm^3
# Si number density = 21.896391 Si / 1000 Ang^3
#
#
#
# Elastic Constant Matrix: (Units=GPa)
#
#
# Indices 1 2 3 4 5 6 
#
# 1 88.4356 40.2076 11.6123 2.0408 10.4594 -5.4600
# 2 40.2076 176.6111 58.1509 16.6259 2.4415 -7.4096
# 3 11.6123 58.1509 66.8976 14.2134 8.9190 -2.5063
# 4 2.0408 16.6259 14.2134 29.4120 -3.9675 -1.3407
# 5 10.4594 2.4415 8.9190 -3.9675 20.4727 -2.1951
# 6 -5.4600 -7.4096 -2.5063 -1.3407 -2.1951 21.3927
#
#
#
# Elastic Compliance Matrix: (Units=1/GPa)
#
#
# Indices 1 2 3 4 5 6 
#
# 1 0.013630 -0.003468 0.001858 -0.000796 -0.007332 0.001693
# 2 -0.003468 0.009024 -0.007604 -0.000555 0.004086 0.001734
# 3 0.001858 -0.007604 0.024975 -0.009697 -0.012928 -0.001168
# 4 -0.000796 -0.000555 -0.009697 0.040899 0.012876 0.002353
# 5 -0.007332 0.004086 -0.012928 0.012876 0.060776 0.005072
# 6 0.001693 0.001734 -0.001168 0.002353 0.005072 0.048309
#
#
# Mechanical properties :
#
#
# Convention : Reuss Voigt Hill
#
# Bulk Modulus (GPa) = 34.24282 61.32065 47.78174
# Shear Modulus (GPa) = 22.14603 29.05371 25.59987
#
# Velocity S-wave (km/s) = 3.18370 3.64658 3.42297
# Velocity P-wave (km/s) = 5.40251 6.76726 6.12303
#
# Compressibility (1/GPa) = 0.02920320
#
# Stress axis : x y z
#
# Youngs Moduli (GPa) = 73.36566 110.81782 40.03926
#
# Poissons Ratio (x) = 0.38428 -0.07441
# Poissons Ratio (y) = 0.25441 0.30445
# Poissons Ratio (z) = -0.13634 0.84264
#
# Static dielectric constant tensor:
#      x y z
#    x 3.573980 -0.293670 -0.006680 
#    y -0.293670 4.374590 0.420470 
#    z -0.006680 0.420470 4.057770 
# 
# 
# High freq. dielectric constant tensor:
#      x y z
#    x 1.827170 -0.021580 0.007010 
#    y -0.021580 1.870350 0.018180 
#    z 0.007010 0.018180 1.846960 
# 
# From -- ./inp_files/402185.got.cif
#   From: 2010.06.25/outbox.cif.g09.slc.cpg/sg2_202_cif.got.tgz:402185.got - 2010.06.27 13:26:56.
