data_PCOD8004896
_publ_section_title
;
Structure prediction by ZEFSAII (Michael W. Deem and Ramdas Pophale) SiO2 
 PCOD8004896
Probable space group: P -1
;
_chemical_formula_sum "Si O2"
_cell_formula_units_Z 12
_cell_length_a 8.304364
_cell_length_b 13.336847
_cell_length_c 8.812170
_cell_angle_alpha 113.043434
_cell_angle_beta 66.737728
_cell_angle_gamma 143.452732
_cell_volume 529.011031
_symmetry_space_group_name_H-M "P -1"
_symmetry_group_IT_number 2
_symmetry_cell_setting 'triclinic'
loop_
_space_group_symop_operation_xyz
x,y,z
-x,-y,-z
loop_
_atom_site_type_symbol
_atom_site_label
_atom_site_fract_x
_atom_site_fract_y
_atom_site_fract_z
Si Si1 0.066513 0.527011 0.168205
Si Si2 0.467099 0.688404 0.566000
Si Si3 0.191434 0.172192 0.201939
Si Si4 0.207711 0.417485 0.268504
Si Si5 0.383302 0.880045 0.614523
Si Si6 0.605276 0.896496 0.140850
O O1 0.153908 0.446602 0.141027
O O2 0.326431 0.727692 0.228719
O O3 0.808824 0.444589 0.310820
O O4 0.000000 0.500000 0.000000
O O5 0.722163 0.771223 0.622073
O O6 0.443014 0.593667 0.378129
O O7 0.542560 0.845206 0.570973
O O8 0.277070 0.322656 0.166013
O O9 0.362584 0.152175 0.058469
O O10 0.868054 0.993991 0.207108
O O11 0.933948 0.299238 0.401891
O O12 0.500000 0.000000 0.500000
O O13 0.404789 0.977145 0.805091
#
# Coordination Sequence:
#
# PCOD8004896 Si02
#       6
#     2   2   2   2   2   2
#     4  11  21  40  62  91 118 159 207 246 293 356
#     4  11  21  40  65  91 118 158 206 247 296 357
#     4  10  22  40  59  89 125 162 192 246 309 357
#     4  10  22  39  63  88 127 156 199 251 298 357
#     4  10  20  38  63  87 120 160 199 250 298 347
#     4  10  21  40  58  86 130 150 200 245 302 354
#
# _framework density 22.683837
#
# number of rings (size 3 to 8) (size 9 to 14) (size 15 to 20)
#    0.000    1.667    1.667    4.500    0.000    1.333 
#    6.000    9.167    0.000    0.000    0.000    0.000 
#    0.000    0.000    0.000    0.000    0.000    0.000 
#
# Total GULP energy -148744.553656 kJ/mol
# GULP energy per Si atom -12395.379471 kJ/mol
# Density = 2.263221 g / cm^3
# Si number density = 22.683837 Si / 1000 Ang^3
#
#
#
# Elastic Constant Matrix: (Units=GPa)
#
#
# Indices 1 2 3 4 5 6 
#
# 1 79.6244 45.4883 31.3309 14.9162 25.7536 -12.3238
# 2 45.4883 122.0998 31.4702 10.3430 15.6609 -6.3703
# 3 31.3309 31.4702 84.6120 15.0177 18.2139 -11.2417
# 4 14.9162 10.3430 15.0177 38.0742 -4.1816 -6.5837
# 5 25.7536 15.6609 18.2139 -4.1816 37.0399 2.1510
# 6 -12.3238 -6.3703 -11.2417 -6.5837 2.1510 40.1860
#
#
#
# Elastic Compliance Matrix: (Units=1/GPa)
#
#
# Indices 1 2 3 4 5 6 
#
# 1 0.023110 -0.005501 -0.001378 -0.007657 -0.014239 0.005337
# 2 -0.005501 0.010702 -0.002106 0.000016 0.000372 -0.000597
# 3 -0.001378 -0.002106 0.015950 -0.005374 -0.006787 0.003189
# 4 -0.007657 0.000016 -0.005374 0.032811 0.011611 0.000905
# 5 -0.014239 0.000372 -0.006787 0.011611 0.041769 -0.006540
# 6 0.005337 -0.000597 0.003189 0.000905 -0.006540 0.027817
#
#
# Mechanical properties :
#
#
# Convention : Reuss Voigt Hill
#
# Bulk Modulus (GPa) = 31.45383 55.87943 43.66663
# Shear Modulus (GPa) = 27.66630 34.92980 31.29805
#
# Velocity S-wave (km/s) = 3.49613 3.92835 3.71853
# Velocity P-wave (km/s) = 5.49487 6.72781 6.14235
#
# Compressibility (1/GPa) = 0.03179263
#
# Stress axis : x y z
#
# Youngs Moduli (GPa) = 43.27207 93.44100 62.69424
#
# Poissons Ratio (x) = 0.51401 0.08640
# Poissons Ratio (y) = 0.23804 0.13201
# Poissons Ratio (z) = 0.05963 0.19675
#
# Static dielectric constant tensor:
#      x y z
#    x 4.102170 -0.107080 -0.084070 
#    y -0.107080 4.427710 0.345740 
#    z -0.084070 0.345740 3.973410 
# 
# 
# High freq. dielectric constant tensor:
#      x y z
#    x 1.881150 -0.000910 -0.000420 
#    y -0.000910 1.907960 0.019190 
#    z -0.000420 0.019190 1.875850 
# 
# From -- ./inp_files/150515.got.cif
#   From: 2010.06.25/outbox.cif.g09.slc.cpg/sg2_76_cif.got.tgz:150515.got - 2010.06.27 13:26:56.
