data_PCOD8004902
_publ_section_title
;
Structure prediction by ZEFSAII (Michael W. Deem and Ramdas Pophale) SiO2 
 PCOD8004902
Probable space group: P -1
;
_chemical_formula_sum "Si O2"
_cell_formula_units_Z 16
_cell_length_a 14.892410
_cell_length_b 17.650065
_cell_length_c 23.309036
_cell_angle_alpha 156.338102
_cell_angle_beta 19.254423
_cell_angle_gamma 149.177988
_cell_volume 810.051338
_symmetry_space_group_name_H-M "P -1"
_symmetry_group_IT_number 2
_symmetry_cell_setting 'triclinic'
loop_
_space_group_symop_operation_xyz
x,y,z
-x,-y,-z
loop_
_atom_site_type_symbol
_atom_site_label
_atom_site_fract_x
_atom_site_fract_y
_atom_site_fract_z
Si Si1 0.909572 0.903972 0.575624
Si Si2 0.298549 0.086271 0.549231
Si Si3 0.704838 0.937277 0.283659
Si Si4 0.907718 0.638731 0.035116
Si Si5 0.278390 0.760549 0.679212
Si Si6 0.524741 0.580044 0.603800
Si Si7 0.876329 0.871532 0.902839
Si Si8 0.702413 0.243609 0.857376
O O1 0.665202 0.778325 0.655286
O O2 0.128869 0.782535 0.321343
O O3 0.780576 0.078135 0.739164
O O4 0.046103 0.975510 0.601009
O O5 0.527294 0.931094 0.327678
O O6 0.428383 0.200642 0.498184
O O7 0.207502 0.232256 0.754547
O O8 0.935947 0.091224 0.240477
O O9 0.500000 0.000000 0.500000
O O10 0.844985 0.736391 0.078521
O O11 0.765024 0.440398 0.985743
O O12 0.228537 0.609404 0.830640
O O13 0.294511 0.562011 0.564236
O O14 0.044581 0.751007 0.765564
O O15 0.213669 0.922340 0.876751
O O16 0.500000 0.500000 0.500000
O O17 0.619326 0.753118 0.958714
#
# Coordination Sequence:
#
# PCOD8004902 Si02
#       8
#     2   2   2   2   2   2   2   2
#     4  11  23  38  59  88 124 157 196 257 295 347
#     4  10  22  42  61  88 124 158 198 246 301 357
#     4   9  20  40  62  89 124 160 192 245 302 355
#     4  11  23  39  64  89 121 163 199 244 303 356
#     4  10  21  38  61  88 120 155 200 249 295 352
#     4  12  23  38  59  89 122 156 201 250 298 353
#     4  10  20  38  63  88 117 161 199 241 300 357
#     4  11  22  38  60  91 120 157 204 244 298 356
#
# _framework density 19.751833000000001
#
# number of rings (size 3 to 8) (size 9 to 14) (size 15 to 20)
#    0.000    1.500    2.500    3.000    0.000    3.500 
#    0.000    9.375    0.000    0.000    0.000    0.000 
#    0.000    0.000    0.000    0.000    0.000    0.000 
#
# Total GULP energy -198430.363740 kJ/mol
# GULP energy per Si atom -12401.897734 kJ/mol
# Density = 1.970688 g / cm^3
# Si number density = 19.751833 Si / 1000 Ang^3
#
#
#
# Elastic Constant Matrix: (Units=GPa)
#
#
# Indices 1 2 3 4 5 6 
#
# 1 91.2923 60.4471 42.1708 5.2661 -9.3395 5.2508
# 2 60.4471 151.9361 49.9021 -5.1637 -10.8126 17.1516
# 3 42.1708 49.9021 90.3788 -0.7867 -9.7976 1.6763
# 4 5.2661 -5.1637 -0.7867 37.9141 -2.6738 -4.2955
# 5 -9.3395 -10.8126 -9.7976 -2.6738 33.6751 1.1546
# 6 5.2508 17.1516 1.6763 -4.2955 1.1546 41.7895
#
#
#
# Elastic Compliance Matrix: (Units=1/GPa)
#
#
# Indices 1 2 3 4 5 6 
#
# 1 0.016955 -0.005097 -0.004970 -0.003077 0.001382 -0.000193
# 2 -0.005097 0.010104 -0.002994 0.001740 0.001209 -0.003241
# 3 -0.004970 -0.002994 0.015251 0.000893 0.002125 0.001275
# 4 -0.003077 0.001740 0.000893 0.027476 0.002064 0.002404
# 5 0.001382 0.001209 0.002125 0.002064 0.031297 -0.001407
# 6 -0.000193 -0.003241 0.001275 0.002404 -0.001407 0.025519
#
#
# Mechanical properties :
#
#
# Convention : Reuss Voigt Hill
#
# Bulk Modulus (GPa) = 61.77824 70.96079 66.36952
# Shear Modulus (GPa) = 31.62136 34.74823 33.18480
#
# Velocity S-wave (km/s) = 4.00551 4.19888 4.10333
# Velocity P-wave (km/s) = 7.26204 7.71438 7.49162
#
# Compressibility (1/GPa) = 0.01618693
#
# Stress axis : x y z
#
# Youngs Moduli (GPa) = 58.98064 98.96931 65.56854
#
# Poissons Ratio (x) = 0.50449 0.32587
# Poissons Ratio (y) = 0.30065 0.19633
# Poissons Ratio (z) = 0.29313 0.29633
#
# Static dielectric constant tensor:
#      x y z
#    x 3.583690 -0.687710 0.192670 
#    y -0.687710 2.379810 1.070920 
#    z 0.192670 1.070920 2.581670 
# 
# 
# High freq. dielectric constant tensor:
#      x y z
#    x 1.772180 -0.010910 -0.017450 
#    y -0.010910 1.769730 -0.015480 
#    z -0.017450 -0.015480 1.770440 
# 
# From -- ./inp_files/207032.got.cif
#   From: 2010.06.25/outbox.cif.g09.slc.cpg/sg2_104_cif.got.tgz:207032.got - 2010.06.27 13:26:56.
