data_PCOD8004941
_publ_section_title
;
Structure prediction by ZEFSAII (Michael W. Deem and Ramdas Pophale) SiO2 
 PCOD8004941
Probable space group: P -1
;
_chemical_formula_sum "Si O2"
_cell_formula_units_Z 14
_cell_length_a 9.476037
_cell_length_b 23.110256
_cell_length_c 17.617245
_cell_angle_alpha 161.846959
_cell_angle_beta 38.514585
_cell_angle_gamma 148.250967
_cell_volume 624.742953
_symmetry_space_group_name_H-M "P -1"
_symmetry_group_IT_number 2
_symmetry_cell_setting 'triclinic'
loop_
_space_group_symop_operation_xyz
x,y,z
-x,-y,-z
loop_
_atom_site_type_symbol
_atom_site_label
_atom_site_fract_x
_atom_site_fract_y
_atom_site_fract_z
Si Si1 0.906383 0.328189 0.645602
Si Si2 0.077565 0.799971 0.802912
Si Si3 0.058569 0.317503 0.723469
Si Si4 0.545364 0.740650 0.348917
Si Si5 0.656990 0.460302 0.664714
Si Si6 0.921309 0.207502 0.806695
Si Si7 0.778301 0.724464 0.680435
O O1 0.891603 0.200837 0.570588
O O2 0.997896 0.244840 0.433974
O O3 0.611562 0.269565 0.673528
O O4 0.117226 0.594388 0.907513
O O5 0.286327 0.722778 0.617522
O O6 0.895654 0.702419 0.834633
O O7 0.870006 0.705927 0.702305
O O8 0.250686 0.067701 0.060696
O O9 0.372204 0.409974 0.690240
O O10 0.949837 0.158901 0.644497
O O11 0.000000 0.500000 0.000000
O O12 0.350105 0.541388 0.241921
O O13 0.791783 0.726078 0.194944
O O14 0.656308 0.964978 0.634777
O O15 0.500000 0.500000 0.500000
#
# Coordination Sequence:
#
# PCOD8004941 Si02
#       7
#     2   2   2   2   2   2   2
#     4  11  21  37  61  90 122 166 210 258 310 382
#     4  10  23  43  65  90 129 175 210 263 327 371
#     4   9  20  38  61  93 130 165 205 261 322 379
#     4  10  20  38  63  92 122 164 211 254 319 375
#     4  10  20  42  67  90 129 171 211 260 323 384
#     4   9  21  38  62  89 126 166 202 263 315 375
#     4  11  24  40  63  97 124 167 218 267 313 378
#
# _framework density 22.409216000000001
#
# number of rings (size 3 to 8) (size 9 to 14) (size 15 to 20)
#    0.000    2.000    1.429    1.286    2.000    2.857 
#    0.000   15.000    0.000    0.000    0.000    0.000 
#    0.000    0.000    0.000    0.000    0.000    0.000 
#
# Total GULP energy -173473.478819 kJ/mol
# GULP energy per Si atom -12390.962773 kJ/mol
# Density = 2.235821 g / cm^3
# Si number density = 22.409216 Si / 1000 Ang^3
#
#
#
# Elastic Constant Matrix: (Units=GPa)
#
#
# Indices 1 2 3 4 5 6 
#
# 1 125.0554 45.6625 10.6579 1.1826 -1.9092 23.6195
# 2 45.6625 81.7115 22.8708 1.9238 -3.0016 3.1027
# 3 10.6579 22.8708 92.0233 1.9047 -11.9893 13.1621
# 4 1.1826 1.9238 1.9047 24.0632 4.4008 -0.2097
# 5 -1.9092 -3.0016 -11.9893 4.4008 30.3867 -3.7659
# 6 23.6195 3.1027 13.1621 -0.2097 -3.7659 25.4435
#
#
#
# Elastic Compliance Matrix: (Units=1/GPa)
#
#
# Indices 1 2 3 4 5 6 
#
# 1 0.012737 -0.007229 0.001971 -0.000199 -0.000601 -0.012053
# 2 -0.007229 0.017272 -0.004368 -0.000709 0.000490 0.006931
# 3 0.001971 -0.004368 0.013405 -0.001657 0.004278 -0.007612
# 4 -0.000199 -0.000709 -0.001657 0.043023 -0.006910 0.000460
# 5 -0.000601 0.000490 0.004278 -0.006910 0.036050 0.003564
# 6 -0.012053 0.006931 -0.007612 0.000460 0.003564 0.054116
#
#
# Mechanical properties :
#
#
# Convention : Reuss Voigt Hill
#
# Bulk Modulus (GPa) = 41.38831 50.79696 46.09263
# Shear Modulus (GPa) = 24.52065 30.61860 27.56963
#
# Velocity S-wave (km/s) = 3.31149 3.70041 3.51134
# Velocity P-wave (km/s) = 5.75593 6.40113 6.08709
#
# Compressibility (1/GPa) = 0.02416141
#
# Stress axis : x y z
#
# Youngs Moduli (GPa) = 78.50883 57.89590 74.60135
#
# Poissons Ratio (x) = 0.41856 -0.14706
# Poissons Ratio (y) = 0.56758 0.32588
# Poissons Ratio (z) = -0.15477 0.25291
#
# Static dielectric constant tensor:
#      x y z
#    x 4.654870 -0.327340 -0.232590 
#    y -0.327340 4.147360 -0.126860 
#    z -0.232590 -0.126860 3.877470 
# 
# 
# High freq. dielectric constant tensor:
#      x y z
#    x 1.894940 -0.002000 -0.017820 
#    y -0.002000 1.875810 -0.009970 
#    z -0.017820 -0.009970 1.864110 
# 
# From -- ./inp_files/563324.got.cif
#   From: 2010.06.25/outbox.cif.g09.slc.cpg/sg2_282_cif.got.tgz:563324.got - 2010.06.27 13:26:56.
