data_PCOD8004701
_publ_section_title
;
Structure prediction by ZEFSAII (Michael W. Deem and Ramdas Pophale) SiO2 
 PCOD8004701
Probable space group: P -1
;
_chemical_formula_sum "Si O2"
_cell_formula_units_Z 14
_cell_length_a 20.214624
_cell_length_b 9.661596
_cell_length_c 8.894588
_cell_angle_alpha 30.046325
_cell_angle_beta 49.747240
_cell_angle_gamma 47.624041
_cell_volume 633.241933
_symmetry_space_group_name_H-M "P -1"
_symmetry_group_IT_number 2
_symmetry_cell_setting 'triclinic'
loop_
_space_group_symop_operation_xyz
x,y,z
-x,-y,-z
loop_
_atom_site_type_symbol
_atom_site_label
_atom_site_fract_x
_atom_site_fract_y
_atom_site_fract_z
Si Si1 0.352171 0.027738 0.049799
Si Si2 0.532479 0.569569 0.548484
Si Si3 0.194587 0.934023 0.183065
Si Si4 0.747095 0.380579 0.905174
Si Si5 0.348748 0.997391 0.440521
Si Si6 0.924846 0.446752 0.269928
Si Si7 0.047405 0.715627 0.289426
O O1 0.428347 0.744645 0.136162
O O2 0.254410 0.037153 0.120693
O O3 0.347325 0.026449 0.237125
O O4 0.381411 0.306548 0.698714
O O5 0.500000 0.500000 0.500000
O O6 0.447303 0.794035 0.545770
O O7 0.254511 0.720478 0.170049
O O8 0.132157 0.759241 0.522323
O O9 0.138154 0.228868 0.902640
O O10 0.671443 0.690483 0.744760
O O11 0.845329 0.397925 0.792862
O O12 0.726973 0.148095 0.264153
O O13 0.969365 0.268290 0.521282
O O14 0.000000 0.500000 0.000000
O O15 0.000000 0.500000 0.500000
O O16 0.000000 0.000000 0.000000
#
# Coordination Sequence:
#
# PCOD8004701 Si02
#       7
#     2   2   2   2   2   2   2
#     4  11  22  39  63  91 121 163 211 260 309 370
#     4  10  20  38  61  90 124 159 205 265 314 357
#     4  11  24  43  62  92 133 167 203 263 326 376
#     4  11  23  40  59  88 126 161 197 256 321 372
#     4  11  21  38  63  89 117 162 212 254 305 374
#     4  11  24  43  66  93 127 171 213 262 320 379
#     4  11  23  41  63  89 123 163 206 258 314 372
#
# _framework density 22.108454999999999
#
# number of rings (size 3 to 8) (size 9 to 14) (size 15 to 20)
#    0.000    1.143    0.000    9.857    0.000    3.429 
#    0.000    4.286    0.000    0.000    0.000    0.000 
#    0.000    0.000    0.000    0.000    0.000    0.000 
#
# Total GULP energy -173524.315163 kJ/mol
# GULP energy per Si atom -12394.593940 kJ/mol
# Density = 2.205814 g / cm^3
# Si number density = 22.108455 Si / 1000 Ang^3
#
#
#
# Elastic Constant Matrix: (Units=GPa)
#
#
# Indices 1 2 3 4 5 6 
#
# 1 85.0434 27.3050 32.9360 1.9233 -21.6947 0.9568
# 2 27.3050 97.4738 35.8271 -10.0270 6.8632 -1.5883
# 3 32.9360 35.8271 128.5476 -11.4562 -13.6863 4.5081
# 4 1.9233 -10.0270 -11.4562 43.9289 -5.2029 -3.4445
# 5 -21.6947 6.8632 -13.6863 -5.2029 48.9690 -9.7248
# 6 0.9568 -1.5883 4.5081 -3.4445 -9.7248 14.9051
#
#
#
# Elastic Compliance Matrix: (Units=1/GPa)
#
#
# Indices 1 2 3 4 5 6 
#
# 1 0.015947 -0.004193 -0.002332 -0.001039 0.007687 0.004010
# 2 -0.004193 0.012971 -0.002826 0.001923 -0.004222 0.000196
# 3 -0.002332 -0.002826 0.009611 0.002105 0.002024 -0.001251
# 4 -0.001039 0.001923 0.002105 0.024917 0.004110 0.008074
# 5 0.007687 -0.004222 0.002024 0.004110 0.029067 0.018359
# 6 0.004010 0.000196 -0.001251 0.008074 0.018359 0.081077
#
#
# Mechanical properties :
#
#
# Convention : Reuss Voigt Hill
#
# Bulk Modulus (GPa) = 50.43420 55.91120 53.17270
# Shear Modulus (GPa) = 25.13810 35.89370 30.51590
#
# Velocity S-wave (km/s) = 3.37565 4.03367 3.71925
# Velocity P-wave (km/s) = 6.16888 6.85846 6.52279
#
# Compressibility (1/GPa) = 0.01982782
#
# Stress axis : x y z
#
# Youngs Moduli (GPa) = 62.70578 77.09784 104.04369
#
# Poissons Ratio (x) = 0.32326 0.24265
# Poissons Ratio (y) = 0.26292 0.29400
# Poissons Ratio (z) = 0.14624 0.21786
#
# Static dielectric constant tensor:
#      x y z
#    x 4.015830 -0.366050 -0.083350 
#    y -0.366050 4.125790 -0.263780 
#    z -0.083350 -0.263780 4.347340 
# 
# 
# High freq. dielectric constant tensor:
#      x y z
#    x 1.858060 -0.013280 -0.016920 
#    y -0.013280 1.861120 -0.017260 
#    z -0.016920 -0.017260 1.894600 
# 
# From -- ./inp_files/223103.got.cif
#   From: 2010.06.25/outbox.cif.g09.slc.cpg/sg2_112_cif.got.tgz:223103.got - 2010.06.27 13:26:56.
