data_PCOD8004578
_publ_section_title
;
Structure prediction by ZEFSAII (Michael W. Deem and Ramdas Pophale) SiO2 
 PCOD8004578
Probable space group: P -1
;
_chemical_formula_sum "Si O2"
_cell_formula_units_Z 14
_cell_length_a 14.553603
_cell_length_b 6.975176
_cell_length_c 13.462709
_cell_angle_alpha 139.293122
_cell_angle_beta 130.815566
_cell_angle_gamma 63.666505
_cell_volume 670.825866
_symmetry_space_group_name_H-M "P -1"
_symmetry_group_IT_number 2
_symmetry_cell_setting 'triclinic'
loop_
_space_group_symop_operation_xyz
x,y,z
-x,-y,-z
loop_
_atom_site_type_symbol
_atom_site_label
_atom_site_fract_x
_atom_site_fract_y
_atom_site_fract_z
Si Si1 0.668317 0.933741 0.661005
Si Si2 0.985922 0.804754 0.510522
Si Si3 0.458469 0.522960 0.260494
Si Si4 0.737645 0.699771 0.823704
Si Si5 0.159269 0.779590 0.791969
Si Si6 0.595582 0.505905 0.159858
Si Si7 0.229539 0.980342 0.437080
O O1 0.549507 0.705947 0.471939
O O2 0.727851 0.865455 0.779010
O O3 0.632500 0.265881 0.771336
O O4 0.763969 0.910163 0.629394
O O5 0.930397 0.471696 0.313395
O O6 0.116727 0.797270 0.653818
O O7 0.898027 0.946252 0.581351
O O8 0.000000 0.000000 0.500000
O O9 0.380829 0.286985 0.183502
O O10 0.526387 0.377196 0.160489
O O11 0.764931 0.369042 0.690057
O O12 0.847484 0.900481 0.036076
O O13 0.297707 0.698875 0.866018
O O14 0.655682 0.845219 0.353995
O O15 0.500000 0.500000 0.000000
#
# Coordination Sequence:
#
# PCOD8004578 Si02
#       7
#     2   2   2   2   2   2   2
#     4   9  18  35  54  83 124 154 188 237 286 344
#     4  10  23  46  65  81 116 157 197 250 299 347
#     4   9  19  33  53  84 122 160 192 227 283 353
#     4  11  21  35  60  89 116 151 195 243 294 345
#     4  10  24  40  60  91 116 152 205 243 292 358
#     4  10  20  38  60  87 128 163 192 240 292 347
#     4   9  22  39  60  87 116 155 199 240 293 349
#
# _framework density 20.869799
#
# number of rings (size 3 to 8) (size 9 to 14) (size 15 to 20)
#    0.000    2.286    0.000    2.143    0.000   11.429 
#    0.000    2.857    0.000    0.000    0.000    0.000 
#    0.000    0.000    0.000    0.000    0.000    0.000 
#
# Total GULP energy -173543.571064 kJ/mol
# GULP energy per Si atom -12395.969362 kJ/mol
# Density = 2.082230 g / cm^3
# Si number density = 20.869799 Si / 1000 Ang^3
#
#
#
# Elastic Constant Matrix: (Units=GPa)
#
#
# Indices 1 2 3 4 5 6 
#
# 1 83.2408 38.1185 37.3053 -7.4015 3.8004 13.5012
# 2 38.1185 100.5481 58.6073 -7.3667 5.5191 22.5979
# 3 37.3053 58.6073 128.0399 7.4571 -0.3940 4.8233
# 4 -7.4015 -7.3667 7.4571 38.9320 -3.3890 -2.0542
# 5 3.8004 5.5191 -0.3940 -3.3890 19.2854 -3.3684
# 6 13.5012 22.5979 4.8233 -2.0542 -3.3684 36.2462
#
#
#
# Elastic Compliance Matrix: (Units=1/GPa)
#
#
# Indices 1 2 3 4 5 6 
#
# 1 0.015768 -0.002887 -0.003296 0.002666 -0.002529 -0.003719
# 2 -0.002887 0.017937 -0.007217 0.003221 -0.005806 -0.009504
# 3 -0.003296 -0.007217 0.012149 -0.003836 0.003018 0.004173
# 4 0.002666 0.003221 -0.003836 0.027787 0.003250 -0.000614
# 5 -0.002529 -0.005806 0.003018 0.003250 0.056318 0.009578
# 6 -0.003719 -0.009504 0.004173 -0.000614 0.009578 0.035200
#
#
# Mechanical properties :
#
#
# Convention : Reuss Voigt Hill
#
# Bulk Modulus (GPa) = 52.47710 64.43231 58.45470
# Shear Modulus (GPa) = 25.21307 30.74591 27.97949
#
# Velocity S-wave (km/s) = 3.47956 3.84243 3.66549
# Velocity P-wave (km/s) = 6.42983 7.11520 6.78118
#
# Compressibility (1/GPa) = 0.01905593
#
# Stress axis : x y z
#
# Youngs Moduli (GPa) = 63.41933 55.75090 82.31109
#
# Poissons Ratio (x) = 0.16094 0.27128
# Poissons Ratio (y) = 0.18307 0.59400
# Poissons Ratio (z) = 0.20902 0.40233
#
# Static dielectric constant tensor:
#      x y z
#    x 3.812060 0.066920 -0.036170 
#    y 0.066920 3.669790 0.139600 
#    z -0.036170 0.139600 3.845710 
# 
# 
# High freq. dielectric constant tensor:
#      x y z
#    x 1.810180 0.007090 -0.004050 
#    y 0.007090 1.809070 0.007800 
#    z -0.004050 0.007800 1.819890 
# 
# From -- ./inp_files/94663.got.cif
#   From: 2010.06.25/outbox.cif.g09.slc.cpg/sg2_48_cif.got.tgz:94663.got - 2010.06.27 13:26:56.
