data_PCOD8004727
_publ_section_title
;
Structure prediction by ZEFSAII (Michael W. Deem and Ramdas Pophale) SiO2 
 PCOD8004727
Probable space group: P -1
;
_chemical_formula_sum "Si O2"
_cell_formula_units_Z 16
_cell_length_a 11.814201
_cell_length_b 12.322758
_cell_length_c 10.679484
_cell_angle_alpha 78.868636
_cell_angle_beta 64.247058
_cell_angle_gamma 132.604511
_cell_volume 699.018347
_symmetry_space_group_name_H-M "P -1"
_symmetry_group_IT_number 2
_symmetry_cell_setting 'triclinic'
loop_
_space_group_symop_operation_xyz
x,y,z
-x,-y,-z
loop_
_atom_site_type_symbol
_atom_site_label
_atom_site_fract_x
_atom_site_fract_y
_atom_site_fract_z
Si Si1 0.377998 0.249878 0.029962
Si Si2 0.663556 0.197980 0.729326
Si Si3 0.875131 0.738166 0.729985
Si Si4 0.826788 0.144764 0.223916
Si Si5 0.166669 0.921666 0.039952
Si Si6 0.314156 0.725439 0.704343
Si Si7 0.075857 0.449962 0.652903
Si Si8 0.352892 0.060514 0.288769
O O1 0.202749 0.200460 0.198618
O O2 0.423447 0.170391 0.100797
O O3 0.238727 0.102410 0.003144
O O4 0.645171 0.506654 0.819660
O O5 0.706901 0.340384 0.588498
O O6 0.836999 0.332060 0.737429
O O7 0.695388 0.108138 0.656624
O O8 0.383814 0.998473 0.950933
O O9 0.965473 0.733739 0.804497
O O10 0.097232 0.922489 0.486068
O O11 0.838665 0.285285 0.167350
O O12 0.547693 0.919212 0.456695
O O13 0.888208 0.123663 0.071910
O O14 0.955423 0.708352 0.282697
O O15 0.113416 0.508431 0.767604
O O16 0.424171 0.742553 0.766265
#
# Coordination Sequence:
#
# PCOD8004727 Si02
#       8
#     2   2   2   2   2   2   2   2
#     4  11  26  43  63  93 118 166 219 249 303 359
#     4  11  23  38  57  96 132 161 197 245 320 371
#     4  10  25  45  66  86 120 167 215 259 295 355
#     4  10  21  40  63  90 126 164 197 256 309 360
#     4  12  24  38  61  93 131 157 205 253 306 375
#     4  10  20  38  61  95 125 159 201 243 316 378
#     4  11  23  35  58  91 133 166 193 240 313 377
#     4  11  22  42  68  88 128 160 203 261 302 368
#
# _framework density 22.889240000000001
#
# number of rings (size 3 to 8) (size 9 to 14) (size 15 to 20)
#    0.000    1.250    3.750    2.250    7.000    1.000 
#    0.000    0.000    0.000    1.500    0.000    0.000 
#    0.000    0.000    0.000    0.000    0.000    0.000 
#
# Total GULP energy -198242.776765 kJ/mol
# GULP energy per Si atom -12390.173548 kJ/mol
# Density = 2.283714 g / cm^3
# Si number density = 22.889240 Si / 1000 Ang^3
#
#
#
# Elastic Constant Matrix: (Units=GPa)
#
#
# Indices 1 2 3 4 5 6 
#
# 1 43.7613 17.9060 9.4019 -4.5037 -0.7434 -0.2577
# 2 17.9060 137.9345 13.4202 -1.2812 0.8399 4.2114
# 3 9.4019 13.4202 29.1845 7.9192 8.1679 -2.5190
# 4 -4.5037 -1.2812 7.9192 17.8079 1.9125 -2.9460
# 5 -0.7434 0.8399 8.1679 1.9125 28.0002 -0.8162
# 6 -0.2577 4.2114 -2.5190 -2.9460 -0.8162 35.1952
#
#
#
# Elastic Compliance Matrix: (Units=1/GPa)
#
#
# Indices 1 2 3 4 5 6 
#
# 1 0.027679 -0.002360 -0.011982 0.011898 0.003509 0.000705
# 2 -0.002360 0.007939 -0.003502 0.001286 0.000601 -0.001096
# 3 -0.011982 -0.003502 0.050020 -0.023850 -0.013128 0.001611
# 4 0.011898 0.001286 -0.023850 0.070277 0.002556 0.004168
# 5 0.003509 0.000601 -0.013128 0.002556 0.039448 0.000143
# 6 0.000705 -0.001096 0.001611 0.004168 0.000143 0.029017
#
#
# Mechanical properties :
#
#
# Convention : Reuss Voigt Hill
#
# Bulk Modulus (GPa) = 20.01963 32.48181 26.25072
# Shear Modulus (GPa) = 18.06897 27.54416 22.80656
#
# Velocity S-wave (km/s) = 2.81269 3.47272 3.15999
# Velocity P-wave (km/s) = 4.39472 5.50467 4.98071
#
# Compressibility (1/GPa) = 0.04995097
#
# Stress axis : x y z
#
# Youngs Moduli (GPa) = 36.12809 125.96628 19.99204
#
# Poissons Ratio (x) = 0.29726 0.23954
# Poissons Ratio (y) = 0.08526 0.07001
# Poissons Ratio (z) = 0.43287 0.44113
#
# Static dielectric constant tensor:
#      x y z
#    x 3.834520 0.228460 0.032920 
#    y 0.228460 4.346530 -0.155370 
#    z 0.032920 -0.155370 4.017820 
# 
# 
# High freq. dielectric constant tensor:
#      x y z
#    x 1.872150 0.019300 0.010900 
#    y 0.019300 1.916080 -0.010340 
#    z 0.010900 -0.010340 1.903180 
# 
# From -- ./inp_files/427710.got.cif
#   From: 2010.06.25/outbox.cif.g09.slc.cpg/sg2_214_cif.got.tgz:427710.got - 2010.06.27 13:26:56.
