data_PCOD8004995
_publ_section_title
;
Structure prediction by ZEFSAII (Michael W. Deem and Ramdas Pophale) SiO2 
 PCOD8004995
Probable space group: P -1
;
_chemical_formula_sum "Si O2"
_cell_formula_units_Z 16
_cell_length_a 5.083359
_cell_length_b 24.422454
_cell_length_c 14.909560
_cell_angle_alpha 154.827829
_cell_angle_beta 117.866803
_cell_angle_gamma 73.212564
_cell_volume 650.161252
_symmetry_space_group_name_H-M "P -1"
_symmetry_group_IT_number 2
_symmetry_cell_setting 'triclinic'
loop_
_space_group_symop_operation_xyz
x,y,z
-x,-y,-z
loop_
_atom_site_type_symbol
_atom_site_label
_atom_site_fract_x
_atom_site_fract_y
_atom_site_fract_z
Si Si1 0.103615 0.325233 0.924725
Si Si2 0.210153 0.386346 0.737091
Si Si3 0.302594 0.051511 0.850776
Si Si4 0.006860 0.782332 0.866465
Si Si5 0.214527 0.058002 0.534879
Si Si6 0.283576 0.471870 0.686103
Si Si7 0.331356 0.756674 0.423382
Si Si8 0.856960 0.267810 0.992037
O O1 0.241837 0.212482 0.741294
O O2 0.775576 0.294291 0.771675
O O3 0.333947 0.481895 0.169602
O O4 0.085586 0.303692 0.996707
O O5 0.112875 0.447426 0.720364
O O6 0.327804 0.261406 0.538745
O O7 0.913055 0.336295 0.681042
O O8 0.500000 0.500000 0.000000
O O9 0.364686 0.913207 0.679032
O O10 0.620322 0.146452 0.990996
O O11 0.982123 0.033400 0.714769
O O12 0.212682 0.120946 0.028687
O O13 0.959932 0.722894 0.872001
O O14 0.856288 0.661024 0.593307
O O15 0.605738 0.105460 0.690581
O O16 0.000000 0.000000 0.500000
O O17 0.278272 0.608866 0.838212
#
# Coordination Sequence:
#
# PCOD8004995 Si02
#       8
#     2   2   2   2   2   2   2   2
#     4  10  23  38  67 100 136 172 224 287 345 398
#     4  12  24  45  74 106 133 175 227 292 356 394
#     4  11  26  45  68 101 140 183 233 278 337 408
#     4  12  27  46  68  98 143 193 225 269 340 423
#     4  10  20  38  63  99 133 176 231 278 334 400
#     4  11  27  44  67 101 137 180 235 280 340 418
#     4  11  25  45  72 105 137 168 228 302 345 394
#     4  11  24  41  69 101 142 182 224 289 340 401
#
# _framework density 24.609279999999998
#
# number of rings (size 3 to 8) (size 9 to 14) (size 15 to 20)
#    0.000    1.000    2.500    3.000   12.250    1.500 
#    0.000    3.750    0.000    0.000    0.000    0.000 
#    0.000    0.000    0.000    0.000    0.000    0.000 
#
# Total GULP energy -198266.144525 kJ/mol
# GULP energy per Si atom -12391.634033 kJ/mol
# Density = 2.455327 g / cm^3
# Si number density = 24.609280 Si / 1000 Ang^3
#
#
#
# Elastic Constant Matrix: (Units=GPa)
#
#
# Indices 1 2 3 4 5 6 
#
# 1 106.4708 9.5485 26.6871 3.7139 -1.9359 11.0801
# 2 9.5485 82.9240 35.1810 2.2643 -3.1628 15.3524
# 3 26.6871 35.1810 127.4533 1.6134 -12.3118 11.2887
# 4 3.7139 2.2643 1.6134 21.6191 7.6478 -8.2660
# 5 -1.9359 -3.1628 -12.3118 7.6478 31.2125 2.4071
# 6 11.0801 15.3524 11.2887 -8.2660 2.4071 44.5203
#
#
#
# Elastic Compliance Matrix: (Units=1/GPa)
#
#
# Indices 1 2 3 4 5 6 
#
# 1 0.010242 0.000230 -0.001839 -0.003019 0.000887 -0.002771
# 2 0.000230 0.014571 -0.003445 -0.003715 0.001426 -0.004975
# 3 -0.001839 -0.003445 0.009714 -0.001986 0.003963 -0.001401
# 4 -0.003019 -0.003715 -0.001986 0.058763 -0.016853 0.014358
# 5 0.000887 0.001426 0.003963 -0.016853 0.038465 -0.006926
# 6 -0.002771 -0.004975 -0.001401 0.014358 -0.006926 0.028262
#
#
# Mechanical properties :
#
#
# Convention : Reuss Voigt Hill
#
# Bulk Modulus (GPa) = 40.94970 51.07570 46.01270
# Shear Modulus (GPa) = 28.04822 35.83247 31.94034
#
# Velocity S-wave (km/s) = 3.37967 3.81997 3.60654
# Velocity P-wave (km/s) = 5.64851 6.34476 6.00673
#
# Compressibility (1/GPa) = 0.02442020
#
# Stress axis : x y z
#
# Youngs Moduli (GPa) = 97.63426 68.62854 102.94511
#
# Poissons Ratio (x) = -0.01578 0.18930
# Poissons Ratio (y) = -0.02245 0.35462
# Poissons Ratio (z) = 0.17953 0.23641
#
# Static dielectric constant tensor:
#      x y z
#    x 4.880300 -0.382380 -0.224600 
#    y -0.382380 4.571690 0.303830 
#    z -0.224600 0.303830 4.609670 
# 
# 
# High freq. dielectric constant tensor:
#      x y z
#    x 1.997490 -0.013010 -0.019800 
#    y -0.013010 1.975490 0.026520 
#    z -0.019800 0.026520 1.981180 
# 
# From -- ./inp_files/485981.got.cif
#   From: 2010.06.25/outbox.cif.g09.slc.cpg/sg2_243_cif.got.tgz:485981.got - 2010.06.27 13:26:56.
