data_PCOD8004539
_publ_section_title
;
Structure prediction by ZEFSAII (Michael W. Deem and Ramdas Pophale) SiO2 
 PCOD8004539
Probable space group: P -1
;
_chemical_formula_sum "Si O2"
_cell_formula_units_Z 16
_cell_length_a 10.798113
_cell_length_b 12.569294
_cell_length_c 13.624700
_cell_angle_alpha 31.733495
_cell_angle_beta 90.287502
_cell_angle_gamma 109.985857
_cell_volume 745.935385
_symmetry_space_group_name_H-M "P -1"
_symmetry_group_IT_number 2
_symmetry_cell_setting 'triclinic'
loop_
_space_group_symop_operation_xyz
x,y,z
-x,-y,-z
loop_
_atom_site_type_symbol
_atom_site_label
_atom_site_fract_x
_atom_site_fract_y
_atom_site_fract_z
Si Si1 0.933889 0.536812 0.066615
Si Si2 0.229751 0.006639 0.798639
Si Si3 0.786505 0.278507 0.631331
Si Si4 0.038407 0.808542 0.552345
Si Si5 0.757731 0.535913 0.614309
Si Si6 0.771330 0.618457 0.863296
Si Si7 0.057649 0.828886 0.136754
Si Si8 0.563928 0.169446 0.077043
O O1 0.891890 0.343151 0.308499
O O2 0.778667 0.500849 0.057824
O O3 0.000000 0.500000 0.000000
O O4 0.067446 0.835172 0.869046
O O5 0.349458 0.954904 0.803345
O O6 0.301103 0.303069 0.546102
O O7 0.188301 0.927114 0.975152
O O8 0.755017 0.396890 0.627620
O O9 0.860293 0.145223 0.778775
O O10 0.906692 0.516341 0.368911
O O11 0.626828 0.060337 0.741266
O O12 0.936462 0.717001 0.522737
O O13 0.916412 0.718584 0.711488
O O14 0.198827 0.116758 0.314732
O O15 0.619044 0.310061 0.862117
O O16 0.605838 0.383474 0.992218
O O17 0.000000 0.000000 0.000000
#
# Coordination Sequence:
#
# PCOD8004539 Si02
#       8
#     2   2   2   2   2   2   2   2
#     4  10  16  29  51  85 117 143 183 241 287 336
#     4  12  21  34  61  91 117 148 197 242 290 340
#     4  11  24  42  60  81 120 156 193 240 295 349
#     4   9  16  27  48  78 115 145 184 226 282 340
#     4  11  20  33  57  88 116 150 188 241 291 334
#     4   9  17  28  49  80 119 147 178 226 293 343
#     4  11  24  43  61  81 110 162 207 234 278 352
#     4  11  23  36  56  91 125 148 184 247 302 343
#
# _framework density 21.449579
#
# number of rings (size 3 to 8) (size 9 to 14) (size 15 to 20)
#    0.000    1.500    7.500    0.375    1.750    1.500 
#    0.000    0.000    0.000    0.750    0.000    8.750 
#    0.000    0.000    0.000    0.000    0.000    0.000 
#
# Total GULP energy -198252.156742 kJ/mol
# GULP energy per Si atom -12390.759796 kJ/mol
# Density = 2.140076 g / cm^3
# Si number density = 21.449579 Si / 1000 Ang^3
#
#
#
# Elastic Constant Matrix: (Units=GPa)
#
#
# Indices 1 2 3 4 5 6 
#
# 1 49.2490 15.0911 43.0667 -12.3938 12.6581 19.9166
# 2 15.0911 70.0969 28.0903 -22.1290 -1.1881 22.7452
# 3 43.0667 28.0903 102.1866 -12.8708 26.4287 24.9841
# 4 -12.3938 -22.1290 -12.8708 36.2527 5.6431 -4.2231
# 5 12.6581 -1.1881 26.4287 5.6431 29.6408 -0.2516
# 6 19.9166 22.7452 24.9841 -4.2231 -0.2516 25.6011
#
#
#
# Elastic Compliance Matrix: (Units=1/GPa)
#
#
# Indices 1 2 3 4 5 6 
#
# 1 0.046501 0.009462 -0.007074 0.017715 -0.016841 -0.034923
# 2 0.009462 0.026767 -0.001176 0.016812 -0.005352 -0.027274
# 3 -0.007074 -0.001176 0.021789 0.005725 -0.017663 -0.013946
# 4 0.017715 0.016812 0.005725 0.046068 -0.020995 -0.026912
# 5 -0.016841 -0.005352 -0.017663 -0.020995 0.060734 0.032227
# 6 -0.034923 -0.027274 -0.013946 -0.026912 0.032227 0.099948
#
#
# Mechanical properties :
#
#
# Convention : Reuss Voigt Hill
#
# Bulk Modulus (GPa) = 10.25824 43.78097 27.01961
# Shear Modulus (GPa) = 15.06593 27.31786 21.19190
#
# Velocity S-wave (km/s) = 2.65314 3.57260 3.14664
# Velocity P-wave (km/s) = 3.76542 6.12155 5.08192
#
# Compressibility (1/GPa) = 0.09748257
#
# Stress axis : x y z
#
# Youngs Moduli (GPa) = 21.50506 37.35994 45.89412
#
# Poissons Ratio (x) = -0.35352 0.32464
# Poissons Ratio (y) = -0.20349 0.05397
# Poissons Ratio (z) = 0.15212 0.04393
#
# Static dielectric constant tensor:
#      x y z
#    x 3.773270 0.185940 0.545680 
#    y 0.185940 4.024820 -0.025310 
#    z 0.545680 -0.025310 4.109880 
# 
# 
# High freq. dielectric constant tensor:
#      x y z
#    x 1.803510 0.004750 0.039290 
#    y 0.004750 1.846580 -0.000790 
#    z 0.039290 -0.000790 1.838320 
# 
# From -- ./inp_files/520633.got.cif
#   From: 2010.06.25/outbox.cif.g09.slc.cpg/sg2_261_cif.got.tgz:520633.got - 2010.06.27 13:26:56.
