data_PCOD8004066
_publ_section_title
;
Structure prediction by ZEFSAII (Michael W. Deem and Ramdas Pophale) SiO2 
 PCOD8004066
Probable space group: P -1
;
_chemical_formula_sum "Si O2"
_cell_formula_units_Z 16
_cell_length_a 16.316614
_cell_length_b 8.939899
_cell_length_c 12.296266
_cell_angle_alpha 74.122324
_cell_angle_beta 58.211178
_cell_angle_gamma 31.506069
_cell_volume 731.873635
_symmetry_space_group_name_H-M "P -1"
_symmetry_group_IT_number 2
_symmetry_cell_setting 'triclinic'
loop_
_space_group_symop_operation_xyz
x,y,z
-x,-y,-z
loop_
_atom_site_type_symbol
_atom_site_label
_atom_site_fract_x
_atom_site_fract_y
_atom_site_fract_z
Si Si1 0.116098 0.135053 0.671248
Si Si2 0.242348 0.057504 0.825910
Si Si3 0.294140 0.400037 0.153387
Si Si4 0.619473 0.708282 0.114816
Si Si5 0.934205 0.372512 0.127327
Si Si6 0.216860 0.661953 0.606284
Si Si7 0.409170 0.951136 0.413035
Si Si8 0.340437 0.413018 0.346655
O O1 0.193646 0.022032 0.762132
O O2 0.883516 0.472883 0.762853
O O3 0.185652 0.882344 0.614837
O O4 0.205171 0.155549 0.538555
O O5 0.154746 0.351230 0.808266
O O6 0.469786 0.746585 0.746683
O O7 0.150115 0.106297 0.987856
O O8 0.249315 0.568371 0.258227
O O9 0.495580 0.033618 0.107771
O O10 0.319713 0.459375 0.009076
O O11 0.811223 0.497627 0.082761
O O12 0.496382 0.770903 0.270766
O O13 0.935235 0.232636 0.242609
O O14 0.437998 0.303218 0.549063
O O15 0.190143 0.677031 0.492142
O O16 0.385780 0.168120 0.380734
#
# Coordination Sequence:
#
# PCOD8004066 Si02
#       8
#     2   2   2   2   2   2   2   2
#     4  12  24  35  59  89 122 150 191 234 292 346
#     4  11  20  36  61  94 106 148 196 244 279 333
#     4  10  21  38  56  86 117 156 186 234 292 346
#     4   9  18  37  60  83 114 149 188 243 282 332
#     4  10  20  37  63  93 110 143 202 241 286 329
#     4  11  22  38  57  89 119 153 186 244 288 340
#     4  10  20  38  60  90 109 152 197 244 277 334
#     4  11  21  39  63  81 119 154 193 238 287 334
#
# _framework density 21.861696999999999
#
# number of rings (size 3 to 8) (size 9 to 14) (size 15 to 20)
#    0.000    1.500    6.250    1.500    0.000    3.000 
#    0.000    1.250    0.000    1.500    0.000    0.000 
#    0.000    0.000    0.000    0.000    0.000    0.000 
#
# Total GULP energy -198324.126945 kJ/mol
# GULP energy per Si atom -12395.257934 kJ/mol
# Density = 2.181194 g / cm^3
# Si number density = 21.861697 Si / 1000 Ang^3
#
#
#
# Elastic Constant Matrix: (Units=GPa)
#
#
# Indices 1 2 3 4 5 6 
#
# 1 95.3260 14.0080 61.8470 -2.8010 19.7672 -9.0360
# 2 14.0080 14.4822 2.0213 0.1765 2.9706 2.2123
# 3 61.8470 2.0213 159.6735 -1.6533 15.3412 -10.8218
# 4 -2.8010 0.1765 -1.6533 11.4809 -8.1226 3.9457
# 5 19.7672 2.9706 15.3412 -8.1226 53.6682 4.7224
# 6 -9.0360 2.2123 -10.8218 3.9457 4.7224 26.7024
#
#
#
# Elastic Compliance Matrix: (Units=1/GPa)
#
#
# Indices 1 2 3 4 5 6 
#
# 1 0.018497 -0.016974 -0.006060 -0.001801 -0.004973 0.006355
# 2 -0.016974 0.086308 0.004614 -0.000166 0.001116 -0.011197
# 3 -0.006060 0.004614 0.008718 -0.001401 -0.000856 0.001459
# 4 -0.001801 -0.000166 -0.001401 0.106924 0.019045 -0.020332
# 5 -0.004973 0.001116 -0.000856 0.019045 0.024343 -0.009242
# 6 0.006355 -0.011197 0.001459 -0.020332 -0.009242 0.045758
#
#
# Mechanical properties :
#
#
# Convention : Reuss Voigt Hill
#
# Bulk Modulus (GPa) = 13.04054 47.24824 30.14439
# Shear Modulus (GPa) = 14.16634 31.14400 22.65517
#
# Velocity S-wave (km/s) = 2.54834 3.77847 3.22265
# Velocity P-wave (km/s) = 3.82579 6.37927 5.25984
#
# Compressibility (1/GPa) = 0.07668396
#
# Stress axis : x y z
#
# Youngs Moduli (GPa) = 54.06305 11.58636 114.70381
#
# Poissons Ratio (x) = 0.19667 0.69508
# Poissons Ratio (y) = 0.91768 -0.52928
# Poissons Ratio (z) = 0.32761 -0.05346
#
# Static dielectric constant tensor:
#      x y z
#    x 4.061760 -0.229150 0.297200 
#    y -0.229150 3.443840 0.027630 
#    z 0.297200 0.027630 4.634560 
# 
# 
# High freq. dielectric constant tensor:
#      x y z
#    x 1.845800 -0.015400 0.011420 
#    y -0.015400 1.814610 0.010050 
#    z 0.011420 0.010050 1.889790 
# 
# From -- ./inp_files/337998.got.cif
#   From: 2010.06.25/outbox.cif.g09.slc.cpg/sg2_169_cif.got.tgz:337998.got - 2010.06.27 13:26:56.
