data_PCOD8004463
_publ_section_title
;
Structure prediction by ZEFSAII (Michael W. Deem and Ramdas Pophale) SiO2 
 PCOD8004463
Probable space group: P -1
;
_chemical_formula_sum "Si O2"
_cell_formula_units_Z 16
_cell_length_a 16.349599
_cell_length_b 12.237110
_cell_length_c 5.272339
_cell_angle_alpha 75.908174
_cell_angle_beta 125.187205
_cell_angle_gamma 113.879258
_cell_volume 788.229637
_symmetry_space_group_name_H-M "P -1"
_symmetry_group_IT_number 2
_symmetry_cell_setting 'triclinic'
loop_
_space_group_symop_operation_xyz
x,y,z
-x,-y,-z
loop_
_atom_site_type_symbol
_atom_site_label
_atom_site_fract_x
_atom_site_fract_y
_atom_site_fract_z
Si Si1 0.914543 0.121048 0.196245
Si Si2 0.303796 0.525680 0.368559
Si Si3 0.517824 0.637412 0.507930
Si Si4 0.850559 0.857534 0.339927
Si Si5 0.922451 0.260062 0.652252
Si Si6 0.639488 0.682720 0.211462
Si Si7 0.145098 0.344573 0.861944
Si Si8 0.110930 0.524669 0.323803
O O1 0.905294 0.196515 0.384865
O O2 0.033736 0.123421 0.345017
O O3 0.839275 0.984964 0.181526
O O4 0.871604 0.170116 0.843711
O O5 0.399165 0.639285 0.363764
O O6 0.350094 0.450216 0.691805
O O7 0.212282 0.570530 0.292607
O O8 0.256134 0.432102 0.110078
O O9 0.500000 0.500000 0.500000
O O10 0.566595 0.705893 0.296115
O O11 0.592153 0.695954 0.845686
O O12 0.755507 0.783700 0.398734
O O13 0.838410 0.779487 0.107209
O O14 0.873939 0.368226 0.505401
O O15 0.049102 0.318652 0.906088
O O16 0.108951 0.402148 0.518402
O O17 0.000000 0.500000 0.000000
#
# Coordination Sequence:
#
# PCOD8004463 Si02
#       8
#     2   2   2   2   2   2   2   2
#     4  10  24  38  57  83 115 155 195 241 281 342
#     4  11  22  34  57  85 121 158 190 234 294 350
#     4  10  22  35  54  82 121 152 190 233 289 357
#     4  10  20  38  59  84 114 151 193 240 296 346
#     4  11  23  39  53  81 120 155 196 229 275 344
#     4  11  21  37  56  85 116 155 187 238 295 352
#     4  11  22  35  57  85 121 156 191 235 296 347
#     4  12  23  37  56  87 120 165 195 232 285 355
#
# _framework density 20.298652000000001
#
# number of rings (size 3 to 8) (size 9 to 14) (size 15 to 20)
#    0.000    1.250    2.500    5.625    3.500    7.500 
#    0.000    0.000    0.000    0.000    0.000    5.250 
#    0.000    0.000    0.000    0.000    0.000    0.000 
#
# Total GULP energy -198325.271646 kJ/mol
# GULP energy per Si atom -12395.329478 kJ/mol
# Density = 2.025245 g / cm^3
# Si number density = 20.298652 Si / 1000 Ang^3
#
#
#
# Elastic Constant Matrix: (Units=GPa)
#
#
# Indices 1 2 3 4 5 6 
#
# 1 153.3706 46.5476 23.0619 7.2185 -3.5848 9.9430
# 2 46.5476 81.2311 6.0290 5.2681 -3.5441 0.5583
# 3 23.0619 6.0290 56.2045 9.6425 -16.6969 -7.2587
# 4 7.2185 5.2681 9.6425 19.3323 5.8762 0.1731
# 5 -3.5848 -3.5441 -16.6969 5.8762 30.0213 -0.5958
# 6 9.9430 0.5583 -7.2587 0.1731 -0.5958 28.7440
#
#
#
# Elastic Compliance Matrix: (Units=1/GPa)
#
#
# Indices 1 2 3 4 5 6 
#
# 1 0.008843 -0.004870 -0.004498 0.001005 -0.002300 -0.004154
# 2 -0.004870 0.015364 0.002502 -0.004727 0.003591 0.002121
# 3 -0.004498 0.002502 0.030350 -0.020567 0.020857 0.009728
# 4 0.001005 -0.004727 -0.020567 0.070817 -0.025865 -0.006412
# 5 -0.002300 0.003591 0.020857 -0.025865 0.050264 0.007190
# 6 -0.004154 0.002121 0.009728 -0.006412 0.007190 0.038830
#
#
# Mechanical properties :
#
#
# Convention : Reuss Voigt Hill
#
# Bulk Modulus (GPa) = 24.49523 49.12037 36.80780
# Shear Modulus (GPa) = 20.67741 29.96404 25.32072
#
# Velocity S-wave (km/s) = 3.19511 3.84625 3.53570
# Velocity P-wave (km/s) = 5.07003 6.63146 5.90260
#
# Compressibility (1/GPa) = 0.04082427
#
# Stress axis : x y z
#
# Youngs Moduli (GPa) = 113.08502 65.08573 32.94868
#
# Poissons Ratio (x) = 0.31699 0.14821
# Poissons Ratio (y) = 0.55076 -0.08244
# Poissons Ratio (z) = 0.50868 -0.16284
#
# Static dielectric constant tensor:
#      x y z
#    x 4.258260 0.220350 0.043630 
#    y 0.220350 3.611570 0.049430 
#    z 0.043630 0.049430 3.436800 
# 
# 
# High freq. dielectric constant tensor:
#      x y z
#    x 1.801830 0.012910 -0.018650 
#    y 0.012910 1.757460 0.010860 
#    z -0.018650 0.010860 1.773340 
# 
# From -- ./inp_files/109003.got.cif
#   From: 2010.06.25/outbox.cif.g09.slc.cpg/sg2_55_cif.got.tgz:109003.got - 2010.06.27 13:26:56.
