data_PCOD8004305
_publ_section_title
;
Structure prediction by ZEFSAII (Michael W. Deem and Ramdas Pophale) SiO2 
 PCOD8004305
Probable space group: P -1
;
_chemical_formula_sum "Si O2"
_cell_formula_units_Z 12
_cell_length_a 10.521711
_cell_length_b 8.042220
_cell_length_c 7.521944
_cell_angle_alpha 115.513680
_cell_angle_beta 105.305693
_cell_angle_gamma 72.186767
_cell_volume 540.371323
_symmetry_space_group_name_H-M "P -1"
_symmetry_group_IT_number 2
_symmetry_cell_setting 'triclinic'
loop_
_space_group_symop_operation_xyz
x,y,z
-x,-y,-z
loop_
_atom_site_type_symbol
_atom_site_label
_atom_site_fract_x
_atom_site_fract_y
_atom_site_fract_z
Si Si1 0.921316 0.183553 0.164077
Si Si2 0.368631 0.265139 0.156992
Si Si3 0.358082 0.868070 0.919209
Si Si4 0.136948 0.458279 0.929315
Si Si5 0.100346 0.124680 0.515931
Si Si6 0.638528 0.979368 0.644897
O O1 0.791369 0.144788 0.203219
O O2 0.858361 0.361060 0.101792
O O3 0.022801 0.237469 0.370433
O O4 0.000000 0.000000 0.000000
O O5 0.523677 0.292640 0.204056
O O6 0.332871 0.223795 0.330310
O O7 0.259114 0.433872 0.106328
O O8 0.370120 0.076079 0.952328
O O9 0.370535 0.855571 0.134571
O O10 0.141178 0.270282 0.733193
O O11 0.000000 0.500000 0.000000
O O12 0.242056 0.001053 0.437208
O O13 0.000000 0.000000 0.500000
O O14 0.500000 0.000000 0.500000
#
# Coordination Sequence:
#
# PCOD8004305 Si02
#       6
#     2   2   2   2   2   2
#     4  12  23  43  65  95 131 175 219 274 329 385
#     4   9  20  39  64  95 125 172 214 264 329 382
#     4   9  19  38  67  90 131 169 216 258 332 391
#     4  12  25  41  65  93 135 171 221 275 323 385
#     4  12  25  39  68  99 131 171 224 263 331 389
#     4  10  20  37  67  96 130 169 219 262 324 395
#
# _framework density 22.206952999999999
#
# number of rings (size 3 to 8) (size 9 to 14) (size 15 to 20)
#    1.000    0.333    1.667    5.500    2.333    0.667 
#    0.000    0.000    0.000    3.000    0.000    0.000 
#    0.000    0.000    0.000    0.000    0.000    0.000 
#
# Total GULP energy -148657.733239 kJ/mol
# GULP energy per Si atom -12388.144437 kJ/mol
# Density = 2.215641 g / cm^3
# Si number density = 22.206953 Si / 1000 Ang^3
#
#
#
# Elastic Constant Matrix: (Units=GPa)
#
#
# Indices 1 2 3 4 5 6 
#
# 1 178.7289 28.3862 11.9150 -8.0411 -2.5838 -22.9453
# 2 28.3862 102.5707 12.2111 -24.7953 4.5189 -5.2958
# 3 11.9150 12.2111 62.2122 -17.0539 3.0113 -6.9033
# 4 -8.0411 -24.7953 -17.0539 33.9377 -7.9609 9.9826
# 5 -2.5838 4.5189 3.0113 -7.9609 37.3193 -8.1157
# 6 -22.9453 -5.2958 -6.9033 9.9826 -8.1157 33.0479
#
#
#
# Elastic Compliance Matrix: (Units=1/GPa)
#
#
# Indices 1 2 3 4 5 6 
#
# 1 0.006522 -0.001832 -0.000768 -0.001241 0.001519 0.004823
# 2 -0.001832 0.012377 0.000251 0.009321 -0.000109 -0.002078
# 3 -0.000768 0.000251 0.018792 0.009357 0.000558 0.000743
# 4 -0.001241 0.009321 0.009357 0.044796 0.005500 -0.009594
# 5 0.001519 -0.000109 0.000558 0.005500 0.029508 0.006739
# 6 0.004823 -0.002078 0.000743 -0.009594 0.006739 0.037982
#
#
# Mechanical properties :
#
#
# Convention : Reuss Voigt Hill
#
# Bulk Modulus (GPa) = 30.30819 49.83737 40.07278
# Shear Modulus (GPa) = 30.17991 40.26095 35.22043
#
# Velocity S-wave (km/s) = 3.69050 4.26254 3.98679
# Velocity P-wave (km/s) = 5.64247 6.83496 6.26714
#
# Compressibility (1/GPa) = 0.03299438
#
# Stress axis : x y z
#
# Youngs Moduli (GPa) = 153.31727 80.79476 53.21330
#
# Poissons Ratio (x) = 0.14798 0.04088
# Poissons Ratio (y) = 0.28080 -0.01336
# Poissons Ratio (z) = 0.11779 -0.02029
#
# Static dielectric constant tensor:
#      x y z
#    x 4.245580 -0.178590 0.128620 
#    y -0.178590 3.620810 -0.134920 
#    z 0.128620 -0.134920 3.675380 
# 
# 
# High freq. dielectric constant tensor:
#      x y z
#    x 1.899150 -0.012020 0.003250 
#    y -0.012020 1.843280 -0.033480 
#    z 0.003250 -0.033480 1.854850 
# 
# From -- ./inp_files/236044.got.cif
#   From: 2010.06.25/outbox.cif.g09.slc.cpg/sg2_119_cif.got.tgz:236044.got - 2010.06.27 13:26:56.
