data_PCOD8004448
_publ_section_title
;
Structure prediction by ZEFSAII (Michael W. Deem and Ramdas Pophale) SiO2 
 PCOD8004448
Probable space group: P -1
;
_chemical_formula_sum "Si O2"
_cell_formula_units_Z 14
_cell_length_a 22.254490
_cell_length_b 19.956641
_cell_length_c 17.003361
_cell_angle_alpha 19.818095
_cell_angle_beta 22.598601
_cell_angle_gamma 18.033019
_cell_volume 762.448346
_symmetry_space_group_name_H-M "P -1"
_symmetry_group_IT_number 2
_symmetry_cell_setting 'triclinic'
loop_
_space_group_symop_operation_xyz
x,y,z
-x,-y,-z
loop_
_atom_site_type_symbol
_atom_site_label
_atom_site_fract_x
_atom_site_fract_y
_atom_site_fract_z
Si Si1 0.267766 0.964444 0.517773
Si Si2 0.464623 0.522771 0.353024
Si Si3 0.443562 0.176541 0.990175
Si Si4 0.120066 0.823481 0.166761
Si Si5 0.512642 0.522653 0.124253
Si Si6 0.232824 0.360694 0.878308
Si Si7 0.093430 0.639405 0.238995
O O1 0.336932 0.778797 0.562710
O O2 0.384190 0.778906 0.658458
O O3 0.330434 0.141043 0.233753
O O4 0.028478 0.141068 0.625171
O O5 0.420654 0.658696 0.170621
O O6 0.276456 0.536814 0.590270
O O7 0.503820 0.651814 0.229442
O O8 0.649817 0.907687 0.011720
O O9 0.293136 0.323717 0.937094
O O10 0.344426 0.651510 0.118957
O O11 0.116462 0.676715 0.260801
O O12 0.057532 0.092382 0.919406
O O13 0.686711 0.536745 0.872934
O O14 0.000000 0.500000 0.000000
O O15 0.000000 0.500000 0.500000
#
# Coordination Sequence:
#
# PCOD8004448 Si02
#       7
#     2   2   2   2   2   2   2
#     4   8  20  34  56  82 112 142 188 222 278 326
#     4   9  20  39  54  84 116 140 188 231 269 331
#     4  10  20  38  59  77 116 151 175 236 278 315
#     4  10  20  38  59  77 116 151 175 236 278 315
#     4   9  20  39  54  84 116 140 188 231 269 331
#     4  10  22  38  57  85 110 147 191 222 277 333
#     4  10  22  38  57  85 110 147 191 222 277 333
#
# _framework density 18.361899999999999
#
# number of rings (size 3 to 8) (size 9 to 14) (size 15 to 20)
#    0.857    1.714    0.000    0.857    4.000    1.143 
#    5.143    0.000    0.000    0.000    0.000    0.000 
#    0.000    0.000    0.000    0.000    0.000    0.000 
#
# Total GULP energy -173541.736630 kJ/mol
# GULP energy per Si atom -12395.838331 kJ/mol
# Density = 1.832011 g / cm^3
# Si number density = 18.361900 Si / 1000 Ang^3
#
#
#
# Elastic Constant Matrix: (Units=GPa)
#
#
# Indices 1 2 3 4 5 6 
#
# 1 87.1946 52.1053 71.4113 12.1067 -6.1796 -2.8603
# 2 52.1053 93.5240 70.4776 22.9431 -5.8068 -12.8222
# 3 71.4113 70.4776 159.4093 26.5737 -5.2621 5.0616
# 4 12.1067 22.9431 26.5737 26.9339 7.3834 -1.8341
# 5 -6.1796 -5.8068 -5.2621 7.3834 28.2369 2.2155
# 6 -2.8603 -12.8222 5.0616 -1.8341 2.2155 22.3435
#
#
#
# Elastic Compliance Matrix: (Units=1/GPa)
#
#
# Indices 1 2 3 4 5 6 
#
# 1 0.020923 -0.007367 -0.006605 0.003118 0.001009 0.000103
# 2 -0.007367 0.023892 -0.005528 -0.011935 0.004403 0.012604
# 3 -0.006605 -0.005528 0.013037 -0.006282 0.002094 -0.007695
# 4 0.003118 -0.011935 -0.006282 0.057122 -0.017992 0.001446
# 5 0.001009 0.004403 0.002094 -0.017992 0.041907 -0.003451
# 6 0.000103 0.012604 -0.007695 0.001446 -0.003451 0.054206
#
#
# Mechanical properties :
#
#
# Convention : Reuss Voigt Hill
#
# Bulk Modulus (GPa) = 53.04960 80.90183 66.97572
# Shear Modulus (GPa) = 19.50298 25.24510 22.37404
#
# Velocity S-wave (km/s) = 3.26259 3.71194 3.49449
# Velocity P-wave (km/s) = 6.56860 7.90737 7.26887
#
# Compressibility (1/GPa) = 0.01885028
#
# Stress axis : x y z
#
# Youngs Moduli (GPa) = 47.79458 41.85502 76.70477
#
# Poissons Ratio (x) = 0.30836 0.50667
# Poissons Ratio (y) = 0.35212 0.42402
# Poissons Ratio (z) = 0.31571 0.23137
#
# Static dielectric constant tensor:
#      x y z
#    x 3.277790 0.122330 0.252310 
#    y 0.122330 3.204870 0.063230 
#    z 0.252310 0.063230 3.340510 
# 
# 
# High freq. dielectric constant tensor:
#      x y z
#    x 1.705300 0.008020 0.017600 
#    y 0.008020 1.696860 0.011870 
#    z 0.017600 0.011870 1.716970 
# 
# From -- ./inp_files/553630.got.cif
#   From: 2010.06.25/outbox.cif.g09.slc.cpg/sg2_277_cif.got.tgz:553630.got - 2010.06.27 13:26:56.
