data_PCOD8004476
_publ_section_title
;
Structure prediction by ZEFSAII (Michael W. Deem and Ramdas Pophale) SiO2 
 PCOD8004476
Probable space group: P -1
;
_chemical_formula_sum "Si O2"
_cell_formula_units_Z 16
_cell_length_a 11.104444
_cell_length_b 6.176457
_cell_length_c 22.325475
_cell_angle_alpha 58.829124
_cell_angle_beta 147.449327
_cell_angle_gamma 119.724668
_cell_volume 698.999548
_symmetry_space_group_name_H-M "P -1"
_symmetry_group_IT_number 2
_symmetry_cell_setting 'triclinic'
loop_
_space_group_symop_operation_xyz
x,y,z
-x,-y,-z
loop_
_atom_site_type_symbol
_atom_site_label
_atom_site_fract_x
_atom_site_fract_y
_atom_site_fract_z
Si Si1 0.595591 0.832185 0.450629
Si Si2 0.084841 0.293213 0.488062
Si Si3 0.656417 0.409582 0.345498
Si Si4 0.999286 0.848704 0.834897
Si Si5 0.193234 0.388524 0.840822
Si Si6 0.803315 0.672988 0.892751
Si Si7 0.771880 0.604658 0.664703
Si Si8 0.675001 0.566236 0.978555
O O1 0.788133 0.672149 0.526877
O O2 0.634955 0.801050 0.542741
O O3 0.354912 0.685175 0.349558
O O4 0.618858 0.124162 0.398503
O O5 0.276920 0.383830 0.604797
O O6 0.866657 0.441829 0.381765
O O7 0.000000 0.000000 0.500000
O O8 0.434447 0.477461 0.209070
O O9 0.888914 0.889523 0.848662
O O10 0.798153 0.705936 0.729481
O O11 0.081602 0.124792 0.801901
O O12 0.211622 0.690091 0.948741
O O13 0.404592 0.500029 0.873107
O O14 0.022493 0.599072 0.743238
O O15 0.260977 0.309725 0.948152
O O16 0.756520 0.760388 0.929278
O O17 0.000000 0.500000 0.000000
#
# Coordination Sequence:
#
# PCOD8004476 Si02
#       8
#     2   2   2   2   2   2   2   2
#     4  10  21  38  57  88 118 157 201 249 297 359
#     4   9  20  38  59  85 120 158 198 248 298 357
#     4  10  20  38  63  86 123 161 197 248 309 360
#     4  10  20  38  59  85 118 159 197 250 301 359
#     4  10  20  38  61  82 119 158 195 251 304 357
#     4  10  21  38  62  91 120 154 203 249 301 367
#     4  10  22  36  58  87 120 153 204 249 298 357
#     4   9  21  38  57  86 118 151 201 249 298 363
#
# _framework density 22.889856999999999
#
# number of rings (size 3 to 8) (size 9 to 14) (size 15 to 20)
#    0.000    2.250    0.000    1.875    1.750    1.500 
#    4.500   10.625    0.000    0.000    0.000    0.000 
#    0.000    0.000    0.000    0.000    0.000    0.000 
#
# Total GULP energy -198240.153751 kJ/mol
# GULP energy per Si atom -12390.009609 kJ/mol
# Density = 2.283776 g / cm^3
# Si number density = 22.889857 Si / 1000 Ang^3
#
#
#
# Elastic Constant Matrix: (Units=GPa)
#
#
# Indices 1 2 3 4 5 6 
#
# 1 115.9376 14.1661 29.5706 2.2524 3.7613 5.6035
# 2 14.1661 72.0035 22.8126 15.6347 -3.7949 -0.8843
# 3 29.5706 22.8126 113.2413 14.1752 5.1429 6.2787
# 4 2.2524 15.6347 14.1752 23.9003 3.5046 3.5349
# 5 3.7613 -3.7949 5.1429 3.5046 29.6845 7.6977
# 6 5.6035 -0.8843 6.2787 3.5349 7.6977 19.3770
#
#
#
# Elastic Compliance Matrix: (Units=1/GPa)
#
#
# Indices 1 2 3 4 5 6 
#
# 1 0.009486 -0.001639 -0.002236 0.001927 -0.000688 -0.002171
# 2 -0.001639 0.017434 -0.002012 -0.010936 0.003412 0.002561
# 3 -0.002236 -0.002012 0.010494 -0.004319 -0.000834 -0.001726
# 4 0.001927 -0.010936 -0.004319 0.053225 -0.005294 -0.007263
# 5 -0.000688 0.003412 -0.000834 -0.005294 0.038538 -0.013719
# 6 -0.002171 0.002561 -0.001726 -0.007263 -0.013719 0.059687
#
#
# Mechanical properties :
#
#
# Convention : Reuss Voigt Hill
#
# Bulk Modulus (GPa) = 39.00279 48.25341 43.62810
# Shear Modulus (GPa) = 23.90216 30.23456 27.06836
#
# Velocity S-wave (km/s) = 3.23495 3.63832 3.44255
# Velocity P-wave (km/s) = 5.57042 6.22706 5.90787
#
# Compressibility (1/GPa) = 0.02563919
#
# Stress axis : x y z
#
# Youngs Moduli (GPa) = 105.42027 57.35880 95.28960
#
# Poissons Ratio (x) = 0.09401 0.21310
# Poissons Ratio (y) = 0.17279 0.19174
# Poissons Ratio (z) = 0.23576 0.11541
#
# Static dielectric constant tensor:
#      x y z
#    x 4.795550 -0.041250 0.235940 
#    y -0.041250 3.674500 0.232150 
#    z 0.235940 0.232150 4.233730 
# 
# 
# High freq. dielectric constant tensor:
#      x y z
#    x 1.918830 0.000500 0.014570 
#    y 0.000500 1.866850 0.019930 
#    z 0.014570 0.019930 1.908080 
# 
# From -- ./inp_files/609154.got.cif
#   From: 2010.06.25/outbox.cif.g09.slc.cpg/sg2_305_cif.got.tgz:609154.got - 2010.06.27 13:26:56.
