data_PCOD8004775
_publ_section_title
;
Structure prediction by ZEFSAII (Michael W. Deem and Ramdas Pophale) SiO2 
 PCOD8004775
Probable space group: P -1
;
_chemical_formula_sum "Si O2"
_cell_formula_units_Z 14
_cell_length_a 10.965732
_cell_length_b 10.549593
_cell_length_c 14.635487
_cell_angle_alpha 135.708123
_cell_angle_beta 85.210023
_cell_angle_gamma 59.331293
_cell_volume 676.218724
_symmetry_space_group_name_H-M "P -1"
_symmetry_group_IT_number 2
_symmetry_cell_setting 'triclinic'
loop_
_space_group_symop_operation_xyz
x,y,z
-x,-y,-z
loop_
_atom_site_type_symbol
_atom_site_label
_atom_site_fract_x
_atom_site_fract_y
_atom_site_fract_z
Si Si1 0.378554 0.461054 0.490898
Si Si2 0.097415 0.769007 0.499968
Si Si3 0.341835 0.556852 0.196937
Si Si4 0.537245 0.692957 0.246504
Si Si5 0.888704 0.658241 0.445480
Si Si6 0.841947 0.350252 0.213685
Si Si7 0.481225 0.943161 0.200346
O O1 0.500000 0.500000 0.500000
O O2 0.176319 0.724703 0.572701
O O3 0.313220 0.520415 0.629800
O O4 0.523505 0.108629 0.272943
O O5 0.273617 0.618960 0.338531
O O6 0.078238 0.573120 0.393992
O O7 0.868597 0.140730 0.692812
O O8 0.524369 0.488735 0.139031
O O9 0.449893 0.239319 0.991287
O O10 0.696516 0.572716 0.250708
O O11 0.616203 0.684078 0.140526
O O12 0.294097 0.053628 0.466550
O O13 0.975877 0.363618 0.246066
O O14 0.772635 0.773568 0.612050
O O15 0.000000 0.000000 0.000000
#
# Coordination Sequence:
#
# PCOD8004775 Si02
#       7
#     2   2   2   2   2   2   2
#     4  11  25  41  55  85 118 154 188 235 291 336
#     4  10  22  38  59  85 120 140 193 242 278 340
#     4  10  20  38  62  88 108 156 187 233 288 331
#     4   9  19  38  60  84 117 148 192 230 274 354
#     4   8  20  37  57  84 112 152 188 232 283 328
#     4  11  23  36  60  88 115 152 190 237 285 328
#     4   9  21  37  61  84 112 154 192 226 288 337
#
# _framework density 20.703361999999998
#
# number of rings (size 3 to 8) (size 9 to 14) (size 15 to 20)
#    0.857    1.429    0.000    1.714    2.000    5.143 
#    0.000    0.714    0.000    0.000    0.000    0.000 
#    0.000    0.000    0.000    0.000    0.000    0.000 
#
# Total GULP energy -173494.199617 kJ/mol
# GULP energy per Si atom -12392.442830 kJ/mol
# Density = 2.065624 g / cm^3
# Si number density = 20.703362 Si / 1000 Ang^3
#
#
#
# Elastic Constant Matrix: (Units=GPa)
#
#
# Indices 1 2 3 4 5 6 
#
# 1 113.6457 3.7302 16.7576 10.1331 30.2832 5.5813
# 2 3.7302 49.3198 -10.2162 -4.4602 -5.2405 -0.7639
# 3 16.7576 -10.2162 94.5800 -0.2459 31.1126 1.7614
# 4 10.1331 -4.4602 -0.2459 15.7550 2.9256 4.3619
# 5 30.2832 -5.2405 31.1126 2.9256 28.9799 5.3148
# 6 5.5813 -0.7639 1.7614 4.3619 5.3148 28.2942
#
#
#
# Elastic Compliance Matrix: (Units=1/GPa)
#
#
# Indices 1 2 3 4 5 6 
#
# 1 0.013672 -0.002862 0.003026 -0.006664 -0.017633 0.001377
# 2 -0.002862 0.021944 0.001255 0.007415 0.005049 -0.001013
# 3 0.003026 0.001255 0.017484 0.002219 -0.022334 0.002202
# 4 -0.006664 0.007415 0.002219 0.072552 0.000410 -0.009885
# 5 -0.017633 0.005049 -0.022334 0.000410 0.079618 -0.010014
# 6 0.001377 -0.001013 0.002202 -0.009885 -0.010014 0.038312
#
#
# Mechanical properties :
#
#
# Convention : Reuss Voigt Hill
#
# Bulk Modulus (GPa) = 17.87745 30.89876 24.38810
# Shear Modulus (GPa) = 19.27590 31.09074 25.18332
#
# Velocity S-wave (km/s) = 3.05462 3.87941 3.49146
# Velocity P-wave (km/s) = 4.59290 5.91805 5.29708
#
# Compressibility (1/GPa) = 0.05593640
#
# Stress axis : x y z
#
# Youngs Moduli (GPa) = 73.14077 45.57141 57.19529
#
# Poissons Ratio (x) = 0.13043 -0.17307
# Poissons Ratio (y) = 0.20934 -0.07175
# Poissons Ratio (z) = -0.22132 -0.05717
#
# Static dielectric constant tensor:
#      x y z
#    x 3.589550 0.233410 0.197530 
#    y 0.233410 3.745130 0.096460 
#    z 0.197530 0.096460 3.463840 
# 
# 
# High freq. dielectric constant tensor:
#      x y z
#    x 1.800260 0.010490 0.025710 
#    y 0.010490 1.811610 0.000140 
#    z 0.025710 0.000140 1.789730 
# 
# From -- ./inp_files/269019.got.cif
#   From: 2010.06.25/outbox.cif.g09.slc.cpg/sg2_135_cif.got.tgz:269019.got - 2010.06.27 13:26:56.
