data_PCOD8004016
_publ_section_title
;
Structure prediction by ZEFSAII (Michael W. Deem and Ramdas Pophale) SiO2 
 PCOD8004016
Probable space group: P -1
;
_chemical_formula_sum "Si O2"
_cell_formula_units_Z 16
_cell_length_a 13.893532
_cell_length_b 14.990437
_cell_length_c 10.807647
_cell_angle_alpha 136.812804
_cell_angle_beta 148.955286
_cell_angle_gamma 40.511709
_cell_volume 733.478493
_symmetry_space_group_name_H-M "P -1"
_symmetry_group_IT_number 2
_symmetry_cell_setting 'triclinic'
loop_
_space_group_symop_operation_xyz
x,y,z
-x,-y,-z
loop_
_atom_site_type_symbol
_atom_site_label
_atom_site_fract_x
_atom_site_fract_y
_atom_site_fract_z
Si Si1 0.265374 0.546423 0.796688
Si Si2 0.309796 0.289860 0.445315
Si Si3 0.432455 0.663763 0.571394
Si Si4 0.063109 0.835775 0.747604
Si Si5 0.155810 0.074024 0.162818
Si Si6 0.054413 0.849047 0.467794
Si Si7 0.848874 0.652353 0.940495
Si Si8 0.740753 0.271041 0.816495
O O1 0.212765 0.410811 0.566512
O O2 0.167862 0.667999 0.710062
O O3 0.500000 0.500000 0.000000
O O4 0.203309 0.606316 0.928351
O O5 0.302504 0.142611 0.334975
O O6 0.175045 0.349196 0.235080
O O7 0.543007 0.258517 0.645519
O O8 0.500000 0.500000 0.500000
O O9 0.295335 0.755149 0.624950
O O10 0.629417 0.699595 0.810196
O O11 0.286708 0.700173 0.328942
O O12 0.991874 0.868068 0.561177
O O13 0.868969 0.895651 0.686782
O O14 0.225116 0.907382 0.037576
O O15 0.934693 0.129765 0.909469
O O16 0.000000 0.000000 0.500000
O O17 0.928186 0.772367 0.182850
O O18 0.000000 0.500000 0.000000
#
# Coordination Sequence:
#
# PCOD8004016 Si02
#       8
#     2   2   2   2   2   2   2   2
#     4   9  19  36  59  87 119 153 194 260 301 346
#     4  10  20  37  63  88 121 160 207 253 313 371
#     4  11  23  39  64  94 126 174 211 257 321 380
#     4  10  22  40  62  89 127 156 211 258 305 382
#     4  10  21  42  63  87 120 168 197 256 325 367
#     4  12  25  43  65  94 132 172 211 267 321 372
#     4  11  22  39  63  96 129 167 218 263 313 387
#     4   9  20  37  58  89 121 156 203 253 309 368
#
# _framework density 21.813863000000001
#
# number of rings (size 3 to 8) (size 9 to 14) (size 15 to 20)
#    0.000    1.750    1.250    3.000    3.500    2.500 
#    2.250   11.250    0.000    0.000    0.000    0.000 
#    0.000    0.000    0.000    0.000    0.000    0.000 
#
# Total GULP energy -198330.907617 kJ/mol
# GULP energy per Si atom -12395.681726 kJ/mol
# Density = 2.176421 g / cm^3
# Si number density = 21.813863 Si / 1000 Ang^3
#
#
#
# Elastic Constant Matrix: (Units=GPa)
#
#
# Indices 1 2 3 4 5 6 
#
# 1 87.8001 12.1926 33.2859 -2.2651 -5.6491 6.1702
# 2 12.1926 68.5850 16.1069 15.2802 4.8842 -0.6969
# 3 33.2859 16.1069 105.8498 16.0236 3.4320 -1.5243
# 4 -2.2651 15.2802 16.0236 40.6305 11.8288 1.2856
# 5 -5.6491 4.8842 3.4320 11.8288 29.7799 1.8771
# 6 6.1702 -0.6969 -1.5243 1.2856 1.8771 28.5060
#
#
#
# Elastic Compliance Matrix: (Units=1/GPa)
#
#
# Indices 1 2 3 4 5 6 
#
# 1 0.013943 -0.002243 -0.004602 0.002773 0.002670 -0.003620
# 2 -0.002243 0.016550 -0.000892 -0.005799 -0.000806 0.001157
# 3 -0.004602 -0.000892 0.011750 -0.004493 -0.000412 0.001832
# 4 0.002773 -0.005799 -0.004493 0.031844 -0.010545 -0.001724
# 5 0.002670 -0.000806 -0.000412 -0.010545 0.038624 -0.002687
# 6 -0.003620 0.001157 0.001832 -0.001724 -0.002687 0.036245
#
#
# Mechanical properties :
#
#
# Convention : Reuss Voigt Hill
#
# Bulk Modulus (GPa) = 37.35622 42.82286 40.08954
# Shear Modulus (GPa) = 28.84288 33.15991 31.00139
#
# Velocity S-wave (km/s) = 3.64019 3.90311 3.77394
# Velocity P-wave (km/s) = 5.90171 6.32345 6.11622
#
# Compressibility (1/GPa) = 0.02676931
#
# Stress axis : x y z
#
# Youngs Moduli (GPa) = 71.71924 60.42344 85.10535
#
# Poissons Ratio (x) = 0.13551 0.39164
# Poissons Ratio (y) = 0.16085 0.07595
# Poissons Ratio (z) = 0.33004 0.05392
#
# Static dielectric constant tensor:
#      x y z
#    x 4.071780 -0.131350 -0.366260 
#    y -0.131350 4.085390 0.443840 
#    z -0.366260 0.443840 3.854780 
# 
# 
# High freq. dielectric constant tensor:
#      x y z
#    x 1.856810 0.004440 -0.004530 
#    y 0.004440 1.863380 0.007440 
#    z -0.004530 0.007440 1.854810 
# 
# From -- ./inp_files/455135.got.cif
#   From: 2010.06.25/outbox.cif.g09.slc.cpg/sg2_228_cif.got.tgz:455135.got - 2010.06.27 13:26:56.
