data_PCOD8004962
_publ_section_title
;
Structure prediction by ZEFSAII (Michael W. Deem and Ramdas Pophale) SiO2 
 PCOD8004962
Probable space group: P -1
;
_chemical_formula_sum "Si O2"
_cell_formula_units_Z 14
_cell_length_a 9.386677
_cell_length_b 15.741110
_cell_length_c 9.429971
_cell_angle_alpha 33.582763
_cell_angle_beta 77.213152
_cell_angle_gamma 57.960287
_cell_volume 576.472135
_symmetry_space_group_name_H-M "P -1"
_symmetry_group_IT_number 2
_symmetry_cell_setting 'triclinic'
loop_
_space_group_symop_operation_xyz
x,y,z
-x,-y,-z
loop_
_atom_site_type_symbol
_atom_site_label
_atom_site_fract_x
_atom_site_fract_y
_atom_site_fract_z
Si Si1 0.636491 0.035923 0.483743
Si Si2 0.824648 0.963248 0.809407
Si Si3 0.052902 0.789776 0.641731
Si Si4 0.051434 0.545012 0.778720
Si Si5 0.443249 0.361675 0.867796
Si Si6 0.161552 0.539692 0.223604
Si Si7 0.437638 0.720222 0.352538
O O1 0.637636 0.043315 0.644631
O O2 0.500000 0.000000 0.500000
O O3 0.855541 0.855675 0.653073
O O4 0.580874 0.235992 0.145742
O O5 0.732666 0.062872 0.843825
O O6 0.921414 0.046005 0.597636
O O7 0.995896 0.723156 0.109070
O O8 0.064537 0.717068 0.578633
O O9 0.199253 0.617150 0.965442
O O10 0.901678 0.590345 0.629898
O O11 0.261617 0.369999 0.911824
O O12 0.000000 0.500000 0.000000
O O13 0.384085 0.578898 0.581018
O O14 0.556743 0.240515 0.868609
O O15 0.354376 0.389253 0.476622
#
# Coordination Sequence:
#
# PCOD8004962 Si02
#       7
#     2   2   2   2   2   2   2
#     4  11  23  39  67  98 130 165 223 281 317 379
#     4  11  22  41  66  95 126 173 222 266 321 385
#     4  10  20  38  63  94 123 168 220 271 320 377
#     4  10  21  39  63  91 127 165 214 273 323 372
#     4  11  23  44  61  99 136 167 218 270 327 393
#     4  10  22  40  62  95 131 167 220 269 324 383
#     4  11  25  41  67  96 136 176 212 264 330 400
#
# _framework density 24.285651000000001
#
# number of rings (size 3 to 8) (size 9 to 14) (size 15 to 20)
#    0.000    1.429    1.429    6.000    6.000    1.714 
#    2.571    5.000    0.000    0.000    0.000    0.000 
#    0.000    0.000    0.000    0.000    0.000    0.000 
#
# Total GULP energy -173455.364806 kJ/mol
# GULP energy per Si atom -12389.668915 kJ/mol
# Density = 2.423038 g / cm^3
# Si number density = 24.285651 Si / 1000 Ang^3
#
#
#
# Elastic Constant Matrix: (Units=GPa)
#
#
# Indices 1 2 3 4 5 6 
#
# 1 102.8584 22.9533 -5.9377 3.2712 5.7896 2.3767
# 2 22.9533 129.8414 -2.0120 -5.0713 -5.2317 -2.8105
# 3 -5.9377 -2.0120 22.3752 -1.1797 3.6277 -7.4470
# 4 3.2712 -5.0713 -1.1797 16.6080 -0.5626 -5.0267
# 5 5.7896 -5.2317 3.6277 -0.5626 22.7081 -1.8347
# 6 2.3767 -2.8105 -7.4470 -5.0267 -1.8347 35.3595
#
#
#
# Elastic Compliance Matrix: (Units=1/GPa)
#
#
# Indices 1 2 3 4 5 6 
#
# 1 0.010691 -0.002136 0.002801 -0.002966 -0.003813 -0.000918
# 2 -0.002136 0.008364 0.000465 0.003565 0.002611 0.001549
# 3 0.002801 0.000465 0.050720 0.006270 -0.007664 0.011024
# 4 -0.002966 0.003565 0.006270 0.065865 0.003123 0.011329
# 5 -0.003813 0.002611 -0.007664 0.003123 0.047053 0.001735
# 6 -0.000918 0.001549 0.011024 0.011329 0.001735 0.032488
#
#
# Mechanical properties :
#
#
# Convention : Reuss Voigt Hill
#
# Bulk Modulus (GPa) = 13.88182 31.67581 22.77882
# Shear Modulus (GPa) = 21.10321 30.93987 26.02154
#
# Velocity S-wave (km/s) = 2.95101 3.57318 3.27689
# Velocity P-wave (km/s) = 4.16410 5.48588 4.87004
#
# Compressibility (1/GPa) = 0.07203666
#
# Stress axis : x y z
#
# Youngs Moduli (GPa) = 93.54041 119.55376 19.71615
#
# Poissons Ratio (x) = 0.25534 -0.05523
# Poissons Ratio (y) = 0.19978 -0.00918
# Poissons Ratio (z) = -0.26203 -0.05565
#
# Static dielectric constant tensor:
#      x y z
#    x 4.552070 0.403340 -0.064280 
#    y 0.403340 4.880550 -0.021920 
#    z -0.064280 -0.021920 4.058230 
# 
# 
# High freq. dielectric constant tensor:
#      x y z
#    x 1.978610 0.009310 -0.005500 
#    y 0.009310 1.973280 -0.004480 
#    z -0.005500 -0.004480 1.925090 
# 
# From -- ./inp_files/157397.got.cif
#   From: 2010.06.25/outbox.cif.g09.slc.cpg/sg2_79_cif.got.tgz:157397.got - 2010.06.27 13:26:56.
