data_PCOD8004136
_publ_section_title
;
Structure prediction by ZEFSAII (Michael W. Deem and Ramdas Pophale) SiO2 
 PCOD8004136
Probable space group: P -1
;
_chemical_formula_sum "Si O2"
_cell_formula_units_Z 16
_cell_length_a 6.207543
_cell_length_b 11.266169
_cell_length_c 10.638830
_cell_angle_alpha 101.038591
_cell_angle_beta 103.126390
_cell_angle_gamma 68.345627
_cell_volume 668.670500
_symmetry_space_group_name_H-M "P -1"
_symmetry_group_IT_number 2
_symmetry_cell_setting 'triclinic'
loop_
_space_group_symop_operation_xyz
x,y,z
-x,-y,-z
loop_
_atom_site_type_symbol
_atom_site_label
_atom_site_fract_x
_atom_site_fract_y
_atom_site_fract_z
Si Si1 0.837097 0.518187 0.730759
Si Si2 0.350800 0.337708 0.797586
Si Si3 0.688798 0.871899 0.952125
Si Si4 0.848926 0.104041 0.402195
Si Si5 0.481085 0.653309 0.910862
Si Si6 0.321967 0.696418 0.390255
Si Si7 0.858125 0.865942 0.226522
Si Si8 0.974335 0.752396 0.745539
O O1 0.664494 0.537873 0.832509
O O2 0.749606 0.428100 0.604657
O O3 0.092989 0.439688 0.800778
O O4 0.842039 0.647449 0.687314
O O5 0.450649 0.351995 0.677108
O O6 0.341154 0.193438 0.770462
O O7 0.498964 0.368778 0.939453
O O8 0.551417 0.773652 0.907209
O O9 0.816273 0.870053 0.835963
O O10 0.896264 0.840010 0.077434
O O11 0.500000 0.000000 0.000000
O O12 0.642511 0.221765 0.467114
O O13 0.002278 0.178624 0.366986
O O14 0.752023 0.020554 0.275610
O O15 0.000000 0.000000 0.500000
O O16 0.219282 0.675821 0.831916
O O17 0.108322 0.798188 0.307972
#
# Coordination Sequence:
#
# PCOD8004136 Si02
#       8
#     2   2   2   2   2   2   2   2
#     4  10  22  39  59  91 124 156 202 243 295 362
#     4  10  20  37  64  92 125 160 188 244 305 349
#     4  10  21  36  59  92 123 152 193 243 301 367
#     4  10  23  42  62  85 116 159 210 251 292 355
#     4  10  21  37  61  94 125 155 194 241 301 366
#     4  10  21  39  61  87 119 161 208 244 286 351
#     4   9  20  38  59  90 121 152 199 244 296 362
#     4  11  23  40  62  88 123 161 194 248 305 345
#
# _framework density 23.928077999999999
#
# number of rings (size 3 to 8) (size 9 to 14) (size 15 to 20)
#    0.000    2.000    0.000    2.625    0.000   11.000 
#    0.000   12.500    0.000    0.000    0.000    0.000 
#    0.000    0.000    0.000    0.000    0.000    0.000 
#
# Total GULP energy -198234.476188 kJ/mol
# GULP energy per Si atom -12389.654762 kJ/mol
# Density = 2.387362 g / cm^3
# Si number density = 23.928078 Si / 1000 Ang^3
#
#
#
# Elastic Constant Matrix: (Units=GPa)
#
#
# Indices 1 2 3 4 5 6 
#
# 1 73.3227 33.9070 34.2755 12.4660 -26.7629 -12.1491
# 2 33.9070 102.0296 48.8371 29.3433 -16.0098 11.5013
# 3 34.2755 48.8371 55.4078 21.4785 -28.6860 13.5211
# 4 12.4660 29.3433 21.4785 45.2273 2.8043 -2.6447
# 5 -26.7629 -16.0098 -28.6860 2.8043 39.8673 2.9996
# 6 -12.1491 11.5013 13.5211 -2.6447 2.9996 38.8929
#
#
#
# Elastic Compliance Matrix: (Units=1/GPa)
#
#
# Indices 1 2 3 4 5 6 
#
# 1 0.025691 -0.002490 -0.017657 0.003662 0.002157 0.014983
# 2 -0.002490 0.018595 -0.016693 -0.003093 -0.005981 -0.000222
# 3 -0.017657 -0.016693 0.097942 -0.036821 0.057634 -0.041578
# 4 0.003662 -0.003093 -0.036821 0.043622 -0.029860 0.020128
# 5 0.002157 -0.005981 0.057634 -0.029860 0.069580 -0.024991
# 6 0.014983 -0.000222 -0.041578 0.020128 -0.024991 0.048208
#
#
# Mechanical properties :
#
#
# Convention : Reuss Voigt Hill
#
# Bulk Modulus (GPa) = 14.58829 51.64440 33.11635
# Shear Modulus (GPa) = 12.49480 32.38020 22.43750
#
# Velocity S-wave (km/s) = 2.28761 3.68262 3.06552
# Velocity P-wave (km/s) = 3.61766 6.30177 5.13808
#
# Compressibility (1/GPa) = 0.06854812
#
# Stress axis : x y z
#
# Youngs Moduli (GPa) = 38.92444 53.77927 10.21011
#
# Poissons Ratio (x) = 0.13389 0.18028
# Poissons Ratio (y) = 0.09691 0.17044
# Poissons Ratio (z) = 0.68730 0.89773
#
# Static dielectric constant tensor:
#      x y z
#    x 4.131370 0.259800 0.250880 
#    y 0.259800 4.524870 0.286230 
#    z 0.250880 0.286230 4.518520 
# 
# 
# High freq. dielectric constant tensor:
#      x y z
#    x 1.935990 0.009080 -0.001000 
#    y 0.009080 1.958140 0.024470 
#    z -0.001000 0.024470 1.948930 
# 
# From -- ./inp_files/81693.got.cif
#   From: 2010.06.25/outbox.cif.g09.slc.cpg/sg2_41_cif.got.tgz:81693.got - 2010.06.27 13:26:56.
