data_PCOD8004566
_publ_section_title
;
Structure prediction by ZEFSAII (Michael W. Deem and Ramdas Pophale) SiO2 
 PCOD8004566
Probable space group: P -1
;
_chemical_formula_sum "Si O2"
_cell_formula_units_Z 16
_cell_length_a 15.125583
_cell_length_b 16.674429
_cell_length_c 11.776023
_cell_angle_alpha 125.409710
_cell_angle_beta 148.524586
_cell_angle_gamma 33.973135
_cell_volume 778.927192
_symmetry_space_group_name_H-M "P -1"
_symmetry_group_IT_number 2
_symmetry_cell_setting 'triclinic'
loop_
_space_group_symop_operation_xyz
x,y,z
-x,-y,-z
loop_
_atom_site_type_symbol
_atom_site_label
_atom_site_fract_x
_atom_site_fract_y
_atom_site_fract_z
Si Si1 0.623373 0.019586 0.737604
Si Si2 0.749553 0.157616 0.926624
Si Si3 0.726646 0.293378 0.814285
Si Si4 0.009544 0.898572 0.620001
Si Si5 0.566257 0.254937 0.397217
Si Si6 0.415760 0.067352 0.791710
Si Si7 0.194225 0.253804 0.919232
Si Si8 0.668347 0.374139 0.430087
O O1 0.500000 0.000000 0.500000
O O2 0.538509 0.163293 0.707234
O O3 0.495153 0.079764 0.771128
O O4 0.948245 0.852345 0.969018
O O5 0.643811 0.301657 0.860505
O O6 0.809486 0.149310 0.116786
O O7 0.000000 0.000000 0.000000
O O8 0.587220 0.272538 0.566951
O O9 0.604369 0.456817 0.788141
O O10 0.197978 0.766421 0.621440
O O11 0.810003 0.910137 0.465667
O O12 0.831780 0.066386 0.503270
O O13 0.577111 0.354856 0.425602
O O14 0.286150 0.319289 0.120968
O O15 0.293155 0.205338 0.856449
O O16 0.676380 0.896471 0.994267
O O17 0.869186 0.377072 0.676639
#
# Coordination Sequence:
#
# PCOD8004566 Si02
#       8
#     2   2   2   2   2   2   2   2
#     4  11  22  36  65  89 114 157 209 258 294 361
#     4  10  20  38  60  87 111 156 206 245 299 353
#     4  11  24  41  58  89 127 159 199 252 309 364
#     4  10  20  38  67  87 118 160 201 257 291 364
#     4  11  21  38  65  90 122 165 209 242 293 366
#     4   9  18  35  57  92 118 146 205 253 294 342
#     4   9  21  35  59  89 124 158 193 251 297 358
#     4  11  24  40  59  93 131 159 196 247 319 359
#
# _framework density 20.541073000000001
#
# number of rings (size 3 to 8) (size 9 to 14) (size 15 to 20)
#    0.000    1.750    2.500    3.750    3.500    1.000 
#    2.250    0.000    0.000    2.250    0.000    0.000 
#    0.000    0.000    0.000    0.000    0.000    0.000 
#
# Total GULP energy -198285.708874 kJ/mol
# GULP energy per Si atom -12392.856805 kJ/mol
# Density = 2.049432 g / cm^3
# Si number density = 20.541073 Si / 1000 Ang^3
#
#
#
# Elastic Constant Matrix: (Units=GPa)
#
#
# Indices 1 2 3 4 5 6 
#
# 1 107.8332 4.5072 28.4689 -0.0132 -1.6535 25.7390
# 2 4.5072 51.2284 22.6957 -3.3874 2.9387 23.1669
# 3 28.4689 22.6957 94.7648 22.2803 -0.6026 10.8152
# 4 -0.0132 -3.3874 22.2803 32.8963 0.1822 -1.6831
# 5 -1.6535 2.9387 -0.6026 0.1822 25.3981 2.0884
# 6 25.7390 23.1669 10.8152 -1.6831 2.0884 31.2528
#
#
#
# Elastic Compliance Matrix: (Units=1/GPa)
#
#
# Indices 1 2 3 4 5 6 
#
# 1 0.014168 0.008544 -0.005328 0.003668 0.001099 -0.016034
# 2 0.008544 0.038141 -0.010363 0.009367 -0.001612 -0.031112
# 3 -0.005328 -0.010363 0.016887 -0.012230 0.000888 0.005508
# 4 0.003668 0.009367 -0.012230 0.039473 -0.001128 -0.003531
# 5 0.001099 -0.001612 0.000888 -0.001128 0.039886 -0.002744
# 6 -0.016034 -0.031112 0.005508 -0.003531 -0.002744 0.066352
#
#
# Mechanical properties :
#
#
# Convention : Reuss Voigt Hill
#
# Bulk Modulus (GPa) = 18.21412 40.57445 29.39428
# Shear Modulus (GPa) = 20.20185 31.11973 25.66079
#
# Velocity S-wave (km/s) = 3.13946 3.89652 3.53830
# Velocity P-wave (km/s) = 4.69340 6.32768 5.57080
#
# Compressibility (1/GPa) = 0.05490245
#
# Stress axis : x y z
#
# Youngs Moduli (GPa) = 70.58398 26.21827 59.21554
#
# Poissons Ratio (x) = -0.22402 0.31549
# Poissons Ratio (y) = -0.60309 0.61367
# Poissons Ratio (z) = 0.37606 0.27171
#
# Static dielectric constant tensor:
#      x y z
#    x 3.948270 0.254810 -0.116250 
#    y 0.254810 3.777380 0.149500 
#    z -0.116250 0.149500 3.932840 
# 
# 
# High freq. dielectric constant tensor:
#      x y z
#    x 1.807190 0.007160 -0.006420 
#    y 0.007160 1.790100 0.018110 
#    z -0.006420 0.018110 1.798270 
# 
# From -- ./inp_files/254285.got.cif
#   From: 2010.06.25/outbox.cif.g09.slc.cpg/sg2_128_cif.got.tgz:254285.got - 2010.06.27 13:26:56.
