data_PCOD8004760
_publ_section_title
;
Structure prediction by ZEFSAII (Michael W. Deem and Ramdas Pophale) SiO2 
 PCOD8004760
Probable space group: P -1
;
_chemical_formula_sum "Si O2"
_cell_formula_units_Z 16
_cell_length_a 11.843414
_cell_length_b 12.817323
_cell_length_c 8.962251
_cell_angle_alpha 127.498965
_cell_angle_beta 55.370646
_cell_angle_gamma 130.927930
_cell_volume 782.217843
_symmetry_space_group_name_H-M "P -1"
_symmetry_group_IT_number 2
_symmetry_cell_setting 'triclinic'
loop_
_space_group_symop_operation_xyz
x,y,z
-x,-y,-z
loop_
_atom_site_type_symbol
_atom_site_label
_atom_site_fract_x
_atom_site_fract_y
_atom_site_fract_z
Si Si1 0.594445 0.351613 0.719182
Si Si2 0.341843 0.034573 0.541226
Si Si3 0.058605 0.163419 0.032085
Si Si4 0.882678 0.888088 0.370852
Si Si5 0.621579 0.651537 0.883810
Si Si6 0.403226 0.321575 0.406893
Si Si7 0.779985 0.210096 0.345508
Si Si8 0.538530 0.108158 0.201487
O O1 0.454555 0.209385 0.627877
O O2 0.610897 0.490288 0.730402
O O3 0.754003 0.336792 0.565553
O O4 0.541976 0.365700 0.940117
O O5 0.176319 0.012266 0.590843
O O6 0.419794 0.990629 0.309030
O O7 0.327874 0.943726 0.620724
O O8 0.237642 0.255504 0.026926
O O9 0.958646 0.242358 0.239046
O O10 0.041622 0.165142 0.865153
O O11 0.000000 0.000000 0.000000
O O12 0.749727 0.744118 0.430569
O O13 0.000000 0.000000 0.500000
O O14 0.651984 0.727314 0.765242
O O15 0.500000 0.500000 0.500000
O O16 0.509587 0.247268 0.306978
O O17 0.714383 0.182225 0.200610
O O18 0.500000 0.000000 0.000000
#
# Coordination Sequence:
#
# PCOD8004760 Si02
#       8
#     2   2   2   2   2   2   2   2
#     4  10  21  40  65  94 119 163 221 264 310 374
#     4  10  20  38  62  86 124 161 209 264 310 373
#     4  12  24  40  65  94 125 172 216 257 324 388
#     4  11  23  39  61  95 133 164 214 268 326 384
#     4  11  23  40  70  90 122 167 223 258 317 393
#     4  11  25  42  67  95 132 170 218 273 330 385
#     4  11  23  39  63  89 134 161 211 267 317 385
#     4  10  23  35  60  96 124 164 214 270 321 380
#
# _framework density 20.454660000000001
#
# number of rings (size 3 to 8) (size 9 to 14) (size 15 to 20)
#    0.000    1.250    2.500    4.500   10.500    0.500 
#    0.000    0.000    0.000    1.500    0.000    0.000 
#    0.000    0.000    0.000    0.000    0.000    0.000 
#
# Total GULP energy -198239.360485 kJ/mol
# GULP energy per Si atom -12389.960030 kJ/mol
# Density = 2.040810 g / cm^3
# Si number density = 20.454660 Si / 1000 Ang^3
#
#
#
# Elastic Constant Matrix: (Units=GPa)
#
#
# Indices 1 2 3 4 5 6 
#
# 1 86.3267 27.9011 43.2658 -4.5403 -4.3942 -13.6750
# 2 27.9011 94.8744 39.3900 -5.1891 7.7682 -11.6096
# 3 43.2658 39.3900 127.4476 -14.1012 -7.9104 -7.1382
# 4 -4.5403 -5.1891 -14.1012 36.2700 0.3096 3.3204
# 5 -4.3942 7.7682 -7.9104 0.3096 45.0384 -4.8628
# 6 -13.6750 -11.6096 -7.1382 3.3204 -4.8628 25.9285
#
#
#
# Elastic Compliance Matrix: (Units=1/GPa)
#
#
# Indices 1 2 3 4 5 6 
#
# 1 0.015468 -0.002221 -0.004155 -0.000603 0.001863 0.006447
# 2 -0.002221 0.013194 -0.003302 0.000046 -0.002715 0.003313
# 3 -0.004155 -0.003302 0.010712 0.003226 0.001940 -0.000770
# 4 -0.000603 0.000046 0.003226 0.029044 -0.000038 -0.003136
# 5 0.001863 -0.002715 0.001940 -0.000038 0.023707 0.004752
# 6 0.006447 0.003313 -0.000770 -0.003136 0.004752 0.044532
#
#
# Mechanical properties :
#
#
# Convention : Reuss Voigt Hill
#
# Bulk Modulus (GPa) = 49.95174 58.86250 54.40712
# Shear Modulus (GPa) = 30.73422 34.65349 32.69385
#
# Velocity S-wave (km/s) = 3.88048 4.12048 4.00228
# Velocity P-wave (km/s) = 6.67467 7.17477 6.92924
#
# Compressibility (1/GPa) = 0.02001932
#
# Stress axis : x y z
#
# Youngs Moduli (GPa) = 64.64840 75.78977 93.35654
#
# Poissons Ratio (x) = 0.16830 0.38788
# Poissons Ratio (y) = 0.14356 0.30827
# Poissons Ratio (z) = 0.26861 0.25026
#
# Static dielectric constant tensor:
#      x y z
#    x 3.672970 -0.028780 0.328460 
#    y -0.028780 3.628200 -0.540870 
#    z 0.328460 -0.540870 3.140800 
# 
# 
# High freq. dielectric constant tensor:
#      x y z
#    x 1.794270 -0.013240 -0.000490 
#    y -0.013240 1.785800 -0.013980 
#    z -0.000490 -0.013980 1.812460 
# 
# From -- ./inp_files/263373.got.cif
#   From: 2010.06.25/outbox.cif.g09.slc.cpg/sg2_132_cif.got.tgz:263373.got - 2010.06.27 13:26:56.
