data_PCOD8004762
_publ_section_title
;
Structure prediction by ZEFSAII (Michael W. Deem and Ramdas Pophale) SiO2 
 PCOD8004762
Probable space group: P -1
;
_chemical_formula_sum "Si O2"
_cell_formula_units_Z 16
_cell_length_a 11.893163
_cell_length_b 9.004357
_cell_length_c 14.301446
_cell_angle_alpha 83.053090
_cell_angle_beta 131.306634
_cell_angle_gamma 127.528548
_cell_volume 804.388844
_symmetry_space_group_name_H-M "P -1"
_symmetry_group_IT_number 2
_symmetry_cell_setting 'triclinic'
loop_
_space_group_symop_operation_xyz
x,y,z
-x,-y,-z
loop_
_atom_site_type_symbol
_atom_site_label
_atom_site_fract_x
_atom_site_fract_y
_atom_site_fract_z
Si Si1 0.450947 0.550045 0.065123
Si Si2 0.664424 0.938912 0.660025
Si Si3 0.001412 0.647216 0.430054
Si Si4 0.566064 0.945646 0.406478
Si Si5 0.781604 0.770426 0.365984
Si Si6 0.041725 0.421832 0.803999
Si Si7 0.360693 0.389831 0.223524
Si Si8 0.143210 0.518965 0.152254
O O1 0.672114 0.773363 0.214206
O O2 0.348689 0.369897 0.104332
O O3 0.500000 0.500000 0.000000
O O4 0.285976 0.567023 0.955063
O O5 0.604024 0.866825 0.524056
O O6 0.671076 0.791653 0.732719
O O7 0.481744 0.917397 0.600639
O O8 0.895130 0.180569 0.777220
O O9 0.000000 0.500000 0.500000
O O10 0.814213 0.622757 0.361200
O O11 0.977205 0.574869 0.316613
O O12 0.218267 0.895322 0.547021
O O13 0.380442 0.752320 0.254286
O O14 0.599737 0.629105 0.358769
O O15 0.000000 0.000000 0.500000
O O16 0.957160 0.515793 0.798315
O O17 0.170430 0.361309 0.160418
O O18 0.000000 0.500000 0.000000
#
# Coordination Sequence:
#
# PCOD8004762 Si02
#       8
#     2   2   2   2   2   2   2   2
#     4  10  20  38  62  87 114 159 198 243 290 359
#     4   9  19  37  56  88 113 148 197 250 285 350
#     4  11  21  37  62  86 113 157 200 242 289 362
#     4   9  20  35  58  80 118 151 189 240 302 343
#     4  10  21  36  59  85 116 157 195 240 296 346
#     4  10  20  39  62  84 118 154 196 241 307 348
#     4  10  21  35  62  87 115 153 203 240 294 355
#     4  11  20  37  57  84 118 160 185 242 304 354
#
# _framework density 19.890879000000002
#
# number of rings (size 3 to 8) (size 9 to 14) (size 15 to 20)
#    0.750    1.250    2.500    2.250    0.000    1.000 
#    0.000    2.500    0.000    1.500    0.000    0.000 
#    0.000    0.000    0.000    0.000    0.000    0.000 
#
# Total GULP energy -198212.777027 kJ/mol
# GULP energy per Si atom -12388.298564 kJ/mol
# Density = 1.984561 g / cm^3
# Si number density = 19.890879 Si / 1000 Ang^3
#
#
#
# Elastic Constant Matrix: (Units=GPa)
#
#
# Indices 1 2 3 4 5 6 
#
# 1 125.1326 36.3173 47.4338 -16.4558 8.8175 -6.5776
# 2 36.3173 67.8738 38.1264 -24.9067 -5.7171 5.3210
# 3 47.4338 38.1264 128.7822 0.9034 4.1234 3.6494
# 4 -16.4558 -24.9067 0.9034 33.9464 -0.6446 1.3980
# 5 8.8175 -5.7171 4.1234 -0.6446 32.7263 -0.9677
# 6 -6.5776 5.3210 3.6494 1.3980 -0.9677 18.4366
#
#
#
# Elastic Compliance Matrix: (Units=1/GPa)
#
#
# Indices 1 2 3 4 5 6 
#
# 1 0.011104 -0.004253 -0.002898 0.002055 -0.003168 0.005440
# 2 -0.004253 0.030334 -0.007519 0.020949 0.007510 -0.009978
# 3 -0.002898 -0.007519 0.011195 -0.007233 -0.002105 -0.000642
# 4 0.002055 0.020949 -0.007233 0.046401 0.004720 -0.007152
# 5 -0.003168 0.007510 -0.002105 0.004720 0.033036 -0.001505
# 6 0.005440 -0.009978 -0.000642 -0.007152 -0.001505 0.059651
#
#
# Mechanical properties :
#
#
# Convention : Reuss Voigt Hill
#
# Bulk Modulus (GPa) = 42.92958 62.83820 52.88389
# Shear Modulus (GPa) = 21.85082 30.34926 26.10004
#
# Velocity S-wave (km/s) = 3.31801 3.91037 3.62631
# Velocity P-wave (km/s) = 6.02564 7.21443 6.64667
#
# Compressibility (1/GPa) = 0.02329396
#
# Stress axis : x y z
#
# Youngs Moduli (GPa) = 90.05931 32.96601 89.32749
#
# Poissons Ratio (x) = 0.14019 0.25887
# Poissons Ratio (y) = 0.38298 0.67165
# Poissons Ratio (z) = 0.26099 0.24787
#
# Static dielectric constant tensor:
#      x y z
#    x 3.953230 0.070430 0.231920 
#    y 0.070430 3.093530 0.093900 
#    z 0.231920 0.093900 3.792940 
# 
# 
# High freq. dielectric constant tensor:
#      x y z
#    x 1.793380 -0.000890 0.016720 
#    y -0.000890 1.722060 0.002220 
#    z 0.016720 0.002220 1.789930 
# 
# From -- ./inp_files/515548.got.cif
#   From: 2010.06.25/outbox.cif.g09.slc.cpg/sg2_258_cif.got.tgz:515548.got - 2010.06.27 13:26:56.
