data_PCOD8004422
_publ_section_title
;
Structure prediction by ZEFSAII (Michael W. Deem and Ramdas Pophale) SiO2 
 PCOD8004422
Probable space group: P -1
;
_chemical_formula_sum "Si O2"
_cell_formula_units_Z 16
_cell_length_a 25.609752
_cell_length_b 11.027981
_cell_length_c 25.458231
_cell_angle_alpha 31.802703
_cell_angle_beta 168.582707
_cell_angle_gamma 146.934858
_cell_volume 749.203547
_symmetry_space_group_name_H-M "P -1"
_symmetry_group_IT_number 2
_symmetry_cell_setting 'triclinic'
loop_
_space_group_symop_operation_xyz
x,y,z
-x,-y,-z
loop_
_atom_site_type_symbol
_atom_site_label
_atom_site_fract_x
_atom_site_fract_y
_atom_site_fract_z
Si Si1 0.299715 0.247851 0.737949
Si Si2 0.779458 0.079817 0.311235
Si Si3 0.520106 0.297636 0.306999
Si Si4 0.977394 0.225345 0.858889
Si Si5 0.333947 0.733366 0.144006
Si Si6 0.363202 0.921039 0.216164
Si Si7 0.859766 0.673063 0.835687
Si Si8 0.129388 0.290877 0.375427
O O1 0.250981 0.008446 0.746343
O O2 0.377034 0.446193 0.699648
O O3 0.018948 0.274836 0.480146
O O4 0.513833 0.219091 0.006265
O O5 0.806834 0.864832 0.455096
O O6 0.750064 0.167713 0.612340
O O7 0.464585 0.172915 0.242286
O O8 0.259023 0.300070 0.083988
O O9 0.883067 0.442812 0.718784
O O10 0.000000 0.000000 0.000000
O O11 0.304620 0.902521 0.103030
O O12 0.225500 0.468717 0.144301
O O13 0.638323 0.732999 0.428786
O O14 0.144386 0.814830 0.880546
O O15 0.591974 0.748499 0.517364
O O16 0.091687 0.870580 0.001116
O O17 0.000000 0.500000 0.000000
#
# Coordination Sequence:
#
# PCOD8004422 Si02
#       8
#     2   2   2   2   2   2   2   2
#     4  10  21  39  65  89 118 152 208 265 307 355
#     4  10  21  38  64  91 118 151 205 266 310 358
#     4  12  25  44  65  90 129 167 210 251 306 381
#     4  12  28  43  58  93 137 174 200 238 316 381
#     4  11  23  38  63  88 123 165 211 258 300 354
#     4  11  23  40  62  89 120 165 216 258 296 348
#     4  10  20  38  58  86 117 159 223 257 282 333
#     4  12  24  40  65  91 130 162 205 253 314 380
#
# _framework density 21.356012
#
# number of rings (size 3 to 8) (size 9 to 14) (size 15 to 20)
#    0.000    1.000    1.250    7.125    8.750    0.000 
#    0.000    0.000    0.000    4.500    0.000    0.000 
#    0.000    0.000    0.000    0.000    0.000    0.000 
#
# Total GULP energy -198313.471878 kJ/mol
# GULP energy per Si atom -12394.591992 kJ/mol
# Density = 2.130740 g / cm^3
# Si number density = 21.356012 Si / 1000 Ang^3
#
#
#
# Elastic Constant Matrix: (Units=GPa)
#
#
# Indices 1 2 3 4 5 6 
#
# 1 71.3910 38.1854 42.4634 2.7664 -3.2861 5.3270
# 2 38.1854 87.3990 42.4308 12.1924 -1.7082 15.4282
# 3 42.4634 42.4308 163.5243 12.6709 -7.2060 10.5911
# 4 2.7664 12.1924 12.6709 33.7257 9.1791 -4.3913
# 5 -3.2861 -1.7082 -7.2060 9.1791 42.0216 5.2032
# 6 5.3270 15.4282 10.5911 -4.3913 5.2032 31.6766
#
#
#
# Elastic Compliance Matrix: (Units=1/GPa)
#
#
# Indices 1 2 3 4 5 6 
#
# 1 0.020000 -0.007780 -0.003536 0.002828 -0.000229 0.002038
# 2 -0.007780 0.018075 -0.001466 -0.007110 0.002468 -0.008396
# 3 -0.003536 -0.001466 0.007855 -0.002913 0.001899 -0.002033
# 4 0.002828 -0.007110 -0.002913 0.037216 -0.010030 0.010768
# 5 -0.000229 0.002468 0.001899 -0.010030 0.027347 -0.007681
# 6 0.002038 -0.008396 -0.002033 0.010768 -0.007681 0.038750
#
#
# Mechanical properties :
#
#
# Convention : Reuss Voigt Hill
#
# Bulk Modulus (GPa) = 49.10362 63.16372 56.13367
# Shear Modulus (GPa) = 27.53369 34.76710 31.15039
#
# Velocity S-wave (km/s) = 3.59454 4.03920 3.82334
# Velocity P-wave (km/s) = 6.34590 7.16898 6.76996
#
# Compressibility (1/GPa) = 0.02036510
#
# Stress axis : x y z
#
# Youngs Moduli (GPa) = 50.00055 55.32474 127.30749
#
# Poissons Ratio (x) = 0.43044 0.45015
# Poissons Ratio (y) = 0.38902 0.18667
# Poissons Ratio (z) = 0.17680 0.08112
#
# Static dielectric constant tensor:
#      x y z
#    x 3.641960 0.091350 0.087220 
#    y 0.091350 3.916190 0.589450 
#    z 0.087220 0.589450 4.866350 
# 
# 
# High freq. dielectric constant tensor:
#      x y z
#    x 1.814940 0.008760 -0.000620 
#    y 0.008760 1.814930 0.017610 
#    z -0.000620 0.017610 1.874320 
# 
# From -- ./inp_files/621252.got.cif
#   From: 2010.06.25/outbox.cif.g09.slc.cpg/sg2_311_cif.got.tgz:621252.got - 2010.06.27 13:26:56.
