data_PCOD8004989
_publ_section_title
;
Structure prediction by ZEFSAII (Michael W. Deem and Ramdas Pophale) SiO2 
 PCOD8004989
Probable space group: P -1
;
_chemical_formula_sum "Si O2"
_cell_formula_units_Z 14
_cell_length_a 16.669623
_cell_length_b 10.358510
_cell_length_c 9.411664
_cell_angle_alpha 70.195942
_cell_angle_beta 41.300482
_cell_angle_gamma 41.152016
_cell_volume 601.889493
_symmetry_space_group_name_H-M "P -1"
_symmetry_group_IT_number 2
_symmetry_cell_setting 'triclinic'
loop_
_space_group_symop_operation_xyz
x,y,z
-x,-y,-z
loop_
_atom_site_type_symbol
_atom_site_label
_atom_site_fract_x
_atom_site_fract_y
_atom_site_fract_z
Si Si1 0.318009 0.047179 0.060652
Si Si2 0.408526 0.753655 0.383210
Si Si3 0.768911 0.735519 0.200301
Si Si4 0.444152 0.816638 0.612803
Si Si5 0.981366 0.836660 0.417607
Si Si6 0.312585 0.314360 0.129037
Si Si7 0.378822 0.641681 0.965044
O O1 0.263876 0.200102 0.206419
O O2 0.161498 0.061009 0.290363
O O3 0.285496 0.158371 0.920427
O O4 0.554734 0.785549 0.864134
O O5 0.425411 0.725080 0.542698
O O6 0.510536 0.533586 0.248292
O O7 0.538458 0.770026 0.164449
O O8 0.169144 0.983569 0.577045
O O9 0.667820 0.679354 0.385525
O O10 0.699254 0.921156 0.328978
O O11 0.000000 0.500000 0.000000
O O12 0.384247 0.797466 0.850923
O O13 0.105047 0.587061 0.308883
O O14 0.144215 0.810134 0.237086
O O15 0.500000 0.500000 0.000000
#
# Coordination Sequence:
#
# PCOD8004989 Si02
#       7
#     2   2   2   2   2   2   2
#     4  10  20  38  63  97 132 169 223 269 327 392
#     4  10  22  44  69  98 129 176 224 270 334 394
#     4  11  27  42  69 100 133 181 219 271 335 397
#     4  11  26  47  67  96 143 175 219 279 331 392
#     4  10  23  37  68  98 127 173 222 271 332 394
#     4   9  19  37  64  97 134 166 214 280 327 391
#     4  11  27  45  69  98 134 177 223 279 331 393
#
# _framework density 23.260083000000002
#
# number of rings (size 3 to 8) (size 9 to 14) (size 15 to 20)
#    0.000    1.714    1.429    0.857   10.000    3.429 
#    0.000    0.000    0.000    0.000    0.000    0.000 
#    0.000    0.000    0.000    0.000    0.000    0.000 
#
# Total GULP energy -173516.641827 kJ/mol
# GULP energy per Si atom -12394.045845 kJ/mol
# Density = 2.320714 g / cm^3
# Si number density = 23.260083 Si / 1000 Ang^3
#
#
#
# Elastic Constant Matrix: (Units=GPa)
#
#
# Indices 1 2 3 4 5 6 
#
# 1 76.4203 16.1751 41.5651 -8.1434 -11.8561 -3.7804
# 2 16.1751 73.7082 32.1838 -6.0773 -20.6124 -9.1242
# 3 41.5651 32.1838 112.7463 -7.7376 -30.8526 -18.9464
# 4 -8.1434 -6.0773 -7.7376 51.9551 -6.6210 -2.2354
# 5 -11.8561 -20.6124 -30.8526 -6.6210 42.3310 -3.9884
# 6 -3.7804 -9.1242 -18.9464 -2.2354 -3.9884 30.3443
#
#
#
# Elastic Compliance Matrix: (Units=1/GPa)
#
#
# Indices 1 2 3 4 5 6 
#
# 1 0.016682 -0.001220 -0.006160 0.001416 -0.000386 -0.002081
# 2 -0.001220 0.017653 -0.001077 0.003046 0.008494 0.005824
# 3 -0.006160 -0.001077 0.016675 0.003330 0.011468 0.011073
# 4 0.001416 0.003046 0.003330 0.021623 0.008240 0.005847
# 5 -0.000386 0.008494 0.011468 0.008240 0.038746 0.015366
# 6 -0.002081 0.005824 0.011073 0.005847 0.015366 0.043812
#
#
# Mechanical properties :
#
#
# Convention : Reuss Voigt Hill
#
# Bulk Modulus (GPa) = 29.32880 49.19143 39.26011
# Shear Modulus (GPa) = 27.25233 36.45615 31.85424
#
# Velocity S-wave (km/s) = 3.42663 3.96324 3.70466
# Velocity P-wave (km/s) = 5.31904 6.49133 5.93420
#
# Compressibility (1/GPa) = 0.03409618
#
# Stress axis : x y z
#
# Youngs Moduli (GPa) = 59.94408 56.64910 59.96880
#
# Poissons Ratio (x) = 0.06911 0.36941
# Poissons Ratio (y) = 0.07313 0.06459
# Poissons Ratio (z) = 0.36925 0.06101
#
# Static dielectric constant tensor:
#      x y z
#    x 4.196450 0.204470 -0.128930 
#    y 0.204470 4.050800 0.073670 
#    z -0.128930 0.073670 4.190280 
# 
# 
# High freq. dielectric constant tensor:
#      x y z
#    x 1.919630 0.008420 -0.006570 
#    y 0.008420 1.925110 -0.000610 
#    z -0.006570 -0.000610 1.918820 
# 
# From -- ./inp_files/333087.got.cif
#   From: 2010.06.25/outbox.cif.g09.slc.cpg/sg2_167_cif.got.tgz:333087.got - 2010.06.27 13:26:56.
