data_PCOD8004746
_publ_section_title
;
Structure prediction by ZEFSAII (Michael W. Deem and Ramdas Pophale) SiO2 
 PCOD8004746
Probable space group: P -1
;
_chemical_formula_sum "Si O2"
_cell_formula_units_Z 14
_cell_length_a 9.318504
_cell_length_b 14.950238
_cell_length_c 12.384976
_cell_angle_alpha 133.922116
_cell_angle_beta 37.515419
_cell_angle_gamma 114.001287
_cell_volume 715.195503
_symmetry_space_group_name_H-M "P -1"
_symmetry_group_IT_number 2
_symmetry_cell_setting 'triclinic'
loop_
_space_group_symop_operation_xyz
x,y,z
-x,-y,-z
loop_
_atom_site_type_symbol
_atom_site_label
_atom_site_fract_x
_atom_site_fract_y
_atom_site_fract_z
Si Si1 0.072678 0.123811 0.151009
Si Si2 0.765321 0.951074 0.238451
Si Si3 0.853984 0.683890 0.063567
Si Si4 0.297609 0.319935 0.244274
Si Si5 0.593250 0.349661 0.612541
Si Si6 0.618879 0.437832 0.265579
Si Si7 0.208230 0.472586 0.225591
O O1 0.854211 0.246572 0.331552
O O2 0.235643 0.184484 0.183553
O O3 0.947400 0.037197 0.227329
O O4 0.248522 0.045076 0.881846
O O5 0.904717 0.802327 0.068984
O O6 0.500000 0.000000 0.500000
O O7 0.593542 0.734563 0.327172
O O8 0.799488 0.572313 0.929608
O O9 0.083192 0.616437 0.949547
O O10 0.530280 0.315061 0.178136
O O11 0.336982 0.340754 0.110304
O O12 0.082058 0.455442 0.515293
O O13 0.469759 0.452229 0.679821
O O14 0.641958 0.424483 0.755126
O O15 0.500000 0.500000 0.500000
#
# Coordination Sequence:
#
# PCOD8004746 Si02
#       7
#     2   2   2   2   2   2   2
#     4  10  20  38  62  83 113 149 194 240 281 323
#     4  11  22  37  59  88 109 149 199 243 273 326
#     4  12  20  35  55  88 119 146 191 234 287 342
#     4   9  17  34  55  84 114 148 188 228 285 345
#     4  10  21  35  57  88 116 146 185 237 293 348
#     4  11  21  34  55  85 122 152 180 226 297 351
#     4   9  17  31  56  84 112 144 186 235 287 339
#
# _framework density 19.575067000000001
#
# number of rings (size 3 to 8) (size 9 to 14) (size 15 to 20)
#    0.000    1.714    4.286    2.571    0.000    0.000 
#    0.000    0.714    0.000    0.857    0.000    0.000 
#    0.000    0.000    0.000    0.000    0.000    0.000 
#
# Total GULP energy -173441.782958 kJ/mol
# GULP energy per Si atom -12388.698783 kJ/mol
# Density = 1.953051 g / cm^3
# Si number density = 19.575067 Si / 1000 Ang^3
#
#
#
# Elastic Constant Matrix: (Units=GPa)
#
#
# Indices 1 2 3 4 5 6 
#
# 1 123.5429 39.9947 31.7577 -8.0109 -2.4293 21.8839
# 2 39.9947 111.2530 20.9436 -7.8512 2.5279 24.9250
# 3 31.7577 20.9436 67.7277 -10.6456 -0.5377 12.6808
# 4 -8.0109 -7.8512 -10.6456 26.1129 5.6992 -5.4205
# 5 -2.4293 2.5279 -0.5377 5.6992 21.2241 2.5099
# 6 21.8839 24.9250 12.6808 -5.4205 2.5099 27.1749
#
#
#
# Elastic Compliance Matrix: (Units=1/GPa)
#
#
# Indices 1 2 3 4 5 6 
#
# 1 0.010588 -0.002047 -0.003364 -0.000300 0.002081 -0.005331
# 2 -0.002047 0.011912 -0.000977 0.000986 -0.000933 -0.008538
# 3 -0.003364 -0.000977 0.018198 0.005508 -0.000848 -0.003709
# 4 -0.000300 0.000986 0.005508 0.045005 -0.012917 0.006936
# 5 0.002081 -0.000933 -0.000848 -0.012917 0.051834 -0.007788
# 6 -0.005331 -0.008538 -0.003709 0.006936 -0.007788 0.052757
#
#
# Mechanical properties :
#
#
# Convention : Reuss Voigt Hill
#
# Bulk Modulus (GPa) = 35.81539 54.21284 45.01411
# Shear Modulus (GPa) = 23.54304 28.89090 26.21697
#
# Velocity S-wave (km/s) = 3.47177 3.84592 3.66362
# Velocity P-wave (km/s) = 5.86575 6.89031 6.39857
#
# Compressibility (1/GPa) = 0.02792096
#
# Stress axis : x y z
#
# Youngs Moduli (GPa) = 94.45054 83.94780 54.95043
#
# Poissons Ratio (x) = 0.17184 0.18485
# Poissons Ratio (y) = 0.19334 0.05371
# Poissons Ratio (z) = 0.31773 0.08206
#
# Static dielectric constant tensor:
#      x y z
#    x 3.651770 0.294900 -0.001480 
#    y 0.294900 3.762130 -0.113800 
#    z -0.001480 -0.113800 3.477740 
# 
# 
# High freq. dielectric constant tensor:
#      x y z
#    x 1.740990 0.029170 0.004590 
#    y 0.029170 1.765050 -0.012380 
#    z 0.004590 -0.012380 1.748600 
# 
# From -- ./inp_files/178979.got.cif
#   From: 2010.06.25/outbox.cif.g09.slc.cpg/sg2_90_cif.got.tgz:178979.got - 2010.06.27 13:26:56.
