data_PCOD8004022
_publ_section_title
;
Structure prediction by ZEFSAII (Michael W. Deem and Ramdas Pophale) SiO2 
 PCOD8004022
Probable space group: P -1
;
_chemical_formula_sum "Si O2"
_cell_formula_units_Z 16
_cell_length_a 9.450384
_cell_length_b 12.077193
_cell_length_c 12.107481
_cell_angle_alpha 81.128404
_cell_angle_beta 113.134206
_cell_angle_gamma 49.226644
_cell_volume 777.073870
_symmetry_space_group_name_H-M "P -1"
_symmetry_group_IT_number 2
_symmetry_cell_setting 'triclinic'
loop_
_space_group_symop_operation_xyz
x,y,z
-x,-y,-z
loop_
_atom_site_type_symbol
_atom_site_label
_atom_site_fract_x
_atom_site_fract_y
_atom_site_fract_z
Si Si1 0.298869 0.035838 0.225225
Si Si2 0.826805 0.016057 0.011280
Si Si3 0.767015 0.383137 0.736489
Si Si4 0.721229 0.964091 0.379084
Si Si5 0.371844 0.798589 0.854371
Si Si6 0.160415 0.957639 0.391060
Si Si7 0.118331 0.553762 0.027328
Si Si8 0.239938 0.652191 0.498861
O O1 0.254022 0.961301 0.307635
O O2 0.543500 0.961613 0.350096
O O3 0.343676 0.956830 0.129968
O O4 0.060743 0.253918 0.115068
O O5 0.014100 0.831327 0.163845
O O6 0.653495 0.174776 0.024718
O O7 0.000000 0.000000 0.000000
O O8 0.829643 0.448271 0.828195
O O9 0.496295 0.485285 0.670854
O O10 0.753028 0.429771 0.596673
O O11 0.715314 0.053576 0.464720
O O12 0.000950 0.756929 0.482111
O O13 0.620887 0.083390 0.220029
O O14 0.626600 0.587692 0.941801
O O15 0.140243 0.861493 0.723134
O O16 0.237252 0.784451 0.441766
O O17 0.000000 0.500000 0.000000
#
# Coordination Sequence:
#
# PCOD8004022 Si02
#       8
#     2   2   2   2   2   2   2   2
#     4  11  24  38  63  88 125 164 195 250 310 355
#     4  11  21  42  64  89 124 156 203 253 299 362
#     4  10  20  37  63  89 116 157 203 245 297 358
#     4  11  21  37  60  92 118 157 205 245 301 362
#     4  11  21  40  65  88 117 165 202 247 304 354
#     4  11  21  39  62  88 121 160 200 252 302 352
#     4  11  23  38  57  93 127 154 199 253 301 356
#     4  10  20  37  64  89 114 157 209 249 287 362
#
# _framework density 20.590060999999999
#
# number of rings (size 3 to 8) (size 9 to 14) (size 15 to 20)
#    0.000    1.250    5.000    3.375    0.000    2.000 
#    2.250    0.000    0.000    3.750    0.000    0.000 
#    0.000    0.000    0.000    0.000    0.000    0.000 
#
# Total GULP energy -198379.237638 kJ/mol
# GULP energy per Si atom -12398.702352 kJ/mol
# Density = 2.054320 g / cm^3
# Si number density = 20.590061 Si / 1000 Ang^3
#
#
#
# Elastic Constant Matrix: (Units=GPa)
#
#
# Indices 1 2 3 4 5 6 
#
# 1 74.8831 13.4176 29.1213 3.3846 13.2647 0.3693
# 2 13.4176 94.5424 40.1863 17.5411 11.2386 -11.3257
# 3 29.1213 40.1863 86.1313 21.8442 18.1478 -6.7239
# 4 3.3846 17.5411 21.8442 30.2452 -3.0928 7.0240
# 5 13.2647 11.2386 18.1478 -3.0928 33.3596 2.2865
# 6 0.3693 -11.3257 -6.7239 7.0240 2.2865 20.4496
#
#
#
# Elastic Compliance Matrix: (Units=1/GPa)
#
#
# Indices 1 2 3 4 5 6 
#
# 1 0.015978 -0.000507 -0.005634 0.003045 -0.002618 -0.003175
# 2 -0.000507 0.015816 -0.002228 -0.010992 -0.005788 0.012459
# 3 -0.005634 -0.002228 0.023302 -0.019590 -0.012506 0.014656
# 4 0.003045 -0.010992 -0.019590 0.064050 0.021623 -0.037001
# 5 -0.002618 -0.005788 -0.012506 0.021623 0.043113 -0.019518
# 6 -0.003175 0.012459 0.014656 -0.037001 -0.019518 0.075569
#
#
# Mechanical properties :
#
#
# Convention : Reuss Voigt Hill
#
# Bulk Modulus (GPa) = 26.07046 46.77857 36.42452
# Shear Modulus (GPa) = 18.70192 28.33299 23.51746
#
# Velocity S-wave (km/s) = 3.01707 3.71354 3.38327
# Velocity P-wave (km/s) = 4.98258 6.41526 5.74376
#
# Compressibility (1/GPa) = 0.03835759
#
# Stress axis : x y z
#
# Youngs Moduli (GPa) = 62.58692 63.22608 42.91448
#
# Poissons Ratio (x) = 0.03204 0.24179
# Poissons Ratio (y) = 0.03172 0.09562
# Poissons Ratio (z) = 0.35263 0.14088
#
# Static dielectric constant tensor:
#      x y z
#    x 3.474150 -0.178970 0.212630 
#    y -0.178970 3.771850 0.078100 
#    z 0.212630 0.078100 3.919310 
# 
# 
# High freq. dielectric constant tensor:
#      x y z
#    x 1.778500 -0.012900 0.013790 
#    y -0.012900 1.809060 0.011330 
#    z 0.013790 0.011330 1.814920 
# 
# From -- ./inp_files/274715.got.cif
#   From: 2010.06.25/outbox.cif.g09.slc.cpg/sg2_138_cif.got.tgz:274715.got - 2010.06.27 13:26:56.
