data_PCOD8004885
_publ_section_title
;
Structure prediction by ZEFSAII (Michael W. Deem and Ramdas Pophale) SiO2 
 PCOD8004885
Probable space group: P -1
;
_chemical_formula_sum "Si O2"
_cell_formula_units_Z 16
_cell_length_a 24.478760
_cell_length_b 9.473775
_cell_length_c 7.871286
_cell_angle_alpha 118.986752
_cell_angle_beta 94.362995
_cell_angle_gamma 135.705789
_cell_volume 804.576750
_symmetry_space_group_name_H-M "P -1"
_symmetry_group_IT_number 2
_symmetry_cell_setting 'triclinic'
loop_
_space_group_symop_operation_xyz
x,y,z
-x,-y,-z
loop_
_atom_site_type_symbol
_atom_site_label
_atom_site_fract_x
_atom_site_fract_y
_atom_site_fract_z
Si Si1 0.117957 0.271018 0.492098
Si Si2 0.254225 0.505859 0.352987
Si Si3 0.412277 0.722509 0.957318
Si Si4 0.445748 0.138789 0.333440
Si Si5 0.753435 0.166714 0.960897
Si Si6 0.124793 0.280007 0.876387
Si Si7 0.535396 0.768740 0.216452
Si Si8 0.323584 0.362304 0.425102
O O1 0.174756 0.312091 0.383188
O O2 0.119995 0.186795 0.630308
O O3 0.180743 0.602919 0.723416
O O4 0.995400 0.991444 0.241535
O O5 0.313835 0.483848 0.359766
O O6 0.341570 0.872809 0.599405
O O7 0.186816 0.331712 0.060687
O O8 0.309070 0.392951 0.632798
O O9 0.453115 0.687299 0.069971
O O10 0.500000 0.000000 0.000000
O O11 0.380644 0.801832 0.104353
O O12 0.475467 0.247929 0.596099
O O13 0.557326 0.415292 0.418560
O O14 0.371460 0.090119 0.207075
O O15 0.761974 0.995037 0.849520
O O16 0.808503 0.382045 0.929389
O O17 0.500000 0.500000 0.000000
#
# Coordination Sequence:
#
# PCOD8004885 Si02
#       8
#     2   2   2   2   2   2   2   2
#     4   9  21  41  69  85 114 157 207 253 305 357
#     4  12  22  40  61  90 123 160 197 249 310 351
#     4  10  21  36  54  78 123 156 196 235 291 349
#     4  11  21  38  58  82 126 163 199 239 293 361
#     4  10  20  38  63  85 118 158 204 244 303 354
#     4   9  21  41  68  87 112 154 214 248 303 362
#     4  12  24  35  55  88 120 159 206 242 286 364
#     4  11  24  36  57  93 123 160 197 243 298 369
#
# _framework density 19.886233000000001
#
# number of rings (size 3 to 8) (size 9 to 14) (size 15 to 20)
#    0.750    0.750    3.750    2.625    3.500    0.000 
#    0.000    1.250    0.000    0.000    0.000    0.000 
#    0.000    0.000    0.000    0.000    0.000    0.000 
#
# Total GULP energy -198248.548629 kJ/mol
# GULP energy per Si atom -12390.534289 kJ/mol
# Density = 1.984097 g / cm^3
# Si number density = 19.886233 Si / 1000 Ang^3
#
#
#
# Elastic Constant Matrix: (Units=GPa)
#
#
# Indices 1 2 3 4 5 6 
#
# 1 73.7906 24.3848 49.0023 2.5882 -14.2579 -18.8740
# 2 24.3848 50.5494 22.9480 -5.6939 -1.3042 -3.9737
# 3 49.0023 22.9480 95.7655 -6.9428 -1.1299 -12.0392
# 4 2.5882 -5.6939 -6.9428 26.3661 1.5153 -3.2850
# 5 -14.2579 -1.3042 -1.1299 1.5153 38.9664 1.3064
# 6 -18.8740 -3.9737 -12.0392 -3.2850 1.3064 27.4601
#
#
#
# Elastic Compliance Matrix: (Units=1/GPa)
#
#
# Indices 1 2 3 4 5 6 
#
# 1 0.029714 -0.008418 -0.011978 -0.006892 0.010087 0.012649
# 2 -0.008418 0.024963 -0.001549 0.005694 -0.002442 -0.002055
# 3 -0.011978 -0.001549 0.017302 0.005636 -0.004152 0.000001
# 4 -0.006892 0.005694 0.005636 0.042013 -0.003928 0.003770
# 5 0.010087 -0.002442 -0.004152 -0.003928 0.029208 0.002900
# 6 0.012649 -0.002055 0.000001 0.003770 0.002900 0.045126
#
#
# Mechanical properties :
#
#
# Convention : Reuss Voigt Hill
#
# Bulk Modulus (GPa) = 35.59985 45.86398 40.73192
# Shear Modulus (GPa) = 20.69717 26.80988 23.75352
#
# Velocity S-wave (km/s) = 3.22961 3.67572 3.45986
# Velocity P-wave (km/s) = 5.64339 6.41309 6.04051
#
# Compressibility (1/GPa) = 0.02809000
#
# Stress axis : x y z
#
# Youngs Moduli (GPa) = 33.65425 40.05867 57.79735
#
# Poissons Ratio (x) = 0.33722 0.69227
# Poissons Ratio (y) = 0.28331 0.08952
# Poissons Ratio (z) = 0.40310 0.06204
#
# Static dielectric constant tensor:
#      x y z
#    x 3.689280 0.032760 -0.247750 
#    y 0.032760 3.447640 -0.088540 
#    z -0.247750 -0.088540 3.979710 
# 
# 
# High freq. dielectric constant tensor:
#      x y z
#    x 1.756710 0.000340 -0.001990 
#    y 0.000340 1.756910 -0.012700 
#    z -0.001990 -0.012700 1.780490 
# 
# From -- ./inp_files/352343.got.cif
#   From: 2010.06.25/outbox.cif.g09.slc.cpg/sg2_177_cif.got.tgz:352343.got - 2010.06.27 13:26:56.
