data_PCOD8004450
_publ_section_title
;
Structure prediction by ZEFSAII (Michael W. Deem and Ramdas Pophale) SiO2 
 PCOD8004450
Probable space group: P -1
;
_chemical_formula_sum "Si O2"
_cell_formula_units_Z 10
_cell_length_a 16.600508
_cell_length_b 6.611260
_cell_length_c 6.380770
_cell_angle_alpha 72.657991
_cell_angle_beta 119.478169
_cell_angle_gamma 75.041589
_cell_volume 508.206238
_symmetry_space_group_name_H-M "P -1"
_symmetry_group_IT_number 2
_symmetry_cell_setting 'triclinic'
loop_
_space_group_symop_operation_xyz
x,y,z
-x,-y,-z
loop_
_atom_site_type_symbol
_atom_site_label
_atom_site_fract_x
_atom_site_fract_y
_atom_site_fract_z
Si Si1 0.753779 0.478253 0.650858
Si Si2 0.878929 0.106857 0.256686
Si Si3 0.691982 0.324695 0.232667
Si Si4 0.750751 0.861932 0.235249
Si Si5 0.386775 0.222995 0.244227
O O1 0.697091 0.355711 0.479097
O O2 0.793711 0.619277 0.503600
O O3 0.667253 0.668846 0.637172
O O4 0.854114 0.262401 0.962947
O O5 0.804087 0.286547 0.288417
O O6 0.850118 0.888036 0.265347
O O7 0.000000 0.000000 0.500000
O O8 0.600166 0.572828 0.934768
O O9 0.677488 0.095020 0.220627
O O10 0.681605 0.867301 0.948660
O O11 0.500000 0.000000 0.500000
#
# Coordination Sequence:
#
# PCOD8004450 Si02
#       5
#     2   2   2   2   2
#     4  10  20  38  59  79 120 145 183 242 268 329
#     4   9  20  38  59  84 114 146 189 230 273 336
#     4   8  20  38  53  87 113 142 193 224 271 340
#     4   9  21  37  58  84 113 150 187 222 288 328
#     4  10  21  38  59  84 113 148 189 231 279 335
#
# _framework density 19.677050000000001
#
# number of rings (size 3 to 8) (size 9 to 14) (size 15 to 20)
#    1.200    1.600    0.000    0.000    2.800    5.600 
#    0.000   11.000    0.000    0.000    0.000    0.000 
#    0.000    0.000    0.000    0.000    0.000    0.000 
#
# Total GULP energy -123896.499856 kJ/mol
# GULP energy per Si atom -12389.649986 kJ/mol
# Density = 1.963226 g / cm^3
# Si number density = 19.677050 Si / 1000 Ang^3
#
#
#
# Elastic Constant Matrix: (Units=GPa)
#
#
# Indices 1 2 3 4 5 6 
#
# 1 39.6883 7.6826 37.0270 3.8915 -4.9904 6.3478
# 2 7.6826 96.9316 35.2841 26.7203 -13.3061 3.4191
# 3 37.0270 35.2841 137.7915 1.8036 -11.2597 -5.9987
# 4 3.8915 26.7203 1.8036 42.1872 0.5200 -2.6030
# 5 -4.9904 -13.3061 -11.2597 0.5200 20.5726 -4.1669
# 6 6.3478 3.4191 -5.9987 -2.6030 -4.1669 29.2823
#
#
#
# Elastic Compliance Matrix: (Units=1/GPa)
#
#
# Indices 1 2 3 4 5 6 
#
# 1 0.037667 0.003556 -0.011164 -0.005964 0.003263 -0.010933
# 2 0.003556 0.015722 -0.004310 -0.010403 0.008280 -0.003236
# 3 -0.011164 -0.004310 0.011739 0.003599 0.002041 0.005938
# 4 -0.005964 -0.010403 0.003599 0.031081 -0.005946 0.005162
# 5 0.003263 0.008280 0.002041 -0.005946 0.057314 0.006371
# 6 -0.010933 -0.003236 0.005938 0.005162 0.006371 0.039480
#
#
# Mechanical properties :
#
#
# Convention : Reuss Voigt Hill
#
# Bulk Modulus (GPa) = 24.21685 48.26655 36.24170
# Shear Modulus (GPa) = 21.68242 31.36960 26.52601
#
# Velocity S-wave (km/s) = 3.32311 3.99710 3.67559
# Velocity P-wave (km/s) = 5.20173 6.77385 6.03916
#
# Compressibility (1/GPa) = 0.04129355
#
# Stress axis : x y z
#
# Youngs Moduli (GPa) = 26.54856 63.60484 85.18627
#
# Poissons Ratio (x) = -0.22618 0.95098
# Poissons Ratio (y) = -0.09441 0.36712
# Poissons Ratio (z) = 0.29638 0.27411
#
# Static dielectric constant tensor:
#      x y z
#    x 3.117850 0.107530 -0.252250 
#    y 0.107530 3.835900 0.027430 
#    z -0.252250 0.027430 3.576350 
# 
# 
# High freq. dielectric constant tensor:
#      x y z
#    x 1.721070 0.006350 -0.020880 
#    y 0.006350 1.781690 0.001450 
#    z -0.020880 0.001450 1.774550 
# 
# From -- ./inp_files/101927.got.cif
#   From: 2010.06.25/outbox.cif.g09.slc.cpg/sg2_51_cif.got.tgz:101927.got - 2010.06.27 13:26:56.
