data_PCOD8004456
_publ_section_title
;
Structure prediction by ZEFSAII (Michael W. Deem and Ramdas Pophale) SiO2 
 PCOD8004456
Probable space group: P -1
;
_chemical_formula_sum "Si O2"
_cell_formula_units_Z 12
_cell_length_a 13.617436
_cell_length_b 9.344100
_cell_length_c 5.158422
_cell_angle_alpha 73.978178
_cell_angle_beta 100.915760
_cell_angle_gamma 77.648101
_cell_volume 594.312453
_symmetry_space_group_name_H-M "P -1"
_symmetry_group_IT_number 2
_symmetry_cell_setting 'triclinic'
loop_
_space_group_symop_operation_xyz
x,y,z
-x,-y,-z
loop_
_atom_site_type_symbol
_atom_site_label
_atom_site_fract_x
_atom_site_fract_y
_atom_site_fract_z
Si Si1 0.262352 0.070832 0.930118
Si Si2 0.888709 0.080571 0.288428
Si Si3 0.762368 0.570748 0.261420
Si Si4 0.810985 0.395510 0.861926
Si Si5 0.388713 0.580618 0.519692
Si Si6 0.310983 0.895576 0.553471
O O1 0.250003 0.250040 0.797402
O O2 0.148653 0.040588 0.852855
O O3 0.339833 0.973047 0.792780
O O4 0.309170 0.016082 0.261057
O O5 0.893903 0.231213 0.049686
O O6 0.803253 0.135719 0.450810
O O7 0.000000 0.000000 0.500000
O O8 0.809211 0.515996 0.032067
O O9 0.648672 0.540483 0.255189
O O10 0.839843 0.472976 0.574012
O O11 0.696732 0.364278 0.783270
O O12 0.500000 0.500000 0.500000
O O13 0.393920 0.731303 0.612860
#
# Coordination Sequence:
#
# PCOD8004456 Si02
#       6
#     2   2   2   2   2   2
#     4  10  20  38  59  82 120 152 186 242 291 330
#     4  10  21  39  63  85 114 156 196 234 287 345
#     4  10  20  38  59  82 120 152 186 242 291 330
#     4  10  20  39  58  83 117 147 196 238 279 343
#     4  10  21  39  63  85 114 156 196 234 287 345
#     4  10  20  39  58  83 117 147 196 238 279 343
#
# _framework density 20.191398
#
# number of rings (size 3 to 8) (size 9 to 14) (size 15 to 20)
#    2.000    0.000    3.333    1.000    0.000    1.333 
#    0.000    3.333    0.000    0.000    0.000    0.000 
#    0.000    0.000    0.000    0.000    0.000    0.000 
#
# Total GULP energy -148679.119512 kJ/mol
# GULP energy per Si atom -12389.926626 kJ/mol
# Density = 2.014544 g / cm^3
# Si number density = 20.191398 Si / 1000 Ang^3
#
#
#
# Elastic Constant Matrix: (Units=GPa)
#
#
# Indices 1 2 3 4 5 6 
#
# 1 25.0754 4.7594 0.0748 -6.1973 3.4432 -10.8611
# 2 4.7594 130.2085 27.8756 -8.8284 -5.5363 10.6385
# 3 0.0748 27.8756 102.3445 5.2126 -17.7098 -1.2697
# 4 -6.1973 -8.8284 5.2126 37.8824 0.3865 -3.8226
# 5 3.4432 -5.5363 -17.7098 0.3865 19.9059 -6.2470
# 6 -10.8611 10.6385 -1.2697 -3.8226 -6.2470 25.4871
#
#
#
# Elastic Compliance Matrix: (Units=1/GPa)
#
#
# Indices 1 2 3 4 5 6 
#
# 1 0.054715 -0.003549 0.000310 0.010714 -0.002267 0.025864
# 2 -0.003549 0.008883 -0.002739 0.001330 -0.001079 -0.005422
# 3 0.000310 -0.002739 0.012751 -0.002005 0.011996 0.004550
# 4 0.010714 0.001330 -0.002005 0.029559 -0.001325 0.008019
# 5 -0.002267 -0.001079 0.011996 -0.001325 0.066072 0.016078
# 6 0.025864 -0.005422 0.004550 0.008019 0.016078 0.057891
#
#
# Mechanical properties :
#
#
# Convention : Reuss Voigt Hill
#
# Bulk Modulus (GPa) = 15.52987 35.89422 25.71205
# Shear Modulus (GPa) = 18.99034 31.64964 25.31999
#
# Velocity S-wave (km/s) = 3.07011 3.96344 3.54503
# Velocity P-wave (km/s) = 4.50283 6.22581 5.43305
#
# Compressibility (1/GPa) = 0.06439204
#
# Stress axis : x y z
#
# Youngs Moduli (GPa) = 18.27661 112.57005 78.42537
#
# Poissons Ratio (x) = 0.39956 -0.02428
# Poissons Ratio (y) = 0.06487 0.21479
# Poissons Ratio (z) = -0.00566 0.30830
#
# Static dielectric constant tensor:
#      x y z
#    x 3.051660 0.029000 -0.158190 
#    y 0.029000 3.546630 0.082010 
#    z -0.158190 0.082010 3.743310 
# 
# 
# High freq. dielectric constant tensor:
#      x y z
#    x 1.722580 -0.001350 -0.015470 
#    y -0.001350 1.798330 0.000850 
#    z -0.015470 0.000850 1.798680 
# 
# From -- ./inp_files/86355.got.cif
#   From: 2010.06.25/outbox.cif.g09.slc.cpg/sg2_44_cif.got.tgz:86355.got - 2010.06.27 13:26:56.
