data_PCOD8004503
_publ_section_title
;
Structure prediction by ZEFSAII (Michael W. Deem and Ramdas Pophale) SiO2 
 PCOD8004503
Probable space group: P -1
;
_chemical_formula_sum "Si O2"
_cell_formula_units_Z 16
_cell_length_a 7.793433
_cell_length_b 16.805864
_cell_length_c 9.364583
_cell_angle_alpha 116.184613
_cell_angle_beta 81.256406
_cell_angle_gamma 56.475986
_cell_volume 778.691486
_symmetry_space_group_name_H-M "P -1"
_symmetry_group_IT_number 2
_symmetry_cell_setting 'triclinic'
loop_
_space_group_symop_operation_xyz
x,y,z
-x,-y,-z
loop_
_atom_site_type_symbol
_atom_site_label
_atom_site_fract_x
_atom_site_fract_y
_atom_site_fract_z
Si Si1 0.710218 0.213134 0.720576
Si Si2 0.718946 0.026115 0.882825
Si Si3 0.576346 0.702550 0.895637
Si Si4 0.132561 0.986613 0.637395
Si Si5 0.970723 0.356915 0.158476
Si Si6 0.264568 0.079811 0.915646
Si Si7 0.689507 0.487431 0.559713
Si Si8 0.480640 0.549349 0.195249
O O1 0.642345 0.311509 0.692726
O O2 0.993279 0.104777 0.643374
O O3 0.662883 0.137502 0.581041
O O4 0.573055 0.281633 0.939457
O O5 0.527329 0.031901 0.827351
O O6 0.946840 0.978940 0.723340
O O7 0.565905 0.167394 0.062860
O O8 0.802768 0.938109 0.936750
O O9 0.815907 0.650566 0.907398
O O10 0.614761 0.616063 0.698518
O O11 0.269235 0.995080 0.743188
O O12 0.931547 0.392809 0.361140
O O13 0.743260 0.459316 0.166887
O O14 0.050630 0.226338 0.023587
O O15 0.500000 0.500000 0.500000
O O16 0.710617 0.436845 0.673550
O O17 0.500000 0.500000 0.000000
#
# Coordination Sequence:
#
# PCOD8004503 Si02
#       8
#     2   2   2   2   2   2   2   2
#     4  10  22  38  60  88 117 155 205 234 299 364
#     4   9  21  36  62  88 118 155 197 251 294 360
#     4  10  20  42  59  83 124 150 198 252 295 352
#     4  10  21  39  62  85 119 160 193 250 297 351
#     4  10  23  37  62  88 118 161 194 246 300 352
#     4  10  20  38  59  90 121 150 202 242 304 351
#     4  10  22  36  60  86 115 154 198 240 296 353
#     4  11  21  39  59  87 121 157 198 246 289 358
#
# _framework density 20.54729
#
# number of rings (size 3 to 8) (size 9 to 14) (size 15 to 20)
#    0.000    2.000    1.250    1.500    7.000    2.500 
#    0.000   12.500    0.000    0.000    0.000    0.000 
#    0.000    0.000    0.000    0.000    0.000    0.000 
#
# Total GULP energy -198210.424304 kJ/mol
# GULP energy per Si atom -12388.151519 kJ/mol
# Density = 2.050052 g / cm^3
# Si number density = 20.547290 Si / 1000 Ang^3
#
#
#
# Elastic Constant Matrix: (Units=GPa)
#
#
# Indices 1 2 3 4 5 6 
#
# 1 68.4764 25.2026 18.4772 1.4891 23.7867 4.3781
# 2 25.2026 114.4861 9.5923 2.5002 9.5251 4.1515
# 3 18.4772 9.5923 100.9290 -4.9923 27.5110 -2.9744
# 4 1.4891 2.5002 -4.9923 25.2819 -0.7839 2.1929
# 5 23.7867 9.5251 27.5110 -0.7839 21.3926 -0.2020
# 6 4.3781 4.1515 -2.9744 2.1929 -0.2020 21.1160
#
#
#
# Elastic Compliance Matrix: (Units=1/GPa)
#
#
# Indices 1 2 3 4 5 6 
#
# 1 0.026788 -0.003241 0.004570 -0.001029 -0.034300 -0.004494
# 2 -0.003241 0.009557 -0.000304 -0.000721 -0.000298 -0.001178
# 3 0.004570 -0.000304 0.016254 0.002090 -0.025763 0.000938
# 4 -0.001029 -0.000721 0.002090 0.040413 0.000224 -0.003545
# 5 -0.034300 -0.000298 -0.025763 0.000224 0.118200 0.004649
# 6 -0.004494 -0.001178 0.000938 -0.003545 0.004649 0.049066
#
#
# Mechanical properties :
#
#
# Convention : Reuss Voigt Hill
#
# Bulk Modulus (GPa) = 18.29874 43.38173 30.84024
# Shear Modulus (GPa) = 18.08696 28.93272 23.50984
#
# Velocity S-wave (km/s) = 2.97014 3.75654 3.38625
# Velocity P-wave (km/s) = 4.54833 6.32253 5.50735
#
# Compressibility (1/GPa) = 0.05464857
#
# Stress axis : x y z
#
# Youngs Moduli (GPa) = 37.33069 104.63700 61.52453
#
# Poissons Ratio (x) = 0.33910 -0.28117
# Poissons Ratio (y) = 0.12098 0.01871
# Poissons Ratio (z) = -0.17060 0.03182
#
# Static dielectric constant tensor:
#      x y z
#    x 3.816780 0.260430 -0.221430 
#    y 0.260430 3.898600 -0.025370 
#    z -0.221430 -0.025370 4.406060 
# 
# 
# High freq. dielectric constant tensor:
#      x y z
#    x 1.791070 0.010220 0.010500 
#    y 0.010220 1.800820 0.002610 
#    z 0.010500 0.002610 1.812020 
# 
# From -- ./inp_files/208737.got.cif
#   From: 2010.06.25/outbox.cif.g09.slc.cpg/sg2_105_cif.got.tgz:208737.got - 2010.06.27 13:26:56.
