data_PCOD8004201
_publ_section_title
;
Structure prediction by ZEFSAII (Michael W. Deem and Ramdas Pophale) SiO2 
 PCOD8004201
Probable space group: P -1
;
_chemical_formula_sum "Si O2"
_cell_formula_units_Z 16
_cell_length_a 14.707830
_cell_length_b 9.118472
_cell_length_c 11.933942
_cell_angle_alpha 111.336401
_cell_angle_beta 90.918503
_cell_angle_gamma 36.688311
_cell_volume 773.679956
_symmetry_space_group_name_H-M "P -1"
_symmetry_group_IT_number 2
_symmetry_cell_setting 'triclinic'
loop_
_space_group_symop_operation_xyz
x,y,z
-x,-y,-z
loop_
_atom_site_type_symbol
_atom_site_label
_atom_site_fract_x
_atom_site_fract_y
_atom_site_fract_z
Si Si1 0.927011 0.315700 0.283807
Si Si2 0.090102 0.292307 0.112430
Si Si3 0.672210 0.442962 0.367351
Si Si4 0.372994 0.057630 0.458621
Si Si5 0.380505 0.417114 0.343940
Si Si6 0.237073 0.040650 0.806040
Si Si7 0.925172 0.962154 0.556472
Si Si8 0.222832 0.335199 0.298636
O O1 0.797826 0.360391 0.264813
O O2 0.817719 0.635094 0.404718
O O3 0.041605 0.200156 0.147758
O O4 0.049173 0.072422 0.318967
O O5 0.216794 0.211133 0.169307
O O6 0.918531 0.643531 0.173319
O O7 0.200472 0.079449 0.947526
O O8 0.680017 0.516439 0.509422
O O9 0.469934 0.748691 0.404418
O O10 0.738082 0.168361 0.303885
O O11 0.350077 0.091891 0.333865
O O12 0.500000 0.000000 0.500000
O O13 0.310284 0.366934 0.261870
O O14 0.285501 0.716138 0.377327
O O15 0.588050 0.118395 0.254255
O O16 0.021749 0.664214 0.427081
O O17 0.000000 0.000000 0.500000
#
# Coordination Sequence:
#
# PCOD8004201 Si02
#       8
#     2   2   2   2   2   2   2   2
#     4  10  20  37  65  91 130 156 205 253 319 370
#     4  11  26  44  59  89 126 176 212 247 303 381
#     4  11  20  38  66  95 121 159 206 264 317 364
#     4   9  17  34  60 100 122 149 197 262 318 364
#     4  11  20  38  66  95 121 159 206 264 317 364
#     4  11  27  43  61  86 130 172 214 249 306 375
#     4   9  17  34  60 100 122 149 197 262 318 364
#     4  10  20  37  65  91 130 156 205 253 319 370
#
# _framework density 20.680385000000001
#
# number of rings (size 3 to 8) (size 9 to 14) (size 15 to 20)
#    0.000    1.750    5.000    1.875    3.500    5.000 
#    0.000    2.500    0.000    0.000    0.000    0.000 
#    0.000    0.000    0.000    0.000    0.000    0.000 
#
# Total GULP energy -198270.333699 kJ/mol
# GULP energy per Si atom -12391.895856 kJ/mol
# Density = 2.063332 g / cm^3
# Si number density = 20.680385 Si / 1000 Ang^3
#
#
#
# Elastic Constant Matrix: (Units=GPa)
#
#
# Indices 1 2 3 4 5 6 
#
# 1 68.7184 11.3528 14.0507 -2.5789 -18.5963 -4.8118
# 2 11.3528 106.9565 22.8769 -11.6249 3.9818 -3.8565
# 3 14.0507 22.8769 56.9990 -14.3555 -15.4759 -4.7795
# 4 -2.5789 -11.6249 -14.3555 31.3810 3.5618 -0.3491
# 5 -18.5963 3.9818 -15.4759 3.5618 16.6716 -7.3550
# 6 -4.8118 -3.8565 -4.7795 -0.3491 -7.3550 28.9273
#
#
#
# Elastic Compliance Matrix: (Units=1/GPa)
#
#
# Indices 1 2 3 4 5 6 
#
# 1 0.029265 -0.006993 0.011704 -0.000740 0.053976 0.019584
# 2 -0.006993 0.013126 -0.010044 0.002326 -0.023898 -0.007121
# 3 0.011704 -0.010044 0.038867 0.008511 0.059540 0.022271
# 4 -0.000740 0.002326 0.008511 0.036634 -0.000461 0.001918
# 5 0.053976 -0.023898 0.059540 -0.000461 0.211931 0.069509
# 6 0.019584 -0.007121 0.022271 0.001918 0.069509 0.058254
#
#
# Mechanical properties :
#
#
# Convention : Reuss Voigt Hill
#
# Bulk Modulus (GPa) = 14.16621 36.58163 25.37392
# Shear Modulus (GPa) = 11.84062 27.68889 19.76476
#
# Velocity S-wave (km/s) = 2.39540 3.66306 3.09483
# Velocity P-wave (km/s) = 3.80993 5.96809 5.00668
#
# Compressibility (1/GPa) = 0.07059050
#
# Stress axis : x y z
#
# Youngs Moduli (GPa) = 34.17077 76.18486 25.72864
#
# Poissons Ratio (x) = 0.53278 -0.30112
# Poissons Ratio (y) = 0.23897 0.25842
# Poissons Ratio (z) = -0.39992 0.76521
#
# Static dielectric constant tensor:
#      x y z
#    x 3.451720 -0.058320 -0.063650 
#    y -0.058320 4.374890 0.120200 
#    z -0.063650 0.120200 3.440060 
# 
# 
# High freq. dielectric constant tensor:
#      x y z
#    x 1.796170 -0.001880 -0.003230 
#    y -0.001880 1.833540 -0.004360 
#    z -0.003230 -0.004360 1.765050 
# 
# From -- ./inp_files/447843.got.cif
#   From: 2010.06.25/outbox.cif.g09.slc.cpg/sg2_224_cif.got.tgz:447843.got - 2010.06.27 13:26:56.
