data_PCOD8004208
_publ_section_title
;
Structure prediction by ZEFSAII (Michael W. Deem and Ramdas Pophale) SiO2 
 PCOD8004208
Probable space group: P -1
;
_chemical_formula_sum "Si O2"
_cell_formula_units_Z 16
_cell_length_a 9.704814
_cell_length_b 11.501522
_cell_length_c 17.885111
_cell_angle_alpha 30.053233
_cell_angle_beta 107.358852
_cell_angle_gamma 119.911656
_cell_volume 824.750919
_symmetry_space_group_name_H-M "P -1"
_symmetry_group_IT_number 2
_symmetry_cell_setting 'triclinic'
loop_
_space_group_symop_operation_xyz
x,y,z
-x,-y,-z
loop_
_atom_site_type_symbol
_atom_site_label
_atom_site_fract_x
_atom_site_fract_y
_atom_site_fract_z
Si Si1 0.056309 0.923488 0.263481
Si Si2 0.408700 0.728028 0.918939
Si Si3 0.316873 0.757044 0.624480
Si Si4 0.565701 0.754612 0.422409
Si Si5 0.874734 0.056341 0.402505
Si Si6 0.074217 0.344543 0.140215
Si Si7 0.305194 0.367042 0.959391
Si Si8 0.761406 0.363376 0.485652
O O1 0.194126 0.839228 0.352054
O O2 0.880489 0.668763 0.358389
O O3 0.021767 0.057975 0.254260
O O4 0.122925 0.131599 0.088369
O O5 0.376916 0.604571 0.899453
O O6 0.398528 0.997637 0.763590
O O7 0.274428 0.525861 0.069774
O O8 0.584002 0.775358 0.951120
O O9 0.310587 0.500999 0.806214
O O10 0.215485 0.653246 0.589334
O O11 0.500000 0.000000 0.500000
O O12 0.220656 0.858153 0.603909
O O13 0.500000 0.500000 0.500000
O O14 0.733538 0.815851 0.461269
O O15 0.426698 0.716201 0.481504
O O16 0.000000 0.000000 0.500000
O O17 0.000766 0.304660 0.233289
O O18 0.000000 0.500000 0.000000
#
# Coordination Sequence:
#
# PCOD8004208 Si02
#       8
#     2   2   2   2   2   2   2   2
#     4  10  22  40  65  96 122 172 218 273 310 384
#     4  10  20  37  65  93 119 168 218 266 313 377
#     4  12  24  41  65  94 128 169 213 264 329 389
#     4  12  23  42  67  97 131 170 214 270 326 389
#     4  12  25  41  62  99 132 167 214 266 328 381
#     4  11  21  37  63  91 124 166 218 261 315 383
#     4  10  20  38  67  91 126 161 222 267 311 384
#     4  11  23  40  65  93 129 165 221 263 326 384
#
# _framework density 19.399795999999998
#
# number of rings (size 3 to 8) (size 9 to 14) (size 15 to 20)
#    0.000    1.000    5.000    2.250    5.250    1.500 
#    0.000    0.000    0.000    1.500    0.000    0.000 
#    0.000    0.000    0.000    0.000    0.000    0.000 
#
# Total GULP energy -198379.702124 kJ/mol
# GULP energy per Si atom -12398.731383 kJ/mol
# Density = 1.935564 g / cm^3
# Si number density = 19.399796 Si / 1000 Ang^3
#
#
#
# Elastic Constant Matrix: (Units=GPa)
#
#
# Indices 1 2 3 4 5 6 
#
# 1 110.0005 41.9699 43.1079 1.7472 -11.6103 0.6371
# 2 41.9699 87.2510 51.4226 -2.4873 2.5336 -0.1052
# 3 43.1079 51.4226 136.1859 5.6363 -7.2113 1.4427
# 4 1.7472 -2.4873 5.6363 32.0713 -8.5905 4.3117
# 5 -11.6103 2.5336 -7.2113 -8.5905 38.2066 6.5951
# 6 0.6371 -0.1052 1.4427 4.3117 6.5951 33.0340
#
#
#
# Elastic Compliance Matrix: (Units=1/GPa)
#
#
# Indices 1 2 3 4 5 6 
#
# 1 0.012053 -0.004847 -0.001786 0.000470 0.003928 -0.001016
# 2 -0.004847 0.016947 -0.005113 0.001456 -0.003382 0.000856
# 3 -0.001786 -0.005113 0.009985 -0.001613 0.001403 -0.000487
# 4 0.000470 0.001456 -0.001613 0.034688 0.008608 -0.006180
# 5 0.003928 -0.003382 0.001403 0.008608 0.031082 -0.007477
# 6 -0.001016 0.000856 -0.000487 -0.006180 -0.007477 0.032615
#
#
# Mechanical properties :
#
#
# Convention : Reuss Voigt Hill
#
# Bulk Modulus (GPa) = 64.54538 67.38203 65.96370
# Shear Modulus (GPa) = 30.11561 33.79150 31.95356
#
# Velocity S-wave (km/s) = 3.94428 4.17807 4.06286
# Velocity P-wave (km/s) = 7.35436 7.62128 7.48901
#
# Compressibility (1/GPa) = 0.01549298
#
# Stress axis : x y z
#
# Youngs Moduli (GPa) = 82.96598 59.00696 100.15027
#
# Poissons Ratio (x) = 0.28603 0.17883
# Poissons Ratio (y) = 0.40217 0.51208
# Poissons Ratio (z) = 0.14815 0.30171
#
# Static dielectric constant tensor:
#      x y z
#    x 3.837360 -0.000060 -0.130790 
#    y -0.000060 3.342740 0.113660 
#    z -0.130790 0.113660 3.949590 
# 
# 
# High freq. dielectric constant tensor:
#      x y z
#    x 1.775430 0.002400 -0.008960 
#    y 0.002400 1.725540 -0.002870 
#    z -0.008960 -0.002870 1.764560 
# 
# From -- ./inp_files/277976.got.cif
#   From: 2010.06.25/outbox.cif.g09.slc.cpg/sg2_139_cif.got.tgz:277976.got - 2010.06.27 13:26:56.
