data_PCOD8004077
_publ_section_title
;
Structure prediction by ZEFSAII (Michael W. Deem and Ramdas Pophale) SiO2 
 PCOD8004077
Probable space group: P -1
;
_chemical_formula_sum "Si O2"
_cell_formula_units_Z 16
_cell_length_a 9.695706
_cell_length_b 8.605796
_cell_length_c 10.229648
_cell_angle_alpha 94.631847
_cell_angle_beta 89.219477
_cell_angle_gamma 118.663086
_cell_volume 746.202090
_symmetry_space_group_name_H-M "P -1"
_symmetry_group_IT_number 2
_symmetry_cell_setting 'triclinic'
loop_
_space_group_symop_operation_xyz
x,y,z
-x,-y,-z
loop_
_atom_site_type_symbol
_atom_site_label
_atom_site_fract_x
_atom_site_fract_y
_atom_site_fract_z
Si Si1 0.057699 0.959230 0.309866
Si Si2 0.311338 0.999191 0.119233
Si Si3 0.171415 0.637215 0.958482
Si Si4 0.915105 0.551269 0.311439
Si Si5 0.511351 0.147629 0.706492
Si Si6 0.799169 0.377153 0.548531
Si Si7 0.522195 0.333714 0.962674
Si Si8 0.825499 0.064798 0.421642
O O1 0.954865 0.746859 0.275822
O O2 0.939669 0.043851 0.312274
O O3 0.182791 0.037141 0.195763
O O4 0.156869 0.019211 0.447624
O O5 0.408146 0.949679 0.220573
O O6 0.433446 0.176664 0.057206
O O7 0.220751 0.842680 0.002817
O O8 0.184393 0.602821 0.802530
O O9 0.292178 0.593745 0.030638
O O10 0.000000 0.500000 0.000000
O O11 0.078225 0.541539 0.327699
O O12 0.811269 0.514264 0.444158
O O13 0.624809 0.268054 0.597591
O O14 0.466801 0.264349 0.812074
O O15 0.353080 0.015860 0.627678
O O16 0.873457 0.267490 0.463332
O O17 0.500000 0.500000 0.000000
#
# Coordination Sequence:
#
# PCOD8004077 Si02
#       8
#     2   2   2   2   2   2   2   2
#     4  10  21  43  59  97 133 162 210 262 322 376
#     4  11  23  45  67  91 128 176 216 262 317 390
#     4  11  21  41  72  93 127 176 217 260 313 385
#     4  10  20  37  63  93 132 158 215 258 316 369
#     4  11  21  42  65  92 122 168 220 254 320 387
#     4  10  21  38  61  98 127 164 209 265 307 387
#     4  11  28  46  61  97 133 164 216 276 321 379
#     4  10  22  37  65  90 130 164 209 266 312 377
#
# _framework density 21.441911999999999
#
# number of rings (size 3 to 8) (size 9 to 14) (size 15 to 20)
#    0.000    1.500    3.750    2.625    5.250    0.000 
#   11.250    1.875    0.000    0.000    0.000    0.000 
#    0.000    0.000    0.000    0.000    0.000    0.000 
#
# Total GULP energy -198308.631215 kJ/mol
# GULP energy per Si atom -12394.289451 kJ/mol
# Density = 2.139311 g / cm^3
# Si number density = 21.441912 Si / 1000 Ang^3
#
#
#
# Elastic Constant Matrix: (Units=GPa)
#
#
# Indices 1 2 3 4 5 6 
#
# 1 82.8669 36.0729 26.6223 -4.2779 -21.9275 15.5813
# 2 36.0729 84.4135 28.2120 -6.6967 -5.9302 11.6016
# 3 26.6223 28.2120 78.7073 8.0562 -11.6494 8.6497
# 4 -4.2779 -6.6967 8.0562 32.0634 7.3181 -3.2152
# 5 -21.9275 -5.9302 -11.6494 7.3181 36.3927 9.7512
# 6 15.5813 11.6016 8.6497 -3.2152 9.7512 28.5059
#
#
#
# Elastic Compliance Matrix: (Units=1/GPa)
#
#
# Indices 1 2 3 4 5 6 
#
# 1 0.022306 -0.006230 -0.000668 -0.003652 0.017161 -0.015736
# 2 -0.006230 0.016190 -0.004670 0.004517 -0.003503 -0.000059
# 3 -0.000668 -0.004670 0.017247 -0.007794 0.007657 -0.006465
# 4 -0.003652 0.004517 -0.007794 0.038180 -0.014825 0.011900
# 5 0.017161 -0.003503 0.007657 -0.014825 0.050511 -0.029229
# 6 -0.015736 -0.000059 -0.006465 0.011900 -0.029229 0.057008
#
#
# Mechanical properties :
#
#
# Convention : Reuss Voigt Hill
#
# Bulk Modulus (GPa) = 30.66997 47.53356 39.10176
# Shear Modulus (GPa) = 21.23615 29.73111 25.48363
#
# Velocity S-wave (km/s) = 3.15048 3.72773 3.45120
# Velocity P-wave (km/s) = 5.25060 6.38315 5.84438
#
# Compressibility (1/GPa) = 0.03260518
#
# Stress axis : x y z
#
# Youngs Moduli (GPa) = 44.83149 61.76671 57.98127
#
# Poissons Ratio (x) = 0.38480 0.03876
# Poissons Ratio (y) = 0.27930 0.27079
# Poissons Ratio (z) = 0.02997 0.28847
#
# Static dielectric constant tensor:
#      x y z
#    x 3.858020 0.088600 -0.077590 
#    y 0.088600 3.784050 0.231250 
#    z -0.077590 0.231250 4.131630 
# 
# 
# High freq. dielectric constant tensor:
#      x y z
#    x 1.829330 0.019070 -0.009500 
#    y 0.019070 1.833060 0.013780 
#    z -0.009500 0.013780 1.848520 
# 
# From -- ./inp_files/382330.got.cif
#   From: 2010.06.25/outbox.cif.g09.slc.cpg/sg2_192_cif.got.tgz:382330.got - 2010.06.27 13:26:56.
