data_PCOD8004986
_publ_section_title
;
Structure prediction by ZEFSAII (Michael W. Deem and Ramdas Pophale) SiO2 
 PCOD8004986
Probable space group: P -1
;
_chemical_formula_sum "Si O2"
_cell_formula_units_Z 16
_cell_length_a 14.799803
_cell_length_b 10.439445
_cell_length_c 16.151270
_cell_angle_alpha 44.535931
_cell_angle_beta 155.241295
_cell_angle_gamma 124.199487
_cell_volume 701.442424
_symmetry_space_group_name_H-M "P -1"
_symmetry_group_IT_number 2
_symmetry_cell_setting 'triclinic'
loop_
_space_group_symop_operation_xyz
x,y,z
-x,-y,-z
loop_
_atom_site_type_symbol
_atom_site_label
_atom_site_fract_x
_atom_site_fract_y
_atom_site_fract_z
Si Si1 0.573132 0.243186 0.844451
Si Si2 0.880930 0.858373 0.243722
Si Si3 0.200496 0.436446 0.565584
Si Si4 0.212949 0.416801 0.157576
Si Si5 0.681069 0.202816 0.444250
Si Si6 0.189969 0.232595 0.959163
Si Si7 0.935676 0.877362 0.926961
Si Si8 0.555123 0.277568 0.633798
O O1 0.357739 0.282185 0.706192
O O2 0.687225 0.414384 0.866427
O O3 0.491541 0.204593 0.702485
O O4 0.755335 0.041645 0.110301
O O5 0.853212 0.668998 0.349963
O O6 0.143707 0.851734 0.461511
O O7 0.799263 0.862724 0.078007
O O8 0.331820 0.586473 0.631692
O O9 0.964923 0.548069 0.273122
O O10 0.151539 0.309234 0.076911
O O11 0.395770 0.251121 0.438366
O O12 0.000000 0.500000 0.000000
O O13 0.439754 0.207496 0.208018
O O14 0.764375 0.058203 0.656490
O O15 0.077348 0.111864 0.986639
O O16 0.186921 0.827446 0.123384
O O17 0.500000 0.500000 0.500000
#
# Coordination Sequence:
#
# PCOD8004986 Si02
#       8
#     2   2   2   2   2   2   2   2
#     4  11  22  45  66  97 130 173 219 272 327 390
#     4  11  25  47  67  95 129 178 226 278 320 379
#     4  11  26  45  70  92 131 177 228 276 321 376
#     4  11  21  36  64  97 140 169 203 262 333 397
#     4  11  24  45  66 100 133 171 222 266 331 397
#     4  11  25  42  70  96 135 173 216 271 335 391
#     4  12  23  41  66 104 134 173 211 265 336 407
#     4  10  20  38  63  96 137 171 206 257 330 395
#
# _framework density 22.810140000000001
#
# number of rings (size 3 to 8) (size 9 to 14) (size 15 to 20)
#    0.000    1.000    3.750    4.500    1.750    5.000 
#    4.500    0.000    0.000    3.750    0.000    0.000 
#    0.000    0.000    0.000    0.000    0.000    0.000 
#
# Total GULP energy -198344.819085 kJ/mol
# GULP energy per Si atom -12396.551193 kJ/mol
# Density = 2.275822 g / cm^3
# Si number density = 22.810140 Si / 1000 Ang^3
#
#
#
# Elastic Constant Matrix: (Units=GPa)
#
#
# Indices 1 2 3 4 5 6 
#
# 1 141.4905 54.7748 70.5945 -9.7330 4.8350 12.5786
# 2 54.7748 66.7970 53.4744 -12.8133 -2.7935 14.4562
# 3 70.5945 53.4744 159.9908 9.7293 14.6111 3.3872
# 4 -9.7330 -12.8133 9.7293 45.7556 -5.7328 3.2487
# 5 4.8350 -2.7935 14.6111 -5.7328 34.9630 -12.2246
# 6 12.5786 14.4562 3.3872 3.2487 -12.2246 32.7904
#
#
#
# Elastic Compliance Matrix: (Units=1/GPa)
#
#
# Indices 1 2 3 4 5 6 
#
# 1 0.011200 -0.006522 -0.002661 0.001072 -0.001403 -0.001775
# 2 -0.006522 0.031538 -0.008603 0.010631 0.005423 -0.009545
# 3 -0.002661 -0.008603 0.011093 -0.006145 -0.005137 0.002361
# 4 0.001072 0.010631 -0.006145 0.027475 0.006051 -0.004930
# 5 -0.001403 0.005423 -0.005137 0.006051 0.036447 0.011666
# 6 -0.001775 -0.009545 0.002361 -0.004930 0.011666 0.039979
#
#
# Mechanical properties :
#
#
# Convention : Reuss Voigt Hill
#
# Bulk Modulus (GPa) = 54.77160 80.66288 67.71724
# Shear Modulus (GPa) = 25.07635 35.33076 30.20356
#
# Velocity S-wave (km/s) = 3.31924 3.93988 3.64281
# Velocity P-wave (km/s) = 6.22526 7.49242 6.88804
#
# Compressibility (1/GPa) = 0.01825764
#
# Stress axis : x y z
#
# Youngs Moduli (GPa) = 89.28594 31.70785 90.14836
#
# Poissons Ratio (x) = 0.20681 0.23992
# Poissons Ratio (y) = 0.58237 0.77552
# Poissons Ratio (z) = 0.23762 0.27277
#
# Static dielectric constant tensor:
#      x y z
#    x 4.288610 -0.163540 -0.154280 
#    y -0.163540 4.428510 0.086340 
#    z -0.154280 0.086340 4.835670 
# 
# 
# High freq. dielectric constant tensor:
#      x y z
#    x 1.901250 -0.005010 0.012970 
#    y -0.005010 1.904700 -0.016080 
#    z 0.012970 -0.016080 1.914320 
# 
# From -- ./inp_files/599908.got.cif
#   From: 2010.06.25/outbox.cif.g09.slc.cpg/sg2_300_cif.got.tgz:599908.got - 2010.06.27 13:26:56.
