data_PCOD8004106
_publ_section_title
;
Structure prediction by ZEFSAII (Michael W. Deem and Ramdas Pophale) SiO2 
 PCOD8004106
Probable space group: P -1
;
_chemical_formula_sum "Si O2"
_cell_formula_units_Z 16
_cell_length_a 7.810850
_cell_length_b 10.269628
_cell_length_c 15.961946
_cell_angle_alpha 86.847125
_cell_angle_beta 125.676561
_cell_angle_gamma 60.524757
_cell_volume 792.559431
_symmetry_space_group_name_H-M "P -1"
_symmetry_group_IT_number 2
_symmetry_cell_setting 'triclinic'
loop_
_space_group_symop_operation_xyz
x,y,z
-x,-y,-z
loop_
_atom_site_type_symbol
_atom_site_label
_atom_site_fract_x
_atom_site_fract_y
_atom_site_fract_z
Si Si1 0.783640 0.470180 0.516078
Si Si2 0.575563 0.269830 0.462615
Si Si3 0.679126 0.441565 0.183884
Si Si4 0.441633 0.197497 0.257452
Si Si5 0.131275 0.618719 0.945669
Si Si6 0.811806 0.968048 0.792312
Si Si7 0.628634 0.660894 0.304161
Si Si8 0.038197 0.925910 0.684019
O O1 0.741762 0.335352 0.528371
O O2 0.692668 0.608813 0.558587
O O3 0.603938 0.571464 0.378042
O O4 0.108574 0.354602 0.599801
O O5 0.489979 0.284939 0.341232
O O6 0.773385 0.067858 0.547152
O O7 0.781485 0.447708 0.122666
O O8 0.657182 0.577720 0.227957
O O9 0.885128 0.258063 0.295041
O O10 0.377746 0.491356 0.085430
O O11 0.696261 0.095574 0.268500
O O12 0.153427 0.348746 0.120112
O O13 0.394946 0.071411 0.289447
O O14 0.058187 0.804475 0.923345
O O15 0.643339 0.142293 0.789431
O O16 0.950145 0.986716 0.752357
#
# Coordination Sequence:
#
# PCOD8004106 Si02
#       8
#     2   2   2   2   2   2   2   2
#     4  10  23  34  55  86 122 149 192 236 288 351
#     4  11  21  38  55  86 119 155 187 239 289 341
#     4  10  20  37  64  85 115 151 198 238 293 333
#     4  10  21  37  60  85 116 156 191 236 287 339
#     4   8  20  40  56  91 111 147 203 240 279 347
#     4   9  21  38  57  86 115 152 196 234 285 343
#     4  11  20  38  57  86 117 157 186 239 291 346
#     4  11  21  36  59  85 116 156 190 239 277 350
#
# _framework density 20.187760999999998
#
# number of rings (size 3 to 8) (size 9 to 14) (size 15 to 20)
#    0.750    1.250    1.250    2.625    0.000    3.500 
#    0.000    0.000    0.000    0.750    0.000    0.000 
#    0.000    0.000    0.000    0.000    0.000    0.000 
#
# Total GULP energy -198220.745356 kJ/mol
# GULP energy per Si atom -12388.796585 kJ/mol
# Density = 2.014181 g / cm^3
# Si number density = 20.187761 Si / 1000 Ang^3
#
#
#
# Elastic Constant Matrix: (Units=GPa)
#
#
# Indices 1 2 3 4 5 6 
#
# 1 78.0630 13.7678 1.0618 1.6444 4.6597 -14.3613
# 2 13.7678 129.4577 34.6010 -8.9623 3.4747 -10.4122
# 3 1.0618 34.6010 39.2023 -0.4472 9.7094 0.8808
# 4 1.6444 -8.9623 -0.4472 18.1504 -2.5214 6.1969
# 5 4.6597 3.4747 9.7094 -2.5214 19.1044 -4.5179
# 6 -14.3613 -10.4122 0.8808 6.1969 -4.5179 22.2132
#
#
#
# Elastic Compliance Matrix: (Units=1/GPa)
#
#
# Indices 1 2 3 4 5 6 
#
# 1 0.015205 -0.001444 0.001155 -0.005899 -0.002383 0.010268
# 2 -0.001444 0.011561 -0.011697 0.004726 0.005963 0.004844
# 3 0.001155 -0.011697 0.041435 -0.004660 -0.022091 -0.009572
# 4 -0.005899 0.004726 -0.004660 0.065029 0.007255 -0.018080
# 5 -0.002383 0.005963 -0.022091 0.007255 0.067287 0.013792
# 6 0.010268 0.004844 -0.009572 -0.018080 0.013792 0.062156
#
#
# Mechanical properties :
#
#
# Convention : Reuss Voigt Hill
#
# Bulk Modulus (GPa) = 22.60979 38.39824 30.50402
# Shear Modulus (GPa) = 16.58992 25.04640 20.81816
#
# Velocity S-wave (km/s) = 2.86978 3.52614 3.21476
# Velocity P-wave (km/s) = 4.71221 5.96993 5.37796
#
# Compressibility (1/GPa) = 0.04422863
#
# Stress axis : x y z
#
# Youngs Moduli (GPa) = 65.76879 86.49663 24.13431
#
# Poissons Ratio (x) = 0.12493 -0.02788
# Poissons Ratio (y) = 0.09499 0.28230
# Poissons Ratio (z) = -0.07598 1.01175
#
# Static dielectric constant tensor:
#      x y z
#    x 3.665390 -0.270580 0.058250 
#    y -0.270580 3.582410 -0.304870 
#    z 0.058250 -0.304870 3.456470 
# 
# 
# High freq. dielectric constant tensor:
#      x y z
#    x 1.786630 -0.020300 0.002580 
#    y -0.020300 1.785120 -0.019720 
#    z 0.002580 -0.019720 1.763460 
# 
# From -- ./inp_files/498001.got.cif
#   From: 2010.06.25/outbox.cif.g09.slc.cpg/sg2_250_cif.got.tgz:498001.got - 2010.06.27 13:26:56.
