data_PCOD8004236
_publ_section_title
;
Structure prediction by ZEFSAII (Michael W. Deem and Ramdas Pophale) SiO2 
 PCOD8004236
Probable space group: P -1
;
_chemical_formula_sum "Si O2"
_cell_formula_units_Z 12
_cell_length_a 15.847810
_cell_length_b 9.533062
_cell_length_c 8.474421
_cell_angle_alpha 126.566949
_cell_angle_beta 106.403620
_cell_angle_gamma 38.904968
_cell_volume 602.681539
_symmetry_space_group_name_H-M "P -1"
_symmetry_group_IT_number 2
_symmetry_cell_setting 'triclinic'
loop_
_space_group_symop_operation_xyz
x,y,z
-x,-y,-z
loop_
_atom_site_type_symbol
_atom_site_label
_atom_site_fract_x
_atom_site_fract_y
_atom_site_fract_z
Si Si1 0.478335 0.098898 0.338789
Si Si2 0.253020 0.803933 0.192106
Si Si3 0.302311 0.044080 0.145843
Si Si4 0.499706 0.351356 0.271324
Si Si5 0.727238 0.546823 0.262369
Si Si6 0.046194 0.608469 0.526450
O O1 0.432863 0.968767 0.206278
O O2 0.474423 0.205282 0.242768
O O3 0.372931 0.360955 0.583114
O O4 0.641116 0.834009 0.314153
O O5 0.374331 0.579674 0.233448
O O6 0.292732 0.915139 0.190752
O O7 0.233332 0.677170 0.975696
O O8 0.100866 0.061731 0.379064
O O9 0.154777 0.392054 0.293043
O O10 0.344607 0.892942 0.898604
O O11 0.500000 0.500000 0.500000
O O12 0.873441 0.402438 0.306504
O O13 0.000000 0.500000 0.500000
#
# Coordination Sequence:
#
# PCOD8004236 Si02
#       6
#     2   2   2   2   2   2
#     4  10  22  37  61  92 118 154 194 249 296 344
#     4  11  22  39  63  90 118 157 199 242 290 352
#     4  10  21  41  61  87 121 157 197 240 295 351
#     4  12  25  36  60  92 122 150 202 248 293 341
#     4  10  20  37  66  86 119 154 202 238 293 352
#     4   9  21  38  63  87 117 157 199 238 292 356
#
# _framework density 19.911011999999999
#
# number of rings (size 3 to 8) (size 9 to 14) (size 15 to 20)
#    0.000    1.667    1.667    2.500    9.333    0.000 
#    0.000    4.167    3.667    0.000    0.000    0.000 
#    0.000    0.000    0.000    0.000    0.000    0.000 
#
# Total GULP energy -148738.177870 kJ/mol
# GULP energy per Si atom -12394.848156 kJ/mol
# Density = 1.986569 g / cm^3
# Si number density = 19.911012 Si / 1000 Ang^3
#
#
#
# Elastic Constant Matrix: (Units=GPa)
#
#
# Indices 1 2 3 4 5 6 
#
# 1 92.9250 60.6706 46.2171 2.5609 -2.4072 0.7100
# 2 60.6706 84.4180 62.7496 12.6129 -17.9418 5.8815
# 3 46.2171 62.7496 160.6004 8.8972 -13.7491 -12.2599
# 4 2.5609 12.6129 8.8972 26.0058 -6.2839 -4.8362
# 5 -2.4072 -17.9418 -13.7491 -6.2839 37.1955 -0.2783
# 6 0.7100 5.8815 -12.2599 -4.8362 -0.2783 32.0423
#
#
#
# Elastic Compliance Matrix: (Units=1/GPa)
#
#
# Indices 1 2 3 4 5 6 
#
# 1 0.022765 -0.019231 0.000366 0.006114 -0.006605 0.004031
# 2 -0.019231 0.036632 -0.007970 -0.012490 0.011286 -0.011135
# 3 0.000366 -0.007970 0.009559 0.001558 0.000015 0.005347
# 4 0.006114 -0.012490 0.001558 0.045847 0.002765 0.009697
# 5 -0.006605 0.011286 0.000015 0.002765 0.032365 -0.001221
# 6 0.004031 -0.011135 0.005347 0.009697 -0.001221 0.036662
#
#
# Mechanical properties :
#
#
# Convention : Reuss Voigt Hill
#
# Bulk Modulus (GPa) = 65.42338 75.24643 70.33491
# Shear Modulus (GPa) = 20.61040 30.26913 25.43977
#
# Velocity S-wave (km/s) = 3.22083 3.90323 3.57833
# Velocity P-wave (km/s) = 6.83819 7.62804 7.24389
#
# Compressibility (1/GPa) = 0.01528506
#
# Stress axis : x y z
#
# Youngs Moduli (GPa) = 43.92737 27.29825 104.61739
#
# Poissons Ratio (x) = 0.52498 -0.03834
# Poissons Ratio (y) = 0.84478 0.83385
# Poissons Ratio (z) = -0.01610 0.21758
#
# Static dielectric constant tensor:
#      x y z
#    x 3.703960 -0.327820 0.038840 
#    y -0.327820 3.243000 1.596980 
#    z 0.038840 1.596980 0.669350 
# 
# 
# High freq. dielectric constant tensor:
#      x y z
#    x 1.770820 -0.010490 0.004050 
#    y -0.010490 1.755220 0.017310 
#    z 0.004050 0.017310 1.799650 
# 
# From -- ./inp_files/145416.got.cif
#   From: 2010.06.25/outbox.cif.g09.slc.cpg/sg2_73_cif.got.tgz:145416.got - 2010.06.27 13:26:56.
