data_PCOD8004816
_publ_section_title
;
Structure prediction by ZEFSAII (Michael W. Deem and Ramdas Pophale) SiO2 
 PCOD8004816
Probable space group: P -1
;
_chemical_formula_sum "Si O2"
_cell_formula_units_Z 16
_cell_length_a 15.769571
_cell_length_b 15.978939
_cell_length_c 11.153211
_cell_angle_alpha 44.602558
_cell_angle_beta 37.823956
_cell_angle_gamma 25.890077
_cell_volume 752.523549
_symmetry_space_group_name_H-M "P -1"
_symmetry_group_IT_number 2
_symmetry_cell_setting 'triclinic'
loop_
_space_group_symop_operation_xyz
x,y,z
-x,-y,-z
loop_
_atom_site_type_symbol
_atom_site_label
_atom_site_fract_x
_atom_site_fract_y
_atom_site_fract_z
Si Si1 0.560984 0.724590 0.085576
Si Si2 0.853020 0.747135 0.745885
Si Si3 0.084175 0.658590 0.354918
Si Si4 0.494077 0.414003 0.291854
Si Si5 0.834989 0.008156 0.412834
Si Si6 0.225690 0.578126 0.652133
Si Si7 0.944736 0.915352 0.796845
Si Si8 0.841895 0.382614 0.946852
O O1 0.591502 0.613566 0.275978
O O2 0.708183 0.578856 0.958872
O O3 0.651589 0.794169 0.948279
O O4 0.305849 0.910020 0.146948
O O5 0.965752 0.645020 0.592866
O O6 0.038428 0.610316 0.783370
O O7 0.770635 0.941468 0.641558
O O8 0.347139 0.487984 0.263629
O O9 0.047689 0.644075 0.272619
O O10 0.980185 0.860283 0.289735
O O11 0.607852 0.213405 0.405832
O O12 0.342367 0.559347 0.425437
O O13 0.674999 0.390952 0.084890
O O14 0.981042 0.005345 0.323820
O O15 0.115302 0.761860 0.658998
O O16 0.966157 0.801537 0.994406
#
# Coordination Sequence:
#
# PCOD8004816 Si02
#       8
#     2   2   2   2   2   2   2   2
#     4  11  23  40  61  84 121 161 193 240 292 347
#     4   9  22  43  57  88 118 156 199 235 293 352
#     4   9  20  39  61  88 118 153 195 244 291 345
#     4  10  20  38  62  91 115 154 198 240 297 346
#     4   9  21  39  58  89 119 152 190 246 289 345
#     4  10  23  40  61  87 117 157 198 243 288 348
#     4  10  23  39  59  89 121 152 197 244 291 345
#     4  10  22  39  60  91 118 152 198 244 291 347
#
# _framework density 21.261793000000001
#
# number of rings (size 3 to 8) (size 9 to 14) (size 15 to 20)
#    0.750    1.500    0.000    1.500    1.750    9.000 
#    9.000    0.625    0.000    0.000    0.000    0.000 
#    0.000    0.000    0.000    0.000    0.000    0.000 
#
# Total GULP energy -198342.099799 kJ/mol
# GULP energy per Si atom -12396.381237 kJ/mol
# Density = 2.121340 g / cm^3
# Si number density = 21.261793 Si / 1000 Ang^3
#
#
#
# Elastic Constant Matrix: (Units=GPa)
#
#
# Indices 1 2 3 4 5 6 
#
# 1 71.8876 36.6312 10.3117 3.9692 19.2368 -10.3791
# 2 36.6312 110.3981 6.1295 1.2860 -5.7953 -22.3862
# 3 10.3117 6.1295 24.9081 5.1014 5.9416 5.2382
# 4 3.9692 1.2860 5.1014 12.1307 0.2688 -1.5592
# 5 19.2368 -5.7953 5.9416 0.2688 35.3435 -3.2342
# 6 -10.3791 -22.3862 5.2382 -1.5592 -3.2342 24.0502
#
#
#
# Elastic Compliance Matrix: (Units=1/GPa)
#
#
# Indices 1 2 3 4 5 6 
#
# 1 0.021975 -0.007382 -0.003747 -0.004368 -0.012373 0.001482
# 2 -0.007382 0.015101 -0.006767 0.005247 0.008861 0.013876
# 3 -0.003747 -0.006767 0.055614 -0.024170 -0.010339 -0.022986
# 4 -0.004368 0.005247 -0.024170 0.095290 0.007996 0.015517
# 5 -0.012373 0.008861 -0.010339 0.007996 0.039160 0.010945
# 6 0.001482 0.013876 -0.022986 0.015517 0.010945 0.062619
#
#
# Mechanical properties :
#
#
# Convention : Reuss Voigt Hill
#
# Bulk Modulus (GPa) = 17.57468 34.81543 26.19505
# Shear Modulus (GPa) = 14.51305 24.57963 19.54634
#
# Velocity S-wave (km/s) = 2.61547 3.40376 3.03531
# Velocity P-wave (km/s) = 4.17190 5.64425 4.96298
#
# Compressibility (1/GPa) = 0.05690005
#
# Stress axis : x y z
#
# Youngs Moduli (GPa) = 45.50531 66.22076 17.98097
#
# Poissons Ratio (x) = 0.48883 0.06737
# Poissons Ratio (y) = 0.33591 0.12167
# Poissons Ratio (z) = 0.17050 0.44810
#
# Static dielectric constant tensor:
#      x y z
#    x 3.781920 -0.108460 0.142460 
#    y -0.108460 3.885140 -0.021630 
#    z 0.142460 -0.021630 3.458140 
# 
# 
# High freq. dielectric constant tensor:
#      x y z
#    x 1.831540 -0.007790 0.010660 
#    y -0.007790 1.838770 -0.000560 
#    z 0.010660 -0.000560 1.809370 
# 
# From -- ./inp_files/454615.got.cif
#   From: 2010.06.25/outbox.cif.g09.slc.cpg/sg2_228_cif.got.tgz:454615.got - 2010.06.27 13:26:56.
