data_PCOD8004702
_publ_section_title
;
Structure prediction by ZEFSAII (Michael W. Deem and Ramdas Pophale) SiO2 
 PCOD8004702
Probable space group: P -1
;
_chemical_formula_sum "Si O2"
_cell_formula_units_Z 16
_cell_length_a 11.957691
_cell_length_b 7.963433
_cell_length_c 17.321777
_cell_angle_alpha 70.931261
_cell_angle_beta 27.734774
_cell_angle_gamma 81.228197
_cell_volume 689.588692
_symmetry_space_group_name_H-M "P -1"
_symmetry_group_IT_number 2
_symmetry_cell_setting 'triclinic'
loop_
_space_group_symop_operation_xyz
x,y,z
-x,-y,-z
loop_
_atom_site_type_symbol
_atom_site_label
_atom_site_fract_x
_atom_site_fract_y
_atom_site_fract_z
Si Si1 0.213176 0.799477 0.732142
Si Si2 0.897750 0.145771 0.729858
Si Si3 0.951891 0.529770 0.308444
Si Si4 0.714092 0.536453 0.015284
Si Si5 0.327942 0.206035 0.641685
Si Si6 0.506919 0.708066 0.307695
Si Si7 0.546658 0.861616 0.095856
Si Si8 0.535642 0.698724 0.671274
O O1 0.375529 0.750756 0.569963
O O2 0.350583 0.794882 0.729782
O O3 0.936049 0.651107 0.921354
O O4 0.185011 0.007361 0.718271
O O5 0.704588 0.089179 0.784178
O O6 0.910716 0.350692 0.720473
O O7 0.180670 0.156713 0.528559
O O8 0.798148 0.005965 0.883870
O O9 0.783410 0.638829 0.349528
O O10 0.774180 0.330198 0.478980
O O11 0.176490 0.497843 0.127208
O O12 0.526335 0.659699 0.102164
O O13 0.555208 0.337339 0.179060
O O14 0.299161 0.210005 0.752077
O O15 0.561303 0.855880 0.181578
O O16 0.507836 0.503335 0.310983
#
# Coordination Sequence:
#
# PCOD8004702 Si02
#       8
#     2   2   2   2   2   2   2   2
#     4  11  21  36  61  94 129 165 201 249 307 372
#     4  10  22  45  67  84 122 167 210 255 309 364
#     4  11  21  38  65  92 128 163 201 255 304 367
#     4  11  23  37  61  97 129 159 206 251 305 369
#     4  11  21  35  63  94 128 167 199 246 316 364
#     4  10  20  38  61  90 124 159 207 247 303 367
#     4  10  24  43  65  91 118 166 210 257 308 364
#     4  10  22  39  63  89 125 170 201 253 304 365
#
# _framework density 23.202237
#
# number of rings (size 3 to 8) (size 9 to 14) (size 15 to 20)
#    0.000    1.500    3.750    2.250    1.750    7.000 
#    0.000    3.750    0.000    3.750    0.000    0.000 
#    0.000    0.000    0.000    0.000    0.000    0.000 
#
# Total GULP energy -198274.286429 kJ/mol
# GULP energy per Si atom -12392.142902 kJ/mol
# Density = 2.314943 g / cm^3
# Si number density = 23.202237 Si / 1000 Ang^3
#
#
#
# Elastic Constant Matrix: (Units=GPa)
#
#
# Indices 1 2 3 4 5 6 
#
# 1 69.8538 5.4573 35.9263 -2.0696 -4.1002 -10.7882
# 2 5.4573 38.8983 10.7543 -0.7028 6.7483 -6.1355
# 3 35.9263 10.7543 124.4487 -22.7905 22.0280 -9.9645
# 4 -2.0696 -0.7028 -22.7905 32.3572 5.1808 6.4371
# 5 -4.1002 6.7483 22.0280 5.1808 28.2736 -0.4796
# 6 -10.7882 -6.1355 -9.9645 6.4371 -0.4796 25.4993
#
#
#
# Elastic Compliance Matrix: (Units=1/GPa)
#
#
# Indices 1 2 3 4 5 6 
#
# 1 0.020540 -0.001513 -0.008839 -0.008273 0.011864 0.007184
# 2 -0.001513 0.028076 -0.000320 0.000188 -0.006607 0.005819
# 3 -0.008839 -0.000320 0.015784 0.013366 -0.015975 -0.001323
# 4 -0.008273 0.000188 0.013366 0.044991 -0.020071 -0.009967
# 5 0.011864 -0.006607 -0.015975 -0.020071 0.054846 0.003286
# 6 0.007184 0.005819 -0.001323 -0.009967 0.003286 0.045717
#
#
# Mechanical properties :
#
#
# Convention : Reuss Voigt Hill
#
# Bulk Modulus (GPa) = 23.22429 37.49741 30.36085
# Shear Modulus (GPa) = 20.35423 29.29687 24.82555
#
# Velocity S-wave (km/s) = 2.96506 3.55727 3.27458
# Velocity P-wave (km/s) = 4.66405 5.75051 5.23554
#
# Compressibility (1/GPa) = 0.04305836
#
# Stress axis : x y z
#
# Youngs Moduli (GPa) = 48.68454 35.61739 63.35500
#
# Poissons Ratio (x) = 0.05388 0.55999
# Poissons Ratio (y) = 0.07364 0.02025
# Poissons Ratio (z) = 0.43032 0.01138
#
# Static dielectric constant tensor:
#      x y z
#    x 3.957480 -0.026960 0.247530 
#    y -0.026960 3.941010 -0.095150 
#    z 0.247530 -0.095150 4.483260 
# 
# 
# High freq. dielectric constant tensor:
#      x y z
#    x 1.901380 -0.005080 0.007740 
#    y -0.005080 1.894330 -0.005930 
#    z 0.007740 -0.005930 1.926780 
# 
# From -- ./inp_files/206091.got.cif
#   From: 2010.06.25/outbox.cif.g09.slc.cpg/sg2_104_cif.got.tgz:206091.got - 2010.06.27 13:26:56.
