data_PCOD8004582
_publ_section_title
;
Structure prediction by ZEFSAII (Michael W. Deem and Ramdas Pophale) SiO2 
 PCOD8004582
Probable space group: P -1
;
_chemical_formula_sum "Si O2"
_cell_formula_units_Z 16
_cell_length_a 19.156566
_cell_length_b 9.140769
_cell_length_c 6.600164
_cell_angle_alpha 84.503696
_cell_angle_beta 89.442932
_cell_angle_gamma 39.963473
_cell_volume 735.233845
_symmetry_space_group_name_H-M "P -1"
_symmetry_group_IT_number 2
_symmetry_cell_setting 'triclinic'
loop_
_space_group_symop_operation_xyz
x,y,z
-x,-y,-z
loop_
_atom_site_type_symbol
_atom_site_label
_atom_site_fract_x
_atom_site_fract_y
_atom_site_fract_z
Si Si1 0.340211 0.968010 0.299358
Si Si2 0.012195 0.729770 0.524143
Si Si3 0.622080 0.852183 0.050640
Si Si4 0.930732 0.098047 0.787379
Si Si5 0.527177 0.210953 0.304324
Si Si6 0.835686 0.784461 0.390247
Si Si7 0.341483 0.796651 0.939040
Si Si8 0.696936 0.456118 0.927948
O O1 0.448720 0.804046 0.458084
O O2 0.231825 0.128667 0.413329
O O3 0.350219 0.807993 0.179051
O O4 0.334336 0.118170 0.136561
O O5 0.059871 0.766766 0.355420
O O6 0.104185 0.465903 0.631230
O O7 0.916649 0.790236 0.416111
O O8 0.970559 0.889308 0.695677
O O9 0.618210 0.945562 0.251913
O O10 0.699928 0.582934 0.077598
O O11 0.500000 0.000000 0.000000
O O12 0.804892 0.274728 0.817653
O O13 0.000000 0.000000 0.000000
O O14 0.547617 0.329223 0.161003
O O15 0.403488 0.358835 0.252397
O O16 0.759571 0.946734 0.181736
O O17 0.320752 0.659106 0.919500
#
# Coordination Sequence:
#
# PCOD8004582 Si02
#       8
#     2   2   2   2   2   2   2   2
#     4  10  20  38  60  88 118 153 199 237 289 357
#     4  10  23  42  61  88 118 154 202 245 293 346
#     4   9  20  37  57  85 119 153 194 237 286 350
#     4  11  24  41  61  90 122 152 195 248 299 348
#     4   9  21  39  60  86 120 157 195 239 287 354
#     4  10  21  40  65  85 116 159 198 244 289 345
#     4  10  21  38  60  91 122 150 195 244 290 348
#     4  11  21  38  61  86 119 159 193 239 302 348
#
# _framework density 21.761786000000001
#
# number of rings (size 3 to 8) (size 9 to 14) (size 15 to 20)
#    0.000    2.000    0.000    2.625    0.000    6.500 
#    0.000   21.875    0.000    0.000    0.000    0.000 
#    0.000    0.000    0.000    0.000    0.000    0.000 
#
# Total GULP energy -198370.355069 kJ/mol
# GULP energy per Si atom -12398.147192 kJ/mol
# Density = 2.171226 g / cm^3
# Si number density = 21.761786 Si / 1000 Ang^3
#
#
#
# Elastic Constant Matrix: (Units=GPa)
#
#
# Indices 1 2 3 4 5 6 
#
# 1 105.9381 43.1772 28.0771 8.5231 -9.2719 8.9730
# 2 43.1772 99.3883 43.0460 11.7310 -0.7084 12.1036
# 3 28.0771 43.0460 110.6548 9.4888 11.9934 6.1623
# 4 8.5231 11.7310 9.4888 22.9579 -5.9364 0.6197
# 5 -9.2719 -0.7084 11.9934 -5.9364 27.1076 -0.1774
# 6 8.9730 12.1036 6.1623 0.6197 -0.1774 47.7784
#
#
#
# Elastic Compliance Matrix: (Units=1/GPa)
#
#
# Indices 1 2 3 4 5 6 
#
# 1 0.012218 -0.004317 -0.001867 -0.000286 0.004824 -0.000939
# 2 -0.004317 0.014437 -0.004015 -0.004115 -0.000239 -0.002276
# 3 -0.001867 -0.004015 0.012199 -0.004113 -0.007043 -0.000178
# 4 -0.000286 -0.004115 -0.004113 0.050732 0.012731 0.001016
# 5 0.004824 -0.000239 -0.007043 0.012731 0.044438 0.000063
# 6 -0.000939 -0.002276 -0.000178 0.001016 0.000063 0.021693
#
#
# Mechanical properties :
#
#
# Convention : Reuss Voigt Hill
#
# Bulk Modulus (GPa) = 54.18296 60.50909 57.34602
# Shear Modulus (GPa) = 27.43215 33.01417 30.22316
#
# Velocity S-wave (km/s) = 3.55430 3.89918 3.73073
# Velocity P-wave (km/s) = 6.46500 6.93809 6.70572
#
# Compressibility (1/GPa) = 0.01845599
#
# Stress axis : x y z
#
# Youngs Moduli (GPa) = 81.84355 69.26500 81.97504
#
# Poissons Ratio (x) = 0.29902 0.15304
# Poissons Ratio (y) = 0.35332 0.32916
# Poissons Ratio (z) = 0.15279 0.27812
#
# Static dielectric constant tensor:
#      x y z
#    x 4.515210 0.461300 0.279160 
#    y 0.461300 4.354700 0.412100 
#    z 0.279160 0.412100 3.938140 
# 
# 
# High freq. dielectric constant tensor:
#      x y z
#    x 1.878640 0.008560 0.000590 
#    y 0.008560 1.857030 0.008440 
#    z 0.000590 0.008440 1.840140 
# 
# From -- ./inp_files/117048.got.cif
#   From: 2010.06.25/outbox.cif.g09.slc.cpg/sg2_59_cif.got.tgz:117048.got - 2010.06.27 13:26:56.
