data_PCOD8004158
_publ_section_title
;
Structure prediction by ZEFSAII (Michael W. Deem and Ramdas Pophale) SiO2 
 PCOD8004158
Probable space group: P -1
;
_chemical_formula_sum "Si O2"
_cell_formula_units_Z 16
_cell_length_a 15.677559
_cell_length_b 10.098384
_cell_length_c 14.940964
_cell_angle_alpha 144.344452
_cell_angle_beta 141.631213
_cell_angle_gamma 37.260395
_cell_volume 768.990968
_symmetry_space_group_name_H-M "P -1"
_symmetry_group_IT_number 2
_symmetry_cell_setting 'triclinic'
loop_
_space_group_symop_operation_xyz
x,y,z
-x,-y,-z
loop_
_atom_site_type_symbol
_atom_site_label
_atom_site_fract_x
_atom_site_fract_y
_atom_site_fract_z
Si Si1 0.166791 0.241017 0.054570
Si Si2 0.113312 0.065266 0.570993
Si Si3 0.132103 0.734215 0.240682
Si Si4 0.624753 0.864841 0.103801
Si Si5 0.618169 0.026454 0.678496
Si Si6 0.540807 0.213062 0.904639
Si Si7 0.209898 0.692342 0.088543
Si Si8 0.947162 0.636726 0.776242
O O1 0.235536 0.430613 0.177098
O O2 0.087800 0.379025 0.157307
O O3 0.288562 0.948306 0.004908
O O4 0.043037 0.225682 0.876609
O O5 0.273699 0.984623 0.711566
O O6 0.029197 0.365048 0.646669
O O7 0.158534 0.910562 0.431382
O O8 0.000000 0.000000 0.500000
O O9 0.165828 0.825982 0.222777
O O10 0.571189 0.806874 0.124240
O O11 0.734840 0.600820 0.005669
O O12 0.500000 0.000000 0.000000
O O13 0.539770 0.060232 0.729667
O O14 0.649630 0.269084 0.817295
O O15 0.500000 0.000000 0.500000
O O16 0.787756 0.795362 0.680759
O O17 0.500000 0.500000 0.000000
O O18 0.063574 0.770700 0.943663
#
# Coordination Sequence:
#
# PCOD8004158 Si02
#       8
#     2   2   2   2   2   2   2   2
#     4   9  19  37  64  90 123 165 206 259 316 386
#     4  11  23  39  65  93 128 159 214 277 316 372
#     4  10  20  37  64  95 121 159 216 263 320 368
#     4  11  25  43  65  95 129 169 217 264 319 388
#     4  11  24  40  63  90 130 165 209 262 316 379
#     4  11  23  43  64  91 130 176 210 249 325 390
#     4  10  21  41  62  86 124 169 209 257 313 383
#     4   9  20  40  61  86 120 166 210 255 317 375
#
# _framework density 20.806486
#
# number of rings (size 3 to 8) (size 9 to 14) (size 15 to 20)
#    0.000    1.750    2.500    1.125    5.250    2.000 
#    0.000    1.875    0.000    0.000    0.000    0.000 
#    0.000    0.000    0.000    0.000    0.000    0.000 
#
# Total GULP energy -198238.420320 kJ/mol
# GULP energy per Si atom -12389.901270 kJ/mol
# Density = 2.075913 g / cm^3
# Si number density = 20.806486 Si / 1000 Ang^3
#
#
#
# Elastic Constant Matrix: (Units=GPa)
#
#
# Indices 1 2 3 4 5 6 
#
# 1 101.1648 17.4164 50.0986 -6.5621 4.9093 -0.2714
# 2 17.4164 126.9726 58.0408 -10.5389 -5.3537 4.7572
# 3 50.0986 58.0408 153.3242 -23.3696 -1.5450 1.5178
# 4 -6.5621 -10.5389 -23.3696 36.2752 -2.9180 0.0031
# 5 4.9093 -5.3537 -1.5450 -2.9180 29.5835 2.1478
# 6 -0.2714 4.7572 1.5178 0.0031 2.1478 26.4708
#
#
#
# Elastic Compliance Matrix: (Units=1/GPa)
#
#
# Indices 1 2 3 4 5 6 
#
# 1 0.011952 0.000041 -0.004043 -0.000614 -0.002286 0.000533
# 2 0.000041 0.009682 -0.003541 0.000680 0.001749 -0.001678
# 3 -0.004043 -0.003541 0.009912 0.004707 0.001016 -0.000057
# 4 -0.000614 0.000680 0.004707 0.030974 0.003576 -0.000692
# 5 -0.002286 0.001749 0.001016 0.003576 0.035140 -0.003248
# 6 0.000533 -0.001678 -0.000057 -0.000692 -0.003248 0.038351
#
#
# Mechanical properties :
#
#
# Convention : Reuss Voigt Hill
#
# Bulk Modulus (GPa) = 60.74900 70.28588 65.51744
# Shear Modulus (GPa) = 31.93200 35.52630 33.72915
#
# Velocity S-wave (km/s) = 3.92179 4.13663 4.03064
# Velocity P-wave (km/s) = 7.05463 7.52793 7.29512
#
# Compressibility (1/GPa) = 0.01646118
#
# Stress axis : x y z
#
# Youngs Moduli (GPa) = 83.66466 103.28899 100.89055
#
# Poissons Ratio (x) = -0.00427 0.40791
# Poissons Ratio (y) = -0.00346 0.35721
# Poissons Ratio (z) = 0.33826 0.36570
#
# Static dielectric constant tensor:
#      x y z
#    x 3.853970 -0.091970 -0.008500 
#    y -0.091970 3.878680 0.003270 
#    z -0.008500 0.003270 3.748480 
# 
# 
# High freq. dielectric constant tensor:
#      x y z
#    x 1.817650 -0.002790 -0.005790 
#    y -0.002790 1.814970 -0.000270 
#    z -0.005790 -0.000270 1.801600 
# 
# From -- ./inp_files/576012.got.cif
#   From: 2010.06.25/outbox.cif.g09.slc.cpg/sg2_289_cif.got.tgz:576012.got - 2010.06.27 13:26:56.
