data_PCOD8004027
_publ_section_title
;
Structure prediction by ZEFSAII (Michael W. Deem and Ramdas Pophale) SiO2 
 PCOD8004027
Probable space group: P -1
;
_chemical_formula_sum "Si O2"
_cell_formula_units_Z 16
_cell_length_a 18.720240
_cell_length_b 9.633088
_cell_length_c 8.858757
_cell_angle_alpha 88.133362
_cell_angle_beta 64.190018
_cell_angle_gamma 40.167184
_cell_volume 794.123233
_symmetry_space_group_name_H-M "P -1"
_symmetry_group_IT_number 2
_symmetry_cell_setting 'triclinic'
loop_
_space_group_symop_operation_xyz
x,y,z
-x,-y,-z
loop_
_atom_site_type_symbol
_atom_site_label
_atom_site_fract_x
_atom_site_fract_y
_atom_site_fract_z
Si Si1 0.108738 0.943699 0.824848
Si Si2 0.322758 0.403450 0.587552
Si Si3 0.688061 0.624386 0.741236
Si Si4 0.349902 0.099505 0.757081
Si Si5 0.114464 0.229776 0.972416
Si Si6 0.391117 0.993232 0.060974
Si Si7 0.990861 0.152733 0.594360
Si Si8 0.112175 0.233964 0.325182
O O1 0.261103 0.640064 0.695687
O O2 0.049416 0.060785 0.710665
O O3 0.119527 0.070565 0.901174
O O4 0.000000 0.000000 0.000000
O O5 0.260014 0.477324 0.473460
O O6 0.274001 0.342873 0.737345
O O7 0.493763 0.158735 0.444603
O O8 0.618597 0.879299 0.801417
O O9 0.821855 0.435770 0.739440
O O10 0.560856 0.699946 0.904530
O O11 0.266945 0.077594 0.803774
O O12 0.351233 0.125080 0.933914
O O13 0.075769 0.275480 0.181876
O O14 0.000000 0.500000 0.000000
O O15 0.279710 0.032687 0.200392
O O16 0.093593 0.111223 0.418154
O O17 0.000000 0.000000 0.500000
O O18 0.000000 0.500000 0.500000
#
# Coordination Sequence:
#
# PCOD8004027 Si02
#       8
#     2   2   2   2   2   2   2   2
#     4  12  26  40  62  89 126 161 206 255 311 363
#     4  10  21  40  63  91 120 162 205 253 301 369
#     4  10  20  37  63  89 124 154 205 250 305 357
#     4   9  21  40  65  88 121 159 206 250 308 364
#     4  11  24  39  62  92 126 162 203 253 306 364
#     4   9  20  38  63  93 119 156 202 259 301 360
#     4  12  24  40  62  91 122 165 203 253 309 367
#     4  11  22  40  64  91 122 158 208 254 301 368
#
# _framework density 20.148007
#
# number of rings (size 3 to 8) (size 9 to 14) (size 15 to 20)
#    0.000    1.500    2.500    2.250    5.250    1.500 
#    0.000    0.625    2.750    0.000    0.000    0.000 
#    0.000    0.000    0.000    0.000    0.000    0.000 
#
# Total GULP energy -198318.031829 kJ/mol
# GULP energy per Si atom -12394.876989 kJ/mol
# Density = 2.010215 g / cm^3
# Si number density = 20.148007 Si / 1000 Ang^3
#
#
#
# Elastic Constant Matrix: (Units=GPa)
#
#
# Indices 1 2 3 4 5 6 
#
# 1 144.9965 52.1566 69.8451 -4.5623 -5.1845 16.9475
# 2 52.1566 101.8150 53.3883 -2.1464 -4.6530 7.5381
# 3 69.8451 53.3883 121.5993 -10.1346 -10.7566 8.7449
# 4 -4.5623 -2.1464 -10.1346 31.4336 5.0793 -0.2279
# 5 -5.1845 -4.6530 -10.7566 5.0793 45.5912 6.6440
# 6 16.9475 7.5381 8.7449 -0.2279 6.6440 37.0773
#
#
#
# Elastic Compliance Matrix: (Units=1/GPa)
#
#
# Indices 1 2 3 4 5 6 
#
# 1 0.010454 -0.002709 -0.004574 -0.000218 0.000325 -0.003208
# 2 -0.002709 0.013554 -0.004416 -0.000930 0.000213 -0.000520
# 3 -0.004574 -0.004416 0.013239 0.002995 0.001885 -0.000453
# 4 -0.000218 -0.000930 0.002995 0.033197 -0.003163 0.000353
# 5 0.000325 0.000213 0.001885 -0.003163 0.023499 -0.004867
# 6 -0.003208 -0.000520 -0.000453 0.000353 -0.004867 0.029524
#
#
# Mechanical properties :
#
#
# Convention : Reuss Voigt Hill
#
# Bulk Modulus (GPa) = 72.21005 79.91009 76.06007
# Shear Modulus (GPa) = 33.00725 35.68847 34.34786
#
# Velocity S-wave (km/s) = 4.05191 4.21327 4.13337
# Velocity P-wave (km/s) = 7.60317 7.96344 7.78539
#
# Compressibility (1/GPa) = 0.01384849
#
# Stress axis : x y z
#
# Youngs Moduli (GPa) = 95.65412 73.78044 75.53535
#
# Poissons Ratio (x) = 0.19988 0.34550
# Poissons Ratio (y) = 0.25914 0.33356
# Poissons Ratio (z) = 0.43753 0.32581
#
# Static dielectric constant tensor:
#      x y z
#    x 3.780250 -0.317760 0.402860 
#    y -0.317760 2.335850 1.455330 
#    z 0.402860 1.455330 1.604440 
# 
# 
# High freq. dielectric constant tensor:
#      x y z
#    x 1.794310 -0.009110 -0.002870 
#    y -0.009110 1.770710 0.004480 
#    z -0.002870 0.004480 1.803390 
# 
# From -- ./inp_files/203112.got.cif
#   From: 2010.06.25/outbox.cif.g09.slc.cpg/sg2_102_cif.got.tgz:203112.got - 2010.06.27 13:26:56.
