data_PCOD8004581
_publ_section_title
;
Structure prediction by ZEFSAII (Michael W. Deem and Ramdas Pophale) SiO2 
 PCOD8004581
Probable space group: P -1
;
_chemical_formula_sum "Si O2"
_cell_formula_units_Z 16
_cell_length_a 9.574080
_cell_length_b 16.983348
_cell_length_c 11.154347
_cell_angle_alpha 98.819253
_cell_angle_beta 108.063255
_cell_angle_gamma 140.516588
_cell_volume 833.672723
_symmetry_space_group_name_H-M "P -1"
_symmetry_group_IT_number 2
_symmetry_cell_setting 'triclinic'
loop_
_space_group_symop_operation_xyz
x,y,z
-x,-y,-z
loop_
_atom_site_type_symbol
_atom_site_label
_atom_site_fract_x
_atom_site_fract_y
_atom_site_fract_z
Si Si1 0.724381 0.822809 0.009817
Si Si2 0.242608 0.817671 0.691696
Si Si3 0.214014 0.287094 0.562162
Si Si4 0.153404 0.154105 0.308797
Si Si5 0.301826 0.331225 0.873881
Si Si6 0.903573 0.144683 0.926585
Si Si7 0.810941 0.652099 0.738292
Si Si8 0.335918 0.686036 0.650482
O O1 0.571089 0.689793 0.034478
O O2 0.989605 0.897984 0.027245
O O3 0.467161 0.727389 0.826422
O O4 0.865887 0.966108 0.148430
O O5 0.325833 0.774340 0.642903
O O6 0.073144 0.791520 0.543241
O O7 0.048094 0.713423 0.736812
O O8 0.570142 0.009327 0.848781
O O9 0.147651 0.170125 0.454461
O O10 0.286995 0.308198 0.724188
O O11 0.480594 0.457362 0.597314
O O12 0.154634 0.240840 0.268862
O O13 0.461529 0.255318 0.385804
O O14 0.971392 0.190759 0.813229
O O15 0.500000 0.500000 0.000000
O O16 0.104974 0.304611 0.089083
O O17 0.000000 0.500000 0.500000
#
# Coordination Sequence:
#
# PCOD8004581 Si02
#       8
#     2   2   2   2   2   2   2   2
#     4  10  22  39  60  88 117 168 202 237 313 360
#     4  11  23  34  58 100 122 147 201 259 311 348
#     4  11  23  39  62  94 123 166 204 245 299 359
#     4  11  20  38  60  86 130 157 196 253 303 369
#     4  10  21  41  66  82 119 171 210 243 288 379
#     4  10  20  38  60  88 117 159 201 247 301 358
#     4  11  20  38  61  91 127 157 199 250 311 363
#     4  12  21  35  61  91 124 153 196 259 306 364
#
# _framework density 19.192184999999998
#
# number of rings (size 3 to 8) (size 9 to 14) (size 15 to 20)
#    0.750    0.500    3.750    4.500    1.750    2.000 
#    0.000    0.000    0.000    4.500    0.000    0.000 
#    0.000    0.000    0.000    0.000    0.000    0.000 
#
# Total GULP energy -198228.265408 kJ/mol
# GULP energy per Si atom -12389.266588 kJ/mol
# Density = 1.914850 g / cm^3
# Si number density = 19.192185 Si / 1000 Ang^3
#
#
#
# Elastic Constant Matrix: (Units=GPa)
#
#
# Indices 1 2 3 4 5 6 
#
# 1 98.8415 36.9498 56.0092 -2.7486 5.8294 0.9750
# 2 36.9498 58.3002 40.0864 0.6797 -6.1748 -0.7648
# 3 56.0092 40.0864 137.5759 4.4967 -10.7063 -1.7468
# 4 -2.7486 0.6797 4.4967 37.4084 8.9849 -4.5910
# 5 5.8294 -6.1748 -10.7063 8.9849 31.1216 6.3262
# 6 0.9750 -0.7648 -1.7468 -4.5910 6.3262 29.0329
#
#
#
# Elastic Compliance Matrix: (Units=1/GPa)
#
#
# Indices 1 2 3 4 5 6 
#
# 1 0.016521 -0.007763 -0.005189 0.004018 -0.007838 0.001272
# 2 -0.007763 0.025245 -0.003669 -0.002148 0.006013 -0.000945
# 3 -0.005189 -0.003669 0.010926 -0.002934 0.005017 -0.000822
# 4 0.004018 -0.002148 -0.002934 0.031386 -0.012748 0.007373
# 5 -0.007838 0.006013 0.005017 -0.012748 0.042338 -0.010518
# 6 0.001272 -0.000945 -0.000822 0.007373 -0.010518 0.037784
#
#
# Mechanical properties :
#
#
# Convention : Reuss Voigt Hill
#
# Bulk Modulus (GPa) = 51.41505 62.31205 56.86355
# Shear Modulus (GPa) = 24.51859 30.29072 27.40465
#
# Velocity S-wave (km/s) = 3.57813 3.97707 3.78287
# Velocity P-wave (km/s) = 6.62710 7.32307 6.98376
#
# Compressibility (1/GPa) = 0.01944956
#
# Stress axis : x y z
#
# Youngs Moduli (GPa) = 60.52786 39.61140 91.52227
#
# Poissons Ratio (x) = 0.30752 0.47493
# Poissons Ratio (y) = 0.46990 0.33581
# Poissons Ratio (z) = 0.31409 0.14534
#
# Static dielectric constant tensor:
#      x y z
#    x 3.680750 0.099500 -0.331980 
#    y 0.099500 3.311960 -0.080010 
#    z -0.331980 -0.080010 3.607150 
# 
# 
# High freq. dielectric constant tensor:
#      x y z
#    x 1.742590 0.005270 -0.019630 
#    y 0.005270 1.726020 0.009060 
#    z -0.019630 0.009060 1.754890 
# 
# From -- ./inp_files/356891.got.cif
#   From: 2010.06.25/outbox.cif.g09.slc.cpg/sg2_179_cif.got.tgz:356891.got - 2010.06.27 13:26:56.
