data_PCOD8004444
_publ_section_title
;
Structure prediction by ZEFSAII (Michael W. Deem and Ramdas Pophale) SiO2 
 PCOD8004444
Probable space group: P -1
;
_chemical_formula_sum "Si O2"
_cell_formula_units_Z 14
_cell_length_a 7.857545
_cell_length_b 17.182544
_cell_length_c 11.735881
_cell_angle_alpha 143.997638
_cell_angle_beta 130.418961
_cell_angle_gamma 49.827025
_cell_volume 682.872786
_symmetry_space_group_name_H-M "P -1"
_symmetry_group_IT_number 2
_symmetry_cell_setting 'triclinic'
loop_
_space_group_symop_operation_xyz
x,y,z
-x,-y,-z
loop_
_atom_site_type_symbol
_atom_site_label
_atom_site_fract_x
_atom_site_fract_y
_atom_site_fract_z
Si Si1 0.650295 0.933135 0.879177
Si Si2 0.258134 0.533962 0.784537
Si Si3 0.979031 0.884415 0.444959
Si Si4 0.512887 0.052597 0.411919
Si Si5 0.308525 0.685481 0.206009
Si Si6 0.985667 0.102896 0.271002
Si Si7 0.998374 0.320800 0.354115
O O1 0.783627 0.770030 0.735400
O O2 0.463891 0.965782 0.735963
O O3 0.500000 0.000000 0.000000
O O4 0.863648 0.000225 0.033581
O O5 0.518877 0.438943 0.798409
O O6 0.223708 0.623828 0.759562
O O7 0.072412 0.445432 0.593555
O O8 0.202818 0.635693 0.988710
O O9 0.701145 0.921080 0.392434
O O10 0.106945 0.877662 0.615217
O O11 0.090884 0.740272 0.261392
O O12 0.000000 0.000000 0.500000
O O13 0.561715 0.198887 0.637017
O O14 0.262236 0.041399 0.327053
O O15 0.924228 0.241277 0.333814
#
# Coordination Sequence:
#
# PCOD8004444 Si02
#       7
#     2   2   2   2   2   2   2
#     4  11  22  37  64  91 121 153 201 260 312 359
#     4  10  21  39  66  83 125 168 211 233 300 365
#     4  10  22  37  62  90 121 156 202 257 308 352
#     4  10  20  38  58  95 121 156 200 252 312 355
#     4  10  20  39  63  89 119 164 209 247 291 363
#     4  11  22  40  61  91 127 153 200 260 311 362
#     4  10  22  40  62  90 119 168 206 244 301 366
#
# _framework density 20.501621
#
# number of rings (size 3 to 8) (size 9 to 14) (size 15 to 20)
#    0.000    1.714    2.857    3.857    6.000    0.000 
#    2.571    1.429    0.000    0.000    0.000    0.000 
#    0.000    0.000    0.000    0.000    0.000    0.000 
#
# Total GULP energy -173449.155760 kJ/mol
# GULP energy per Si atom -12389.225411 kJ/mol
# Density = 2.045496 g / cm^3
# Si number density = 20.501621 Si / 1000 Ang^3
#
#
#
# Elastic Constant Matrix: (Units=GPa)
#
#
# Indices 1 2 3 4 5 6 
#
# 1 47.1584 27.8238 27.1521 6.6522 -6.8670 10.3003
# 2 27.8238 132.8364 44.0523 -20.8445 -14.6154 8.0197
# 3 27.1521 44.0523 138.4180 -13.6095 -13.4979 -0.7562
# 4 6.6522 -20.8445 -13.6095 27.5105 -1.8642 -7.2151
# 5 -6.8670 -14.6154 -13.4979 -1.8642 31.2310 -6.0582
# 6 10.3003 8.0197 -0.7562 -7.2151 -6.0582 31.6503
#
#
#
# Elastic Compliance Matrix: (Units=1/GPa)
#
#
# Indices 1 2 3 4 5 6 
#
# 1 0.036448 -0.008282 -0.007199 -0.023036 -0.003421 -0.015841
# 2 -0.008282 0.011569 -0.000418 0.011762 0.004764 0.003347
# 3 -0.007199 -0.000418 0.009981 0.008023 0.004040 0.005289
# 4 -0.023036 0.011762 0.008023 0.061054 0.011595 0.020845
# 5 -0.003421 0.004764 0.004040 0.011595 0.037854 0.009891
# 6 -0.015841 0.003347 0.005289 0.020845 0.009891 0.042674
#
#
# Mechanical properties :
#
#
# Convention : Reuss Voigt Hill
#
# Bulk Modulus (GPa) = 38.16693 57.38547 47.77620
# Shear Modulus (GPa) = 20.82376 32.70402 26.76389
#
# Velocity S-wave (km/s) = 3.19048 3.99832 3.61702
# Velocity P-wave (km/s) = 5.67708 7.02616 6.38733
#
# Compressibility (1/GPa) = 0.02620069
#
# Stress axis : x y z
#
# Youngs Moduli (GPa) = 27.43672 86.43676 100.18623
#
# Poissons Ratio (x) = 0.71584 0.72123
# Poissons Ratio (y) = 0.22722 0.04189
# Poissons Ratio (z) = 0.19751 0.03614
#
# Static dielectric constant tensor:
#      x y z
#    x 3.604450 -0.200330 -0.113990 
#    y -0.200330 4.155980 -0.237220 
#    z -0.113990 -0.237220 3.907690 
# 
# 
# High freq. dielectric constant tensor:
#      x y z
#    x 1.777780 -0.005400 -0.012780 
#    y -0.005400 1.811880 -0.023100 
#    z -0.012780 -0.023100 1.811170 
# 
# From -- ./inp_files/155485.got.cif
#   From: 2010.06.25/outbox.cif.g09.slc.cpg/sg2_78_cif.got.tgz:155485.got - 2010.06.27 13:26:56.
