data_PCOD8004536
_publ_section_title
;
Structure prediction by ZEFSAII (Michael W. Deem and Ramdas Pophale) SiO2 
 PCOD8004536
Probable space group: P -1
;
_chemical_formula_sum "Si O2"
_cell_formula_units_Z 16
_cell_length_a 8.825489
_cell_length_b 15.606765
_cell_length_c 9.389197
_cell_angle_alpha 141.497614
_cell_angle_beta 64.764519
_cell_angle_gamma 108.271722
_cell_volume 727.803127
_symmetry_space_group_name_H-M "P -1"
_symmetry_group_IT_number 2
_symmetry_cell_setting 'triclinic'
loop_
_space_group_symop_operation_xyz
x,y,z
-x,-y,-z
loop_
_atom_site_type_symbol
_atom_site_label
_atom_site_fract_x
_atom_site_fract_y
_atom_site_fract_z
Si Si1 0.956508 0.990352 0.170297
Si Si2 0.190329 0.212832 0.405106
Si Si3 0.381321 0.082242 0.899097
Si Si4 0.645487 0.686334 0.978803
Si Si5 0.562159 0.805124 0.468882
Si Si6 0.997634 0.516747 0.191528
Si Si7 0.028135 0.697156 0.845592
Si Si8 0.716261 0.398813 0.620034
O O1 0.755246 0.976441 0.235292
O O2 0.022293 0.128179 0.397846
O O3 0.049971 0.862044 0.048496
O O4 0.000000 0.000000 0.000000
O O5 0.290487 0.241674 0.545470
O O6 0.134195 0.359743 0.552040
O O7 0.305755 0.121410 0.133580
O O8 0.452733 0.221814 0.981829
O O9 0.530842 0.969525 0.709086
O O10 0.626616 0.764340 0.236175
O O11 0.586240 0.528539 0.804549
O O12 0.840364 0.671255 0.834486
O O13 0.388234 0.735098 0.484711
O O14 0.942480 0.374983 0.105453
O O15 0.181918 0.558520 0.224298
O O16 0.000000 0.500000 0.000000
O O17 0.155745 0.627086 0.592821
#
# Coordination Sequence:
#
# PCOD8004536 Si02
#       8
#     2   2   2   2   2   2   2   2
#     4   9  18  36  63  89 112 149 203 249 286 341
#     4  11  21  38  59  87 120 156 198 245 292 354
#     4  10  20  38  60  83 113 158 200 240 291 355
#     4  10  21  38  59  86 118 154 195 245 298 351
#     4  12  24  38  57  89 125 156 190 244 304 350
#     4  11  22  39  62  91 121 156 199 251 299 349
#     4  10  20  39  66  91 114 156 207 246 290 357
#     4  11  21  40  64  86 115 159 201 240 294 361
#
# _framework density 21.983965999999999
#
# number of rings (size 3 to 8) (size 9 to 14) (size 15 to 20)
#    0.000    1.500    0.000    9.375    0.000    0.000 
#    0.000   13.125    0.000    0.000    0.000    0.000 
#    0.000    0.000    0.000    0.000    0.000    0.000 
#
# Total GULP energy -198337.236556 kJ/mol
# GULP energy per Si atom -12396.077285 kJ/mol
# Density = 2.193393 g / cm^3
# Si number density = 21.983966 Si / 1000 Ang^3
#
#
#
# Elastic Constant Matrix: (Units=GPa)
#
#
# Indices 1 2 3 4 5 6 
#
# 1 47.0238 29.0916 0.9140 3.1964 3.3133 -2.3627
# 2 29.0916 135.8157 29.7581 22.6260 0.5835 -24.7212
# 3 0.9140 29.7581 61.2300 12.8732 -7.7501 -2.6609
# 4 3.1964 22.6260 12.8732 43.8979 -13.4368 -12.3560
# 5 3.3133 0.5835 -7.7501 -13.4368 27.0324 3.9913
# 6 -2.3627 -24.7212 -2.6609 -12.3560 3.9913 21.4231
#
#
#
# Elastic Compliance Matrix: (Units=1/GPa)
#
#
# Indices 1 2 3 4 5 6 
#
# 1 0.025335 -0.006692 0.002649 -0.001183 -0.002066 -0.004897
# 2 -0.006692 0.012706 -0.005593 -0.002031 -0.003956 0.012795
# 3 0.002649 -0.005593 0.020082 -0.003618 0.004735 -0.006636
# 4 -0.001183 -0.002031 -0.003618 0.032925 0.013517 0.013548
# 5 -0.002066 -0.003956 0.004735 0.013517 0.046147 -0.005007
# 6 -0.004897 0.012795 -0.006636 0.013548 -0.005007 0.068826
#
#
# Mechanical properties :
#
#
# Convention : Reuss Voigt Hill
#
# Bulk Modulus (GPa) = 25.74040 40.39965 33.07002
# Shear Modulus (GPa) = 20.98692 30.75777 25.87235
#
# Velocity S-wave (km/s) = 3.09309 3.74451 3.43428
# Velocity P-wave (km/s) = 4.94878 6.09196 5.54988
#
# Compressibility (1/GPa) = 0.03884944
#
# Stress axis : x y z
#
# Youngs Moduli (GPa) = 39.47177 78.70149 49.79549
#
# Poissons Ratio (x) = 0.52670 -0.13189
# Poissons Ratio (y) = 0.26416 0.27851
# Poissons Ratio (z) = -0.10455 0.44018
#
# Static dielectric constant tensor:
#      x y z
#    x 3.813260 0.000890 -0.041320 
#    y 0.000890 4.411260 0.471330 
#    z -0.041320 0.471330 3.963550 
# 
# 
# High freq. dielectric constant tensor:
#      x y z
#    x 1.826290 -0.011120 -0.013600 
#    y -0.011120 1.880980 0.019540 
#    z -0.013600 0.019540 1.864680 
# 
# From -- ./inp_files/209181.got.cif
#   From: 2010.06.25/outbox.cif.g09.slc.cpg/sg2_105_cif.got.tgz:209181.got - 2010.06.27 13:26:56.
