data_PCOD8004612
_publ_section_title
;
Structure prediction by ZEFSAII (Michael W. Deem and Ramdas Pophale) SiO2 
 PCOD8004612
Probable space group: P -1
;
_chemical_formula_sum "Si O2"
_cell_formula_units_Z 16
_cell_length_a 13.554372
_cell_length_b 9.357708
_cell_length_c 19.609040
_cell_angle_alpha 102.139631
_cell_angle_beta 37.451670
_cell_angle_gamma 132.594522
_cell_volume 760.383151
_symmetry_space_group_name_H-M "P -1"
_symmetry_group_IT_number 2
_symmetry_cell_setting 'triclinic'
loop_
_space_group_symop_operation_xyz
x,y,z
-x,-y,-z
loop_
_atom_site_type_symbol
_atom_site_label
_atom_site_fract_x
_atom_site_fract_y
_atom_site_fract_z
Si Si1 0.365148 0.911224 0.868239
Si Si2 0.707458 0.223768 0.848316
Si Si3 0.663062 0.368679 0.239109
Si Si4 0.740021 0.552074 0.450042
Si Si5 0.369708 0.516994 0.123680
Si Si6 0.747219 0.877954 0.432971
Si Si7 0.295327 0.337316 0.381507
Si Si8 0.682215 0.809168 0.118138
O O1 0.485392 0.875004 0.749475
O O2 0.614208 0.108220 0.811501
O O3 0.349577 0.041117 0.840849
O O4 0.036395 0.629343 0.060183
O O5 0.705046 0.396847 0.871064
O O6 0.049190 0.417450 0.690106
O O7 0.500000 0.000000 0.000000
O O8 0.515082 0.258690 0.384945
O O9 0.596465 0.472265 0.250419
O O10 0.863187 0.806071 0.383274
O O11 0.396425 0.249546 0.576990
O O12 0.743386 0.565160 0.531218
O O13 0.650503 0.757356 0.049023
O O14 0.500000 0.500000 0.000000
O O15 0.043738 0.214019 0.306020
O O16 0.379433 0.489658 0.282404
O O17 0.000000 0.000000 0.500000
O O18 0.000000 0.000000 0.000000
#
# Coordination Sequence:
#
# PCOD8004612 Si02
#       8
#     2   2   2   2   2   2   2   2
#     4  10  22  39  63  92 129 166 211 263 318 375
#     4  11  23  41  62  91 126 165 214 261 318 383
#     4  10  20  38  60  91 125 167 207 263 313 378
#     4  10  22  39  65  90 125 174 206 260 317 384
#     4  11  26  42  65  93 130 166 214 269 321 381
#     4  10  22  42  63  91 130 166 214 261 323 381
#     4  11  22  38  64  93 127 165 218 260 315 382
#     4  11  23  42  64  93 128 167 214 261 319 377
#
# _framework density 21.042023
#
# number of rings (size 3 to 8) (size 9 to 14) (size 15 to 20)
#    0.000    1.500    1.250    3.750    1.750    4.500 
#    2.250    3.125    0.000    0.000    0.000    0.000 
#    0.000    0.000    0.000    0.000    0.000    0.000 
#
# Total GULP energy -198337.611577 kJ/mol
# GULP energy per Si atom -12396.100724 kJ/mol
# Density = 2.099413 g / cm^3
# Si number density = 21.042023 Si / 1000 Ang^3
#
#
#
# Elastic Constant Matrix: (Units=GPa)
#
#
# Indices 1 2 3 4 5 6 
#
# 1 95.8124 34.1756 32.7823 4.0698 2.5970 -9.6786
# 2 34.1756 106.9599 36.5604 14.8506 4.8281 -9.2843
# 3 32.7823 36.5604 83.3804 12.7660 2.6337 -11.4168
# 4 4.0698 14.8506 12.7660 41.9131 -4.3812 -0.5969
# 5 2.5970 4.8281 2.6337 -4.3812 29.4276 -2.7065
# 6 -9.6786 -9.2843 -11.4168 -0.5969 -2.7065 35.4525
#
#
#
# Elastic Compliance Matrix: (Units=1/GPa)
#
#
# Indices 1 2 3 4 5 6 
#
# 1 0.012841 -0.002812 -0.003736 0.000904 -0.000058 0.001577
# 2 -0.002812 0.012048 -0.003499 -0.003100 -0.001778 0.001073
# 3 -0.003736 -0.003499 0.015946 -0.003286 -0.000729 0.003088
# 4 0.000904 -0.003100 -0.003286 0.026336 0.004568 -0.000831
# 5 -0.000058 -0.001778 -0.000729 0.004568 0.035212 0.002049
# 6 0.001577 0.001073 0.003088 -0.000831 0.002049 0.030055
#
#
# Mechanical properties :
#
#
# Convention : Reuss Voigt Hill
#
# Bulk Modulus (GPa) = 48.21821 54.79883 51.50852
# Shear Modulus (GPa) = 31.35866 33.53424 32.44645
#
# Velocity S-wave (km/s) = 3.86461 3.99642 3.93107
# Velocity P-wave (km/s) = 6.54817 6.88435 6.71837
#
# Compressibility (1/GPa) = 0.02073905
#
# Stress axis : x y z
#
# Youngs Moduli (GPa) = 77.87643 83.00341 62.71334
#
# Poissons Ratio (x) = 0.23338 0.23432
# Poissons Ratio (y) = 0.21897 0.21946
# Poissons Ratio (z) = 0.29097 0.29047
#
# Static dielectric constant tensor:
#      x y z
#    x 4.046410 -0.091910 -0.078040 
#    y -0.091910 3.965440 -0.001700 
#    z -0.078040 -0.001700 3.702490 
# 
# 
# High freq. dielectric constant tensor:
#      x y z
#    x 1.828560 0.004140 -0.005040 
#    y 0.004140 1.831830 0.005200 
#    z -0.005040 0.005200 1.816310 
# 
# From -- ./inp_files/262334.got.cif
#   From: 2010.06.25/outbox.cif.g09.slc.cpg/sg2_132_cif.got.tgz:262334.got - 2010.06.27 13:26:56.
