data_PCOD8004455
_publ_section_title
;
Structure prediction by ZEFSAII (Michael W. Deem and Ramdas Pophale) SiO2 
 PCOD8004455
Probable space group: P -1
;
_chemical_formula_sum "Si O2"
_cell_formula_units_Z 16
_cell_length_a 6.029945
_cell_length_b 15.811951
_cell_length_c 15.614483
_cell_angle_alpha 144.541226
_cell_angle_beta 105.345586
_cell_angle_gamma 92.203692
_cell_volume 742.064719
_symmetry_space_group_name_H-M "P -1"
_symmetry_group_IT_number 2
_symmetry_cell_setting 'triclinic'
loop_
_space_group_symop_operation_xyz
x,y,z
-x,-y,-z
loop_
_atom_site_type_symbol
_atom_site_label
_atom_site_fract_x
_atom_site_fract_y
_atom_site_fract_z
Si Si1 0.632104 0.092448 0.260078
Si Si2 0.286342 0.579340 0.128681
Si Si3 0.005867 0.030273 0.737292
Si Si4 0.531179 0.258074 0.549222
Si Si5 0.171064 0.776223 0.001739
Si Si6 0.361337 0.459156 0.321025
Si Si7 0.445921 0.296759 0.912418
Si Si8 0.291354 0.625745 0.613670
O O1 0.652348 0.189348 0.431640
O O2 0.678681 0.197206 0.264556
O O3 0.353107 0.935394 0.096109
O O4 0.856618 0.037266 0.236868
O O5 0.291295 0.682235 0.298694
O O6 0.469906 0.699840 0.174062
O O7 0.379843 0.444007 0.049305
O O8 0.000000 0.500000 0.000000
O O9 0.957938 0.172376 0.892158
O O10 0.198040 0.118729 0.750767
O O11 0.741934 0.878659 0.556505
O O12 0.508437 0.416516 0.641684
O O13 0.330362 0.687755 0.985452
O O14 0.943065 0.654152 0.816954
O O15 0.399897 0.569004 0.498071
O O16 0.525908 0.357909 0.271637
O O17 0.000000 0.500000 0.500000
#
# Coordination Sequence:
#
# PCOD8004455 Si02
#       8
#     2   2   2   2   2   2   2   2
#     4   9  21  38  58  85 114 151 194 232 284 345
#     4  11  23  39  60  87 117 148 189 238 285 337
#     4  10  20  38  59  82 115 153 191 233 281 335
#     4  10  21  37  59  83 113 151 189 233 285 340
#     4  10  21  40  61  83 116 153 191 234 283 339
#     4  10  21  37  59  84 113 151 192 235 285 340
#     4  10  22  38  59  87 115 148 191 235 282 342
#     4  10  21  37  57  85 117 148 190 240 285 335
#
# _framework density 21.561461999999999
#
# number of rings (size 3 to 8) (size 9 to 14) (size 15 to 20)
#    0.000    2.000    0.000    3.000    0.000    9.000 
#    0.000   10.000    0.000    0.000    0.000    0.000 
#    0.000    0.000    0.000    0.000    0.000    0.000 
#
# Total GULP energy -198364.734735 kJ/mol
# GULP energy per Si atom -12397.795921 kJ/mol
# Density = 2.151239 g / cm^3
# Si number density = 21.561462 Si / 1000 Ang^3
#
#
#
# Elastic Constant Matrix: (Units=GPa)
#
#
# Indices 1 2 3 4 5 6 
#
# 1 93.1572 42.8509 20.4635 4.9279 22.0139 -16.9226
# 2 42.8509 129.7741 33.4604 19.3824 19.3927 -10.8214
# 3 20.4635 33.4604 79.1325 -0.3418 24.3942 -7.5432
# 4 4.9279 19.3824 -0.3418 31.1756 -0.4122 4.4868
# 5 22.0139 19.3927 24.3942 -0.4122 29.4919 0.2241
# 6 -16.9226 -10.8214 -7.5432 4.4868 0.2241 34.9222
#
#
#
# Elastic Compliance Matrix: (Units=1/GPa)
#
#
# Indices 1 2 3 4 5 6 
#
# 1 0.015878 -0.003048 0.001253 -0.001800 -0.010965 0.007322
# 2 -0.003048 0.011057 -0.002859 -0.006780 -0.002742 0.002220
# 3 0.001253 -0.002859 0.018233 0.001073 -0.014149 0.003612
# 4 -0.001800 -0.006780 0.001073 0.037758 0.005500 -0.007628
# 5 -0.010965 -0.002742 -0.014149 0.005500 0.055753 -0.010284
# 6 0.007322 0.002220 0.003612 -0.007628 -0.010284 0.034697
#
#
# Mechanical properties :
#
#
# Convention : Reuss Voigt Hill
#
# Bulk Modulus (GPa) = 27.88733 55.06816 41.47775
# Shear Modulus (GPa) = 25.68880 32.80386 29.24633
#
# Velocity S-wave (km/s) = 3.45544 3.90476 3.68695
# Velocity P-wave (km/s) = 5.37420 6.77680 6.11585
#
# Compressibility (1/GPa) = 0.03585857
#
# Stress axis : x y z
#
# Youngs Moduli (GPa) = 62.98166 90.44195 54.84651
#
# Poissons Ratio (x) = 0.27567 -0.06873
# Poissons Ratio (y) = 0.19197 0.15683
# Poissons Ratio (z) = -0.07893 0.25862
#
# Static dielectric constant tensor:
#      x y z
#    x 3.918590 -0.100500 0.070880 
#    y -0.100500 4.279500 0.175460 
#    z 0.070880 0.175460 3.701240 
# 
# 
# High freq. dielectric constant tensor:
#      x y z
#    x 1.849070 -0.000930 0.010920 
#    y -0.000930 1.859380 0.015620 
#    z 0.010920 0.015620 1.826120 
# 
# From -- ./inp_files/37458.got.cif
#   From: 2010.06.25/outbox.cif.g09.slc.cpg/sg2_19_cif.got.tgz:37458.got - 2010.06.27 13:26:56.
