data_PCOD8004487
_publ_section_title
;
Structure prediction by ZEFSAII (Michael W. Deem and Ramdas Pophale) SiO2 
 PCOD8004487
Probable space group: P -1
;
_chemical_formula_sum "Si O2"
_cell_formula_units_Z 14
_cell_length_a 8.247898
_cell_length_b 14.298400
_cell_length_c 11.399823
_cell_angle_alpha 31.112885
_cell_angle_beta 102.305046
_cell_angle_gamma 90.463904
_cell_volume 636.962475
_symmetry_space_group_name_H-M "P -1"
_symmetry_group_IT_number 2
_symmetry_cell_setting 'triclinic'
loop_
_space_group_symop_operation_xyz
x,y,z
-x,-y,-z
loop_
_atom_site_type_symbol
_atom_site_label
_atom_site_fract_x
_atom_site_fract_y
_atom_site_fract_z
Si Si1 0.686863 0.719523 0.608844
Si Si2 0.804934 0.440502 0.493202
Si Si3 0.920658 0.066052 0.071061
Si Si4 0.307806 0.618736 0.884799
Si Si5 0.710288 0.227666 0.522263
Si Si6 0.825198 0.709342 0.386428
Si Si7 0.167729 0.952700 0.660298
O O1 0.472281 0.809777 0.486744
O O2 0.746363 0.666818 0.541194
O O3 0.764288 0.869942 0.515167
O O4 0.772059 0.528238 0.906646
O O5 0.665372 0.405291 0.418426
O O6 0.723138 0.645670 0.330093
O O7 0.972831 0.435171 0.444456
O O8 0.865093 0.267765 0.781733
O O9 0.873120 0.110496 0.150919
O O10 0.816436 0.931536 0.143880
O O11 0.132631 0.956914 0.203868
O O12 0.205623 0.720374 0.641571
O O13 0.318914 0.774095 0.815374
O O14 0.500000 0.500000 0.000000
O O15 0.000000 0.000000 0.500000
#
# Coordination Sequence:
#
# PCOD8004487 Si02
#       7
#     2   2   2   2   2   2   2
#     4  10  23  40  61  86 125 156 199 253 303 345
#     4  10  20  38  60  83 119 156 199 246 298 346
#     4  10  20  40  59  85 121 151 203 250 288 352
#     4  10  22  41  59  90 125 155 195 250 301 354
#     4  10  20  38  59  87 122 159 195 247 297 361
#     4   9  19  37  57  84 114 150 200 244 288 356
#     4  11  22  42  64  91 118 159 207 246 295 363
#
# _framework density 21.979316000000001
#
# number of rings (size 3 to 8) (size 9 to 14) (size 15 to 20)
#    0.000    2.000    1.429    2.571    0.000    3.429 
#    7.714   13.571    0.000    0.000    0.000    0.000 
#    0.000    0.000    0.000    0.000    0.000    0.000 
#
# Total GULP energy -173483.634111 kJ/mol
# GULP energy per Si atom -12391.688151 kJ/mol
# Density = 2.192929 g / cm^3
# Si number density = 21.979316 Si / 1000 Ang^3
#
#
#
# Elastic Constant Matrix: (Units=GPa)
#
#
# Indices 1 2 3 4 5 6 
#
# 1 77.7429 48.3246 24.3994 -0.1651 -23.6624 0.1683
# 2 48.3246 190.2189 34.6131 -13.2785 -14.0378 -4.5190
# 3 24.3994 34.6131 60.7023 0.4419 -22.3196 -6.5583
# 4 -0.1651 -13.2785 0.4419 30.4341 -6.4727 -2.5256
# 5 -23.6624 -14.0378 -22.3196 -6.4727 25.2921 1.9219
# 6 0.1683 -4.5190 -6.5583 -2.5256 1.9219 42.1428
#
#
#
# Elastic Compliance Matrix: (Units=1/GPa)
#
#
# Indices 1 2 3 4 5 6 
#
# 1 0.020687 -0.003865 0.000471 0.002213 0.018277 -0.001125
# 2 -0.003865 0.006846 -0.002973 0.002671 -0.001796 0.000529
# 3 0.000471 -0.002973 0.026760 0.003471 0.023066 0.003000
# 4 0.002213 0.002671 0.003471 0.037595 0.016060 0.002338
# 5 0.018277 -0.001796 0.023066 0.016060 0.080057 0.000635
# 6 -0.001125 0.000529 0.003000 0.002338 0.000635 0.024368
#
#
# Mechanical properties :
#
#
# Convention : Reuss Voigt Hill
#
# Bulk Modulus (GPa) = 24.06177 60.37090 42.21633
# Shear Modulus (GPa) = 22.43155 34.32892 28.38023
#
# Velocity S-wave (km/s) = 3.19811 3.95634 3.59726
# Velocity P-wave (km/s) = 4.96069 6.95679 6.04175
#
# Compressibility (1/GPa) = 0.04155971
#
# Stress axis : x y z
#
# Youngs Moduli (GPa) = 48.33861 146.06165 37.36958
#
# Poissons Ratio (x) = 0.56449 -0.01760
# Poissons Ratio (y) = 0.18682 0.11111
# Poissons Ratio (z) = -0.02277 0.43427
#
# Static dielectric constant tensor:
#      x y z
#    x 3.856710 0.038820 -0.232730 
#    y 0.038820 5.519270 0.448090 
#    z -0.232730 0.448090 4.403810 
# 
# 
# High freq. dielectric constant tensor:
#      x y z
#    x 1.845370 -0.012830 -0.022640 
#    y -0.012830 1.894620 0.003480 
#    z -0.022640 0.003480 1.847340 
# 
# From -- ./inp_files/188195.got.cif
#   From: 2010.06.25/outbox.cif.g09.slc.cpg/sg2_95_cif.got.tgz:188195.got - 2010.06.27 13:26:56.
