data_PCOD8004090
_publ_section_title
;
Structure prediction by ZEFSAII (Michael W. Deem and Ramdas Pophale) SiO2 
 PCOD8004090
Probable space group: P -1
;
_chemical_formula_sum "Si O2"
_cell_formula_units_Z 16
_cell_length_a 5.203432
_cell_length_b 23.569730
_cell_length_c 20.858159
_cell_angle_alpha 22.584205
_cell_angle_beta 73.198411
_cell_angle_gamma 61.000548
_cell_volume 757.478079
_symmetry_space_group_name_H-M "P -1"
_symmetry_group_IT_number 2
_symmetry_cell_setting 'triclinic'
loop_
_space_group_symop_operation_xyz
x,y,z
-x,-y,-z
loop_
_atom_site_type_symbol
_atom_site_label
_atom_site_fract_x
_atom_site_fract_y
_atom_site_fract_z
Si Si1 0.608197 0.173954 0.421538
Si Si2 0.363017 0.849230 0.699026
Si Si3 0.700719 0.416730 0.944292
Si Si4 0.667824 0.284733 0.958696
Si Si5 0.142660 0.553327 0.489913
Si Si6 0.729516 0.710417 0.133521
Si Si7 0.565415 0.888404 0.772566
Si Si8 0.265667 0.031263 0.925521
O O1 0.480432 0.178977 0.353210
O O2 0.439181 0.379435 0.240673
O O3 0.500559 0.085353 0.574288
O O4 0.008196 0.048702 0.521982
O O5 0.602532 0.842580 0.741726
O O6 0.348786 0.678915 0.892981
O O7 0.513307 0.430282 0.877417
O O8 0.096197 0.280489 0.041687
O O9 0.410782 0.340883 0.861327
O O10 0.994137 0.258944 0.936436
O O11 0.734236 0.101433 0.179701
O O12 0.500000 0.500000 0.500000
O O13 0.133332 0.456707 0.654124
O O14 0.000000 0.500000 0.500000
O O15 0.905229 0.767003 0.299505
O O16 0.447813 0.899556 0.989792
O O17 0.500000 0.000000 0.000000
O O18 0.000000 0.000000 0.000000
#
# Coordination Sequence:
#
# PCOD8004090 Si02
#       8
#     2   2   2   2   2   2   2   2
#     4  10  20  37  63  95 127 169 221 281 338 401
#     4   9  20  36  60  96 132 162 220 278 352 390
#     4  10  21  40  62  90 129 175 222 275 332 388
#     4  11  24  45  65  90 133 186 220 269 323 380
#     4  12  23  43  70 103 135 165 207 266 324 382
#     4  12  24  44  71  95 139 173 220 269 314 399
#     4  10  21  40  61  88 131 172 219 277 327 388
#     4  12  23  43  72 106 133 171 208 261 337 385
#
# _framework density 21.122722
#
# number of rings (size 3 to 8) (size 9 to 14) (size 15 to 20)
#    0.000    1.250    3.750    2.250    0.000    2.500 
#    2.250    3.750    0.000    0.000    0.000    0.000 
#    0.000    0.000    0.000    0.000    0.000    0.000 
#
# Total GULP energy -198262.441412 kJ/mol
# GULP energy per Si atom -12391.402588 kJ/mol
# Density = 2.107465 g / cm^3
# Si number density = 21.122722 Si / 1000 Ang^3
#
#
#
# Elastic Constant Matrix: (Units=GPa)
#
#
# Indices 1 2 3 4 5 6 
#
# 1 122.5625 38.3312 53.9868 19.6315 -14.1024 7.1000
# 2 38.3312 83.6457 73.4774 27.4091 -0.6771 5.6197
# 3 53.9868 73.4774 191.4430 -9.1223 -11.7791 -8.2485
# 4 19.6315 27.4091 -9.1223 33.0819 -2.4358 1.4000
# 5 -14.1024 -0.6771 -11.7791 -2.4358 28.9895 17.3645
# 6 7.1000 5.6197 -8.2485 1.4000 17.3645 41.1521
#
#
#
# Elastic Compliance Matrix: (Units=1/GPa)
#
#
# Indices 1 2 3 4 5 6 
#
# 1 0.012098 0.001539 -0.004249 -0.008874 0.006898 -0.005758
# 2 0.001539 0.041666 -0.018989 -0.040856 -0.005905 -0.005880
# 3 -0.004249 -0.018989 0.015148 0.022461 0.002915 0.004368
# 4 -0.008874 -0.040856 0.022461 0.075744 0.006433 0.006321
# 5 0.006898 -0.005905 0.002915 0.006433 0.052793 -0.022295
# 6 -0.005758 -0.005880 0.004368 0.006321 -0.022295 0.036164
#
#
# Mechanical properties :
#
#
# Convention : Reuss Voigt Hill
#
# Bulk Modulus (GPa) = 39.19499 81.02685 60.11092
# Shear Modulus (GPa) = 17.51221 36.10175 26.80698
#
# Velocity S-wave (km/s) = 2.88248 4.13866 3.56632
# Velocity P-wave (km/s) = 5.44742 7.82824 6.74373
#
# Compressibility (1/GPa) = 0.02551346
#
# Stress axis : x y z
#
# Youngs Moduli (GPa) = 82.65798 24.00052 66.01689
#
# Poissons Ratio (x) = -0.03693 0.28049
# Poissons Ratio (y) = -0.12720 1.25360
# Poissons Ratio (z) = 0.35120 0.45575
#
# Static dielectric constant tensor:
#      x y z
#    x 3.902150 0.267350 -0.287810 
#    y 0.267350 3.837460 0.400130 
#    z -0.287810 0.400130 4.000860 
# 
# 
# High freq. dielectric constant tensor:
#      x y z
#    x 1.839320 0.016340 -0.018900 
#    y 0.016340 1.816270 0.021030 
#    z -0.018900 0.021030 1.835920 
# 
# From -- ./inp_files/584392.got.cif
#   From: 2010.06.25/outbox.cif.g09.slc.cpg/sg2_293_cif.got.tgz:584392.got - 2010.06.27 13:26:56.
