data_PCOD8004692
_publ_section_title
;
Structure prediction by ZEFSAII (Michael W. Deem and Ramdas Pophale) SiO2 
 PCOD8004692
Probable space group: P -1
;
_chemical_formula_sum "Si O2"
_cell_formula_units_Z 14
_cell_length_a 13.617092
_cell_length_b 17.712373
_cell_length_c 25.791814
_cell_angle_alpha 160.082860
_cell_angle_beta 21.163786
_cell_angle_gamma 150.382622
_cell_volume 763.697444
_symmetry_space_group_name_H-M "P -1"
_symmetry_group_IT_number 2
_symmetry_cell_setting 'triclinic'
loop_
_space_group_symop_operation_xyz
x,y,z
-x,-y,-z
loop_
_atom_site_type_symbol
_atom_site_label
_atom_site_fract_x
_atom_site_fract_y
_atom_site_fract_z
Si Si1 0.181216 0.492180 0.636353
Si Si2 0.578357 0.769519 0.472113
Si Si3 0.938827 0.971507 0.571904
Si Si4 0.569852 0.924378 0.042206
Si Si5 0.698472 0.556016 0.664974
Si Si6 0.586899 0.640643 0.663288
Si Si7 0.059184 0.034933 0.934028
O O1 0.500000 0.500000 0.500000
O O2 0.027385 0.290802 0.606263
O O3 0.172541 0.462422 0.558995
O O4 0.005616 0.707236 0.880996
O O5 0.463210 0.669354 0.410166
O O6 0.620955 0.559711 0.355876
O O7 0.856158 0.890118 0.405038
O O8 0.368809 0.959682 0.721032
O O9 0.640802 0.057353 0.794362
O O10 0.000000 0.000000 0.500000
O O11 0.553612 0.141026 0.152966
O O12 0.867775 0.892461 0.900166
O O13 0.526760 0.708517 0.889192
O O14 0.715210 0.690402 0.688646
O O15 0.000000 0.500000 0.500000
O O16 0.000000 0.000000 0.000000
#
# Coordination Sequence:
#
# PCOD8004692 Si02
#       7
#     2   2   2   2   2   2   2
#     4  11  20  37  63  86 116 154 198 239 292 360
#     4  10  22  36  58  84 125 144 194 250 294 335
#     4  11  23  38  58  91 123 151 193 248 300 352
#     4  11  21  37  65  84 115 163 203 237 292 354
#     4  10  20  38  61  90 114 154 204 249 287 345
#     4   9  19  36  59  88 112 150 206 240 284 351
#     4  12  20  34  61  90 113 154 199 244 299 349
#
# _framework density 18.331866999999999
#
# number of rings (size 3 to 8) (size 9 to 14) (size 15 to 20)
#    0.857    0.571    5.714    2.143    0.000    1.143 
#    0.000    0.000    0.000    3.429    0.000    0.000 
#    0.000    0.000    0.000    0.000    0.000    0.000 
#
# Total GULP energy -173452.807494 kJ/mol
# GULP energy per Si atom -12389.486250 kJ/mol
# Density = 1.829014 g / cm^3
# Si number density = 18.331867 Si / 1000 Ang^3
#
#
#
# Elastic Constant Matrix: (Units=GPa)
#
#
# Indices 1 2 3 4 5 6 
#
# 1 100.6503 32.3052 16.3911 2.4243 10.7633 0.8925
# 2 32.3052 109.7789 22.3743 12.7992 -0.5382 8.3722
# 3 16.3911 22.3743 82.5575 12.3639 14.9740 0.7050
# 4 2.4243 12.7992 12.3639 24.7942 4.6316 5.9493
# 5 10.7633 -0.5382 14.9740 4.6316 34.8267 -0.7509
# 6 0.8925 8.3722 0.7050 5.9493 -0.7509 29.9787
#
#
#
# Elastic Compliance Matrix: (Units=1/GPa)
#
#
# Indices 1 2 3 4 5 6 
#
# 1 0.011517 -0.003418 -0.001002 0.001725 -0.003406 0.000208
# 2 -0.003418 0.011242 -0.002184 -0.004395 0.002710 -0.002046
# 3 -0.001002 -0.002184 0.014659 -0.005394 -0.005283 0.001233
# 4 0.001725 -0.004395 -0.005394 0.048032 -0.004850 -0.008350
# 5 -0.003406 0.002710 -0.005283 -0.004850 0.032751 0.001252
# 6 0.000208 -0.002046 0.001233 -0.008350 0.001252 0.035582
#
#
# Mechanical properties :
#
#
# Convention : Reuss Voigt Hill
#
# Bulk Modulus (GPa) = 41.30784 48.34757 44.82771
# Shear Modulus (GPa) = 28.56143 32.71431 30.63787
#
# Velocity S-wave (km/s) = 3.95146 4.22899 4.09258
# Velocity P-wave (km/s) = 6.58794 7.09060 6.84389
#
# Compressibility (1/GPa) = 0.02420848
#
# Stress axis : x y z
#
# Youngs Moduli (GPa) = 86.83065 88.95169 68.21737
#
# Poissons Ratio (x) = 0.30407 0.06838
# Poissons Ratio (y) = 0.29682 0.14897
# Poissons Ratio (z) = 0.08704 0.19425
#
# Static dielectric constant tensor:
#      x y z
#    x 3.529400 0.062910 0.194880 
#    y 0.062910 3.239350 0.211990 
#    z 0.194880 0.211990 3.563030 
# 
# 
# High freq. dielectric constant tensor:
#      x y z
#    x 1.717610 0.003650 0.013130 
#    y 0.003650 1.686020 0.018590 
#    z 0.013130 0.018590 1.710100 
# 
# From -- ./inp_files/199396.got.cif
#   From: 2010.06.25/outbox.cif.g09.slc.cpg/sg2_100_cif.got.tgz:199396.got - 2010.06.27 13:26:56.
