data_PCOD8004537
_publ_section_title
;
Structure prediction by ZEFSAII (Michael W. Deem and Ramdas Pophale) SiO2 
 PCOD8004537
Probable space group: P -1
;
_chemical_formula_sum "Si O2"
_cell_formula_units_Z 16
_cell_length_a 8.648925
_cell_length_b 9.000887
_cell_length_c 20.943190
_cell_angle_alpha 122.661014
_cell_angle_beta 45.851260
_cell_angle_gamma 133.192989
_cell_volume 846.693956
_symmetry_space_group_name_H-M "P -1"
_symmetry_group_IT_number 2
_symmetry_cell_setting 'triclinic'
loop_
_space_group_symop_operation_xyz
x,y,z
-x,-y,-z
loop_
_atom_site_type_symbol
_atom_site_label
_atom_site_fract_x
_atom_site_fract_y
_atom_site_fract_z
Si Si1 0.745743 0.607614 0.807457
Si Si2 0.384296 0.758703 0.973718
Si Si3 0.495653 0.518375 0.411749
Si Si4 0.106265 0.224571 0.548620
Si Si5 0.904257 0.486179 0.122520
Si Si6 0.757355 0.265271 0.243279
Si Si7 0.488095 0.393421 0.714246
Si Si8 0.606043 0.185166 0.729252
O O1 0.609324 0.712772 0.905534
O O2 0.696822 0.593592 0.741115
O O3 0.626332 0.369532 0.810747
O O4 0.040289 0.732407 0.765980
O O5 0.234565 0.675515 0.931563
O O6 0.193704 0.644706 0.060328
O O7 0.500000 0.000000 0.000000
O O8 0.230169 0.388041 0.493413
O O9 0.680534 0.721763 0.446521
O O10 0.625414 0.381504 0.336999
O O11 0.437314 0.582995 0.375682
O O12 0.887833 0.243730 0.648166
O O13 0.000000 0.000000 0.500000
O O14 0.887782 0.356416 0.159357
O O15 0.779817 0.623954 0.204091
O O16 0.545242 0.027972 0.239897
O O17 0.475374 0.189787 0.700309
#
# Coordination Sequence:
#
# PCOD8004537 Si02
#       8
#     2   2   2   2   2   2   2   2
#     4   9  21  38  57  83 117 147 189 239 279 340
#     4  10  21  39  60  84 116 152 186 238 291 332
#     4  10  20  38  60  83 114 149 192 238 284 335
#     4  11  21  37  59  86 115 149 190 238 286 337
#     4   9  21  38  58  86 116 144 196 236 277 345
#     4  11  20  37  62  84 114 156 187 235 286 338
#     4   8  19  40  56  82 115 150 186 238 279 339
#     4  10  21  38  56  84 118 149 190 232 286 336
#
# _framework density 18.897027000000001
#
# number of rings (size 3 to 8) (size 9 to 14) (size 15 to 20)
#    0.750    1.500    2.500    0.000    1.750    2.000 
#    2.250    1.875    0.000    0.000    0.000    0.000 
#    0.000    0.000    0.000    0.000    0.000    0.000 
#
# Total GULP energy -198298.738536 kJ/mol
# GULP energy per Si atom -12393.671158 kJ/mol
# Density = 1.885402 g / cm^3
# Si number density = 18.897027 Si / 1000 Ang^3
#
#
#
# Elastic Constant Matrix: (Units=GPa)
#
#
# Indices 1 2 3 4 5 6 
#
# 1 65.1817 24.0877 22.8325 -15.8762 -0.3800 -1.7507
# 2 24.0877 126.8408 43.5580 -5.9616 -3.4586 2.1482
# 3 22.8325 43.5580 66.7791 -18.8264 7.5028 -1.4723
# 4 -15.8762 -5.9616 -18.8264 31.7618 -5.5474 -0.1992
# 5 -0.3800 -3.4586 7.5028 -5.5474 30.4870 -0.1838
# 6 -1.7507 2.1482 -1.4723 -0.1992 -0.1838 21.4640
#
#
#
# Elastic Compliance Matrix: (Units=1/GPa)
#
#
# Indices 1 2 3 4 5 6 
#
# 1 0.019186 -0.002152 -0.003200 0.007682 0.002190 0.001651
# 2 -0.002152 0.010824 -0.007509 -0.003073 0.002479 -0.001781
# 3 -0.003200 -0.007509 0.024596 0.010714 -0.004982 0.002234
# 4 0.007682 -0.003073 0.010714 0.041942 0.004755 0.002099
# 5 0.002190 0.002479 -0.004982 0.004755 0.035200 -0.000066
# 6 0.001651 -0.001781 0.002234 0.002099 -0.000066 0.047075
#
#
# Mechanical properties :
#
#
# Convention : Reuss Voigt Hill
#
# Bulk Modulus (GPa) = 34.61996 48.86199 41.74098
# Shear Modulus (GPa) = 23.34550 27.96413 25.65481
#
# Velocity S-wave (km/s) = 3.51865 3.85101 3.68857
# Velocity P-wave (km/s) = 5.90491 6.75920 6.34645
#
# Compressibility (1/GPa) = 0.02888507
#
# Stress axis : x y z
#
# Youngs Moduli (GPa) = 52.12071 92.38339 40.65657
#
# Poissons Ratio (x) = 0.19878 0.13012
# Poissons Ratio (y) = 0.11215 0.30528
# Poissons Ratio (z) = 0.16681 0.69369
#
# Static dielectric constant tensor:
#      x y z
#    x 3.495340 0.025040 -0.069700 
#    y 0.025040 3.280880 0.031270 
#    z -0.069700 0.031270 3.482160 
# 
# 
# High freq. dielectric constant tensor:
#      x y z
#    x 1.729650 0.006590 -0.007460 
#    y 0.006590 1.722160 0.001470 
#    z -0.007460 0.001470 1.730540 
# 
# From -- ./inp_files/115982.got.cif
#   From: 2010.06.25/outbox.cif.g09.slc.cpg/sg2_58_cif.got.tgz:115982.got - 2010.06.27 13:26:56.
