data_PCOD8004821
_publ_section_title
;
Structure prediction by ZEFSAII (Michael W. Deem and Ramdas Pophale) SiO2 
 PCOD8004821
Probable space group: P -1
;
_chemical_formula_sum "Si O2"
_cell_formula_units_Z 14
_cell_length_a 8.721876
_cell_length_b 8.821591
_cell_length_c 21.145127
_cell_angle_alpha 38.792988
_cell_angle_beta 140.526915
_cell_angle_gamma 132.234245
_cell_volume 637.736536
_symmetry_space_group_name_H-M "P -1"
_symmetry_group_IT_number 2
_symmetry_cell_setting 'triclinic'
loop_
_space_group_symop_operation_xyz
x,y,z
-x,-y,-z
loop_
_atom_site_type_symbol
_atom_site_label
_atom_site_fract_x
_atom_site_fract_y
_atom_site_fract_z
Si Si1 0.203594 0.343004 0.635190
Si Si2 0.223000 0.816689 0.789780
Si Si3 0.686114 0.718308 0.644036
Si Si4 0.522740 0.001548 0.612710
Si Si5 0.614491 0.418425 0.200209
Si Si6 0.314831 0.802933 0.966657
Si Si7 0.017593 0.172270 0.765388
O O1 0.476748 0.485673 0.664176
O O2 0.174728 0.280397 0.719624
O O3 0.000000 0.500000 0.500000
O O4 0.178054 0.091812 0.668379
O O5 0.397263 0.726680 0.822386
O O6 0.355969 0.814745 0.900172
O O7 0.953482 0.642963 0.759131
O O8 0.659579 0.830347 0.528680
O O9 0.676102 0.924205 0.627489
O O10 0.725893 0.163879 0.670550
O O11 0.369421 0.769997 0.675916
O O12 0.856489 0.636513 0.203316
O O13 0.364316 0.533859 0.090631
O O14 0.055707 0.883868 0.877628
O O15 0.500000 0.000000 0.000000
#
# Coordination Sequence:
#
# PCOD8004821 Si02
#       7
#     2   2   2   2   2   2   2
#     4  11  19  38  65  87 121 168 204 252 290 367
#     4  11  24  41  61  97 126 159 204 260 314 360
#     4  11  21  37  64  92 124 164 214 247 298 373
#     4  11  21  37  63  94 119 167 209 247 303 374
#     4  11  24  39  62  91 131 160 201 261 315 351
#     4   9  20  42  68  87 116 167 212 253 304 369
#     4  10  20  38  62  91 120 158 214 248 301 366
#
# _framework density 21.952639999999999
#
# number of rings (size 3 to 8) (size 9 to 14) (size 15 to 20)
#    0.000    1.429    5.714    1.286    0.000    2.286 
#    0.000    1.429    0.000    6.857    0.000    0.000 
#    0.000    0.000    0.000    0.000    0.000    0.000 
#
# Total GULP energy -173480.932828 kJ/mol
# GULP energy per Si atom -12391.495202 kJ/mol
# Density = 2.190268 g / cm^3
# Si number density = 21.952640 Si / 1000 Ang^3
#
#
#
# Elastic Constant Matrix: (Units=GPa)
#
#
# Indices 1 2 3 4 5 6 
#
# 1 47.5904 28.8081 23.8119 -1.4260 -3.2201 -5.2530
# 2 28.8081 104.0229 37.2042 2.9357 3.2081 2.8633
# 3 23.8119 37.2042 82.6784 14.2512 2.7098 -2.0972
# 4 -1.4260 2.9357 14.2512 32.7314 -2.9455 0.7472
# 5 -3.2201 3.2081 2.7098 -2.9455 13.2227 2.2969
# 6 -5.2530 2.8633 -2.0972 0.7472 2.2969 38.2985
#
#
#
# Elastic Compliance Matrix: (Units=1/GPa)
#
#
# Indices 1 2 3 4 5 6 
#
# 1 0.029585 -0.006298 -0.006953 0.005781 0.010858 0.003384
# 2 -0.006298 0.012923 -0.003932 0.000001 -0.003545 -0.001833
# 3 -0.006953 -0.003932 0.017500 -0.008155 -0.006287 0.000835
# 4 0.005781 0.000001 -0.008155 0.035379 0.011136 -0.001012
# 5 0.010858 -0.003545 -0.006287 0.011136 0.083564 -0.003819
# 6 0.003384 -0.001833 0.000835 -0.001012 -0.003819 0.027006
#
#
# Mechanical properties :
#
#
# Convention : Reuss Voigt Hill
#
# Bulk Modulus (GPa) = 38.99814 45.99337 42.49576
# Shear Modulus (GPa) = 20.09064 26.48169 23.28616
#
# Velocity S-wave (km/s) = 3.02848 3.47697 3.26044
# Velocity P-wave (km/s) = 5.48016 6.09227 5.79430
#
# Compressibility (1/GPa) = 0.02564225
#
# Stress axis : x y z
#
# Youngs Moduli (GPa) = 33.80046 77.37888 57.14294
#
# Poissons Ratio (x) = 0.48730 0.39734
# Poissons Ratio (y) = 0.21286 0.22470
# Poissons Ratio (z) = 0.23503 0.30427
#
# Static dielectric constant tensor:
#      x y z
#    x 3.462660 -0.124040 0.061550 
#    y -0.124040 4.029650 -0.065770 
#    z 0.061550 -0.065770 4.570910 
# 
# 
# High freq. dielectric constant tensor:
#      x y z
#    x 1.816450 -0.004280 -0.000190 
#    y -0.004280 1.868730 0.010180 
#    z -0.000190 0.010180 1.870680 
# 
# From -- ./inp_files/187211.got.cif
#   From: 2010.06.25/outbox.cif.g09.slc.cpg/sg2_94_cif.got.tgz:187211.got - 2010.06.27 13:26:56.
