data_PCOD8004059
_publ_section_title
;
Structure prediction by ZEFSAII (Michael W. Deem and Ramdas Pophale) SiO2 
 PCOD8004059
Probable space group: P -1
;
_chemical_formula_sum "Si O2"
_cell_formula_units_Z 16
_cell_length_a 13.357007
_cell_length_b 12.246436
_cell_length_c 8.119960
_cell_angle_alpha 57.825379
_cell_angle_beta 137.995419
_cell_angle_gamma 102.641088
_cell_volume 714.725618
_symmetry_space_group_name_H-M "P -1"
_symmetry_group_IT_number 2
_symmetry_cell_setting 'triclinic'
loop_
_space_group_symop_operation_xyz
x,y,z
-x,-y,-z
loop_
_atom_site_type_symbol
_atom_site_label
_atom_site_fract_x
_atom_site_fract_y
_atom_site_fract_z
Si Si1 0.113782 0.834458 0.092632
Si Si2 0.569191 0.198575 0.652037
Si Si3 0.839393 0.088622 0.563017
Si Si4 0.943041 0.439874 0.815694
Si Si5 0.728577 0.612848 0.803339
Si Si6 0.352385 0.329593 0.713334
Si Si7 0.487742 0.952548 0.712206
Si Si8 0.341367 0.662836 0.044810
O O1 0.289982 0.841940 0.273779
O O2 0.093328 0.845406 0.255434
O O3 0.100583 0.698291 0.101259
O O4 0.975976 0.963385 0.749284
O O5 0.397628 0.293564 0.295285
O O6 0.541197 0.062066 0.798599
O O7 0.599484 0.298975 0.742035
O O8 0.689476 0.040795 0.465085
O O9 0.800132 0.206158 0.285789
O O10 0.788815 0.553354 0.463796
O O11 0.000000 0.500000 0.000000
O O12 0.093817 0.401575 0.907994
O O13 0.696161 0.685502 0.524105
O O14 0.720832 0.461732 0.900770
O O15 0.386977 0.192050 0.972112
O O16 0.512983 0.372205 0.878067
O O17 0.500000 0.000000 0.500000
#
# Coordination Sequence:
#
# PCOD8004059 Si02
#       8
#     2   2   2   2   2   2   2   2
#     4  11  22  41  62  88 128 166 200 250 307 364
#     4  11  21  36  66  88 118 162 204 252 296 360
#     4  10  24  42  60  88 129 164 199 250 310 362
#     4  10  20  37  63  92 122 159 203 252 301 355
#     4  10  20  38  61  92 125 152 202 255 299 358
#     4   9  20  37  62  87 124 157 194 254 303 353
#     4  11  22  41  59  90 121 158 206 247 301 362
#     4  10  21  39  62  93 122 157 206 250 301 362
#
# _framework density 22.386212
#
# number of rings (size 3 to 8) (size 9 to 14) (size 15 to 20)
#    0.000    1.750    1.250    4.500    0.000    8.000 
#    2.250    2.500    0.000    0.000    0.000    0.000 
#    0.000    0.000    0.000    0.000    0.000    0.000 
#
# Total GULP energy -198217.142351 kJ/mol
# GULP energy per Si atom -12388.571397 kJ/mol
# Density = 2.233526 g / cm^3
# Si number density = 22.386212 Si / 1000 Ang^3
#
#
#
# Elastic Constant Matrix: (Units=GPa)
#
#
# Indices 1 2 3 4 5 6 
#
# 1 87.4753 30.6211 69.6885 -19.5840 28.3214 3.0470
# 2 30.6211 102.6741 18.3539 -26.4263 15.6794 20.2264
# 3 69.6885 18.3539 75.2996 -50.6806 63.9775 24.0460
# 4 -19.5840 -26.4263 -50.6806 32.9134 0.2940 6.3250
# 5 28.3214 15.6794 63.9775 0.2940 39.2946 -16.7663
# 6 3.0470 20.2264 24.0460 6.3250 -16.7663 15.9859
#
#
#
# Elastic Compliance Matrix: (Units=1/GPa)
#
#
# Indices 1 2 3 4 5 6 
#
# 1 0.019956 -0.001020 -0.004794 0.005088 -0.009167 -0.006931
# 2 -0.001020 0.010454 -0.005057 0.000114 0.004455 -0.000800
# 3 -0.004794 -0.005057 0.002204 -0.006600 0.008605 0.015633
# 4 0.005088 0.000114 -0.006600 0.020464 0.013007 0.014359
# 5 -0.009167 0.004455 0.008605 0.013007 0.012297 -0.009081
# 6 -0.006931 -0.000800 0.015633 0.014359 -0.009081 0.026167
#
#
# Mechanical properties :
#
#
# Convention : Reuss Voigt Hill
#
# Bulk Modulus (GPa) = 91.96206 55.86400 73.91303
# Shear Modulus (GPa) = 42.76906 27.42447 35.09677
#
# Velocity S-wave (km/s) = 4.37568 3.50388 3.96382
# Velocity P-wave (km/s) = 8.16687 6.43261 7.35106
#
# Compressibility (1/GPa) = 0.01087405
#
# Stress axis : x y z
#
# Youngs Moduli (GPa) = 50.10946 95.65369 453.79207
#
# Poissons Ratio (x) = 0.09755 2.17527
# Poissons Ratio (y) = 0.05110 2.29475
# Poissons Ratio (z) = 0.24020 0.48371
#
# Static dielectric constant tensor:
#      x y z
#    x 4.420210 0.159200 0.806570 
#    y 0.159200 4.042180 -0.114410 
#    z 0.806570 -0.114410 4.465140 
# 
# 
# High freq. dielectric constant tensor:
#      x y z
#    x 1.867790 0.011310 0.037700 
#    y 0.011310 1.881510 -0.015260 
#    z 0.037700 -0.015260 1.882150 
# 
# From -- ./inp_files/262460.got.cif
#   From: 2010.06.25/outbox.cif.g09.slc.cpg/sg2_132_cif.got.tgz:262460.got - 2010.06.27 13:26:56.
