data_PCOD8004133
_publ_section_title
;
Structure prediction by ZEFSAII (Michael W. Deem and Ramdas Pophale) SiO2 
 PCOD8004133
Probable space group: P -1
;
_chemical_formula_sum "Si O2"
_cell_formula_units_Z 12
_cell_length_a 7.116382
_cell_length_b 7.475713
_cell_length_c 10.347836
_cell_angle_alpha 81.206259
_cell_angle_beta 121.005464
_cell_angle_gamma 109.741646
_cell_volume 443.963060
_symmetry_space_group_name_H-M "P -1"
_symmetry_group_IT_number 2
_symmetry_cell_setting 'triclinic'
loop_
_space_group_symop_operation_xyz
x,y,z
-x,-y,-z
loop_
_atom_site_type_symbol
_atom_site_label
_atom_site_fract_x
_atom_site_fract_y
_atom_site_fract_z
Si Si1 0.987282 0.105383 0.189340
Si Si2 0.416763 0.784229 0.333588
Si Si3 0.933908 0.745046 0.063108
Si Si4 0.133543 0.591662 0.750664
Si Si5 0.794681 0.100514 0.519600
Si Si6 0.758553 0.569966 0.445259
O O1 0.812150 0.198994 0.190490
O O2 0.853989 0.907110 0.091913
O O3 0.166853 0.067093 0.357463
O O4 0.124581 0.254051 0.109503
O O5 0.209550 0.780977 0.164501
O O6 0.337691 0.781241 0.456101
O O7 0.514581 0.605796 0.366902
O O8 0.625732 0.981983 0.360636
O O9 0.801764 0.546060 0.107253
O O10 0.262124 0.590346 0.657972
O O11 0.857224 0.515188 0.624007
O O12 0.040828 0.233860 0.543929
#
# Coordination Sequence:
#
# PCOD8004133 Si02
#       6
#     2   2   2   2   2   2
#     4  10  20  40  66  86 122 170 198 244 311 362
#     4  10  20  37  64  92 119 160 208 250 298 356
#     4  10  22  41  63  91 123 160 208 249 300 364
#     4  11  22  38  62  93 121 168 196 248 313 357
#     4  10  20  40  65  89 122 163 204 249 305 355
#     4  11  22  38  61  93 129 155 199 259 302 358
#
# _framework density 27.029277
#
# number of rings (size 3 to 8) (size 9 to 14) (size 15 to 20)
#    0.000    1.667    5.000    1.000    0.000    0.667 
#    0.000    1.667    0.000    0.000    0.000    0.000 
#    0.000    0.000    0.000    0.000    0.000    0.000 
#
# Total GULP energy -148661.858394 kJ/mol
# GULP energy per Si atom -12388.488200 kJ/mol
# Density = 2.696776 g / cm^3
# Si number density = 27.029277 Si / 1000 Ang^3
#
#
#
# Elastic Constant Matrix: (Units=GPa)
#
#
# Indices 1 2 3 4 5 6 
#
# 1 87.1673 38.2611 16.9300 -2.6251 -1.7899 -30.7026
# 2 38.2611 114.6091 25.9997 -5.6509 -6.9997 -54.6709
# 3 16.9300 25.9997 90.6804 -21.6902 -23.1751 -2.6541
# 4 -2.6251 -5.6509 -21.6902 35.7435 6.3400 0.6249
# 5 -1.7899 -6.9997 -23.1751 6.3400 34.9094 -2.2658
# 6 -30.7026 -54.6709 -2.6541 0.6249 -2.2658 53.4210
#
#
#
# Elastic Compliance Matrix: (Units=1/GPa)
#
#
# Indices 1 2 3 4 5 6 
#
# 1 0.015005 -0.000847 -0.002632 -0.000667 -0.000532 0.007612
# 2 -0.000847 0.019178 -0.004297 -0.000370 0.002252 0.019026
# 3 -0.002632 -0.004297 0.016597 0.007813 0.008290 -0.004825
# 4 -0.000667 -0.000370 0.007813 0.032789 -0.000928 -0.000797
# 5 -0.000532 0.002252 0.008290 -0.000928 0.034995 0.003905
# 6 0.007612 0.019026 -0.004825 -0.000797 0.003905 0.042501
#
#
# Mechanical properties :
#
#
# Convention : Reuss Voigt Hill
#
# Bulk Modulus (GPa) = 28.38465 50.53760 39.46113
# Shear Modulus (GPa) = 26.54509 38.89917 32.72213
#
# Velocity S-wave (km/s) = 3.13723 3.79773 3.48317
# Velocity P-wave (km/s) = 4.86283 6.16184 5.55047
#
# Compressibility (1/GPa) = 0.03523030
#
# Stress axis : x y z
#
# Youngs Moduli (GPa) = 66.64447 52.14313 60.25109
#
# Poissons Ratio (x) = 0.04415 0.15855
# Poissons Ratio (y) = 0.05643 0.25888
# Poissons Ratio (z) = 0.17538 0.22404
#
# Static dielectric constant tensor:
#      x y z
#    x 4.624520 -0.296650 -0.332420 
#    y -0.296650 5.277580 -0.285430 
#    z -0.332420 -0.285430 4.861370 
# 
# 
# High freq. dielectric constant tensor:
#      x y z
#    x 2.057270 -0.021990 -0.027840 
#    y -0.021990 2.115040 -0.026470 
#    z -0.027840 -0.026470 2.065930 
# 
# From -- ./inp_files/374132.got.cif
#   From: 2010.06.25/outbox.cif.g09.slc.cpg/sg2_188_cif.got.tgz:374132.got - 2010.06.27 13:26:56.
