data_PCOD8004470
_publ_section_title
;
Structure prediction by ZEFSAII (Michael W. Deem and Ramdas Pophale) SiO2 
 PCOD8004470
Probable space group: P -1
;
_chemical_formula_sum "Si O2"
_cell_formula_units_Z 16
_cell_length_a 9.430062
_cell_length_b 12.380760
_cell_length_c 11.736991
_cell_angle_alpha 56.883100
_cell_angle_beta 49.879852
_cell_angle_gamma 50.450050
_cell_volume 786.183347
_symmetry_space_group_name_H-M "P -1"
_symmetry_group_IT_number 2
_symmetry_cell_setting 'triclinic'
loop_
_space_group_symop_operation_xyz
x,y,z
-x,-y,-z
loop_
_atom_site_type_symbol
_atom_site_label
_atom_site_fract_x
_atom_site_fract_y
_atom_site_fract_z
Si Si1 0.413534 0.217229 0.414816
Si Si2 0.162437 0.434775 0.794283
Si Si3 0.139430 0.705595 0.549392
Si Si4 0.581971 0.492162 0.837291
Si Si5 0.345633 0.124393 0.271039
Si Si6 0.273054 0.386837 0.014198
Si Si7 0.965280 0.360129 0.597654
Si Si8 0.526342 0.188471 0.621385
O O1 0.417291 0.362067 0.287221
O O2 0.462862 0.113740 0.338503
O O3 0.191518 0.229181 0.564776
O O4 0.559545 0.165622 0.479890
O O5 0.214208 0.571184 0.676188
O O6 0.297614 0.311255 0.704337
O O7 0.911292 0.505589 0.866939
O O8 0.194722 0.366495 0.942781
O O9 0.293207 0.778244 0.440651
O O10 0.901660 0.820850 0.624466
O O11 0.159760 0.640847 0.450369
O O12 0.816734 0.365347 0.776355
O O13 0.500000 0.500000 0.000000
O O14 0.429403 0.452947 0.863368
O O15 0.390151 0.231616 0.103579
O O16 0.443794 0.965327 0.256834
O O17 0.000000 0.500000 0.500000
#
# Coordination Sequence:
#
# PCOD8004470 Si02
#       8
#     2   2   2   2   2   2   2   2
#     4  10  21  37  57  87 117 150 196 243 289 335
#     4  10  21  35  58  84 114 147 184 254 283 342
#     4  10  20  38  59  85 112 145 204 236 290 333
#     4  11  19  31  60  84 110 149 196 233 285 342
#     4  10  22  39  56  83 117 161 188 238 287 357
#     4  10  21  38  55  84 119 148 194 231 302 340
#     4   9  19  34  57  86 115 147 186 242 286 339
#     4  12  22  35  61  85 116 151 201 237 291 336
#
# _framework density 20.351486999999999
#
# number of rings (size 3 to 8) (size 9 to 14) (size 15 to 20)
#    0.000    1.750    1.250    4.125    3.500    0.500 
#    0.000    0.000    0.000    4.500    0.000    0.000 
#    0.000    0.000    0.000    0.000    0.000    0.000 
#
# Total GULP energy -198211.956357 kJ/mol
# GULP energy per Si atom -12388.247272 kJ/mol
# Density = 2.030517 g / cm^3
# Si number density = 20.351487 Si / 1000 Ang^3
#
#
#
# Elastic Constant Matrix: (Units=GPa)
#
#
# Indices 1 2 3 4 5 6 
#
# 1 97.7692 28.0151 28.0476 -7.4943 -0.7302 17.1226
# 2 28.0151 109.1806 31.4767 -5.1545 -8.4269 13.2812
# 3 28.0476 31.4767 90.3513 8.8853 -9.4044 6.9266
# 4 -7.4943 -5.1545 8.8853 13.5799 -1.8528 -2.9606
# 5 -0.7302 -8.4269 -9.4044 -1.8528 40.4997 -2.8034
# 6 17.1226 13.2812 6.9266 -2.9606 -2.8034 22.4216
#
#
#
# Elastic Compliance Matrix: (Units=1/GPa)
#
#
# Indices 1 2 3 4 5 6 
#
# 1 0.013682 -0.001082 -0.004200 0.008084 -0.001109 -0.007582
# 2 -0.001082 0.011346 -0.003711 0.005501 0.001466 -0.003839
# 3 -0.004200 -0.003711 0.015282 -0.013638 0.002017 -0.000864
# 4 0.008084 0.005501 -0.013638 0.091050 0.002784 0.007152
# 5 -0.001109 0.001466 0.002017 0.002784 0.025776 0.002946
# 6 -0.007582 -0.003839 -0.000864 0.007152 0.002946 0.054243
#
#
# Mechanical properties :
#
#
# Convention : Reuss Voigt Hill
#
# Bulk Modulus (GPa) = 44.79204 52.48665 48.63935
# Shear Modulus (GPa) = 21.11427 29.28435 25.19931
#
# Velocity S-wave (km/s) = 3.22449 3.79744 3.52263
# Velocity P-wave (km/s) = 5.99334 6.71368 6.36371
#
# Compressibility (1/GPa) = 0.02232539
#
# Stress axis : x y z
#
# Youngs Moduli (GPa) = 73.08853 88.13355 65.43664
#
# Poissons Ratio (x) = 0.09533 0.27481
# Poissons Ratio (y) = 0.07906 0.24285
# Poissons Ratio (z) = 0.30694 0.32709
#
# Static dielectric constant tensor:
#      x y z
#    x 2.701420 -0.011580 1.230010 
#    y -0.011580 3.629610 0.233280 
#    z 1.230010 0.233280 2.273340 
# 
# 
# High freq. dielectric constant tensor:
#      x y z
#    x 1.801260 0.006430 0.000310 
#    y 0.006430 1.774100 0.006720 
#    z 0.000310 0.006720 1.790030 
# 
# From -- ./inp_files/392310.got.cif
#   From: 2010.06.25/outbox.cif.g09.slc.cpg/sg2_197_cif.got.tgz:392310.got - 2010.06.27 13:26:56.
