data_PCOD8004433
_publ_section_title
;
Structure prediction by ZEFSAII (Michael W. Deem and Ramdas Pophale) SiO2 
 PCOD8004433
Probable space group: P -1
;
_chemical_formula_sum "Si O2"
_cell_formula_units_Z 14
_cell_length_a 11.791807
_cell_length_b 25.174684
_cell_length_c 15.781674
_cell_angle_alpha 161.954233
_cell_angle_beta 39.316108
_cell_angle_gamma 148.641358
_cell_volume 733.649503
_symmetry_space_group_name_H-M "P -1"
_symmetry_group_IT_number 2
_symmetry_cell_setting 'triclinic'
loop_
_space_group_symop_operation_xyz
x,y,z
-x,-y,-z
loop_
_atom_site_type_symbol
_atom_site_label
_atom_site_fract_x
_atom_site_fract_y
_atom_site_fract_z
Si Si1 0.461908 0.553226 0.842076
Si Si2 0.749854 0.210526 0.675651
Si Si3 0.943573 0.778516 0.345650
Si Si4 0.264272 0.262082 0.872494
Si Si5 0.330905 0.308336 0.246629
Si Si6 0.853219 0.158791 0.353715
Si Si7 0.733064 0.452418 0.818763
O O1 0.587052 0.588706 0.737136
O O2 0.287256 0.304068 0.595015
O O3 0.276505 0.600128 0.017504
O O4 0.664034 0.696819 0.008670
O O5 0.872878 0.213657 0.692117
O O6 0.879168 0.224821 0.537708
O O7 0.500000 0.000000 0.500000
O O8 0.049043 0.016482 0.612614
O O9 0.876920 0.620779 0.065946
O O10 0.467199 0.309996 0.770854
O O11 0.202367 0.416670 0.108387
O O12 0.500000 0.500000 0.500000
O O13 0.085161 0.234022 0.294050
O O14 0.330014 0.100785 0.941972
O O15 0.779882 0.277542 0.519775
#
# Coordination Sequence:
#
# PCOD8004433 Si02
#       7
#     2   2   2   2   2   2   2
#     4  11  22  37  58  87 116 153 192 243 289 341
#     4  12  19  35  62  89 116 149 189 244 299 339
#     4  11  20  32  59  88 120 147 191 236 296 345
#     4  10  20  38  58  88 119 149 196 239 287 339
#     4  11  25  38  57  84 121 154 191 236 293 349
#     4  11  22  40  56  86 118 154 190 235 295 342
#     4  10  22  36  59  87 119 154 189 242 287 341
#
# _framework density 19.082681000000001
#
# number of rings (size 3 to 8) (size 9 to 14) (size 15 to 20)
#    0.000    1.143    5.714    1.714    2.000    1.143 
#    0.000    0.714    0.000    1.714    0.000    0.000 
#    0.000    0.000    0.000    0.000    0.000    0.000 
#
# Total GULP energy -173540.046854 kJ/mol
# GULP energy per Si atom -12395.717632 kJ/mol
# Density = 1.903925 g / cm^3
# Si number density = 19.082681 Si / 1000 Ang^3
#
#
#
# Elastic Constant Matrix: (Units=GPa)
#
#
# Indices 1 2 3 4 5 6 
#
# 1 61.9933 18.8312 27.2705 2.9942 -16.7016 -11.0908
# 2 18.8312 109.4434 46.1667 8.8541 2.5922 -12.3336
# 3 27.2705 46.1667 97.5670 21.5543 -8.8259 -5.0746
# 4 2.9942 8.8541 21.5543 37.7889 2.3239 5.8924
# 5 -16.7016 2.5922 -8.8259 2.3239 31.0003 4.4946
# 6 -11.0908 -12.3336 -5.0746 5.8924 4.4946 25.6728
#
#
#
# Elastic Compliance Matrix: (Units=1/GPa)
#
#
# Indices 1 2 3 4 5 6 
#
# 1 0.022321 -0.001568 -0.004092 -0.000698 0.010106 0.006472
# 2 -0.001568 0.012403 -0.005515 -0.000153 -0.004159 0.004954
# 3 -0.004092 -0.005515 0.016011 -0.007713 0.003404 -0.000078
# 4 -0.000698 -0.000153 -0.007713 0.032542 -0.003735 -0.008714
# 5 0.010106 -0.004159 0.003404 -0.003735 0.039743 -0.003060
# 6 0.006472 0.004954 -0.000078 -0.008714 -0.003060 0.046648
#
#
# Mechanical properties :
#
#
# Convention : Reuss Voigt Hill
#
# Bulk Modulus (GPa) = 35.23130 50.39340 42.81235
# Shear Modulus (GPa) = 24.81652 30.67475 27.74564
#
# Velocity S-wave (km/s) = 3.61012 4.01367 3.81723
# Velocity P-wave (km/s) = 5.98998 6.92421 6.47397
#
# Compressibility (1/GPa) = 0.02838386
#
# Stress axis : x y z
#
# Youngs Moduli (GPa) = 44.80025 80.62856 62.45883
#
# Poissons Ratio (x) = 0.12644 0.25558
# Poissons Ratio (y) = 0.07025 0.34447
# Poissons Ratio (z) = 0.18332 0.44468
#
# Static dielectric constant tensor:
#      x y z
#    x 3.675320 -0.147260 -0.078230 
#    y -0.147260 3.597900 0.469350 
#    z -0.078230 0.469350 3.961160 
# 
# 
# High freq. dielectric constant tensor:
#      x y z
#    x 1.737750 -0.008590 0.004480 
#    y -0.008590 1.744100 0.033810 
#    z 0.004480 0.033810 1.734840 
# 
# From -- ./inp_files/293496.got.cif
#   From: 2010.06.25/outbox.cif.g09.slc.cpg/sg2_147_cif.got.tgz:293496.got - 2010.06.27 13:26:56.
