data_PCOD8004386
_publ_section_title
;
Structure prediction by ZEFSAII (Michael W. Deem and Ramdas Pophale) SiO2 
 PCOD8004386
Probable space group: P -1
;
_chemical_formula_sum "Si O2"
_cell_formula_units_Z 16
_cell_length_a 8.845859
_cell_length_b 16.382239
_cell_length_c 8.298641
_cell_angle_alpha 106.913651
_cell_angle_beta 67.610489
_cell_angle_gamma 135.495017
_cell_volume 779.093595
_symmetry_space_group_name_H-M "P -1"
_symmetry_group_IT_number 2
_symmetry_cell_setting 'triclinic'
loop_
_space_group_symop_operation_xyz
x,y,z
-x,-y,-z
loop_
_atom_site_type_symbol
_atom_site_label
_atom_site_fract_x
_atom_site_fract_y
_atom_site_fract_z
Si Si1 0.900680 0.189226 0.939861
Si Si2 0.278546 0.456855 0.992627
Si Si3 0.749912 0.398896 0.098451
Si Si4 0.935091 0.407311 0.344179
Si Si5 0.533308 0.158016 0.915469
Si Si6 0.295387 0.842675 0.655753
Si Si7 0.926448 0.006610 0.858351
Si Si8 0.719014 0.985133 0.383834
O O1 0.719890 0.149989 0.854488
O O2 0.998894 0.128869 0.856196
O O3 0.114466 0.326003 0.916907
O O4 0.757907 0.151081 0.137450
O O5 0.360582 0.548753 0.866877
O O6 0.500000 0.500000 0.000000
O O7 0.157456 0.464637 0.189117
O O8 0.743973 0.372373 0.275381
O O9 0.645176 0.289777 0.963872
O O10 0.000000 0.500000 0.000000
O O11 0.839802 0.291058 0.411112
O O12 0.000000 0.500000 0.500000
O O13 0.427039 0.106909 0.754823
O O14 0.342432 0.089320 0.093279
O O15 0.215644 0.893048 0.604605
O O16 0.562546 0.923222 0.570046
O O17 0.052436 0.988288 0.670382
O O18 0.000000 0.000000 0.000000
#
# Coordination Sequence:
#
# PCOD8004386 Si02
#       8
#     2   2   2   2   2   2   2   2
#     4  11  20  38  58  85 118 150 198 242 295 355
#     4  10  23  37  61  88 119 152 200 252 294 343
#     4  10  20  38  58  90 113 153 207 241 287 361
#     4  10  22  38  63  84 118 159 198 242 296 358
#     4  11  20  35  65  84 116 154 196 250 287 355
#     4  10  20  38  57  84 123 152 197 232 298 354
#     4  10  21  34  58  90 114 149 201 237 291 345
#     4  10  23  36  60  88 120 156 196 240 291 360
#
# _framework density 20.536684999999999
#
# number of rings (size 3 to 8) (size 9 to 14) (size 15 to 20)
#    0.000    1.750    6.250    0.375    7.000    0.000 
#    0.000    1.250    0.000    0.000    0.000    0.000 
#    0.000    0.000    0.000    0.000    0.000    0.000 
#
# Total GULP energy -198267.989540 kJ/mol
# GULP energy per Si atom -12391.749346 kJ/mol
# Density = 2.048994 g / cm^3
# Si number density = 20.536685 Si / 1000 Ang^3
#
#
#
# Elastic Constant Matrix: (Units=GPa)
#
#
# Indices 1 2 3 4 5 6 
#
# 1 145.7944 54.1944 18.2277 -0.3817 -13.5263 -14.0898
# 2 54.1944 119.1946 31.2336 6.8256 -3.7897 -27.4661
# 3 18.2277 31.2336 42.4731 -0.5213 -6.8164 -12.2331
# 4 -0.3817 6.8256 -0.5213 21.8954 2.7417 -3.8193
# 5 -13.5263 -3.7897 -6.8164 2.7417 31.3271 1.7534
# 6 -14.0898 -27.4661 -12.2331 -3.8193 1.7534 41.7873
#
#
#
# Elastic Compliance Matrix: (Units=1/GPa)
#
#
# Indices 1 2 3 4 5 6 
#
# 1 0.008599 -0.003695 -0.000375 0.000963 0.003082 0.000320
# 2 -0.003695 0.013216 -0.006923 -0.003257 -0.001508 0.005180
# 3 -0.000375 -0.006923 0.030950 0.003009 0.005223 0.004440
# 4 0.000963 -0.003257 0.003009 0.047868 -0.003714 0.003596
# 5 0.003082 -0.001508 0.005223 -0.003714 0.034543 -0.000212
# 6 0.000320 0.005180 0.004440 0.003596 -0.000212 0.029080
#
#
# Mechanical properties :
#
#
# Convention : Reuss Voigt Hill
#
# Bulk Modulus (GPa) = 32.48911 57.19707 44.84309
# Shear Modulus (GPa) = 25.44532 32.58906 29.01719
#
# Velocity S-wave (km/s) = 3.52379 3.98788 3.76299
# Velocity P-wave (km/s) = 5.69302 7.00827 6.38460
#
# Compressibility (1/GPa) = 0.03077955
#
# Stress axis : x y z
#
# Youngs Moduli (GPa) = 116.29794 75.66709 32.31024
#
# Poissons Ratio (x) = 0.27958 0.01210
# Poissons Ratio (y) = 0.42971 0.22368
# Poissons Ratio (z) = 0.04356 0.52384
#
# Static dielectric constant tensor:
#      x y z
#    x 4.384700 -0.301890 -0.101950 
#    y -0.301890 4.147720 -0.294950 
#    z -0.101950 -0.294950 3.641190 
# 
# 
# High freq. dielectric constant tensor:
#      x y z
#    x 1.806980 -0.017200 -0.005300 
#    y -0.017200 1.812390 -0.003810 
#    z -0.005300 -0.003810 1.771110 
# 
# From -- ./inp_files/218010.got.cif
#   From: 2010.06.25/outbox.cif.g09.slc.cpg/sg2_110_cif.got.tgz:218010.got - 2010.06.27 13:26:56.
