data_PCOD8004683
_publ_section_title
;
Structure prediction by ZEFSAII (Michael W. Deem and Ramdas Pophale) SiO2 
 PCOD8004683
Probable space group: P -1
;
_chemical_formula_sum "Si O2"
_cell_formula_units_Z 14
_cell_length_a 15.413571
_cell_length_b 14.547298
_cell_length_c 13.514341
_cell_angle_alpha 136.896577
_cell_angle_beta 161.710206
_cell_angle_gamma 41.352372
_cell_volume 626.080896
_symmetry_space_group_name_H-M "P -1"
_symmetry_group_IT_number 2
_symmetry_cell_setting 'triclinic'
loop_
_space_group_symop_operation_xyz
x,y,z
-x,-y,-z
loop_
_atom_site_type_symbol
_atom_site_label
_atom_site_fract_x
_atom_site_fract_y
_atom_site_fract_z
Si Si1 0.307482 0.577997 0.730524
Si Si2 0.274448 0.238888 0.696878
Si Si3 0.374303 0.932334 0.222172
Si Si4 0.141375 0.350047 0.279227
Si Si5 0.716911 0.298373 0.941057
Si Si6 0.072967 0.141808 0.899668
Si Si7 0.412777 0.981241 0.780152
O O1 0.144461 0.514155 0.414653
O O2 0.482412 0.679732 0.953983
O O3 0.542117 0.441199 0.923565
O O4 0.047720 0.658110 0.585070
O O5 0.355500 0.154511 0.617043
O O6 0.274338 0.134820 0.706073
O O7 0.189398 0.828577 0.979616
O O8 0.500000 0.000000 0.500000
O O9 0.146377 0.045464 0.000788
O O10 0.475600 0.259091 0.577436
O O11 0.977953 0.319960 0.177011
O O12 0.013513 0.301989 0.002024
O O13 0.803814 0.115205 0.531314
O O14 0.322218 0.107652 0.063947
O O15 0.500000 0.000000 0.000000
#
# Coordination Sequence:
#
# PCOD8004683 Si02
#       7
#     2   2   2   2   2   2   2
#     4  10  20  42  56  91 125 169 209 242 303 363
#     4  11  23  39  64  87 123 168 200 259 311 368
#     4  11  23  40  57  97 132 170 212 249 299 366
#     4  10  20  38  61  89 121 174 202 255 287 363
#     4  10  21  36  58  85 130 174 201 247 283 359
#     4  11  23  41  67  94 125 165 208 255 323 361
#     4  11  25  45  68  95 120 156 209 269 322 373
#
# _framework density 22.361326999999999
#
# number of rings (size 3 to 8) (size 9 to 14) (size 15 to 20)
#    0.857    0.571    2.857    3.000    2.000    5.143 
#    0.000    0.000    0.000    5.143    0.000    0.000 
#    0.000    0.000    0.000    0.000    0.000    0.000 
#
# Total GULP energy -173478.329524 kJ/mol
# GULP energy per Si atom -12391.309252 kJ/mol
# Density = 2.231043 g / cm^3
# Si number density = 22.361327 Si / 1000 Ang^3
#
#
#
# Elastic Constant Matrix: (Units=GPa)
#
#
# Indices 1 2 3 4 5 6 
#
# 1 105.6154 30.2439 60.0946 23.2914 2.5673 -1.3206
# 2 30.2439 86.2697 29.9807 19.7424 -4.0747 -23.9021
# 3 60.0946 29.9807 138.8340 38.7342 9.6425 -1.5273
# 4 23.2914 19.7424 38.7342 45.9286 -5.3271 5.6582
# 5 2.5673 -4.0747 9.6425 -5.3271 45.7620 4.0962
# 6 -1.3206 -23.9021 -1.5273 5.6582 4.0962 35.1889
#
#
#
# Elastic Compliance Matrix: (Units=1/GPa)
#
#
# Indices 1 2 3 4 5 6 
#
# 1 0.013342 -0.003234 -0.004779 -0.001135 -0.000008 -0.001720
# 2 -0.003234 0.018335 -0.000229 -0.007754 -0.000258 0.013599
# 3 -0.004779 -0.000229 0.011825 -0.008070 -0.003350 0.001866
# 4 -0.001135 -0.007754 -0.008070 0.034677 0.006180 -0.011955
# 5 -0.000008 -0.000258 -0.003350 0.006180 0.023619 -0.004064
# 6 -0.001720 0.013599 0.001866 -0.011955 -0.004064 0.040067
#
#
# Mechanical properties :
#
#
# Convention : Reuss Voigt Hill
#
# Bulk Modulus (GPa) = 37.00985 63.48417 50.24701
# Shear Modulus (GPa) = 29.87661 39.40255 34.63958
#
# Velocity S-wave (km/s) = 3.65921 4.20227 3.94011
# Velocity P-wave (km/s) = 5.86855 7.21091 6.57408
#
# Compressibility (1/GPa) = 0.02701983
#
# Stress axis : x y z
#
# Youngs Moduli (GPa) = 74.94902 54.54079 84.56384
#
# Poissons Ratio (x) = 0.17638 0.40410
# Poissons Ratio (y) = 0.24238 0.01935
# Poissons Ratio (z) = 0.35816 0.01248
#
# Static dielectric constant tensor:
#      x y z
#    x 3.768270 -0.257250 0.224710 
#    y -0.257250 4.221260 0.441890 
#    z 0.224710 0.441890 4.218560 
# 
# 
# High freq. dielectric constant tensor:
#      x y z
#    x 1.860070 -0.033030 0.026970 
#    y -0.033030 1.869150 0.037850 
#    z 0.026970 0.037850 1.892670 
# 
# From -- ./inp_files/455022.got.cif
#   From: 2010.06.25/outbox.cif.g09.slc.cpg/sg2_228_cif.got.tgz:455022.got - 2010.06.27 13:26:56.
