data_PCOD8004030
_publ_section_title
;
Structure prediction by ZEFSAII (Michael W. Deem and Ramdas Pophale) SiO2 
 PCOD8004030
Probable space group: P -1
;
_chemical_formula_sum "Si O2"
_cell_formula_units_Z 14
_cell_length_a 14.554104
_cell_length_b 28.161542
_cell_length_c 14.417831
_cell_angle_alpha 157.431921
_cell_angle_beta 159.692777
_cell_angle_gamma 20.170544
_cell_volume 659.723259
_symmetry_space_group_name_H-M "P -1"
_symmetry_group_IT_number 2
_symmetry_cell_setting 'triclinic'
loop_
_space_group_symop_operation_xyz
x,y,z
-x,-y,-z
loop_
_atom_site_type_symbol
_atom_site_label
_atom_site_fract_x
_atom_site_fract_y
_atom_site_fract_z
Si Si1 0.793857 0.938570 0.794506
Si Si2 0.073562 0.126978 0.403004
Si Si3 0.210394 0.255040 0.396457
Si Si4 0.802278 0.351900 0.702945
Si Si5 0.167612 0.442513 0.324593
Si Si6 0.877439 0.159008 0.778010
Si Si7 0.273981 0.819760 0.534582
O O1 0.970253 0.850998 0.709459
O O2 0.833078 0.822291 0.696513
O O3 0.431323 0.058690 0.647739
O O4 0.952694 0.023631 0.137077
O O5 0.872438 0.288238 0.550368
O O6 0.576703 0.177641 0.579100
O O7 0.070311 0.424882 0.594303
O O8 0.006534 0.251446 0.112677
O O9 0.426478 0.469311 0.572620
O O10 0.923186 0.214459 0.641380
O O11 0.980315 0.432317 0.042105
O O12 0.352321 0.290119 0.284990
O O13 0.783313 0.216568 0.688293
O O14 0.167952 0.988466 0.747820
#
# Coordination Sequence:
#
# PCOD8004030 Si02
#       7
#     2   2   2   2   2   2   2
#     4  10  21  36  60  90 121 142 197 244 288 355
#     4  10  20  37  63  90 111 155 191 241 299 338
#     4  12  24  41  57  92 120 159 186 254 287 351
#     4  10  20  38  60  82 115 160 192 242 281 357
#     4  10  24  38  60  82 128 153 202 227 302 345
#     4  11  25  37  65  85 119 153 206 238 301 326
#     4   9  24  40  60  89 115 156 202 247 277 364
#
# _framework density 21.221018999999998
#
# number of rings (size 3 to 8) (size 9 to 14) (size 15 to 20)
#    0.857    0.857    0.000    4.286    6.000    2.286 
#    0.000    1.429    0.000    0.000    0.000    0.000 
#    0.000    0.000    0.000    0.000    0.000    0.000 
#
# Total GULP energy -173578.683140 kJ/mol
# GULP energy per Si atom -12398.477367 kJ/mol
# Density = 2.117272 g / cm^3
# Si number density = 21.221019 Si / 1000 Ang^3
#
#
#
# Elastic Constant Matrix: (Units=GPa)
#
#
# Indices 1 2 3 4 5 6 
#
# 1 67.3061 25.0847 27.4847 3.7487 -15.8683 -14.6749
# 2 25.0847 64.5585 26.8392 3.2954 -8.7943 -19.6833
# 3 27.4847 26.8392 130.1364 -4.1830 -24.3495 -17.1981
# 4 3.7487 3.2954 -4.1830 25.3551 -9.4153 -5.3094
# 5 -15.8683 -8.7943 -24.3495 -9.4153 34.4057 6.8121
# 6 -14.6749 -19.6833 -17.1981 -5.3094 6.8121 19.3818
#
#
#
# Elastic Compliance Matrix: (Units=1/GPa)
#
#
# Indices 1 2 3 4 5 6 
#
# 1 0.019984 -0.004009 -0.001099 0.001411 0.006156 0.008308
# 2 -0.004009 0.023692 -0.001388 0.001383 -0.000420 0.020320
# 3 -0.001099 -0.001388 0.010534 0.005993 0.006988 0.006291
# 4 0.001411 0.001383 0.005993 0.049124 0.015565 0.015777
# 5 0.006156 -0.000420 0.006988 0.015565 0.040940 0.000309
# 6 0.008308 0.020320 0.006291 0.015777 0.000309 0.088317
#
#
# Mechanical properties :
#
#
# Convention : Reuss Voigt Hill
#
# Bulk Modulus (GPa) = 24.26063 46.75756 35.50910
# Shear Modulus (GPa) = 19.28093 28.00135 23.64114
#
# Velocity S-wave (km/s) = 3.01753 3.63645 3.34135
# Velocity P-wave (km/s) = 4.85776 6.30183 5.62632
#
# Compressibility (1/GPa) = 0.04121904
#
# Stress axis : x y z
#
# Youngs Moduli (GPa) = 50.03905 42.20788 94.92899
#
# Poissons Ratio (x) = 0.16920 0.10431
# Poissons Ratio (y) = 0.20059 0.13180
# Poissons Ratio (z) = 0.05499 0.05860
#
# Static dielectric constant tensor:
#      x y z
#    x 3.853540 -0.199960 -0.137950 
#    y -0.199960 3.529450 -0.122730 
#    z -0.137950 -0.122730 3.780110 
# 
# 
# High freq. dielectric constant tensor:
#      x y z
#    x 1.830230 -0.018910 -0.012900 
#    y -0.018910 1.812370 -0.011340 
#    z -0.012900 -0.011340 1.837850 
# 
# From -- ./inp_files/535836.got.cif
#   From: 2010.06.25/outbox.cif.g09.slc.cpg/sg2_268_cif.got.tgz:535836.got - 2010.06.27 13:26:56.
