data_PCOD8004170
_publ_section_title
;
Structure prediction by ZEFSAII (Michael W. Deem and Ramdas Pophale) SiO2 
 PCOD8004170
Probable space group: P -1
;
_chemical_formula_sum "Si O2"
_cell_formula_units_Z 16
_cell_length_a 11.408238
_cell_length_b 7.935686
_cell_length_c 11.703048
_cell_angle_alpha 126.783710
_cell_angle_beta 92.414949
_cell_angle_gamma 62.526430
_cell_volume 710.826073
_symmetry_space_group_name_H-M "P -1"
_symmetry_group_IT_number 2
_symmetry_cell_setting 'triclinic'
loop_
_space_group_symop_operation_xyz
x,y,z
-x,-y,-z
loop_
_atom_site_type_symbol
_atom_site_label
_atom_site_fract_x
_atom_site_fract_y
_atom_site_fract_z
Si Si1 0.375863 0.939560 0.051153
Si Si2 0.020079 0.376576 0.828316
Si Si3 0.840840 0.162428 0.795114
Si Si4 0.664317 0.983605 0.328270
Si Si5 0.408074 0.404668 0.902688
Si Si6 0.382817 0.758652 0.348235
Si Si7 0.534102 0.731792 0.745393
Si Si8 0.936297 0.859645 0.879940
O O1 0.363818 0.163336 0.219608
O O2 0.226353 0.992730 0.038084
O O3 0.471759 0.680904 0.026113
O O4 0.439762 0.906591 0.916592
O O5 0.911781 0.286530 0.779140
O O6 0.004277 0.571079 0.807244
O O7 0.172435 0.123284 0.721480
O O8 0.000000 0.500000 0.000000
O O9 0.753056 0.100720 0.680972
O O10 0.950007 0.899997 0.759940
O O11 0.737334 0.347440 0.965826
O O12 0.630160 0.800068 0.190880
O O13 0.622440 0.038541 0.482828
O O14 0.562919 0.236335 0.353718
O O15 0.469972 0.398677 0.777023
O O16 0.369564 0.561274 0.343227
O O17 0.000000 0.000000 0.000000
#
# Coordination Sequence:
#
# PCOD8004170 Si02
#       8
#     2   2   2   2   2   2   2   2
#     4  10  20  37  64  99 122 161 220 278 322 379
#     4  12  24  44  66  92 133 176 224 274 317 390
#     4  12  24  43  69  99 128 173 225 277 324 387
#     4  11  25  42  63  95 135 176 210 268 340 394
#     4  11  21  41  66  96 128 166 212 275 335 381
#     4  12  23  41  65  98 135 166 215 276 337 396
#     4  10  21  37  67  95 127 165 217 273 334 385
#     4  12  23  37  64  99 127 168 222 272 326 380
#
# _framework density 22.509021000000001
#
# number of rings (size 3 to 8) (size 9 to 14) (size 15 to 20)
#    0.000    0.750    5.000    3.375    1.750    0.500 
#    0.000    0.625    0.000    0.000    0.000    0.000 
#    0.000    0.000    0.000    0.000    0.000    0.000 
#
# Total GULP energy -198241.654920 kJ/mol
# GULP energy per Si atom -12390.103432 kJ/mol
# Density = 2.245779 g / cm^3
# Si number density = 22.509021 Si / 1000 Ang^3
#
#
#
# Elastic Constant Matrix: (Units=GPa)
#
#
# Indices 1 2 3 4 5 6 
#
# 1 115.0002 28.1953 16.9008 -6.0338 0.6001 -8.8851
# 2 28.1953 136.6118 11.1756 -20.9285 8.9799 1.1252
# 3 16.9008 11.1756 89.4226 -24.0917 -5.8519 -13.3912
# 4 -6.0338 -20.9285 -24.0917 26.6857 -4.2304 5.0926
# 5 0.6001 8.9799 -5.8519 -4.2304 17.6052 -6.1566
# 6 -8.8851 1.1252 -13.3912 5.0926 -6.1566 34.9834
#
#
#
# Elastic Compliance Matrix: (Units=1/GPa)
#
#
# Indices 1 2 3 4 5 6 
#
# 1 0.009531 -0.002085 -0.001451 -0.001093 0.000773 0.002227
# 2 -0.002085 0.009020 0.000607 0.007032 -0.003412 -0.002212
# 3 -0.001451 0.000607 0.017530 0.016687 0.011655 0.005944
# 4 -0.001093 0.007032 0.016687 0.060425 0.016515 -0.000006
# 5 0.000773 -0.003412 0.011655 0.016515 0.071590 0.014962
# 6 0.002227 -0.002212 0.005944 -0.000006 0.014962 0.034131
#
#
# Mechanical properties :
#
#
# Convention : Reuss Voigt Hill
#
# Bulk Modulus (GPa) = 33.08777 50.39755 41.74266
# Shear Modulus (GPa) = 22.91898 34.83905 28.87901
#
# Velocity S-wave (km/s) = 3.19441 3.93845 3.58578
# Velocity P-wave (km/s) = 5.32328 6.56661 5.97736
#
# Compressibility (1/GPa) = 0.03022264
#
# Stress axis : x y z
#
# Youngs Moduli (GPa) = 104.92332 110.85950 57.04560
#
# Poissons Ratio (x) = 0.23113 0.08278
# Poissons Ratio (y) = 0.21875 -0.03461
# Poissons Ratio (z) = 0.15225 -0.06726
#
# Static dielectric constant tensor:
#      x y z
#    x 4.386980 0.140990 0.310130 
#    y 0.140990 4.624090 -0.155140 
#    z 0.310130 -0.155140 3.843140 
# 
# 
# High freq. dielectric constant tensor:
#      x y z
#    x 1.899030 0.010190 0.026570 
#    y 0.010190 1.902590 -0.010240 
#    z 0.026570 -0.010240 1.853620 
# 
# From -- ./inp_files/256608.got.cif
#   From: 2010.06.25/outbox.cif.g09.slc.cpg/sg2_129_cif.got.tgz:256608.got - 2010.06.27 13:26:56.
