data_PCOD8004876
_publ_section_title
;
Structure prediction by ZEFSAII (Michael W. Deem and Ramdas Pophale) SiO2 
 PCOD8004876
Probable space group: P -1
;
_chemical_formula_sum "Si O2"
_cell_formula_units_Z 14
_cell_length_a 12.534220
_cell_length_b 8.481826
_cell_length_c 9.815857
_cell_angle_alpha 127.215193
_cell_angle_beta 134.297386
_cell_angle_gamma 55.330635
_cell_volume 574.837035
_symmetry_space_group_name_H-M "P -1"
_symmetry_group_IT_number 2
_symmetry_cell_setting 'triclinic'
loop_
_space_group_symop_operation_xyz
x,y,z
-x,-y,-z
loop_
_atom_site_type_symbol
_atom_site_label
_atom_site_fract_x
_atom_site_fract_y
_atom_site_fract_z
Si Si1 0.284162 0.079597 0.102466
Si Si2 0.898405 0.395875 0.587104
Si Si3 0.190858 0.534637 0.941521
Si Si4 0.735379 0.826255 0.563849
Si Si5 0.321561 0.516994 0.322290
Si Si6 0.540931 0.710495 0.109265
Si Si7 0.041281 0.865964 0.754988
O O1 0.328204 0.073090 0.297802
O O2 0.300214 0.289476 0.162891
O O3 0.388165 0.880016 0.011200
O O4 0.106063 0.067902 0.925799
O O5 0.816612 0.586133 0.520527
O O6 0.782039 0.361515 0.583475
O O7 0.943850 0.205851 0.426119
O O8 0.049002 0.444435 0.814274
O O9 0.325516 0.340334 0.909954
O O10 0.142068 0.700507 0.864557
O O11 0.260635 0.630334 0.184392
O O12 0.591797 0.836892 0.343791
O O13 0.861786 0.934132 0.670696
O O14 0.500000 0.500000 0.500000
O O15 0.500000 0.500000 0.000000
#
# Coordination Sequence:
#
# PCOD8004876 Si02
#       7
#     2   2   2   2   2   2   2
#     4  11  25  39  63  96 136 171 214 268 325 387
#     4  10  20  43  69  94 127 174 217 265 324 389
#     4  11  22  41  70  96 127 174 218 263 324 384
#     4  10  20  38  63 102 128 164 216 275 318 379
#     4  11  28  45  64  94 138 174 213 268 336 386
#     4  12  22  38  67 101 132 168 219 270 322 379
#     4  11  20  42  73  97 123 169 225 271 317 385
#
# _framework density 24.35473
#
# number of rings (size 3 to 8) (size 9 to 14) (size 15 to 20)
#    0.000    1.143    4.286    2.143    6.000    1.714 
#    0.000    2.143    0.000    0.000    0.000    0.000 
#    0.000    0.000    0.000    0.000    0.000    0.000 
#
# Total GULP energy -173572.969480 kJ/mol
# GULP energy per Si atom -12398.069249 kJ/mol
# Density = 2.429930 g / cm^3
# Si number density = 24.354730 Si / 1000 Ang^3
#
#
#
# Elastic Constant Matrix: (Units=GPa)
#
#
# Indices 1 2 3 4 5 6 
#
# 1 114.9206 13.0305 32.6577 -1.8073 6.5882 -8.0668
# 2 13.0305 45.3312 0.1882 12.4294 -0.9147 -1.7558
# 3 32.6577 0.1882 127.0314 -8.4149 11.0262 15.7860
# 4 -1.8073 12.4294 -8.4149 27.9529 1.5642 5.3693
# 5 6.5882 -0.9147 11.0262 1.5642 44.2399 4.7622
# 6 -8.0668 -1.7558 15.7860 5.3693 4.7622 21.2357
#
#
#
# Elastic Compliance Matrix: (Units=1/GPa)
#
#
# Indices 1 2 3 4 5 6 
#
# 1 0.010538 -0.002678 -0.003443 -0.000382 -0.001482 0.006770
# 2 -0.002678 0.026718 -0.000960 -0.013372 0.001121 0.005035
# 3 -0.003443 -0.000960 0.010501 0.005409 -0.001208 -0.010290
# 4 -0.000382 -0.013372 0.005409 0.046619 -0.001414 -0.016742
# 5 -0.001482 0.001121 -0.001208 -0.001414 0.023686 -0.004527
# 6 0.006770 0.005035 -0.010290 -0.016742 -0.004527 0.062976
#
#
# Mechanical properties :
#
#
# Convention : Reuss Voigt Hill
#
# Bulk Modulus (GPa) = 29.76693 42.11512 35.94103
# Shear Modulus (GPa) = 24.22509 34.77950 29.50229
#
# Velocity S-wave (km/s) = 3.15727 3.78304 3.48423
# Velocity P-wave (km/s) = 5.05370 6.03422 5.56560
#
# Compressibility (1/GPa) = 0.03359432
#
# Stress axis : x y z
#
# Youngs Moduli (GPa) = 94.89553 37.42836 95.23285
#
# Poissons Ratio (x) = 0.10022 0.32790
# Poissons Ratio (y) = 0.25411 0.09143
# Poissons Ratio (z) = 0.32674 0.03593
#
# Static dielectric constant tensor:
#      x y z
#    x 4.576800 -0.214140 0.229450 
#    y -0.214140 3.953500 -0.019130 
#    z 0.229450 -0.019130 4.435320 
# 
# 
# High freq. dielectric constant tensor:
#      x y z
#    x 1.977640 -0.019410 0.009900 
#    y -0.019410 1.936410 0.006060 
#    z 0.009900 0.006060 1.975120 
# 
# From -- ./inp_files/158254.got.cif
#   From: 2010.06.25/outbox.cif.g09.slc.cpg/sg2_80_cif.got.tgz:158254.got - 2010.06.27 13:26:56.
