data_PCOD8004418
_publ_section_title
;
Structure prediction by ZEFSAII (Michael W. Deem and Ramdas Pophale) SiO2 
 PCOD8004418
Probable space group: P -1
;
_chemical_formula_sum "Si O2"
_cell_formula_units_Z 16
_cell_length_a 13.588895
_cell_length_b 18.192678
_cell_length_c 8.672848
_cell_angle_alpha 93.920311
_cell_angle_beta 97.285339
_cell_angle_gamma 157.481196
_cell_volume 710.808546
_symmetry_space_group_name_H-M "P -1"
_symmetry_group_IT_number 2
_symmetry_cell_setting 'triclinic'
loop_
_space_group_symop_operation_xyz
x,y,z
-x,-y,-z
loop_
_atom_site_type_symbol
_atom_site_label
_atom_site_fract_x
_atom_site_fract_y
_atom_site_fract_z
Si Si1 0.434398 0.207835 0.150404
Si Si2 0.572758 0.864656 0.417364
Si Si3 0.577632 0.433518 0.987380
Si Si4 0.092138 0.727475 0.972943
Si Si5 0.490594 0.110686 0.926274
Si Si6 0.929198 0.817110 0.227248
Si Si7 0.502165 0.948478 0.633921
Si Si8 0.104558 0.493912 0.465631
O O1 0.408487 0.262488 0.049551
O O2 0.522692 0.199735 0.062845
O O3 0.698759 0.407589 0.350943
O O4 0.125458 0.976581 0.140784
O O5 0.513442 0.873868 0.559241
O O6 0.276810 0.606270 0.348530
O O7 0.576506 0.906337 0.261011
O O8 0.887984 0.049445 0.553825
O O9 0.793638 0.641006 0.150265
O O10 0.742984 0.497147 0.901726
O O11 0.332930 0.307371 0.825170
O O12 0.217299 0.866301 0.880792
O O13 0.216087 0.843578 0.176561
O O14 0.198037 0.716234 0.978369
O O15 0.212365 0.768160 0.652940
O O16 0.500000 0.000000 0.500000
O O17 0.000000 0.500000 0.500000
#
# Coordination Sequence:
#
# PCOD8004418 Si02
#       8
#     2   2   2   2   2   2   2   2
#     4  11  22  41  61  92 126 157 197 253 307 364
#     4  10  20  38  58  85 119 158 199 252 300 351
#     4  11  22  40  70  88 113 165 212 250 301 344
#     4  11  22  40  59  89 129 159 199 249 298 373
#     4  11  23  38  57  90 131 164 185 244 322 367
#     4  10  22  43  67  90 114 154 220 261 283 349
#     4  11  18  35  57  85 116 154 202 245 291 353
#     4   9  20  34  55  84 118 154 199 244 292 360
#
# _framework density 22.509577
#
# number of rings (size 3 to 8) (size 9 to 14) (size 15 to 20)
#    0.000    1.500    3.750    2.625    1.750    0.500 
#    4.500    1.250    0.000    0.000    0.000    0.000 
#    0.000    0.000    0.000    0.000    0.000    0.000 
#
# Total GULP energy -198263.490198 kJ/mol
# GULP energy per Si atom -12391.468137 kJ/mol
# Density = 2.245834 g / cm^3
# Si number density = 22.509577 Si / 1000 Ang^3
#
#
#
# Elastic Constant Matrix: (Units=GPa)
#
#
# Indices 1 2 3 4 5 6 
#
# 1 88.3748 42.4326 22.8034 -7.8698 20.0837 12.0320
# 2 42.4326 117.8987 38.5097 -14.2545 23.3930 3.0073
# 3 22.8034 38.5097 82.5354 -26.6236 26.4102 17.3663
# 4 -7.8698 -14.2545 -26.6236 32.7849 4.5869 12.8056
# 5 20.0837 23.3930 26.4102 4.5869 34.7190 -4.3681
# 6 12.0320 3.0073 17.3663 12.8056 -4.3681 35.4654
#
#
#
# Elastic Compliance Matrix: (Units=1/GPa)
#
#
# Indices 1 2 3 4 5 6 
#
# 1 0.006080 -0.004541 -0.029282 -0.040857 0.031146 0.031249
# 2 -0.004541 0.011754 -0.004389 -0.000348 -0.001578 0.002624
# 3 -0.029282 -0.004389 -0.078059 -0.130400 0.110239 0.109191
# 4 -0.040857 -0.000348 -0.130400 -0.171001 0.165771 0.159904
# 5 0.031146 -0.001578 0.110239 0.165771 -0.111267 -0.137973
# 6 0.031249 0.002624 0.109191 0.159904 -0.137973 -0.110825
#
#
# Mechanical properties :
#
#
# Convention : Reuss Voigt Hill
#
# Bulk Modulus (GPa) = -7.31809 55.14446 23.91318
# Shear Modulus (GPa) = -11.83586 32.93141 10.54777
#
# Velocity S-wave (km/s) = -2.29555 3.82906 2.16704
# Velocity P-wave (km/s) = 3.20690 6.64081 4.11194
#
# Compressibility (1/GPa) = -0.13664765
#
# Stress axis : x y z
#
# Youngs Moduli (GPa) = 164.46266 85.07889 -12.81075
#
# Poissons Ratio (x) = 0.38631 -0.37512
# Poissons Ratio (y) = 0.74675 -0.05622
# Poissons Ratio (z) = 4.81577 0.37339
#
# Static dielectric constant tensor:
#      x y z
#    x 3.574360 -0.478220 0.188790 
#    y -0.478220 4.490150 0.371280 
#    z 0.188790 0.371280 4.028000 
# 
# 
# High freq. dielectric constant tensor:
#      x y z
#    x 1.874400 -0.005910 0.005860 
#    y -0.005910 1.900650 -0.000280 
#    z 0.005860 -0.000280 1.887780 
# 
# From -- ./inp_files/319005.got.cif
#   From: 2010.06.25/outbox.cif.g09.slc.cpg/sg2_160_cif.got.tgz:319005.got - 2010.06.27 13:26:56.
