data_PCOD8004496
_publ_section_title
;
Structure prediction by ZEFSAII (Michael W. Deem and Ramdas Pophale) SiO2 
 PCOD8004496
Probable space group: P -1
;
_chemical_formula_sum "Si O2"
_cell_formula_units_Z 12
_cell_length_a 13.706398
_cell_length_b 20.716046
_cell_length_c 7.032348
_cell_angle_alpha 137.050895
_cell_angle_beta 39.170445
_cell_angle_gamma 152.192935
_cell_volume 581.074741
_symmetry_space_group_name_H-M "P -1"
_symmetry_group_IT_number 2
_symmetry_cell_setting 'triclinic'
loop_
_space_group_symop_operation_xyz
x,y,z
-x,-y,-z
loop_
_atom_site_type_symbol
_atom_site_label
_atom_site_fract_x
_atom_site_fract_y
_atom_site_fract_z
Si Si1 0.494690 0.877035 0.372987
Si Si2 0.068492 0.575060 0.858665
Si Si3 0.213907 0.823347 0.351560
Si Si4 0.918516 0.969550 0.771986
Si Si5 0.818783 0.780785 0.816845
Si Si6 0.667562 0.386755 0.780181
O O1 0.277898 0.817080 0.453416
O O2 0.413535 0.757641 0.374854
O O3 0.607013 0.012481 0.622165
O O4 0.686712 0.926558 0.041464
O O5 0.213292 0.561820 0.495774
O O6 0.842561 0.500776 0.922219
O O7 0.218837 0.737951 0.013828
O O8 0.000000 0.500000 0.000000
O O9 0.954978 0.746164 0.578303
O O10 0.873105 0.844525 0.659479
O O11 0.000000 0.000000 0.500000
O O12 0.119011 0.109270 0.889846
O O13 0.547559 0.639127 0.946134
#
# Coordination Sequence:
#
# PCOD8004496 Si02
#       6
#     2   2   2   2   2   2
#     4   9  19  38  60  87 117 148 193 238 283 349
#     4  11  23  40  61  83 114 159 196 233 289 349
#     4  10  20  38  59  88 121 143 191 246 283 334
#     4   9  18  34  57  85 118 155 184 227 295 346
#     4   9  20  37  54  86 118 144 193 243 275 340
#     4  10  22  40  62  82 114 156 197 231 287 351
#
# _framework density 20.651388000000001
#
# number of rings (size 3 to 8) (size 9 to 14) (size 15 to 20)
#    0.000    2.333    1.667    1.000    2.333    1.333 
#    9.000    0.833    0.000    0.000    0.000    0.000 
#    0.000    0.000    0.000    0.000    0.000    0.000 
#
# Total GULP energy -148768.397598 kJ/mol
# GULP energy per Si atom -12397.366466 kJ/mol
# Density = 2.060438 g / cm^3
# Si number density = 20.651388 Si / 1000 Ang^3
#
#
#
# Elastic Constant Matrix: (Units=GPa)
#
#
# Indices 1 2 3 4 5 6 
#
# 1 99.3807 27.6148 43.7434 -15.8639 -0.8149 19.8245
# 2 27.6148 81.0202 36.5314 4.8566 8.9823 17.8595
# 3 43.7434 36.5314 87.8407 -4.2991 21.9120 6.1111
# 4 -15.8639 4.8566 -4.2991 41.5308 -1.8897 -4.6291
# 5 -0.8149 8.9823 21.9120 -1.8897 35.6718 -7.7381
# 6 19.8245 17.8595 6.1111 -4.6291 -7.7381 35.8939
#
#
#
# Elastic Compliance Matrix: (Units=1/GPa)
#
#
# Indices 1 2 3 4 5 6 
#
# 1 0.015757 -0.001619 -0.007769 0.005074 0.004746 -0.004897
# 2 -0.001619 0.017780 -0.005424 -0.004328 -0.003207 -0.008279
# 3 -0.007769 -0.005424 0.020138 -0.000624 -0.010973 0.001115
# 4 0.005074 -0.004328 -0.000624 0.027054 0.003840 0.003774
# 5 0.004746 -0.003207 -0.010973 0.003840 0.037958 0.009521
# 6 -0.004897 -0.008279 0.001115 0.003774 0.009521 0.037033
#
#
# Mechanical properties :
#
#
# Convention : Reuss Voigt Hill
#
# Bulk Modulus (GPa) = 41.57600 53.78007 47.67804
# Shear Modulus (GPa) = 25.85843 33.30943 29.58393
#
# Velocity S-wave (km/s) = 3.54240 4.02050 3.78900
# Velocity P-wave (km/s) = 6.07515 6.90297 6.50225
#
# Compressibility (1/GPa) = 0.02405234
#
# Stress axis : x y z
#
# Youngs Moduli (GPa) = 63.46248 56.24342 49.65801
#
# Poissons Ratio (x) = 0.09104 0.38577
# Poissons Ratio (y) = 0.10273 0.26935
# Poissons Ratio (z) = 0.49301 0.30507
#
# Static dielectric constant tensor:
#      x y z
#    x 3.801440 0.272210 -0.155790 
#    y 0.272210 3.906150 0.039070 
#    z -0.155790 0.039070 3.504570 
# 
# 
# High freq. dielectric constant tensor:
#      x y z
#    x 1.804520 0.020590 -0.003110 
#    y 0.020590 1.807420 0.002530 
#    z -0.003110 0.002530 1.782930 
# 
# From -- ./inp_files/65356.got.cif
#   From: 2010.06.25/outbox.cif.g09.slc.cpg/sg2_33_cif.got.tgz:65356.got - 2010.06.27 13:26:56.
