data_PCOD8004283
_publ_section_title
;
Structure prediction by ZEFSAII (Michael W. Deem and Ramdas Pophale) SiO2 
 PCOD8004283
Probable space group: P -1
;
_chemical_formula_sum "Si O2"
_cell_formula_units_Z 16
_cell_length_a 11.744424
_cell_length_b 8.858218
_cell_length_c 15.430556
_cell_angle_alpha 101.629788
_cell_angle_beta 153.483537
_cell_angle_gamma 80.099050
_cell_volume 701.855743
_symmetry_space_group_name_H-M "P -1"
_symmetry_group_IT_number 2
_symmetry_cell_setting 'triclinic'
loop_
_space_group_symop_operation_xyz
x,y,z
-x,-y,-z
loop_
_atom_site_type_symbol
_atom_site_label
_atom_site_fract_x
_atom_site_fract_y
_atom_site_fract_z
Si Si1 0.202479 0.541044 0.401642
Si Si2 0.605591 0.730568 0.603824
Si Si3 0.424049 0.625010 0.735990
Si Si4 0.213243 0.933409 0.701906
Si Si5 0.747372 0.099213 0.078948
Si Si6 0.886868 0.020897 0.829956
Si Si7 0.079459 0.326963 0.025749
Si Si8 0.652555 0.447066 0.015333
O O1 0.334797 0.683462 0.456039
O O2 0.335456 0.379551 0.449809
O O3 0.232923 0.559337 0.526555
O O4 0.904212 0.552646 0.180887
O O5 0.630622 0.915912 0.622877
O O6 0.840919 0.711435 0.827207
O O7 0.284219 0.759822 0.706910
O O8 0.682711 0.692855 0.878258
O O9 0.474161 0.478618 0.815055
O O10 0.126321 0.928419 0.743229
O O11 0.000000 0.000000 0.500000
O O12 0.454896 0.046254 0.871540
O O13 0.749995 0.276284 0.072922
O O14 0.904270 0.010432 0.104105
O O15 0.000000 0.000000 0.000000
O O16 0.848180 0.208969 0.821864
O O17 0.000000 0.500000 0.000000
O O18 0.500000 0.500000 0.000000
#
# Coordination Sequence:
#
# PCOD8004283 Si02
#       8
#     2   2   2   2   2   2   2   2
#     4  10  22  39  67  97 141 182 235 288 350 423
#     4   9  19  40  63  94 136 190 227 290 349 416
#     4  11  24  42  67 104 138 185 235 289 358 428
#     4  11  26  47  72 100 142 191 241 298 357 425
#     4  11  24  47  71 104 142 187 242 295 360 432
#     4  10  20  39  72 100 141 185 233 299 353 430
#     4  10  20  37  67 101 141 184 232 289 363 426
#     4  12  25  42  70 101 140 184 231 294 358 420
#
# _framework density 22.796707999999999
#
# number of rings (size 3 to 8) (size 9 to 14) (size 15 to 20)
#    0.000    1.500    3.750    0.750    3.500    1.500 
#    2.250    0.000    0.000   12.750    0.000    0.000 
#    0.000    0.000    0.000    0.000    0.000    0.000 
#
# Total GULP energy -198286.043882 kJ/mol
# GULP energy per Si atom -12392.877743 kJ/mol
# Density = 2.274482 g / cm^3
# Si number density = 22.796708 Si / 1000 Ang^3
#
#
#
# Elastic Constant Matrix: (Units=GPa)
#
#
# Indices 1 2 3 4 5 6 
#
# 1 122.9102 36.9747 42.0740 3.9170 -12.4633 -13.7176
# 2 36.9747 140.9330 42.8628 18.6777 6.5878 4.5604
# 3 42.0740 42.8628 73.8157 -1.4167 -7.3094 5.9517
# 4 3.9170 18.6777 -1.4167 42.4427 9.0112 -2.8795
# 5 -12.4633 6.5878 -7.3094 9.0112 43.3961 3.6884
# 6 -13.7176 4.5604 5.9517 -2.8795 3.6884 32.6432
#
#
#
# Elastic Compliance Matrix: (Units=1/GPa)
#
#
# Indices 1 2 3 4 5 6 
#
# 1 0.011505 -0.001379 -0.006026 -0.000718 0.002153 0.005819
# 2 -0.001379 0.009610 -0.004951 -0.003972 -0.001765 -0.001170
# 3 -0.006026 -0.004951 0.020603 0.002519 0.002448 -0.005652
# 4 -0.000718 -0.003972 0.002519 0.026695 -0.004952 0.002708
# 5 0.002153 -0.001765 0.002448 -0.004952 0.025593 -0.002624
# 6 0.005819 -0.001170 -0.005652 0.002708 -0.002624 0.034809
#
#
# Mechanical properties :
#
#
# Convention : Reuss Voigt Hill
#
# Bulk Modulus (GPa) = 58.80507 64.60910 61.70708
# Shear Modulus (GPa) = 31.40790 38.07954 34.74372
#
# Velocity S-wave (km/s) = 3.71582 4.09148 3.90817
# Velocity P-wave (km/s) = 6.65291 7.12203 6.89146
#
# Compressibility (1/GPa) = 0.01700534
#
# Stress axis : x y z
#
# Youngs Moduli (GPa) = 86.92240 104.06046 48.53574
#
# Poissons Ratio (x) = 0.14352 0.29249
# Poissons Ratio (y) = 0.11988 0.24028
# Poissons Ratio (z) = 0.52383 0.51516
#
# Static dielectric constant tensor:
#      x y z
#    x -0.843240 -14.776350 0.255280 
#    y -14.776350 -38.887830 1.588720 
#    z 0.255280 1.588720 4.076710 
# 
# 
# High freq. dielectric constant tensor:
#      x y z
#    x 1.911630 0.005160 -0.013510 
#    y 0.005160 1.907180 0.016960 
#    z -0.013510 0.016960 1.894130 
# 
# From -- ./inp_files/516020.got.cif
#   From: 2010.06.25/outbox.cif.g09.slc.cpg/sg2_259_cif.got.tgz:516020.got - 2010.06.27 13:26:56.
