data_PCOD8004508
_publ_section_title
;
Structure prediction by ZEFSAII (Michael W. Deem and Ramdas Pophale) SiO2 
 PCOD8004508
Probable space group: P -1
;
_chemical_formula_sum "Si O2"
_cell_formula_units_Z 16
_cell_length_a 17.395907
_cell_length_b 14.726315
_cell_length_c 13.258232
_cell_angle_alpha 128.282402
_cell_angle_beta 21.932312
_cell_angle_gamma 138.428476
_cell_volume 802.924329
_symmetry_space_group_name_H-M "P -1"
_symmetry_group_IT_number 2
_symmetry_cell_setting 'triclinic'
loop_
_space_group_symop_operation_xyz
x,y,z
-x,-y,-z
loop_
_atom_site_type_symbol
_atom_site_label
_atom_site_fract_x
_atom_site_fract_y
_atom_site_fract_z
Si Si1 0.142375 0.113617 0.622280
Si Si2 0.450332 0.592381 0.319653
Si Si3 0.629832 0.014907 0.662146
Si Si4 0.758983 0.918217 0.808316
Si Si5 0.007844 0.514220 0.664732
Si Si6 0.571558 0.654736 0.732521
Si Si7 0.940522 0.666197 0.677285
Si Si8 0.761943 0.875485 0.267104
O O1 0.331623 0.064996 0.349139
O O2 0.248157 0.248676 0.513303
O O3 0.128819 0.150080 0.780587
O O4 0.860880 0.972225 0.835023
O O5 0.217617 0.584918 0.546778
O O6 0.346417 0.448638 0.411609
O O7 0.594192 0.728556 0.310809
O O8 0.647374 0.606209 0.007780
O O9 0.582229 0.924418 0.554453
O O10 0.896767 0.166109 0.420915
O O11 0.413451 0.028995 0.970236
O O12 0.608373 0.748846 0.852638
O O13 0.000000 0.000000 0.500000
O O14 0.040294 0.403102 0.493758
O O15 0.054237 0.634809 0.613623
O O16 0.724388 0.433810 0.001057
O O17 0.000000 0.000000 0.000000
#
# Coordination Sequence:
#
# PCOD8004508 Si02
#       8
#     2   2   2   2   2   2   2   2
#     4   9  23  40  63  90 123 164 202 255 304 357
#     4  11  22  39  61  88 124 167 201 250 304 365
#     4  10  21  39  64  87 125 157 204 254 301 363
#     4  10  21  39  63  95 120 156 206 248 316 367
#     4  10  22  37  60  90 127 157 200 255 313 362
#     4  10  22  38  61  94 121 157 207 250 311 367
#     4  10  20  38  59  92 123 156 204 251 312 370
#     4  10  22  44  61  87 123 167 212 246 303 363
#
# _framework density 19.927160000000001
#
# number of rings (size 3 to 8) (size 9 to 14) (size 15 to 20)
#    0.750    1.250    2.500    0.375    1.750    6.500 
#    4.500    1.875    0.000    0.000    0.000    0.000 
#    0.000    0.000    0.000    0.000    0.000    0.000 
#
# Total GULP energy -198242.480428 kJ/mol
# GULP energy per Si atom -12390.155027 kJ/mol
# Density = 1.988180 g / cm^3
# Si number density = 19.927160 Si / 1000 Ang^3
#
#
#
# Elastic Constant Matrix: (Units=GPa)
#
#
# Indices 1 2 3 4 5 6 
#
# 1 94.2612 28.0992 18.0520 -24.2308 -11.0982 5.0349
# 2 28.0992 96.0652 9.6730 -12.6232 -2.9620 1.1124
# 3 18.0520 9.6730 60.4886 -8.8310 -11.8492 -7.3991
# 4 -24.2308 -12.6232 -8.8310 20.1557 3.3724 -1.7070
# 5 -11.0982 -2.9620 -11.8492 3.3724 36.0735 -5.3163
# 6 5.0349 1.1124 -7.3991 -1.7070 -5.3163 30.0939
#
#
#
# Elastic Compliance Matrix: (Units=1/GPa)
#
#
# Indices 1 2 3 4 5 6 
#
# 1 0.016351 -0.002289 -0.001780 0.016894 0.002428 -0.001702
# 2 -0.002289 0.011705 -0.000624 0.004363 -0.000359 -0.000019
# 3 -0.001780 -0.000624 0.020091 0.005762 0.006453 0.006728
# 4 0.016894 0.004363 0.005762 0.075282 0.000830 0.002846
# 5 0.002428 -0.000359 0.006453 0.000830 0.031483 0.006803
# 6 -0.001702 -0.000019 0.006728 0.002846 0.006803 0.036532
#
#
# Mechanical properties :
#
#
# Convention : Reuss Voigt Hill
#
# Bulk Modulus (GPa) = 25.79937 40.27371 33.03654
# Shear Modulus (GPa) = 23.39162 30.26400 26.82781
#
# Velocity S-wave (km/s) = 3.42988 3.90132 3.67317
# Velocity P-wave (km/s) = 5.35354 6.36774 5.88253
#
# Compressibility (1/GPa) = 0.03876063
#
# Stress axis : x y z
#
# Youngs Moduli (GPa) = 61.15648 85.43693 49.77266
#
# Poissons Ratio (x) = 0.19558 0.08860
# Poissons Ratio (y) = 0.14000 0.03107
# Poissons Ratio (z) = 0.10886 0.05333
#
# Static dielectric constant tensor:
#      x y z
#    x 3.643460 0.152870 -0.194800 
#    y 0.152870 3.776810 -0.103770 
#    z -0.194800 -0.103770 3.512630 
# 
# 
# High freq. dielectric constant tensor:
#      x y z
#    x 1.765060 -0.001280 -0.005260 
#    y -0.001280 1.784310 -0.004690 
#    z -0.005260 -0.004690 1.765150 
# 
# From -- ./inp_files/538894.got.cif
#   From: 2010.06.25/outbox.cif.g09.slc.cpg/sg2_270_cif.got.tgz:538894.got - 2010.06.27 13:26:56.
