data_PCOD8004005
_publ_section_title
;
Structure prediction by ZEFSAII (Michael W. Deem and Ramdas Pophale) SiO2 
 PCOD8004005
Probable space group: P -1
;
_chemical_formula_sum "Si O2"
_cell_formula_units_Z 16
_cell_length_a 11.877978
_cell_length_b 8.698368
_cell_length_c 9.889740
_cell_angle_alpha 53.847873
_cell_angle_beta 91.917863
_cell_angle_gamma 83.083597
_cell_volume 812.059643
_symmetry_space_group_name_H-M "P -1"
_symmetry_group_IT_number 2
_symmetry_cell_setting 'triclinic'
loop_
_space_group_symop_operation_xyz
x,y,z
-x,-y,-z
loop_
_atom_site_type_symbol
_atom_site_label
_atom_site_fract_x
_atom_site_fract_y
_atom_site_fract_z
Si Si1 0.834499 0.907246 0.021375
Si Si2 0.937772 0.720309 0.392692
Si Si3 0.419759 0.144573 0.015639
Si Si4 0.014907 0.104211 0.222144
Si Si5 0.584280 0.852793 0.667629
Si Si6 0.831529 0.723075 0.663823
Si Si7 0.448224 0.551910 0.113365
Si Si8 0.192032 0.706553 0.035840
O O1 0.711077 0.858871 0.011715
O O2 0.914501 0.840110 0.932722
O O3 0.835651 0.135001 0.927323
O O4 0.879389 0.778043 0.217883
O O5 0.840371 0.737219 0.495292
O O6 0.000000 0.500000 0.500000
O O7 0.022586 0.871789 0.354516
O O8 0.446114 0.111888 0.193785
O O9 0.457307 0.344685 0.863023
O O10 0.500000 0.000000 0.000000
O O11 0.062472 0.192391 0.311513
O O12 0.882901 0.209704 0.141236
O O13 0.717159 0.861671 0.640925
O O14 0.567530 0.645598 0.712891
O O15 0.500000 0.000000 0.500000
O O16 0.838734 0.499081 0.818786
O O17 0.325946 0.691797 0.016908
O O18 0.500000 0.500000 0.000000
#
# Coordination Sequence:
#
# PCOD8004005 Si02
#       8
#     2   2   2   2   2   2   2   2
#     4  11  22  40  64  89 119 160 199 248 298 358
#     4  11  24  41  58  89 127 159 193 246 306 360
#     4  11  21  40  65  90 117 154 213 245 287 364
#     4  11  22  40  64  90 116 159 207 245 299 358
#     4  10  23  41  62  87 126 158 194 250 309 349
#     4  11  22  40  60  89 123 154 201 252 300 355
#     4   9  20  38  59  87 119 157 200 242 294 352
#     4  10  20  37  63  86 118 159 196 247 301 354
#
# _framework density 19.702988000000001
#
# number of rings (size 3 to 8) (size 9 to 14) (size 15 to 20)
#    0.000    1.500    2.500    3.750    1.750    1.000 
#    2.250    0.625    0.000    0.000    0.000    0.000 
#    0.000    0.000    0.000    0.000    0.000    0.000 
#
# Total GULP energy -198297.332168 kJ/mol
# GULP energy per Si atom -12393.583260 kJ/mol
# Density = 1.965814 g / cm^3
# Si number density = 19.702988 Si / 1000 Ang^3
#
#
#
# Elastic Constant Matrix: (Units=GPa)
#
#
# Indices 1 2 3 4 5 6 
#
# 1 97.3115 37.8421 37.8539 -13.4198 5.4674 11.7682
# 2 37.8421 100.0857 48.0288 -10.0079 4.2410 5.9122
# 3 37.8539 48.0288 91.6012 -6.4272 4.1021 -3.7630
# 4 -13.4198 -10.0079 -6.4272 34.7669 -6.7185 -9.1284
# 5 5.4674 4.2410 4.1021 -6.7185 29.7084 1.8645
# 6 11.7682 5.9122 -3.7630 -9.1284 1.8645 46.7046
#
#
#
# Elastic Compliance Matrix: (Units=1/GPa)
#
#
# Indices 1 2 3 4 5 6 
#
# 1 0.013721 -0.002722 -0.004127 0.002856 -0.000741 -0.002857
# 2 -0.002722 0.014284 -0.006303 0.001500 -0.000245 -0.001327
# 3 -0.004127 -0.006303 0.016111 0.000280 -0.000704 0.003219
# 4 0.002856 0.001500 0.000280 0.032967 0.006344 0.005303
# 5 -0.000741 -0.000245 -0.000704 0.006344 0.035365 -0.000011
# 6 -0.002857 -0.001327 0.003219 0.005303 -0.000011 0.023595
#
#
# Mechanical properties :
#
#
# Convention : Reuss Voigt Hill
#
# Bulk Modulus (GPa) = 56.14056 59.60533 57.87295
# Shear Modulus (GPa) = 29.71171 33.25424 31.48297
#
# Velocity S-wave (km/s) = 3.88748 4.11271 4.00168
# Velocity P-wave (km/s) = 6.97892 7.27119 7.12655
#
# Compressibility (1/GPa) = 0.01781243
#
# Stress axis : x y z
#
# Youngs Moduli (GPa) = 72.88011 70.00865 62.07115
#
# Poissons Ratio (x) = 0.19054 0.25616
# Poissons Ratio (y) = 0.19836 0.39123
# Poissons Ratio (z) = 0.30077 0.44126
#
# Static dielectric constant tensor:
#      x y z
#    x 2.621980 -1.100600 0.559430 
#    y -1.100600 11.951140 -2.645720 
#    z 0.559430 -2.645720 4.159630 
# 
# 
# High freq. dielectric constant tensor:
#      x y z
#    x 1.780150 0.002780 -0.014020 
#    y 0.002780 1.782450 -0.005110 
#    z -0.014020 -0.005110 1.748760 
# 
# From -- ./inp_files/181277.got.cif
#   From: 2010.06.25/outbox.cif.g09.slc.cpg/sg2_91_cif.got.tgz:181277.got - 2010.06.27 13:26:56.
