data_PCOD8004400
_publ_section_title
;
Structure prediction by ZEFSAII (Michael W. Deem and Ramdas Pophale) SiO2 
 PCOD8004400
Probable space group: P -1
;
_chemical_formula_sum "Si O2"
_cell_formula_units_Z 16
_cell_length_a 10.100733
_cell_length_b 19.559098
_cell_length_c 9.861257
_cell_angle_alpha 51.420064
_cell_angle_beta 139.146882
_cell_angle_gamma 138.927627
_cell_volume 830.787556
_symmetry_space_group_name_H-M "P -1"
_symmetry_group_IT_number 2
_symmetry_cell_setting 'triclinic'
loop_
_space_group_symop_operation_xyz
x,y,z
-x,-y,-z
loop_
_atom_site_type_symbol
_atom_site_label
_atom_site_fract_x
_atom_site_fract_y
_atom_site_fract_z
Si Si1 0.849650 0.377756 0.510741
Si Si2 0.886207 0.381712 0.017015
Si Si3 0.551947 0.786044 0.247049
Si Si4 0.931026 0.869712 0.218819
Si Si5 0.309424 0.103981 0.247865
Si Si6 0.146952 0.737799 0.594431
Si Si7 0.070990 0.721244 0.053246
Si Si8 0.315787 0.228072 0.339465
O O1 0.911174 0.354242 0.440458
O O2 0.566020 0.335272 0.357973
O O3 0.000000 0.500000 0.500000
O O4 0.920404 0.319678 0.742668
O O5 0.885142 0.310897 0.223257
O O6 0.609416 0.329094 0.810299
O O7 0.000000 0.500000 0.000000
O O8 0.044033 0.375480 0.024789
O O9 0.695677 0.787936 0.488311
O O10 0.746385 0.867992 0.188525
O O11 0.349049 0.809779 0.108471
O O12 0.960542 0.773658 0.387646
O O13 0.186855 0.979976 0.296018
O O14 0.826169 0.858770 0.000668
O O15 0.585543 0.159914 0.346022
O O16 0.295372 0.133183 0.356527
O O17 0.914699 0.770270 0.883223
#
# Coordination Sequence:
#
# PCOD8004400 Si02
#       8
#     2   2   2   2   2   2   2   2
#     4  10  21  36  54  83 115 145 188 232 275 336
#     4  10  20  38  59  80 117 152 185 234 280 324
#     4   9  21  37  56  80 116 141 188 238 265 335
#     4  11  21  39  60  86 110 150 189 235 289 331
#     4  10  22  38  60  84 115 145 189 238 283 336
#     4  11  21  37  60  84 116 149 186 234 282 337
#     4   9  19  37  54  77 112 147 183 228 277 331
#     4  10  20  38  58  78 112 153 181 233 283 330
#
# _framework density 19.258832999999999
#
# number of rings (size 3 to 8) (size 9 to 14) (size 15 to 20)
#    0.750    1.250    1.250    2.625    0.000    1.000 
#    2.250    1.875    0.000    0.000    0.000    0.000 
#    0.000    0.000    0.000    0.000    0.000    0.000 
#
# Total GULP energy -198293.438656 kJ/mol
# GULP energy per Si atom -12393.339916 kJ/mol
# Density = 1.921500 g / cm^3
# Si number density = 19.258833 Si / 1000 Ang^3
#
#
#
# Elastic Constant Matrix: (Units=GPa)
#
#
# Indices 1 2 3 4 5 6 
#
# 1 54.1785 12.9545 23.9211 4.1172 2.1561 5.9991
# 2 12.9545 58.9327 19.7580 8.7121 -0.7947 2.4048
# 3 23.9211 19.7580 94.0138 5.5310 -0.3610 1.3080
# 4 4.1172 8.7121 5.5310 23.5956 -6.5621 -2.2996
# 5 2.1561 -0.7947 -0.3610 -6.5621 36.1549 3.3836
# 6 5.9991 2.4048 1.3080 -2.2996 3.3836 18.4467
#
#
#
# Elastic Compliance Matrix: (Units=1/GPa)
#
#
# Indices 1 2 3 4 5 6 
#
# 1 0.022223 -0.002589 -0.004858 -0.002797 -0.001316 -0.006653
# 2 -0.002589 0.019592 -0.003053 -0.006393 -0.000398 -0.002220
# 3 -0.004858 -0.003053 0.012551 -0.000844 0.000105 0.000964
# 4 -0.002797 -0.006393 -0.000844 0.048323 0.008197 0.006324
# 5 -0.001316 -0.000398 0.000105 0.008197 0.029585 -0.003933
# 6 -0.006653 -0.002220 0.000964 0.006324 -0.003933 0.058105
#
#
# Mechanical properties :
#
#
# Convention : Reuss Voigt Hill
#
# Bulk Modulus (GPa) = 29.97152 35.59911 32.78532
# Shear Modulus (GPa) = 22.47175 25.67220 24.07197
#
# Velocity S-wave (km/s) = 3.41959 3.65500 3.53925
# Velocity P-wave (km/s) = 5.58460 6.02800 5.81053
#
# Compressibility (1/GPa) = 0.03336500
#
# Stress axis : x y z
#
# Youngs Moduli (GPa) = 44.99797 51.04238 79.67361
#
# Poissons Ratio (x) = 0.13215 0.38708
# Poissons Ratio (y) = 0.11650 0.24325
# Poissons Ratio (z) = 0.21862 0.15584
#
# Static dielectric constant tensor:
#      x y z
#    x 3.555790 0.073540 -0.166080 
#    y 0.073540 3.320230 0.223640 
#    z -0.166080 0.223640 3.570290 
# 
# 
# High freq. dielectric constant tensor:
#      x y z
#    x 1.755170 0.000670 -0.015800 
#    y 0.000670 1.724560 0.020520 
#    z -0.015800 0.020520 1.754370 
# 
# From -- ./inp_files/217180.got.cif
#   From: 2010.06.25/outbox.cif.g09.slc.cpg/sg2_109_cif.got.tgz:217180.got - 2010.06.27 13:26:56.
