data_PCOD8004852
_publ_section_title
;
Structure prediction by ZEFSAII (Michael W. Deem and Ramdas Pophale) SiO2 
 PCOD8004852
Probable space group: P -1
;
_chemical_formula_sum "Si O2"
_cell_formula_units_Z 16
_cell_length_a 12.437041
_cell_length_b 11.573546
_cell_length_c 8.931274
_cell_angle_alpha 68.910354
_cell_angle_beta 122.766007
_cell_angle_gamma 133.809836
_cell_volume 779.877958
_symmetry_space_group_name_H-M "P -1"
_symmetry_group_IT_number 2
_symmetry_cell_setting 'triclinic'
loop_
_space_group_symop_operation_xyz
x,y,z
-x,-y,-z
loop_
_atom_site_type_symbol
_atom_site_label
_atom_site_fract_x
_atom_site_fract_y
_atom_site_fract_z
Si Si1 0.504381 0.648606 0.789788
Si Si2 0.643543 0.900277 0.538527
Si Si3 0.831256 0.492403 0.533331
Si Si4 0.832893 0.251512 0.455354
Si Si5 0.493637 0.365232 0.866002
Si Si6 0.679795 0.313798 0.787822
Si Si7 0.694562 0.125050 0.111293
Si Si8 0.810454 0.922574 0.374706
O O1 0.623297 0.819519 0.718457
O O2 0.325063 0.533355 0.635413
O O3 0.568587 0.548923 0.855640
O O4 0.497081 0.688223 0.936904
O O5 0.466089 0.825409 0.366370
O O6 0.739994 0.869383 0.513664
O O7 0.754863 0.089345 0.562919
O O8 0.848246 0.368111 0.531830
O O9 0.815661 0.465940 0.714702
O O10 0.989214 0.671420 0.522167
O O11 0.718617 0.214132 0.243882
O O12 0.607358 0.362347 0.835480
O O13 0.299251 0.240553 0.729679
O O14 0.765282 0.249847 0.967572
O O15 0.781886 0.043948 0.228655
O O16 0.500000 0.000000 0.000000
O O17 0.000000 0.000000 0.500000
#
# Coordination Sequence:
#
# PCOD8004852 Si02
#       8
#     2   2   2   2   2   2   2   2
#     4  10  22  38  62  91 115 170 206 253 305 371
#     4   9  20  38  61  89 118 161 212 245 304 371
#     4  10  23  36  61  91 127 161 198 255 324 351
#     4  10  21  39  57  90 126 160 195 262 304 370
#     4  10  21  39  63  87 124 161 211 254 300 375
#     4  10  20  38  62  94 115 162 209 251 299 370
#     4  11  19  38  64  89 122 163 207 250 300 365
#     4  10  22  37  62  94 123 165 199 256 314 354
#
# _framework density 20.516031000000002
#
# number of rings (size 3 to 8) (size 9 to 14) (size 15 to 20)
#    0.000    2.000    3.750    0.750    3.500    8.000 
#    0.000    0.625    5.500    0.000    0.000    0.000 
#    0.000    0.000    0.000    0.000    0.000    0.000 
#
# Total GULP energy -198264.341918 kJ/mol
# GULP energy per Si atom -12391.521370 kJ/mol
# Density = 2.046934 g / cm^3
# Si number density = 20.516031 Si / 1000 Ang^3
#
#
#
# Elastic Constant Matrix: (Units=GPa)
#
#
# Indices 1 2 3 4 5 6 
#
# 1 82.8238 32.9626 48.5658 -15.9424 -6.7535 8.7054
# 2 32.9626 97.4378 37.4836 -19.0140 -9.1525 7.1283
# 3 48.5658 37.4836 116.7215 -21.3780 -13.8737 9.5181
# 4 -15.9424 -19.0140 -21.3780 31.6149 3.7969 -7.5974
# 5 -6.7535 -9.1525 -13.8737 3.7969 37.3262 0.7442
# 6 8.7054 7.1283 9.5181 -7.5974 0.7442 24.6945
#
#
#
# Elastic Compliance Matrix: (Units=1/GPa)
#
#
# Indices 1 2 3 4 5 6 
#
# 1 0.017276 -0.003032 -0.005544 0.002577 0.000105 -0.002289
# 2 -0.003032 0.013118 -0.001848 0.004792 0.001505 -0.000577
# 3 -0.005544 -0.001848 0.012641 0.004000 0.002860 -0.001240
# 4 0.002577 0.004792 0.004000 0.040761 -0.001193 0.008743
# 5 0.000105 0.001505 0.002860 -0.001193 0.028419 -0.002798
# 6 -0.002289 -0.000577 -0.001240 0.008743 -0.002798 0.044720
#
#
# Mechanical properties :
#
#
# Convention : Reuss Voigt Hill
#
# Bulk Modulus (GPa) = 45.06609 59.44523 52.25566
# Shear Modulus (GPa) = 27.00103 30.59187 28.79645
#
# Velocity S-wave (km/s) = 3.63174 3.86569 3.75054
# Velocity P-wave (km/s) = 6.29285 6.99733 6.65442
#
# Compressibility (1/GPa) = 0.02218963
#
# Stress axis : x y z
#
# Youngs Moduli (GPa) = 57.88311 76.23109 79.10771
#
# Poissons Ratio (x) = 0.23110 0.43854
# Poissons Ratio (y) = 0.17548 0.14616
# Poissons Ratio (z) = 0.32088 0.14085
#
# Static dielectric constant tensor:
#      x y z
#    x 3.659950 0.161060 -0.158230 
#    y 0.161060 3.945220 -0.167000 
#    z -0.158230 -0.167000 3.951020 
# 
# 
# High freq. dielectric constant tensor:
#      x y z
#    x 1.787010 -0.000670 -0.012860 
#    y -0.000670 1.803960 -0.004210 
#    z -0.012860 -0.004210 1.801280 
# 
# From -- ./inp_files/243439.got.cif
#   From: 2010.06.25/outbox.cif.g09.slc.cpg/sg2_122_cif.got.tgz:243439.got - 2010.06.27 13:26:56.
