data_PCOD8004280
_publ_section_title
;
Structure prediction by ZEFSAII (Michael W. Deem and Ramdas Pophale) SiO2 
 PCOD8004280
Probable space group: P -1
;
_chemical_formula_sum "Si O2"
_cell_formula_units_Z 16
_cell_length_a 19.770838
_cell_length_b 6.702967
_cell_length_c 5.284167
_cell_angle_alpha 105.321467
_cell_angle_beta 93.939475
_cell_angle_gamma 78.670241
_cell_volume 662.120443
_symmetry_space_group_name_H-M "P -1"
_symmetry_group_IT_number 2
_symmetry_cell_setting 'triclinic'
loop_
_space_group_symop_operation_xyz
x,y,z
-x,-y,-z
loop_
_atom_site_type_symbol
_atom_site_label
_atom_site_fract_x
_atom_site_fract_y
_atom_site_fract_z
Si Si1 0.347702 0.187634 0.395919
Si Si2 0.899845 0.196327 0.634414
Si Si3 0.154270 0.077286 0.119047
Si Si4 0.738843 0.795022 0.128632
Si Si5 0.538213 0.149112 0.902160
Si Si6 0.441331 0.481421 0.675462
Si Si7 0.045525 0.236188 0.770893
Si Si8 0.150581 0.441205 0.617646
O O1 0.306237 0.125848 0.608499
O O2 0.374585 0.406828 0.516962
O O3 0.410181 0.988457 0.326595
O O4 0.307526 0.231294 0.134753
O O5 0.855335 0.340899 0.461375
O O6 0.962497 0.306162 0.789996
O O7 0.849967 0.150873 0.836484
O O8 0.932652 0.969587 0.462146
O O9 0.178195 0.241038 0.376016
O O10 0.209565 0.045205 0.889557
O O11 0.077536 0.183061 0.038935
O O12 0.790915 0.577193 0.151911
O O13 0.473987 0.303509 0.819139
O O14 0.582556 0.289876 0.124442
O O15 0.500000 0.000000 0.000000
O O16 0.500000 0.500000 0.500000
O O17 0.076522 0.426469 0.715951
#
# Coordination Sequence:
#
# PCOD8004280 Si02
#       8
#     2   2   2   2   2   2   2   2
#     4  12  25  47  78 103 151 197 241 294 355 431
#     4  10  20  37  66  99 131 178 236 296 370 426
#     4  10  21  41  64  91 140 181 234 302 350 424
#     4  11  25  46  70  96 139 201 242 285 352 426
#     4  11  24  46  77 111 151 188 224 296 376 412
#     4  11  25  44  76 116 147 177 240 293 361 434
#     4   9  20  36  62 100 137 170 232 301 369 436
#     4  10  21  41  65  93 141 184 231 300 360 416
#
# _framework density 24.16479
#
# number of rings (size 3 to 8) (size 9 to 14) (size 15 to 20)
#    0.000    1.500    2.500    1.875    3.500    2.500 
#    0.000    6.250    0.000    0.000    0.000    0.000 
#    0.000    0.000    0.000    0.000    0.000    0.000 
#
# Total GULP energy -198299.003013 kJ/mol
# GULP energy per Si atom -12393.687688 kJ/mol
# Density = 2.410979 g / cm^3
# Si number density = 24.164790 Si / 1000 Ang^3
#
#
#
# Elastic Constant Matrix: (Units=GPa)
#
#
# Indices 1 2 3 4 5 6 
#
# 1 110.6310 53.2575 49.9300 -12.4852 -8.5630 9.1444
# 2 53.2575 128.8942 46.6055 -32.8497 -16.6988 15.0064
# 3 49.9300 46.6055 121.0416 -22.0998 -3.0350 8.5947
# 4 -12.4852 -32.8497 -22.0998 47.5992 2.9666 -5.5148
# 5 -8.5630 -16.6988 -3.0350 2.9666 45.8064 -13.9235
# 6 9.1444 15.0064 8.5947 -5.5148 -13.9235 20.3425
#
#
#
# Elastic Compliance Matrix: (Units=1/GPa)
#
#
# Indices 1 2 3 4 5 6 
#
# 1 0.012678 -0.004013 -0.003842 -0.001394 0.000365 -0.001244
# 2 -0.004013 0.012245 -0.001650 0.006104 0.002180 -0.003385
# 3 -0.003842 -0.001650 0.011107 0.002875 -0.001344 -0.001889
# 4 -0.001394 0.006104 0.002875 0.026455 0.001357 0.003009
# 5 0.000365 0.002180 -0.001344 0.001357 0.028111 0.018404
# 6 -0.001244 -0.003385 -0.001889 0.003009 0.018404 0.066426
#
#
# Mechanical properties :
#
#
# Convention : Reuss Voigt Hill
#
# Bulk Modulus (GPa) = 58.74972 73.35032 66.05002
# Shear Modulus (GPa) = 27.51704 36.80120 32.15912
#
# Velocity S-wave (km/s) = 3.37816 3.90670 3.65201
# Velocity P-wave (km/s) = 6.29133 7.12530 6.72126
#
# Compressibility (1/GPa) = 0.01702136
#
# Stress axis : x y z
#
# Youngs Moduli (GPa) = 78.87427 81.66497 90.03171
#
# Poissons Ratio (x) = 0.32769 0.34590
# Poissons Ratio (y) = 0.31649 0.14856
# Poissons Ratio (z) = 0.30303 0.13476
#
# Static dielectric constant tensor:
#      x y z
#    x 4.862970 0.219030 0.034970 
#    y 0.219030 4.214230 -0.097900 
#    z 0.034970 -0.097900 4.632940 
# 
# 
# High freq. dielectric constant tensor:
#      x y z
#    x 1.955980 0.013710 0.004480 
#    y 0.013710 1.944970 -0.018470 
#    z 0.004480 -0.018470 1.971010 
# 
# From -- ./inp_files/114773.got.cif
#   From: 2010.06.25/outbox.cif.g09.slc.cpg/sg2_58_cif.got.tgz:114773.got - 2010.06.27 13:26:56.
