data_PCOD8004671
_publ_section_title
;
Structure prediction by ZEFSAII (Michael W. Deem and Ramdas Pophale) SiO2 
 PCOD8004671
Probable space group: P -1
;
_chemical_formula_sum "Si O2"
_cell_formula_units_Z 14
_cell_length_a 7.789020
_cell_length_b 7.496391
_cell_length_c 15.186820
_cell_angle_alpha 64.529766
_cell_angle_beta 90.038306
_cell_angle_gamma 52.843288
_cell_volume 594.787121
_symmetry_space_group_name_H-M "P -1"
_symmetry_group_IT_number 2
_symmetry_cell_setting 'triclinic'
loop_
_space_group_symop_operation_xyz
x,y,z
-x,-y,-z
loop_
_atom_site_type_symbol
_atom_site_label
_atom_site_fract_x
_atom_site_fract_y
_atom_site_fract_z
Si Si1 0.159442 0.022871 0.096960
Si Si2 0.795681 0.307253 0.695110
Si Si3 0.328277 0.574153 0.062404
Si Si4 0.139522 0.283490 0.621463
Si Si5 0.389707 0.096353 0.225145
Si Si6 0.703905 0.195091 0.387371
Si Si7 0.839224 0.976467 0.617929
O O1 0.064430 0.947669 0.187600
O O2 0.314152 0.781988 0.078188
O O3 0.312364 0.073399 0.134429
O O4 0.929456 0.290799 0.997132
O O5 0.546915 0.526517 0.692028
O O6 0.944060 0.394285 0.672056
O O7 0.773930 0.228743 0.614870
O O8 0.416602 0.312718 0.171323
O O9 0.500000 0.500000 0.000000
O O10 0.000000 0.500000 0.500000
O O11 0.367439 0.202398 0.683948
O O12 0.238321 0.002358 0.646143
O O13 0.211912 0.173571 0.287792
O O14 0.893652 0.225743 0.373720
O O15 0.689655 0.094890 0.503290
#
# Coordination Sequence:
#
# PCOD8004671 Si02
#       7
#     2   2   2   2   2   2   2
#     4  10  24  43  67  96 125 165 214 269 325 383
#     4  10  20  39  61  88 128 166 212 264 319 380
#     4  11  24  46  70  95 128 164 211 270 333 392
#     4  11  24  38  58  94 134 174 219 261 308 378
#     4  11  23  43  68  96 132 172 215 266 323 384
#     4  10  20  38  61  87 128 178 212 261 319 364
#     4   9  21  37  60  92 123 166 222 263 309 379
#
# _framework density 23.537832999999999
#
# number of rings (size 3 to 8) (size 9 to 14) (size 15 to 20)
#    0.000    1.714    0.000    3.429    0.000   12.000 
#    0.000    8.571    0.000    0.000    0.000    0.000 
#    0.000    0.000    0.000    0.000    0.000    0.000 
#
# Total GULP energy -173485.472090 kJ/mol
# GULP energy per Si atom -12391.819435 kJ/mol
# Density = 2.348426 g / cm^3
# Si number density = 23.537833 Si / 1000 Ang^3
#
#
#
# Elastic Constant Matrix: (Units=GPa)
#
#
# Indices 1 2 3 4 5 6 
#
# 1 85.9325 38.4465 39.6140 -0.6373 -6.2759 -21.1835
# 2 38.4465 100.6592 30.1750 -0.5674 0.7443 -17.5935
# 3 39.6140 30.1750 103.8876 -9.0838 1.0670 -9.5785
# 4 -0.6373 -0.5674 -9.0838 37.1384 -5.0646 3.3821
# 5 -6.2759 0.7443 1.0670 -5.0646 52.3019 7.0826
# 6 -21.1835 -17.5935 -9.5785 3.3821 7.0826 29.3344
#
#
#
# Elastic Compliance Matrix: (Units=1/GPa)
#
#
# Indices 1 2 3 4 5 6 
#
# 1 0.017938 -0.003774 -0.005070 -0.001684 0.000927 0.009005
# 2 -0.003774 0.012782 -0.001905 -0.000949 -0.001331 0.004749
# 3 -0.005070 -0.001905 0.012277 0.002925 -0.000409 -0.001034
# 4 -0.001684 -0.000949 0.002925 0.028475 0.003170 -0.004878
# 5 0.000927 -0.001331 -0.000409 0.003170 0.020314 -0.005532
# 6 0.009005 0.004749 -0.001034 -0.004878 -0.005532 0.045002
#
#
# Mechanical properties :
#
#
# Convention : Reuss Voigt Hill
#
# Bulk Modulus (GPa) = 46.51506 56.32783 51.42144
# Shear Modulus (GPa) = 30.22026 35.90453 33.06240
#
# Velocity S-wave (km/s) = 3.58704 3.90987 3.75193
# Velocity P-wave (km/s) = 6.07952 6.66074 6.37676
#
# Compressibility (1/GPa) = 0.02149841
#
# Stress axis : x y z
#
# Youngs Moduli (GPa) = 55.74790 78.23769 81.45207
#
# Poissons Ratio (x) = 0.29525 0.41299
# Poissons Ratio (y) = 0.21038 0.15516
# Poissons Ratio (z) = 0.28266 0.14904
#
# Static dielectric constant tensor:
#      x y z
#    x 4.330560 -0.179660 0.209680 
#    y -0.179660 4.283530 0.091590 
#    z 0.209680 0.091590 4.302480 
# 
# 
# High freq. dielectric constant tensor:
#      x y z
#    x 1.922580 -0.006760 0.009560 
#    y -0.006760 1.929420 0.006770 
#    z 0.009560 0.006770 1.938090 
# 
# From -- ./inp_files/494481.got.cif
#   From: 2010.06.25/outbox.cif.g09.slc.cpg/sg2_248_cif.got.tgz:494481.got - 2010.06.27 13:26:56.
