data_PCOD8004241
_publ_section_title
;
Structure prediction by ZEFSAII (Michael W. Deem and Ramdas Pophale) SiO2 
 PCOD8004241
Probable space group: P -1
;
_chemical_formula_sum "Si O2"
_cell_formula_units_Z 14
_cell_length_a 9.192058
_cell_length_b 8.867952
_cell_length_c 14.140495
_cell_angle_alpha 42.162116
_cell_angle_beta 67.711234
_cell_angle_gamma 83.242681
_cell_volume 690.649207
_symmetry_space_group_name_H-M "P -1"
_symmetry_group_IT_number 2
_symmetry_cell_setting 'triclinic'
loop_
_space_group_symop_operation_xyz
x,y,z
-x,-y,-z
loop_
_atom_site_type_symbol
_atom_site_label
_atom_site_fract_x
_atom_site_fract_y
_atom_site_fract_z
Si Si1 0.627709 0.347733 0.910309
Si Si2 0.189519 0.033631 0.942686
Si Si3 0.737533 0.913544 0.891576
Si Si4 0.308995 0.424368 0.590367
Si Si5 0.910400 0.280885 0.431350
Si Si6 0.158805 0.232239 0.247481
Si Si7 0.204566 0.548074 0.362352
O O1 0.672482 0.574607 0.860228
O O2 0.647055 0.434002 0.756173
O O3 0.450191 0.180870 0.051196
O O4 0.765520 0.210608 0.957882
O O5 0.269233 0.175798 0.765793
O O6 0.249216 0.159954 0.969283
O O7 0.000000 0.000000 0.000000
O O8 0.848592 0.795761 0.851674
O O9 0.798322 0.190290 0.730306
O O10 0.500000 0.500000 0.500000
O O11 0.237226 0.597098 0.593662
O O12 0.232685 0.405463 0.513368
O O13 0.003817 0.306359 0.295098
O O14 0.033638 0.406724 0.425141
O O15 0.831243 0.010241 0.596295
#
# Coordination Sequence:
#
# PCOD8004241 Si02
#       7
#     2   2   2   2   2   2   2
#     4  10  21  40  60  92 119 157 203 252 296 359
#     4  11  24  38  60  91 128 155 201 255 305 358
#     4  11  20  38  64  89 116 160 206 249 298 352
#     4  12  22  37  63  93 122 152 200 260 304 348
#     4  10  22  39  62  92 115 155 210 252 289 356
#     4  10  21  37  65  86 121 157 209 244 291 364
#     4  10  20  37  66  89 113 158 214 247 289 352
#
# _framework density 20.270783000000002
#
# number of rings (size 3 to 8) (size 9 to 14) (size 15 to 20)
#    0.000    1.429    1.429    6.857    2.000    0.000 
#    0.000    2.857    0.000    8.571    0.000    0.000 
#    0.000    0.000    0.000    0.000    0.000    0.000 
#
# Total GULP energy -173558.828090 kJ/mol
# GULP energy per Si atom -12397.059149 kJ/mol
# Density = 2.022465 g / cm^3
# Si number density = 20.270783 Si / 1000 Ang^3
#
#
#
# Elastic Constant Matrix: (Units=GPa)
#
#
# Indices 1 2 3 4 5 6 
#
# 1 100.8178 42.9289 37.7071 -1.6658 -15.3812 -3.7725
# 2 42.9289 130.5391 41.0622 2.5849 -3.9810 12.1255
# 3 37.7071 41.0622 118.8081 7.7152 -1.9894 17.1024
# 4 -1.6658 2.5849 7.7152 33.2069 10.4540 -4.6938
# 5 -15.3812 -3.9810 -1.9894 10.4540 35.9760 4.2758
# 6 -3.7725 12.1255 17.1024 -4.6938 4.2758 26.2872
#
#
#
# Elastic Compliance Matrix: (Units=1/GPa)
#
#
# Indices 1 2 3 4 5 6 
#
# 1 0.013893 -0.003765 -0.003979 0.001429 0.004188 0.005894
# 2 -0.003765 0.009805 -0.001470 -0.001326 0.000301 -0.004392
# 3 -0.003979 -0.001470 0.011703 -0.004327 0.001045 -0.008449
# 4 0.001429 -0.001326 -0.004327 0.036754 -0.011897 0.012130
# 5 0.004188 0.000301 0.001045 -0.011897 0.034072 -0.007884
# 6 0.005894 -0.004392 -0.008449 0.012130 -0.007884 0.049859
#
#
# Mechanical properties :
#
#
# Convention : Reuss Voigt Hill
#
# Bulk Modulus (GPa) = 58.92257 65.95126 62.43691
# Shear Modulus (GPa) = 27.75116 34.32514 31.03815
#
# Velocity S-wave (km/s) = 3.70404 4.11947 3.91727
# Velocity P-wave (km/s) = 6.88652 7.43186 7.16438
#
# Compressibility (1/GPa) = 0.01697143
#
# Stress axis : x y z
#
# Youngs Moduli (GPa) = 71.97612 101.99179 85.44977
#
# Poissons Ratio (x) = 0.38403 0.34002
# Poissons Ratio (y) = 0.27101 0.12563
# Poissons Ratio (z) = 0.28641 0.14995
#
# Static dielectric constant tensor:
#      x y z
#    x 3.521310 0.011140 -0.156010 
#    y 0.011140 3.967350 0.220610 
#    z -0.156010 0.220610 3.703390 
# 
# 
# High freq. dielectric constant tensor:
#      x y z
#    x 1.765370 -0.000640 -0.024470 
#    y -0.000640 1.797790 0.011970 
#    z -0.024470 0.011970 1.804830 
# 
# From -- ./inp_files/167842.got.cif
#   From: 2010.06.25/outbox.cif.g09.slc.cpg/sg2_84_cif.got.tgz:167842.got - 2010.06.27 13:26:56.
