data_PCOD8004213
_publ_section_title
;
Structure prediction by ZEFSAII (Michael W. Deem and Ramdas Pophale) SiO2 
 PCOD8004213
Probable space group: P -1
;
_chemical_formula_sum "Si O2"
_cell_formula_units_Z 16
_cell_length_a 11.896031
_cell_length_b 15.185458
_cell_length_c 6.548314
_cell_angle_alpha 91.070261
_cell_angle_beta 45.564732
_cell_angle_gamma 74.614858
_cell_volume 777.664424
_symmetry_space_group_name_H-M "P -1"
_symmetry_group_IT_number 2
_symmetry_cell_setting 'triclinic'
loop_
_space_group_symop_operation_xyz
x,y,z
-x,-y,-z
loop_
_atom_site_type_symbol
_atom_site_label
_atom_site_fract_x
_atom_site_fract_y
_atom_site_fract_z
Si Si1 0.140917 0.032414 0.545030
Si Si2 0.490143 0.790769 0.713844
Si Si3 0.809646 0.622419 0.177340
Si Si4 0.387471 0.949498 0.541077
Si Si5 0.031459 0.289096 0.347409
Si Si6 0.850637 0.159544 0.666932
Si Si7 0.036111 0.553780 0.267262
Si Si8 0.353746 0.138865 0.128370
O O1 0.284977 0.053999 0.232595
O O2 0.962376 0.121812 0.732357
O O3 0.196906 0.023202 0.715157
O O4 0.133057 0.933059 0.485216
O O5 0.613057 0.696661 0.433240
O O6 0.374419 0.871735 0.708248
O O7 0.611552 0.828358 0.691590
O O8 0.346421 0.772748 0.030519
O O9 0.872640 0.599633 0.328737
O O10 0.811789 0.525323 0.060823
O O11 0.940276 0.660057 0.892672
O O12 0.500000 0.000000 0.500000
O O13 0.471905 0.898891 0.220904
O O14 0.927216 0.222131 0.434403
O O15 0.925209 0.361263 0.668883
O O16 0.221699 0.229042 0.181195
O O17 0.000000 0.500000 0.500000
#
# Coordination Sequence:
#
# PCOD8004213 Si02
#       8
#     2   2   2   2   2   2   2   2
#     4  10  21  40  56  81 124 172 204 250 296 357
#     4  12  22  37  60  93 117 161 204 257 298 354
#     4  10  20  37  65  94 116 148 208 246 295 369
#     4  12  22  34  60  88 112 160 220 260 288 337
#     4  10  20  39  62  88 121 161 193 246 303 363
#     4  10  23  39  58  84 132 166 196 247 318 346
#     4   9  19  37  66  95 116 148 196 252 302 358
#     4  11  20  37  60  83 123 160 212 255 289 342
#
# _framework density 20.574427
#
# number of rings (size 3 to 8) (size 9 to 14) (size 15 to 20)
#    0.000    1.500    5.000    1.125    0.000    0.500 
#    2.250    0.625    0.000    6.750    0.000    0.000 
#    0.000    0.000    0.000    0.000    0.000    0.000 
#
# Total GULP energy -198273.576152 kJ/mol
# GULP energy per Si atom -12392.098510 kJ/mol
# Density = 2.052760 g / cm^3
# Si number density = 20.574427 Si / 1000 Ang^3
#
#
#
# Elastic Constant Matrix: (Units=GPa)
#
#
# Indices 1 2 3 4 5 6 
#
# 1 89.6326 30.5568 17.0033 -7.1734 1.9726 -8.4879
# 2 30.5568 81.3708 23.9651 -4.0800 -1.2231 -5.9080
# 3 17.0033 23.9651 71.8047 6.2772 -6.0731 3.3565
# 4 -7.1734 -4.0800 6.2772 28.3469 -2.6646 8.7976
# 5 1.9726 -1.2231 -6.0731 -2.6646 30.7487 -6.2440
# 6 -8.4879 -5.9080 3.3565 8.7976 -6.2440 31.5451
#
#
#
# Elastic Compliance Matrix: (Units=1/GPa)
#
#
# Indices 1 2 3 4 5 6 
#
# 1 0.013403 -0.004112 -0.002192 0.002526 -0.000789 0.002209
# 2 -0.004112 0.015332 -0.004325 0.001588 0.000541 0.001889
# 3 -0.002192 -0.004325 0.016538 -0.004133 0.002573 -0.001498
# 4 0.002526 0.001588 -0.004133 0.040112 0.000601 -0.009651
# 5 -0.000789 0.000541 0.002573 0.000601 0.034426 0.006262
# 6 0.002209 0.001889 -0.001498 -0.009651 0.006262 0.036739
#
#
# Mechanical properties :
#
#
# Convention : Reuss Voigt Hill
#
# Bulk Modulus (GPa) = 41.64089 42.87319 42.25704
# Shear Modulus (GPa) = 26.90863 29.54700 28.22782
#
# Velocity S-wave (km/s) = 3.62037 3.79371 3.70805
# Velocity P-wave (km/s) = 6.14485 6.33032 6.23827
#
# Compressibility (1/GPa) = 0.02401486
#
# Stress axis : x y z
#
# Youngs Moduli (GPa) = 74.60932 65.22124 60.46652
#
# Poissons Ratio (x) = 0.26822 0.13255
# Poissons Ratio (y) = 0.30683 0.26151
# Poissons Ratio (z) = 0.16355 0.28207
#
# Static dielectric constant tensor:
#      x y z
#    x 3.814080 -0.129180 0.178710 
#    y -0.129180 4.067780 0.224040 
#    z 0.178710 0.224040 3.689430 
# 
# 
# High freq. dielectric constant tensor:
#      x y z
#    x 1.794340 -0.015830 0.013170 
#    y -0.015830 1.807300 0.004130 
#    z 0.013170 0.004130 1.786690 
# 
# From -- ./inp_files/45822.got.cif
#   From: 2010.06.25/outbox.cif.g09.slc.cpg/sg2_23_cif.got.tgz:45822.got - 2010.06.27 13:26:56.
