data_PCOD8004125
_publ_section_title
;
Structure prediction by ZEFSAII (Michael W. Deem and Ramdas Pophale) SiO2 
 PCOD8004125
Probable space group: P -1
;
_chemical_formula_sum "Si O2"
_cell_formula_units_Z 14
_cell_length_a 8.860172
_cell_length_b 17.317641
_cell_length_c 11.309535
_cell_angle_alpha 130.805221
_cell_angle_beta 77.000596
_cell_angle_gamma 140.463861
_cell_volume 681.649927
_symmetry_space_group_name_H-M "P -1"
_symmetry_group_IT_number 2
_symmetry_cell_setting 'triclinic'
loop_
_space_group_symop_operation_xyz
x,y,z
-x,-y,-z
loop_
_atom_site_type_symbol
_atom_site_label
_atom_site_fract_x
_atom_site_fract_y
_atom_site_fract_z
Si Si1 0.565958 0.270929 0.563300
Si Si2 0.718266 0.880059 0.091721
Si Si3 0.146633 0.219763 0.191461
Si Si4 0.687486 0.066290 0.642581
Si Si5 0.923071 0.857227 0.493253
Si Si6 0.552087 0.415301 0.521767
Si Si7 0.896678 0.391580 0.029170
O O1 0.264599 0.156119 0.550272
O O2 0.627621 0.344926 0.491776
O O3 0.516599 0.121970 0.430281
O O4 0.838308 0.459912 0.779260
O O5 0.370769 0.692317 0.955906
O O6 0.843680 0.839201 0.990841
O O7 0.851981 0.037666 0.134653
O O8 0.810465 0.950813 0.282277
O O9 0.427260 0.335686 0.332213
O O10 0.172653 0.354801 0.294381
O O11 0.793674 0.217999 0.855907
O O12 0.968638 0.163158 0.642076
O O13 0.500000 0.000000 0.500000
O O14 0.700501 0.676231 0.441726
O O15 0.000000 0.500000 0.000000
#
# Coordination Sequence:
#
# PCOD8004125 Si02
#       7
#     2   2   2   2   2   2   2
#     4  10  23  41  59  92 129 153 214 250 303 366
#     4  10  20  37  64  91 118 163 207 251 300 372
#     4   9  18  38  66  87 118 160 211 248 307 356
#     4  12  22  39  63  88 128 166 195 255 312 360
#     4   9  20  39  61  89 120 159 204 254 297 365
#     4   8  19  37  61  90 115 153 208 257 295 359
#     4  12  25  39  61  94 126 162 206 247 313 374
#
# _framework density 20.538402000000001
#
# number of rings (size 3 to 8) (size 9 to 14) (size 15 to 20)
#    0.857    1.143    2.857    0.429    2.000    1.714 
#    2.571    1.429    0.000    0.000    0.000    0.000 
#    0.000    0.000    0.000    0.000    0.000    0.000 
#
# Total GULP energy -173501.849566 kJ/mol
# GULP energy per Si atom -12392.989255 kJ/mol
# Density = 2.049166 g / cm^3
# Si number density = 20.538402 Si / 1000 Ang^3
#
#
#
# Elastic Constant Matrix: (Units=GPa)
#
#
# Indices 1 2 3 4 5 6 
#
# 1 82.1754 34.3095 27.2673 15.1187 4.3978 -17.0880
# 2 34.3095 70.6154 24.7247 15.4083 -6.9032 -10.4952
# 3 27.2673 24.7247 85.7524 18.5771 -1.1192 -7.7204
# 4 15.1187 15.4083 18.5771 30.8925 -3.0387 -4.5909
# 5 4.3978 -6.9032 -1.1192 -3.0387 36.7043 10.1695
# 6 -17.0880 -10.4952 -7.7204 -4.5909 10.1695 44.9653
#
#
#
# Elastic Compliance Matrix: (Units=1/GPa)
#
#
# Indices 1 2 3 4 5 6 
#
# 1 0.017947 -0.006728 -0.002552 -0.003579 -0.005357 0.005658
# 2 -0.006728 0.019734 -0.002472 -0.004634 0.003989 0.000249
# 3 -0.002552 -0.002472 0.014572 -0.006256 -0.000342 0.000394
# 4 -0.003579 -0.004634 -0.006256 0.040462 0.002716 0.000001
# 5 -0.005357 0.003989 -0.000342 0.002716 0.031042 -0.007907
# 6 0.005658 0.000249 0.000394 0.000001 -0.007907 0.026304
#
#
# Mechanical properties :
#
#
# Convention : Reuss Voigt Hill
#
# Bulk Modulus (GPa) = 34.78456 45.68292 40.23374
# Shear Modulus (GPa) = 27.30040 32.66186 29.98113
#
# Velocity S-wave (km/s) = 3.64983 3.99216 3.82483
# Velocity P-wave (km/s) = 5.89362 6.59854 6.25602
#
# Compressibility (1/GPa) = 0.02874839
#
# Stress axis : x y z
#
# Youngs Moduli (GPa) = 55.72079 50.67437 68.62497
#
# Poissons Ratio (x) = 0.34094 0.17513
# Poissons Ratio (y) = 0.37489 0.16964
# Poissons Ratio (z) = 0.14220 0.12527
#
# Static dielectric constant tensor:
#      x y z
#    x 3.610900 -0.209070 0.066940 
#    y -0.209070 3.734560 0.081210 
#    z 0.066940 0.081210 3.865050 
# 
# 
# High freq. dielectric constant tensor:
#      x y z
#    x 1.779450 -0.014430 0.002180 
#    y -0.014430 1.803040 0.014770 
#    z 0.002180 0.014770 1.798430 
# 
# From -- ./inp_files/402218.got.cif
#   From: 2010.06.25/outbox.cif.g09.slc.cpg/sg2_202_cif.got.tgz:402218.got - 2010.06.27 13:26:56.
