data_PCOD8004274
_publ_section_title
;
Structure prediction by ZEFSAII (Michael W. Deem and Ramdas Pophale) SiO2 
 PCOD8004274
Probable space group: P -1
;
_chemical_formula_sum "Si O2"
_cell_formula_units_Z 16
_cell_length_a 9.076176
_cell_length_b 11.935157
_cell_length_c 15.524993
_cell_angle_alpha 152.884431
_cell_angle_beta 81.084746
_cell_angle_gamma 91.172456
_cell_volume 731.033429
_symmetry_space_group_name_H-M "P -1"
_symmetry_group_IT_number 2
_symmetry_cell_setting 'triclinic'
loop_
_space_group_symop_operation_xyz
x,y,z
-x,-y,-z
loop_
_atom_site_type_symbol
_atom_site_label
_atom_site_fract_x
_atom_site_fract_y
_atom_site_fract_z
Si Si1 0.793809 0.962302 0.647384
Si Si2 0.291447 0.340993 0.115003
Si Si3 0.676598 0.873887 0.417684
Si Si4 0.670878 0.597471 0.507304
Si Si5 0.146849 0.868991 0.543522
Si Si6 0.328034 0.094060 0.111973
Si Si7 0.644789 0.324483 0.057453
Si Si8 0.677714 0.164093 0.321630
O O1 0.726410 0.002991 0.585689
O O2 0.793030 0.681547 0.491972
O O3 0.966075 0.992169 0.654571
O O4 0.684924 0.180820 0.864795
O O5 0.176553 0.622787 0.308281
O O6 0.232765 0.230945 0.132619
O O7 0.462010 0.385194 0.131690
O O8 0.282828 0.142088 0.903967
O O9 0.706217 0.573527 0.223500
O O10 0.500000 0.000000 0.500000
O O11 0.779770 0.918167 0.358538
O O12 0.673129 0.706710 0.676827
O O13 0.713585 0.293841 0.316225
O O14 0.503222 0.710106 0.555211
O O15 0.223273 0.782667 0.570453
O O16 0.500000 0.000000 0.000000
O O17 0.271084 0.857179 0.995299
#
# Coordination Sequence:
#
# PCOD8004274 Si02
#       8
#     2   2   2   2   2   2   2   2
#     4  11  26  46  65  97 138 172 209 278 337 379
#     4  11  21  39  66 101 133 170 216 273 315 389
#     4  12  26  44  74  95 124 175 231 269 314 396
#     4  10  20  37  66  97 129 170 222 268 317 385
#     4  12  27  44  63  99 139 172 214 270 335 386
#     4   9  16  34  61  97 130 161 209 273 316 366
#     4  10  23  41  68  99 128 169 224 270 319 386
#     4  11  22  37  68  98 128 174 221 262 322 384
#
# _framework density 21.886823
#
# number of rings (size 3 to 8) (size 9 to 14) (size 15 to 20)
#    0.000    1.250    6.250    1.125    1.750    3.500 
#    0.000    0.625    0.000    0.000    0.000    0.000 
#    0.000    0.000    0.000    0.000    0.000    0.000 
#
# Total GULP energy -198327.396219 kJ/mol
# GULP energy per Si atom -12395.462264 kJ/mol
# Density = 2.183701 g / cm^3
# Si number density = 21.886823 Si / 1000 Ang^3
#
#
#
# Elastic Constant Matrix: (Units=GPa)
#
#
# Indices 1 2 3 4 5 6 
#
# 1 93.8077 47.6362 9.7148 -5.5019 4.1835 3.8186
# 2 47.6362 102.1774 17.9715 0.0422 6.1798 4.8433
# 3 9.7148 17.9715 68.6126 13.8728 9.2142 -4.0723
# 4 -5.5019 0.0422 13.8728 32.9991 7.2611 11.1406
# 5 4.1835 6.1798 9.2142 7.2611 21.4572 -0.4569
# 6 3.8186 4.8433 -4.0723 11.1406 -0.4569 29.2275
#
#
#
# Elastic Compliance Matrix: (Units=1/GPa)
#
#
# Indices 1 2 3 4 5 6 
#
# 1 0.014407 -0.006272 -0.001139 0.004220 -0.001998 -0.002641
# 2 -0.006272 0.013426 -0.002771 0.001315 -0.001948 -0.002323
# 3 -0.001139 -0.002771 0.018209 -0.009311 -0.003507 0.006639
# 4 0.004220 0.001315 -0.009311 0.044121 -0.012540 -0.019080
# 5 -0.001998 -0.001948 -0.003507 -0.012540 0.053426 0.005710
# 6 -0.002641 -0.002323 0.006639 -0.019080 0.005710 0.043231
#
#
# Mechanical properties :
#
#
# Convention : Reuss Voigt Hill
#
# Bulk Modulus (GPa) = 38.94220 46.13807 42.54013
# Shear Modulus (GPa) = 23.17567 29.35513 26.26540
#
# Velocity S-wave (km/s) = 3.25758 3.66625 3.46794
# Velocity P-wave (km/s) = 5.65511 6.24883 5.95937
#
# Compressibility (1/GPa) = 0.02567909
#
# Stress axis : x y z
#
# Youngs Moduli (GPa) = 69.40943 74.48356 54.91734
#
# Poissons Ratio (x) = 0.46718 0.06254
# Poissons Ratio (y) = 0.43535 0.15215
# Poissons Ratio (z) = 0.07904 0.20636
#
# Static dielectric constant tensor:
#      x y z
#    x 3.605770 0.226850 0.221670 
#    y 0.226850 4.349930 0.157160 
#    z 0.221670 0.157160 3.978760 
# 
# 
# High freq. dielectric constant tensor:
#      x y z
#    x 1.822120 0.014010 0.017130 
#    y 0.014010 1.871850 0.002430 
#    z 0.017130 0.002430 1.859610 
# 
# From -- ./inp_files/501139.got.cif
#   From: 2010.06.25/outbox.cif.g09.slc.cpg/sg2_251_cif.got.tgz:501139.got - 2010.06.27 13:26:56.
