data_PCOD8004169
_publ_section_title
;
Structure prediction by ZEFSAII (Michael W. Deem and Ramdas Pophale) SiO2 
 PCOD8004169
Probable space group: P -1
;
_chemical_formula_sum "Si O2"
_cell_formula_units_Z 12
_cell_length_a 19.970096
_cell_length_b 14.366238
_cell_length_c 5.152573
_cell_angle_alpha 132.085768
_cell_angle_beta 58.349755
_cell_angle_gamma 151.503311
_cell_volume 514.716584
_symmetry_space_group_name_H-M "P -1"
_symmetry_group_IT_number 2
_symmetry_cell_setting 'triclinic'
loop_
_space_group_symop_operation_xyz
x,y,z
-x,-y,-z
loop_
_atom_site_type_symbol
_atom_site_label
_atom_site_fract_x
_atom_site_fract_y
_atom_site_fract_z
Si Si1 0.114221 0.048884 0.278737
Si Si2 0.292851 0.251551 0.803481
Si Si3 0.154758 0.425633 0.202922
Si Si4 0.306227 0.583052 0.696094
Si Si5 0.451007 0.242385 0.695658
Si Si6 0.360720 0.877874 0.434863
O O1 0.198339 0.115475 0.485180
O O2 0.000000 0.000000 0.500000
O O3 0.016602 0.802838 0.906914
O O4 0.218290 0.223870 0.151576
O O5 0.327530 0.155659 0.641485
O O6 0.440102 0.518774 0.932025
O O7 0.203382 0.421237 0.357935
O O8 0.221259 0.655124 0.478072
O O9 0.225485 0.430885 0.839844
O O10 0.458889 0.718640 0.620370
O O11 0.335638 0.772657 0.013714
O O12 0.376699 0.048317 0.688587
O O13 0.500000 0.000000 0.500000
#
# Coordination Sequence:
#
# PCOD8004169 Si02
#       6
#     2   2   2   2   2   2
#     4  12  24  47  65  92 128 173 224 255 313 391
#     4  11  28  41  68  96 129 178 201 270 328 375
#     4  10  22  37  65  96 121 162 224 255 312 364
#     4  10  20  37  64  99 120 165 206 267 314 361
#     4  11  22  44  62 101 136 159 218 264 326 384
#     4  10  22  37  69 100 127 167 213 268 317 370
#
# _framework density 23.313801000000002
#
# number of rings (size 3 to 8) (size 9 to 14) (size 15 to 20)
#    1.000    0.333    1.667    4.000    0.000    5.333 
#    0.000    1.667    0.000    0.000    0.000    0.000 
#    0.000    0.000    0.000    0.000    0.000    0.000 
#
# Total GULP energy -148682.649612 kJ/mol
# GULP energy per Si atom -12390.220801 kJ/mol
# Density = 2.326074 g / cm^3
# Si number density = 23.313801 Si / 1000 Ang^3
#
#
#
# Elastic Constant Matrix: (Units=GPa)
#
#
# Indices 1 2 3 4 5 6 
#
# 1 169.9328 50.9925 55.5319 21.0330 15.7787 2.8606
# 2 50.9925 95.4365 25.3691 20.8515 11.3718 -2.3998
# 3 55.5319 25.3691 84.6925 0.2659 33.7444 2.9347
# 4 21.0330 20.8515 0.2659 36.2207 -1.0382 3.2215
# 5 15.7787 11.3718 33.7444 -1.0382 48.3827 5.5317
# 6 2.8606 -2.3998 2.9347 3.2215 5.5317 30.7967
#
#
#
# Elastic Compliance Matrix: (Units=1/GPa)
#
#
# Indices 1 2 3 4 5 6 
#
# 1 0.008794 -0.002664 -0.005594 -0.003447 0.001634 -0.000424
# 2 -0.002664 0.014166 -0.001950 -0.006863 -0.001537 0.002531
# 3 -0.005594 -0.001950 0.020920 0.003851 -0.012245 0.000171
# 4 -0.003447 -0.006863 0.003851 0.033958 0.001279 -0.004364
# 5 0.001634 -0.001537 -0.012245 0.001279 0.029585 -0.004553
# 6 -0.000424 0.002531 0.000171 -0.004364 -0.004553 0.033966
#
#
# Mechanical properties :
#
#
# Convention : Reuss Voigt Hill
#
# Bulk Modulus (GPa) = 42.61768 68.20543 55.41156
# Shear Modulus (GPa) = 29.47641 37.62457 33.55049
#
# Velocity S-wave (km/s) = 3.55960 4.02161 3.79764
# Velocity P-wave (km/s) = 5.93415 7.13326 6.56115
#
# Compressibility (1/GPa) = 0.02346444
#
# Stress axis : x y z
#
# Youngs Moduli (GPa) = 113.71158 70.58989 47.80066
#
# Poissons Ratio (x) = 0.18805 0.26739
# Poissons Ratio (y) = 0.30293 0.09323
# Poissons Ratio (z) = 0.63608 0.13767
#
# Static dielectric constant tensor:
#      x y z
#    x 3.936630 -0.129220 -0.031380 
#    y -0.129220 4.611060 0.488850 
#    z -0.031380 0.488850 4.386810 
# 
# 
# High freq. dielectric constant tensor:
#      x y z
#    x 1.902370 -0.018870 0.013550 
#    y -0.018870 1.924980 0.025770 
#    z 0.013550 0.025770 1.919120 
# 
# From -- ./inp_files/110179.got.cif
#   From: 2010.06.25/outbox.cif.g09.slc.cpg/sg2_56_cif.got.tgz:110179.got - 2010.06.27 13:26:56.
