data_PCOD8004532
_publ_section_title
;
Structure prediction by ZEFSAII (Michael W. Deem and Ramdas Pophale) SiO2 
 PCOD8004532
Probable space group: P -1
;
_chemical_formula_sum "Si O2"
_cell_formula_units_Z 12
_cell_length_a 7.506713
_cell_length_b 27.118683
_cell_length_c 5.184711
_cell_angle_alpha 101.022116
_cell_angle_beta 110.202214
_cell_angle_gamma 130.377107
_cell_volume 614.514956
_symmetry_space_group_name_H-M "P -1"
_symmetry_group_IT_number 2
_symmetry_cell_setting 'triclinic'
loop_
_space_group_symop_operation_xyz
x,y,z
-x,-y,-z
loop_
_atom_site_type_symbol
_atom_site_label
_atom_site_fract_x
_atom_site_fract_y
_atom_site_fract_z
Si Si1 0.238429 0.232754 0.787593
Si Si2 0.684293 0.147932 0.704899
Si Si3 0.644408 0.583597 0.681055
Si Si4 0.684288 0.647931 0.275260
Si Si5 0.761576 0.267248 0.083659
Si Si6 0.644413 0.083598 0.130556
O O1 0.385329 0.308263 0.772544
O O2 0.049500 0.216748 0.920456
O O3 0.006689 0.153843 0.412539
O O4 0.500006 0.250002 0.036664
O O5 0.520099 0.095050 0.308201
O O6 0.614674 0.191738 0.770696
O O7 0.560333 0.088752 0.817047
O O8 0.500000 0.500000 0.500000
O O9 0.520095 0.595049 0.402003
O O10 0.006684 0.653842 0.901837
O O11 0.560325 0.588750 0.920790
O O12 0.049495 0.716746 0.562536
O O13 0.500000 0.000000 0.000000
#
# Coordination Sequence:
#
# PCOD8004532 Si02
#       6
#     2   2   2   2   2   2
#     4  10  21  38  63  85 113 157 196 233 290 343
#     4  10  20  39  57  83 118 146 194 239 277 345
#     4  10  20  38  60  82 119 153 184 242 292 329
#     4  10  20  39  57  83 118 146 194 239 277 345
#     4  10  21  38  63  85 113 157 196 233 290 343
#     4  10  20  38  60  82 119 153 184 242 292 329
#
# _framework density 19.527597
#
# number of rings (size 3 to 8) (size 9 to 14) (size 15 to 20)
#    2.000    0.000    3.333    1.000    0.000    1.333 
#    0.000    3.333    0.000    0.000    0.000    0.000 
#    0.000    0.000    0.000    0.000    0.000    0.000 
#
# Total GULP energy -148662.185878 kJ/mol
# GULP energy per Si atom -12388.515490 kJ/mol
# Density = 1.948315 g / cm^3
# Si number density = 19.527597 Si / 1000 Ang^3
#
#
#
# Elastic Constant Matrix: (Units=GPa)
#
#
# Indices 1 2 3 4 5 6 
#
# 1 77.9563 27.2623 30.5737 -9.3467 -2.2778 -20.2068
# 2 27.2623 132.9432 28.6928 1.6482 -17.1229 -21.4431
# 3 30.5737 28.6928 63.7756 -9.6031 -25.9850 -7.6536
# 4 -9.3467 1.6482 -9.6031 34.1623 -1.0934 -12.2248
# 5 -2.2778 -17.1229 -25.9850 -1.0934 36.7868 -4.4513
# 6 -20.2068 -21.4431 -7.6536 -12.2248 -4.4513 28.5700
#
#
#
# Elastic Compliance Matrix: (Units=1/GPa)
#
#
# Indices 1 2 3 4 5 6 
#
# 1 0.021242 -0.000453 -0.007204 0.009712 -0.001681 0.016648
# 2 -0.000453 0.009807 -0.000633 0.002530 0.005226 0.008768
# 3 -0.007204 -0.000633 0.032560 0.012345 0.024100 0.012189
# 4 0.009712 0.002530 0.012345 0.048438 0.016214 0.035327
# 5 -0.001681 0.005226 0.024100 0.016214 0.049910 0.023903
# 6 0.016648 0.008768 0.012189 0.035327 0.023903 0.075463
#
#
# Mechanical properties :
#
#
# Convention : Reuss Voigt Hill
#
# Bulk Modulus (GPa) = 21.26344 49.74809 35.50576
# Shear Modulus (GPa) = 18.54073 32.44691 25.49382
#
# Velocity S-wave (km/s) = 3.08468 4.08069 3.61713
# Velocity P-wave (km/s) = 4.85794 6.90896 5.97216
#
# Compressibility (1/GPa) = 0.04702907
#
# Stress axis : x y z
#
# Youngs Moduli (GPa) = 47.07641 101.96375 30.71279
#
# Poissons Ratio (x) = 0.04618 0.22127
# Poissons Ratio (y) = 0.02132 0.01943
# Poissons Ratio (z) = 0.33916 0.06452
#
# Static dielectric constant tensor:
#      x y z
#    x 3.145740 -0.006380 -0.272050 
#    y -0.006380 3.438480 -0.070870 
#    z -0.272050 -0.070870 3.338270 
# 
# 
# High freq. dielectric constant tensor:
#      x y z
#    x 1.725530 -0.013440 -0.033490 
#    y -0.013440 1.766930 -0.007760 
#    z -0.033490 -0.007760 1.738830 
# 
# From -- ./inp_files/8491.got.cif
#   From: 2010.06.25/outbox.cif.g09.slc.cpg/sg2_5_cif.got.tgz:8491.got - 2010.06.27 13:26:56.
