data_PCOD8004931
_publ_section_title
;
Structure prediction by ZEFSAII (Michael W. Deem and Ramdas Pophale) SiO2 
 PCOD8004931
Probable space group: P -1
;
_chemical_formula_sum "Si O2"
_cell_formula_units_Z 16
_cell_length_a 18.567095
_cell_length_b 9.902967
_cell_length_c 11.765772
_cell_angle_alpha 136.239389
_cell_angle_beta 151.708180
_cell_angle_gamma 44.262997
_cell_volume 687.641116
_symmetry_space_group_name_H-M "P -1"
_symmetry_group_IT_number 2
_symmetry_cell_setting 'triclinic'
loop_
_space_group_symop_operation_xyz
x,y,z
-x,-y,-z
loop_
_atom_site_type_symbol
_atom_site_label
_atom_site_fract_x
_atom_site_fract_y
_atom_site_fract_z
Si Si1 0.926716 0.689128 0.090006
Si Si2 0.786036 0.889695 0.592503
Si Si3 0.396052 0.780930 0.616325
Si Si4 0.591390 0.634212 0.279999
Si Si5 0.281277 0.910960 0.011561
Si Si6 0.125099 0.795973 0.929538
Si Si7 0.248836 0.749629 0.621844
Si Si8 0.728404 0.531606 0.890123
O O1 0.063032 0.801226 0.373919
O O2 0.786580 0.847404 0.924718
O O3 0.864857 0.621338 0.081467
O O4 0.000000 0.500000 0.000000
O O5 0.727021 0.698137 0.435705
O O6 0.940098 0.814775 0.684416
O O7 0.649752 0.024591 0.408669
O O8 0.829833 0.010988 0.834220
O O9 0.333890 0.837168 0.691196
O O10 0.583327 0.711203 0.834217
O O11 0.319055 0.606564 0.357133
O O12 0.677196 0.493604 0.416787
O O13 0.500000 0.500000 0.000000
O O14 0.461836 0.836378 0.262389
O O15 0.178911 0.790741 0.870389
O O16 0.276736 0.858697 0.841521
O O17 0.211509 0.592262 0.988613
#
# Coordination Sequence:
#
# PCOD8004931 Si02
#       8
#     2   2   2   2   2   2   2   2
#     4  12  24  40  66  97 128 168 221 269 324 386
#     4  10  21  38  64  92 125 166 218 268 323 376
#     4  10  20  38  63  91 127 165 208 268 324 379
#     4  10  23  43  63  92 132 173 216 263 325 392
#     4  11  25  43  62  97 133 173 217 264 330 395
#     4  10  22  38  64  93 128 166 214 269 323 383
#     4  11  23  43  65  92 135 172 211 269 330 389
#     4  10  21  38  61  96 123 161 218 266 318 379
#
# _framework density 23.267951
#
# number of rings (size 3 to 8) (size 9 to 14) (size 15 to 20)
#    0.000    1.500    1.250    3.375    5.250    0.500 
#    0.000   16.250    0.000    0.000    0.000    0.000 
#    0.000    0.000    0.000    0.000    0.000    0.000 
#
# Total GULP energy -198443.408258 kJ/mol
# GULP energy per Si atom -12402.713016 kJ/mol
# Density = 2.321499 g / cm^3
# Si number density = 23.267951 Si / 1000 Ang^3
#
#
#
# Elastic Constant Matrix: (Units=GPa)
#
#
# Indices 1 2 3 4 5 6 
#
# 1 119.7113 15.3873 18.2107 5.4188 13.8465 2.6477
# 2 15.3873 114.8098 15.7491 -16.1480 3.0477 -2.9373
# 3 18.2107 15.7491 46.5009 -1.0798 20.1416 -6.6765
# 4 5.4188 -16.1480 -1.0798 26.5654 4.3464 12.9876
# 5 13.8465 3.0477 20.1416 4.3464 30.9779 -3.4644
# 6 2.6477 -2.9373 -6.6765 12.9876 -3.4644 35.9565
#
#
#
# Elastic Compliance Matrix: (Units=1/GPa)
#
#
# Indices 1 2 3 4 5 6 
#
# 1 0.009231 -0.001140 -0.002399 -0.001944 -0.002263 -0.000734
# 2 -0.001140 0.010303 -0.003373 0.007446 0.000381 -0.002354
# 3 -0.002399 -0.003373 0.032608 0.001182 -0.019555 0.003645
# 4 -0.001944 0.007446 0.001182 0.053828 -0.010362 -0.019470
# 5 -0.002263 0.000381 -0.019555 -0.010362 0.047975 0.004932
# 6 -0.000734 -0.002354 0.003645 -0.019470 0.004932 0.035858
#
#
# Mechanical properties :
#
#
# Convention : Reuss Voigt Hill
#
# Bulk Modulus (GPa) = 26.09802 42.19070 34.14436
# Shear Modulus (GPa) = 23.10542 34.14496 28.62519
#
# Velocity S-wave (km/s) = 3.15463 3.83491 3.51128
# Velocity P-wave (km/s) = 4.95072 6.14659 5.58078
#
# Compressibility (1/GPa) = 0.03831708
#
# Stress axis : x y z
#
# Youngs Moduli (GPa) = 108.33086 97.06351 30.66743
#
# Poissons Ratio (x) = 0.11068 0.07357
# Poissons Ratio (y) = 0.12352 0.10344
# Poissons Ratio (z) = 0.25989 0.32738
#
# Static dielectric constant tensor:
#      x y z
#    x 4.097640 -0.132170 0.291580 
#    y -0.132170 4.710990 -0.583560 
#    z 0.291580 -0.583560 4.250070 
# 
# 
# High freq. dielectric constant tensor:
#      x y z
#    x 1.922320 0.005550 0.019640 
#    y 0.005550 1.931600 -0.020600 
#    z 0.019640 -0.020600 1.902350 
# 
# From -- ./inp_files/462508.got.cif
#   From: 2010.06.25/outbox.cif.g09.slc.cpg/sg2_232_cif.got.tgz:462508.got - 2010.06.27 13:26:56.
