data_PCOD8004447
_publ_section_title
;
Structure prediction by ZEFSAII (Michael W. Deem and Ramdas Pophale) SiO2 
 PCOD8004447
Probable space group: P -1
;
_chemical_formula_sum "Si O2"
_cell_formula_units_Z 16
_cell_length_a 25.041359
_cell_length_b 19.470235
_cell_length_c 9.350423
_cell_angle_alpha 32.378998
_cell_angle_beta 43.125351
_cell_angle_gamma 19.225787
_cell_volume 742.575297
_symmetry_space_group_name_H-M "P -1"
_symmetry_group_IT_number 2
_symmetry_cell_setting 'triclinic'
loop_
_space_group_symop_operation_xyz
x,y,z
-x,-y,-z
loop_
_atom_site_type_symbol
_atom_site_label
_atom_site_fract_x
_atom_site_fract_y
_atom_site_fract_z
Si Si1 0.297295 0.624037 0.548759
Si Si2 0.621129 0.485812 0.882989
Si Si3 0.260554 0.488900 0.614224
Si Si4 0.015648 0.540255 0.673505
Si Si5 0.853554 0.087359 0.380069
Si Si6 0.786225 0.716085 0.992249
Si Si7 0.264853 0.882304 0.918277
Si Si8 0.315260 0.940956 0.197040
O O1 0.294418 0.494418 0.696944
O O2 0.158411 0.825872 0.594221
O O3 0.487981 0.367336 0.701748
O O4 0.254794 0.805700 0.209069
O O5 0.629154 0.596640 0.569492
O O6 0.421227 0.755662 0.850105
O O7 0.738999 0.337733 0.052205
O O8 0.700998 0.245289 0.069372
O O9 0.323629 0.248559 0.899029
O O10 0.052718 0.799598 0.444014
O O11 0.064885 0.538626 0.730556
O O12 0.926854 0.767206 0.335010
O O13 0.875822 0.634363 0.816350
O O14 0.194384 0.204310 0.860000
O O15 0.779562 0.052711 0.597501
O O16 0.663952 0.009560 0.780240
#
# Coordination Sequence:
#
# PCOD8004447 Si02
#       8
#     2   2   2   2   2   2   2   2
#     4  11  25  38  64  89 127 159 198 251 298 361
#     4  10  22  33  64  88 125 150 205 256 297 342
#     4  11  22  38  59  97 120 158 197 259 299 348
#     4   9  18  34  61  87 119 155 197 252 294 353
#     4  12  21  42  62  89 123 164 202 237 310 368
#     4   9  18  34  61  84 121 157 200 236 303 358
#     4  10  20  38  58  99 116 149 208 260 291 340
#     4  10  20  38  63  88 114 168 199 244 291 366
#
# _framework density 21.546635999999999
#
# number of rings (size 3 to 8) (size 9 to 14) (size 15 to 20)
#    0.750    1.000    2.500    2.625    3.500    1.500 
#    0.000    0.625    0.000    0.750    0.000    0.000 
#    0.000    0.000    0.000    0.000    0.000    0.000 
#
# Total GULP energy -198280.943357 kJ/mol
# GULP energy per Si atom -12392.558960 kJ/mol
# Density = 2.149760 g / cm^3
# Si number density = 21.546636 Si / 1000 Ang^3
#
#
#
# Elastic Constant Matrix: (Units=GPa)
#
#
# Indices 1 2 3 4 5 6 
#
# 1 85.9842 -0.7748 18.0108 17.1935 -13.0304 0.3213
# 2 -0.7748 26.2825 -1.7867 -0.3233 9.1757 -7.1077
# 3 18.0108 -1.7867 52.1307 -10.2915 4.2746 0.9351
# 4 17.1935 -0.3233 -10.2915 33.0827 -7.2256 4.0051
# 5 -13.0304 9.1757 4.2746 -7.2256 35.0959 4.0774
# 6 0.3213 -7.1077 0.9351 4.0051 4.0774 26.8367
#
#
#
# Elastic Compliance Matrix: (Units=1/GPa)
#
#
# Indices 1 2 3 4 5 6 
#
# 1 0.016039 -0.002050 -0.007969 -0.009662 0.005454 0.000156
# 2 -0.002050 0.047938 0.002801 -0.002978 -0.016050 0.015506
# 3 -0.007969 0.002801 0.024573 0.010995 -0.004304 -0.001006
# 4 -0.009662 -0.002978 0.010995 0.040725 0.005156 -0.007917
# 5 0.005454 -0.016050 -0.004304 0.005156 0.037536 -0.010639
# 6 0.000156 0.015506 -0.001006 -0.007917 -0.010639 0.044200
#
#
# Mechanical properties :
#
#
# Convention : Reuss Voigt Hill
#
# Bulk Modulus (GPa) = 13.49244 21.69956 17.59600
# Shear Modulus (GPa) = 19.98782 28.93293 24.46038
#
# Velocity S-wave (km/s) = 3.04904 3.66841 3.37297
# Velocity P-wave (km/s) = 4.32101 5.29488 4.83254
#
# Compressibility (1/GPa) = 0.07411556
#
# Stress axis : x y z
#
# Youngs Moduli (GPa) = 62.34847 20.86015 40.69434
#
# Poissons Ratio (x) = 0.04276 0.32430
# Poissons Ratio (y) = 0.12779 -0.11399
# Poissons Ratio (z) = 0.49686 -0.05843
#
# Static dielectric constant tensor:
#      x y z
#    x 3.855250 -0.165680 -0.063300 
#    y -0.165680 3.783690 -0.148080 
#    z -0.063300 -0.148080 3.644320 
# 
# 
# High freq. dielectric constant tensor:
#      x y z
#    x 1.834090 -0.017490 -0.005050 
#    y -0.017490 1.836580 -0.016150 
#    z -0.005050 -0.016150 1.825730 
# 
# From -- ./inp_files/357784.got.cif
#   From: 2010.06.25/outbox.cif.g09.slc.cpg/sg2_179_cif.got.tgz:357784.got - 2010.06.27 13:26:56.
