data_PCOD8004098
_publ_section_title
;
Structure prediction by ZEFSAII (Michael W. Deem and Ramdas Pophale) SiO2 
 PCOD8004098
Probable space group: P -1
;
_chemical_formula_sum "Si O2"
_cell_formula_units_Z 16
_cell_length_a 11.308592
_cell_length_b 13.940931
_cell_length_c 14.410303
_cell_angle_alpha 39.513027
_cell_angle_beta 39.333048
_cell_angle_gamma 32.631997
_cell_volume 726.960748
_symmetry_space_group_name_H-M "P -1"
_symmetry_group_IT_number 2
_symmetry_cell_setting 'triclinic'
loop_
_space_group_symop_operation_xyz
x,y,z
-x,-y,-z
loop_
_atom_site_type_symbol
_atom_site_label
_atom_site_fract_x
_atom_site_fract_y
_atom_site_fract_z
Si Si1 0.675794 0.989646 0.326911
Si Si2 0.480996 0.320200 0.787545
Si Si3 0.825545 0.254397 0.318385
Si Si4 0.761111 0.697363 0.725135
Si Si5 0.692043 0.837809 0.853666
Si Si6 0.898538 0.609419 0.381347
Si Si7 0.519951 0.749892 0.364074
Si Si8 0.034043 0.085993 0.631948
O O1 0.791960 0.823863 0.304210
O O2 0.894042 0.958775 0.270007
O O3 0.500000 0.000000 0.500000
O O4 0.513740 0.185151 0.222695
O O5 0.345473 0.522374 0.770463
O O6 0.377517 0.351665 0.722265
O O7 0.756492 0.215324 0.693634
O O8 0.438364 0.186779 0.967625
O O9 0.724345 0.222434 0.496116
O O10 0.086265 0.185354 0.222589
O O11 0.827700 0.123910 0.337234
O O12 0.775165 0.680153 0.840851
O O13 0.872440 0.803672 0.549608
O O14 0.892088 0.495982 0.743104
O O15 0.518456 0.050930 0.759716
O O16 0.690863 0.619372 0.444742
O O17 0.000000 0.500000 0.500000
#
# Coordination Sequence:
#
# PCOD8004098 Si02
#       8
#     2   2   2   2   2   2   2   2
#     4  10  20  37  63  98 133 167 218 275 325 373
#     4  12  27  43  66  99 137 176 218 269 332 402
#     4  12  24  41  67  96 134 171 221 275 325 386
#     4  11  22  40  68  98 131 174 220 272 322 389
#     4  12  24  46  66  96 139 178 214 269 339 391
#     4  12  22  37  69 103 130 165 219 281 327 376
#     4  12  23  43  70  99 131 172 223 275 328 385
#     4  11  22  39  67  96 131 174 219 270 331 381
#
# _framework density 22.009443000000001
#
# number of rings (size 3 to 8) (size 9 to 14) (size 15 to 20)
#    0.000    0.500    6.250    4.500    0.000    0.000 
#    0.000    0.625    0.000    1.500    0.000    0.000 
#    0.000    0.000    0.000    0.000    0.000    0.000 
#
# Total GULP energy -198266.181173 kJ/mol
# GULP energy per Si atom -12391.636323 kJ/mol
# Density = 2.195935 g / cm^3
# Si number density = 22.009443 Si / 1000 Ang^3
#
#
#
# Elastic Constant Matrix: (Units=GPa)
#
#
# Indices 1 2 3 4 5 6 
#
# 1 121.1025 40.2279 34.2272 13.6373 11.2824 -3.3248
# 2 40.2279 133.8646 3.9250 -0.8465 0.2946 13.2991
# 3 34.2272 3.9250 72.5041 -2.5816 6.8799 -9.2239
# 4 13.6373 -0.8465 -2.5816 20.6872 5.5253 1.8745
# 5 11.2824 0.2946 6.8799 5.5253 6.9521 2.8046
# 6 -3.3248 13.2991 -9.2239 1.8745 2.8046 42.3421
#
#
#
# Elastic Compliance Matrix: (Units=1/GPa)
#
#
# Indices 1 2 3 4 5 6 
#
# 1 0.012732 -0.003933 -0.004581 -0.006123 -0.012026 0.002305
# 2 -0.003933 0.008983 0.000481 0.001885 0.005427 -0.003468
# 3 -0.004581 0.000481 0.018966 0.010813 -0.021798 0.004586
# 4 -0.006123 0.001885 0.010813 0.068628 -0.056180 0.001966
# 5 -0.012026 0.005427 -0.021798 -0.056180 0.237681 -0.020654
# 6 0.002305 -0.003468 0.004586 0.001966 -0.020654 0.027167
#
#
# Mechanical properties :
#
#
# Convention : Reuss Voigt Hill
#
# Bulk Modulus (GPa) = 40.62623 53.80349 47.21486
# Shear Modulus (GPa) = 12.54934 30.60237 21.57585
#
# Velocity S-wave (km/s) = 2.39043 3.73288 3.13437
# Velocity P-wave (km/s) = 5.11053 6.56337 5.88198
#
# Compressibility (1/GPa) = 0.02461464
#
# Stress axis : x y z
#
# Youngs Moduli (GPa) = 78.54371 111.32694 52.72675
#
# Poissons Ratio (x) = 0.43784 0.24155
# Poissons Ratio (y) = 0.30891 -0.02538
# Poissons Ratio (z) = 0.35982 -0.05359
#
# Static dielectric constant tensor:
#      x y z
#    x 4.455790 0.093160 0.132810 
#    y 0.093160 4.395510 0.032870 
#    z 0.132810 0.032870 3.541070 
# 
# 
# High freq. dielectric constant tensor:
#      x y z
#    x 1.880210 0.002380 0.011690 
#    y 0.002380 1.889740 0.008300 
#    z 0.011690 0.008300 1.809990 
# 
# From -- ./inp_files/521452.got.cif
#   From: 2010.06.25/outbox.cif.g09.slc.cpg/sg2_261_cif.got.tgz:521452.got - 2010.06.27 13:26:56.
