data_PCOD8004120
_publ_section_title
;
Structure prediction by ZEFSAII (Michael W. Deem and Ramdas Pophale) SiO2 
 PCOD8004120
Probable space group: P -1
;
_chemical_formula_sum "Si O2"
_cell_formula_units_Z 14
_cell_length_a 8.107909
_cell_length_b 9.094510
_cell_length_c 11.896610
_cell_angle_alpha 50.477310
_cell_angle_beta 117.435878
_cell_angle_gamma 119.634797
_cell_volume 574.026071
_symmetry_space_group_name_H-M "P -1"
_symmetry_group_IT_number 2
_symmetry_cell_setting 'triclinic'
loop_
_space_group_symop_operation_xyz
x,y,z
-x,-y,-z
loop_
_atom_site_type_symbol
_atom_site_label
_atom_site_fract_x
_atom_site_fract_y
_atom_site_fract_z
Si Si1 0.935858 0.600655 0.753409
Si Si2 0.246781 0.718247 0.977911
Si Si3 0.028494 0.055289 0.137942
Si Si4 0.050223 0.410759 0.675551
Si Si5 0.586706 0.732949 0.942593
Si Si6 0.238998 0.089471 0.416512
Si Si7 0.387428 0.753438 0.656545
O O1 0.858628 0.784465 0.592584
O O2 0.149305 0.672404 0.844175
O O3 0.920516 0.454915 0.714071
O O4 0.791672 0.483147 0.863789
O O5 0.479964 0.791535 0.990706
O O6 0.166654 0.874483 0.948832
O O7 0.174690 0.171737 0.024745
O O8 0.142808 0.125714 0.253018
O O9 0.975400 0.820543 0.225378
O O10 0.277167 0.516702 0.729579
O O11 0.000000 0.500000 0.500000
O O12 0.520449 0.838185 0.763975
O O13 0.500000 0.500000 0.000000
O O14 0.474514 0.184736 0.439573
O O15 0.208981 0.857303 0.550708
#
# Coordination Sequence:
#
# PCOD8004120 Si02
#       7
#     2   2   2   2   2   2   2
#     4  10  21  39  64  92 123 162 218 259 306 382
#     4  10  20  41  65  94 121 168 217 259 306 372
#     4  10  23  39  63  95 131 162 211 262 315 381
#     4  12  24  41  59  93 135 167 196 264 333 369
#     4  11  21  40  69  94 122 167 218 264 305 372
#     4   9  19  39  64  87 118 167 223 261 292 377
#     4  10  20  37  64  90 123 166 213 258 317 366
#
# _framework density 24.389137999999999
#
# number of rings (size 3 to 8) (size 9 to 14) (size 15 to 20)
#    0.000    1.714    2.857    3.429    0.000    2.286 
#    2.571    1.429    0.000    0.000    0.000    0.000 
#    0.000    0.000    0.000    0.000    0.000    0.000 
#
# Total GULP energy -173456.492665 kJ/mol
# GULP energy per Si atom -12389.749476 kJ/mol
# Density = 2.433363 g / cm^3
# Si number density = 24.389138 Si / 1000 Ang^3
#
#
#
# Elastic Constant Matrix: (Units=GPa)
#
#
# Indices 1 2 3 4 5 6 
#
# 1 158.6822 52.9544 10.7112 -11.8137 6.7193 -20.2512
# 2 52.9544 110.2428 20.8638 -38.2159 2.9161 -14.4819
# 3 10.7112 20.8638 47.6224 -8.8545 8.3399 -14.5586
# 4 -11.8137 -38.2159 -8.8545 41.0575 -8.1546 1.6823
# 5 6.7193 2.9161 8.3399 -8.1546 28.1273 -8.4039
# 6 -20.2512 -14.4819 -14.5586 1.6823 -8.4039 39.1738
#
#
#
# Elastic Compliance Matrix: (Units=1/GPa)
#
#
# Indices 1 2 3 4 5 6 
#
# 1 0.007909 -0.004217 0.000763 -0.001879 -0.001452 0.002582
# 2 -0.004217 0.017353 -0.003808 0.015117 0.005736 0.003401
# 3 0.000763 -0.003808 0.025825 0.000959 -0.004930 0.007486
# 4 -0.001879 0.015117 0.000959 0.040238 0.012002 0.005820
# 5 -0.001452 0.005736 -0.004930 0.012002 0.042690 0.008181
# 6 0.002582 0.003401 0.007486 0.005820 0.008181 0.032407
#
#
# Mechanical properties :
#
#
# Convention : Reuss Voigt Hill
#
# Bulk Modulus (GPa) = 27.35040 53.95624 40.65332
# Shear Modulus (GPa) = 25.88883 37.13959 31.51421
#
# Velocity S-wave (km/s) = 3.26159 3.90653 3.59854
# Velocity P-wave (km/s) = 5.04207 6.52066 5.82844
#
# Compressibility (1/GPa) = 0.03656253
#
# Stress axis : x y z
#
# Youngs Moduli (GPa) = 126.44042 57.62830 38.72172
#
# Poissons Ratio (x) = 0.24303 -0.02954
# Poissons Ratio (y) = 0.53322 0.14745
# Poissons Ratio (z) = -0.09647 0.21944
#
# Static dielectric constant tensor:
#      x y z
#    x 4.652990 -0.058710 0.043020 
#    y -0.058710 4.080770 -0.022360 
#    z 0.043020 -0.022360 4.568060 
# 
# 
# High freq. dielectric constant tensor:
#      x y z
#    x 1.980980 -0.008540 -0.002900 
#    y -0.008540 1.937290 -0.025240 
#    z -0.002900 -0.025240 1.974820 
# 
# From -- ./inp_files/208757.got.cif
#   From: 2010.06.25/outbox.cif.g09.slc.cpg/sg2_105_cif.got.tgz:208757.got - 2010.06.27 13:26:56.
