data_PCOD8004441
_publ_section_title
;
Structure prediction by ZEFSAII (Michael W. Deem and Ramdas Pophale) SiO2 
 PCOD8004441
Probable space group: P -1
;
_chemical_formula_sum "Si O2"
_cell_formula_units_Z 16
_cell_length_a 11.138782
_cell_length_b 12.621824
_cell_length_c 10.406614
_cell_angle_alpha 57.428557
_cell_angle_beta 53.625531
_cell_angle_gamma 37.315533
_cell_volume 707.420599
_symmetry_space_group_name_H-M "P -1"
_symmetry_group_IT_number 2
_symmetry_cell_setting 'triclinic'
loop_
_space_group_symop_operation_xyz
x,y,z
-x,-y,-z
loop_
_atom_site_type_symbol
_atom_site_label
_atom_site_fract_x
_atom_site_fract_y
_atom_site_fract_z
Si Si1 0.438080 0.264502 0.067137
Si Si2 0.425029 0.908797 0.157102
Si Si3 0.203135 0.650020 0.010327
Si Si4 0.789067 0.932216 0.234519
Si Si5 0.950190 0.218435 0.242246
Si Si6 0.670222 0.735905 0.370017
Si Si7 0.991521 0.569503 0.819854
Si Si8 0.345162 0.786902 0.682492
O O1 0.358731 0.440441 0.069544
O O2 0.645019 0.089882 0.118785
O O3 0.245934 0.278384 0.181079
O O4 0.490784 0.248832 0.891624
O O5 0.502793 0.845314 0.292394
O O6 0.179967 0.031107 0.238091
O O7 0.500000 0.000000 0.000000
O O8 0.349192 0.686041 0.865392
O O9 0.037323 0.780385 0.142873
O O10 0.059941 0.705555 0.940001
O O11 0.770408 0.016580 0.326440
O O12 0.698554 0.845593 0.363033
O O13 0.905470 0.352411 0.289050
O O14 0.784837 0.200361 0.361605
O O15 0.892318 0.574214 0.272248
O O16 0.581311 0.680971 0.558332
O O17 0.000000 0.500000 0.000000
#
# Coordination Sequence:
#
# PCOD8004441 Si02
#       8
#     2   2   2   2   2   2   2   2
#     4  12  21  36  68 101 116 159 223 270 299 361
#     4  12  19  35  67 100 120 154 218 265 311 375
#     4  10  21  41  63  92 123 164 212 254 312 365
#     4  12  22  43  70  89 124 174 222 252 299 384
#     4  10  20  38  58  92 131 159 201 259 321 369
#     4  12  23  39  68  93 129 168 205 268 322 367
#     4  12  18  35  64  93 121 155 211 263 307 370
#     4  10  26  42  59  92 135 175 201 253 330 373
#
# _framework density 22.617381000000002
#
# number of rings (size 3 to 8) (size 9 to 14) (size 15 to 20)
#    0.750    0.000    7.500    0.750    0.000    1.500 
#    0.000    0.625    5.500    0.000    0.000    0.000 
#    0.000    0.000    0.000    0.000    0.000    0.000 
#
# Total GULP energy -198226.349471 kJ/mol
# GULP energy per Si atom -12389.146842 kJ/mol
# Density = 2.256590 g / cm^3
# Si number density = 22.617381 Si / 1000 Ang^3
#
#
#
# Elastic Constant Matrix: (Units=GPa)
#
#
# Indices 1 2 3 4 5 6 
#
# 1 79.3052 34.8435 23.9937 -11.5228 -18.5943 23.8276
# 2 34.8435 113.2090 19.8966 13.0056 -12.2205 20.2582
# 3 23.9937 19.8966 79.1797 7.6325 -30.1480 8.8508
# 4 -11.5228 13.0056 7.6325 18.3593 3.6357 0.5145
# 5 -18.5943 -12.2205 -30.1480 3.6357 27.6811 -2.6359
# 6 23.8276 20.2582 8.8508 0.5145 -2.6359 43.8458
#
#
#
# Elastic Compliance Matrix: (Units=1/GPa)
#
#
# Indices 1 2 3 4 5 6 
#
# 1 0.023846 -0.006952 -0.005210 0.021587 0.003608 -0.008732
# 2 -0.006952 0.013467 0.003070 -0.016405 0.006538 -0.002479
# 3 -0.005210 0.003070 0.027558 -0.022921 0.030685 -0.002036
# 4 0.021587 -0.016405 -0.022921 0.095267 -0.030453 -0.002474
# 5 0.003608 0.006538 0.030685 -0.030453 0.078273 -0.006113
# 6 -0.008732 -0.002479 -0.002036 -0.002474 -0.006113 0.028770
#
#
# Mechanical properties :
#
#
# Convention : Reuss Voigt Hill
#
# Bulk Modulus (GPa) = 21.41910 47.68460 34.55185
# Shear Modulus (GPa) = 16.61530 30.84125 23.72828
#
# Velocity S-wave (km/s) = 2.71334 3.69671 3.24252
# Velocity P-wave (km/s) = 4.39398 6.27295 5.41557
#
# Compressibility (1/GPa) = 0.04668731
#
# Stress axis : x y z
#
# Youngs Moduli (GPa) = 41.93555 74.25476 36.28764
#
# Poissons Ratio (x) = 0.51620 0.18908
# Poissons Ratio (y) = 0.29152 -0.11142
# Poissons Ratio (z) = 0.21850 -0.22799
#
# Static dielectric constant tensor:
#      x y z
#    x 4.187280 0.275790 -0.112470 
#    y 0.275790 4.145300 0.148750 
#    z -0.112470 0.148750 3.693640 
# 
# 
# High freq. dielectric constant tensor:
#      x y z
#    x 1.902880 0.015630 -0.017400 
#    y 0.015630 1.893870 0.018780 
#    z -0.017400 0.018780 1.845700 
# 
# From -- ./inp_files/425445.got.cif
#   From: 2010.06.25/outbox.cif.g09.slc.cpg/sg2_213_cif.got.tgz:425445.got - 2010.06.27 13:26:56.
