data_PCOD8004034
_publ_section_title
;
Structure prediction by ZEFSAII (Michael W. Deem and Ramdas Pophale) SiO2 
 PCOD8004034
Probable space group: P -1
;
_chemical_formula_sum "Si O2"
_cell_formula_units_Z 16
_cell_length_a 11.442645
_cell_length_b 16.787779
_cell_length_c 14.618832
_cell_angle_alpha 143.391630
_cell_angle_beta 151.132936
_cell_angle_gamma 38.648138
_cell_volume 778.246667
_symmetry_space_group_name_H-M "P -1"
_symmetry_group_IT_number 2
_symmetry_cell_setting 'triclinic'
loop_
_space_group_symop_operation_xyz
x,y,z
-x,-y,-z
loop_
_atom_site_type_symbol
_atom_site_label
_atom_site_fract_x
_atom_site_fract_y
_atom_site_fract_z
Si Si1 0.350251 0.428160 0.761795
Si Si2 0.767538 0.502783 0.458728
Si Si3 0.351025 0.053169 0.791875
Si Si4 0.113469 0.091673 0.227974
Si Si5 0.758340 0.799129 0.758561
Si Si6 0.247599 0.849095 0.220359
Si Si7 0.980960 0.020004 0.356127
Si Si8 0.292216 0.766785 0.781273
O O1 0.342096 0.493832 0.715879
O O2 0.484767 0.263577 0.699835
O O3 0.068481 0.445258 0.617733
O O4 0.500000 0.500000 0.000000
O O5 0.687372 0.654726 0.590654
O O6 0.647231 0.400093 0.341800
O O7 0.230326 0.037882 0.792827
O O8 0.580834 0.917502 0.807482
O O9 0.452423 0.189139 0.986558
O O10 0.145945 0.074849 0.592506
O O11 0.271364 0.168307 0.341561
O O12 0.886194 0.201671 0.222817
O O13 0.285043 0.985664 0.320441
O O14 0.000000 0.000000 0.000000
O O15 0.044395 0.784441 0.971294
O O16 0.153235 0.893426 0.299338
O O17 0.848247 0.153293 0.328685
#
# Coordination Sequence:
#
# PCOD8004034 Si02
#       8
#     2   2   2   2   2   2   2   2
#     4  11  22  38  58  84 130 171 198 241 293 367
#     4  11  25  38  56  91 129 165 201 233 309 369
#     4  11  22  41  71  85 120 152 206 265 298 353
#     4   9  17  32  58  88 116 151 199 237 300 349
#     4  11  20  39  62  90 125 166 193 248 303 356
#     4  10  20  37  63  90 120 158 206 252 298 350
#     4  10  23  41  65  96 107 156 214 252 309 349
#     4  11  22  39  60  89 125 159 195 254 300 364
#
# _framework density 20.559034
#
# number of rings (size 3 to 8) (size 9 to 14) (size 15 to 20)
#    0.000    1.500    5.000    2.625    1.750    2.000 
#    0.000    3.750    0.000    2.250    0.000    0.000 
#    0.000    0.000    0.000    0.000    0.000    0.000 
#
# Total GULP energy -198395.004628 kJ/mol
# GULP energy per Si atom -12399.687789 kJ/mol
# Density = 2.051224 g / cm^3
# Si number density = 20.559034 Si / 1000 Ang^3
#
#
#
# Elastic Constant Matrix: (Units=GPa)
#
#
# Indices 1 2 3 4 5 6 
#
# 1 71.7371 30.5533 -1.1411 0.1707 2.2568 9.9415
# 2 30.5533 97.7126 34.8222 19.6414 12.1725 13.4822
# 3 -1.1411 34.8222 81.1854 4.7139 9.2315 12.3544
# 4 0.1707 19.6414 4.7139 38.0732 4.9373 8.5101
# 5 2.2568 12.1725 9.2315 4.9373 24.7784 -2.4722
# 6 9.9415 13.4822 12.3544 8.5101 -2.4722 19.4037
#
#
#
# Elastic Compliance Matrix: (Units=1/GPa)
#
#
# Indices 1 2 3 4 5 6 
#
# 1 0.018412 -0.006825 0.004694 0.005455 -0.002193 -0.010352
# 2 -0.006825 0.016682 -0.006131 -0.006912 -0.004080 -0.001680
# 3 0.004694 -0.006131 0.017221 0.004409 -0.005887 -0.011794
# 4 0.005455 -0.006912 0.004409 0.033893 -0.007151 -0.016576
# 5 -0.002193 -0.004080 -0.005887 -0.007151 0.047870 0.016942
# 6 -0.010352 -0.001680 -0.011794 -0.016576 0.016942 0.074945
#
#
# Mechanical properties :
#
#
# Convention : Reuss Voigt Hill
#
# Bulk Modulus (GPa) = 27.93893 42.12265 35.03079
# Shear Modulus (GPa) = 21.05465 28.87778 24.96622
#
# Velocity S-wave (km/s) = 3.20364 3.75190 3.48856
# Velocity P-wave (km/s) = 5.22528 6.26914 5.77086
#
# Compressibility (1/GPa) = 0.03579235
#
# Stress axis : x y z
#
# Youngs Moduli (GPa) = 54.31271 59.94352 58.06819
#
# Poissons Ratio (x) = 0.40912 -0.27258
# Poissons Ratio (y) = 0.37069 0.35599
# Poissons Ratio (z) = -0.25495 0.36749
#
# Static dielectric constant tensor:
#      x y z
#    x 3.705070 0.267610 0.059330 
#    y 0.267610 3.998610 0.054560 
#    z 0.059330 0.054560 3.834200 
# 
# 
# High freq. dielectric constant tensor:
#      x y z
#    x 1.779570 0.008590 -0.008810 
#    y 0.008590 1.800330 -0.002940 
#    z -0.008810 -0.002940 1.823620 
# 
# From -- ./inp_files/521816.got.cif
#   From: 2010.06.25/outbox.cif.g09.slc.cpg/sg2_261_cif.got.tgz:521816.got - 2010.06.27 13:26:56.
