data_PCOD8004940
_publ_section_title
;
Structure prediction by ZEFSAII (Michael W. Deem and Ramdas Pophale) SiO2 
 PCOD8004940
Probable space group: P -1
;
_chemical_formula_sum "Si O2"
_cell_formula_units_Z 14
_cell_length_a 15.644126
_cell_length_b 16.132975
_cell_length_c 12.511174
_cell_angle_alpha 154.686240
_cell_angle_beta 40.648504
_cell_angle_gamma 142.552152
_cell_volume 810.637841
_symmetry_space_group_name_H-M "P -1"
_symmetry_group_IT_number 2
_symmetry_cell_setting 'triclinic'
loop_
_space_group_symop_operation_xyz
x,y,z
-x,-y,-z
loop_
_atom_site_type_symbol
_atom_site_label
_atom_site_fract_x
_atom_site_fract_y
_atom_site_fract_z
Si Si1 0.845971 0.350717 0.931265
Si Si2 0.154052 0.078162 0.497549
Si Si3 0.838395 0.927767 0.106299
Si Si4 0.081383 0.233474 0.959554
Si Si5 0.332376 0.400383 0.536405
Si Si6 0.081305 0.655139 0.381350
Si Si7 0.166841 0.195157 0.251650
O O1 0.840526 0.359080 0.818332
O O2 0.807104 0.115586 0.732482
O O3 0.727446 0.421665 0.175223
O O4 0.000000 0.500000 0.000000
O O5 0.272568 0.213050 0.459379
O O6 0.159576 0.218810 0.759411
O O7 0.000000 0.000000 0.500000
O O8 0.815049 0.766725 0.039851
O O9 0.815135 0.136805 0.409766
O O10 0.752741 0.819878 0.953962
O O11 0.000000 0.000000 0.000000
O O12 0.930928 0.035833 0.880242
O O13 0.055008 0.449105 0.237576
O O14 0.500000 0.500000 0.500000
O O15 0.289815 0.311203 0.353792
O O16 0.930794 0.670122 0.514804
#
# Coordination Sequence:
#
# PCOD8004940 Si02
#       7
#     2   2   2   2   2   2   2
#     4  12  19  34  60  85 109 145 190 233 272 330
#     4  12  19  34  60  85 109 145 190 233 272 330
#     4   8  18  30  46  82 117 137 171 237 280 315
#     4  10  16  29  55  87 104 136 189 231 268 324
#     4  12  26  38  54  86 120 148 183 234 289 331
#     4  10  16  29  55  87 104 136 189 231 268 324
#     4  10  20  34  50  78 119 145 173 230 283 325
#
# _framework density 17.270351999999999
#
# number of rings (size 3 to 8) (size 9 to 14) (size 15 to 20)
#    0.000    1.714    8.571    0.000    0.000    5.714 
#    0.000    0.000    0.000    1.714    0.000    0.000 
#    0.000    0.000    0.000    0.000    0.000    0.000 
#
# Total GULP energy -173537.197323 kJ/mol
# GULP energy per Si atom -12395.514095 kJ/mol
# Density = 1.723104 g / cm^3
# Si number density = 17.270352 Si / 1000 Ang^3
#
#
#
# Elastic Constant Matrix: (Units=GPa)
#
#
# Indices 1 2 3 4 5 6 
#
# 1 102.5758 52.7313 67.1373 -1.8759 21.6679 -11.8555
# 2 52.7313 82.9864 47.3480 9.4284 -3.8100 -8.7347
# 3 67.1373 47.3480 115.9568 13.6825 4.8704 -15.6162
# 4 -1.8759 9.4284 13.6825 34.5048 -17.7378 -9.6096
# 5 21.6679 -3.8100 4.8704 -17.7378 40.3851 -3.5097
# 6 -11.8555 -8.7347 -15.6162 -9.6096 -3.5097 28.5633
#
#
#
# Elastic Compliance Matrix: (Units=1/GPa)
#
#
# Indices 1 2 3 4 5 6 
#
# 1 0.023702 -0.010577 -0.009030 0.002020 -0.011659 0.000914
# 2 -0.010577 0.020715 -0.002359 -0.001083 0.007544 0.001217
# 3 -0.009030 -0.002359 0.015713 -0.004978 0.000761 0.002540
# 4 0.002020 -0.001083 -0.004978 0.046875 0.021409 0.016187
# 5 -0.011659 0.007544 0.000761 0.021409 0.041930 0.010239
# 6 0.000914 0.001217 0.002540 0.016187 0.010239 0.043854
#
#
# Mechanical properties :
#
#
# Convention : Reuss Voigt Hill
#
# Bulk Modulus (GPa) = 61.74157 70.66135 66.20146
# Shear Modulus (GPa) = 20.65087 29.64412 25.14750
#
# Velocity S-wave (km/s) = 3.46170 4.14753 3.82004
# Velocity P-wave (km/s) = 7.19760 7.99623 7.60740
#
# Compressibility (1/GPa) = 0.01619654
#
# Stress axis : x y z
#
# Youngs Moduli (GPa) = 42.19082 48.27435 63.64205
#
# Poissons Ratio (x) = 0.51062 0.57467
# Poissons Ratio (y) = 0.44627 0.15016
# Poissons Ratio (z) = 0.38097 0.11390
#
# Static dielectric constant tensor:
#      x y z
#    x 3.527770 -0.546510 0.596010 
#    y -0.546510 3.016280 -0.113860 
#    z 0.596010 -0.113860 3.682620 
# 
# 
# High freq. dielectric constant tensor:
#      x y z
#    x 1.651360 -0.046880 0.020610 
#    y -0.046880 1.633380 0.013240 
#    z 0.020610 0.013240 1.683170 
# 
# From -- ./inp_files/253364.got.cif
#   From: 2010.06.25/outbox.cif.g09.slc.cpg/sg2_127_cif.got.tgz:253364.got - 2010.06.27 13:26:56.
