data_PCOD8004862
_publ_section_title
;
Structure prediction by ZEFSAII (Michael W. Deem and Ramdas Pophale) SiO2 
 PCOD8004862
Probable space group: P -1
;
_chemical_formula_sum "Si O2"
_cell_formula_units_Z 14
_cell_length_a 17.916312
_cell_length_b 12.016980
_cell_length_c 7.869539
_cell_angle_alpha 109.822021
_cell_angle_beta 47.299038
_cell_angle_gamma 144.980345
_cell_volume 613.409158
_symmetry_space_group_name_H-M "P -1"
_symmetry_group_IT_number 2
_symmetry_cell_setting 'triclinic'
loop_
_space_group_symop_operation_xyz
x,y,z
-x,-y,-z
loop_
_atom_site_type_symbol
_atom_site_label
_atom_site_fract_x
_atom_site_fract_y
_atom_site_fract_z
Si Si1 0.114476 0.994812 0.839408
Si Si2 0.597784 0.691978 0.746416
Si Si3 0.281637 0.841705 0.437938
Si Si4 0.432609 0.772411 0.041855
Si Si5 0.647039 0.779967 0.080753
Si Si6 0.530413 0.166418 0.502838
Si Si7 0.125669 0.470521 0.069158
O O1 0.290660 0.168264 0.524913
O O2 0.180251 0.043824 0.958774
O O3 0.965012 0.747838 0.884947
O O4 0.000000 0.000000 0.000000
O O5 0.436823 0.635896 0.993905
O O6 0.724936 0.823177 0.793472
O O7 0.502462 0.469334 0.755991
O O8 0.049702 0.608647 0.696226
O O9 0.357081 0.964470 0.201071
O O10 0.377468 0.034039 0.514939
O O11 0.360528 0.783330 0.319215
O O12 0.268891 0.641732 0.089140
O O13 0.536025 0.797417 0.243351
O O14 0.500000 0.000000 0.500000
O O15 0.754427 0.406206 0.228043
#
# Coordination Sequence:
#
# PCOD8004862 Si02
#       7
#     2   2   2   2   2   2   2
#     4  12  23  42  69 100 136 176 220 281 338 394
#     4  11  23  43  69  96 135 179 221 274 345 390
#     4  10  20  38  62  96 130 177 230 267 327 407
#     4  10  20  38  64  95 135 172 220 278 331 395
#     4  11  24  44  67  98 136 176 228 275 327 415
#     4  11  23  42  64  91 138 182 218 278 339 389
#     4  11  21  39  65  99 130 173 235 270 331 406
#
# _framework density 22.823266
#
# number of rings (size 3 to 8) (size 9 to 14) (size 15 to 20)
#    0.000    1.143    2.857    4.286    0.000    1.143 
#    2.571    1.429    0.000    0.000    0.000    0.000 
#    0.000    0.000    0.000    0.000    0.000    0.000 
#
# Total GULP energy -173492.928277 kJ/mol
# GULP energy per Si atom -12392.352020 kJ/mol
# Density = 2.277132 g / cm^3
# Si number density = 22.823266 Si / 1000 Ang^3
#
#
#
# Elastic Constant Matrix: (Units=GPa)
#
#
# Indices 1 2 3 4 5 6 
#
# 1 58.1390 16.3373 9.6895 5.0897 -19.1211 -14.4057
# 2 16.3373 101.6445 13.0979 11.6615 -12.0905 -20.1074
# 3 9.6895 13.0979 67.1083 4.1848 -17.4873 6.4643
# 4 5.0897 11.6615 4.1848 40.2850 -6.4605 -6.5887
# 5 -19.1211 -12.0905 -17.4873 -6.4605 35.1261 7.4251
# 6 -14.4057 -20.1074 6.4643 -6.5887 7.4251 49.6374
#
#
#
# Elastic Compliance Matrix: (Units=1/GPa)
#
#
# Indices 1 2 3 4 5 6 
#
# 1 0.022195 -0.001380 -0.000669 0.000048 0.010347 0.004428
# 2 -0.001380 0.011491 -0.002068 -0.002119 0.000917 0.004105
# 3 -0.000669 -0.002068 0.018222 -0.000568 0.008909 -0.004813
# 4 0.000048 -0.002119 -0.000568 0.026398 0.003399 0.002225
# 5 0.010347 0.000917 0.008909 0.003399 0.040185 -0.003346
# 6 0.004428 0.004105 -0.004813 0.002225 -0.003346 0.024517
#
#
# Mechanical properties :
#
#
# Convention : Reuss Voigt Hill
#
# Bulk Modulus (GPa) = 22.89636 33.90459 28.40047
# Shear Modulus (GPa) = 30.15697 37.52752 33.84225
#
# Velocity S-wave (km/s) = 3.63895 4.05935 3.85489
# Velocity P-wave (km/s) = 5.26400 6.07113 5.68192
#
# Compressibility (1/GPa) = 0.04367507
#
# Stress axis : x y z
#
# Youngs Moduli (GPa) = 45.05433 87.02690 54.87896
#
# Poissons Ratio (x) = 0.12010 0.03669
# Poissons Ratio (y) = 0.06218 0.11348
# Poissons Ratio (z) = 0.03012 0.17995
#
# Static dielectric constant tensor:
#      x y z
#    x 4.289400 0.190910 0.040550 
#    y 0.190910 4.445510 0.341360 
#    z 0.040550 0.341360 4.168890 
# 
# 
# High freq. dielectric constant tensor:
#      x y z
#    x 1.901400 -0.007070 -0.001150 
#    y -0.007070 1.919500 0.026770 
#    z -0.001150 0.026770 1.887870 
# 
# From -- ./inp_files/123828.got.cif
#   From: 2010.06.25/outbox.cif.g09.slc.cpg/sg2_62_cif.got.tgz:123828.got - 2010.06.27 13:26:56.
