data_PCOD8004488
_publ_section_title
;
Structure prediction by ZEFSAII (Michael W. Deem and Ramdas Pophale) SiO2 
 PCOD8004488
Probable space group: P -1
;
_chemical_formula_sum "Si O2"
_cell_formula_units_Z 16
_cell_length_a 6.517227
_cell_length_b 12.678054
_cell_length_c 15.246187
_cell_angle_alpha 45.396858
_cell_angle_beta 109.717243
_cell_angle_gamma 87.589818
_cell_volume 767.719343
_symmetry_space_group_name_H-M "P -1"
_symmetry_group_IT_number 2
_symmetry_cell_setting 'triclinic'
loop_
_space_group_symop_operation_xyz
x,y,z
-x,-y,-z
loop_
_atom_site_type_symbol
_atom_site_label
_atom_site_fract_x
_atom_site_fract_y
_atom_site_fract_z
Si Si1 0.939644 0.791068 0.647097
Si Si2 0.330739 0.615092 0.164890
Si Si3 0.441524 0.278776 0.457876
Si Si4 0.637816 0.878401 0.293833
Si Si5 0.047499 0.933296 0.406883
Si Si6 0.210687 0.207251 0.006422
Si Si7 0.374372 0.190391 0.855731
Si Si8 0.623248 0.532832 0.082186
O O1 0.675547 0.802082 0.582089
O O2 0.049580 0.851368 0.547703
O O3 0.107570 0.603024 0.794975
O O4 0.934768 0.895057 0.672781
O O5 0.348383 0.471495 0.317294
O O6 0.439404 0.727317 0.162356
O O7 0.469675 0.531431 0.145674
O O8 0.057605 0.734281 0.030567
O O9 0.361911 0.253397 0.558657
O O10 0.726427 0.187143 0.545209
O O11 0.741909 0.780048 0.275411
O O12 0.809855 0.963916 0.299065
O O13 0.366962 0.015782 0.159360
O O14 0.186380 0.257310 0.869821
O O15 0.353467 0.297428 0.023969
O O16 0.500000 0.000000 0.000000
O O17 0.500000 0.500000 0.000000
#
# Coordination Sequence:
#
# PCOD8004488 Si02
#       8
#     2   2   2   2   2   2   2   2
#     4  10  20  38  59  87 122 168 199 245 306 359
#     4  11  23  41  65  91 124 165 199 256 315 358
#     4  11  22  39  63  92 127 158 205 250 306 370
#     4  10  23  39  62  94 119 159 211 254 301 365
#     4  10  21  38  61  85 127 162 204 248 302 360
#     4  10  22  42  63  90 126 159 206 253 306 366
#     4   9  22  42  64  89 122 164 203 254 312 360
#     4  11  22  38  62  89 126 162 206 248 303 363
#
# _framework density 20.840951
#
# number of rings (size 3 to 8) (size 9 to 14) (size 15 to 20)
#    0.000    1.750    2.500    1.125    0.000    8.000 
#    2.250    1.250    0.000    0.000    0.000    0.000 
#    0.000    0.000    0.000    0.000    0.000    0.000 
#
# Total GULP energy -198401.499598 kJ/mol
# GULP energy per Si atom -12400.093725 kJ/mol
# Density = 2.079352 g / cm^3
# Si number density = 20.840951 Si / 1000 Ang^3
#
#
#
# Elastic Constant Matrix: (Units=GPa)
#
#
# Indices 1 2 3 4 5 6 
#
# 1 71.7209 20.7933 30.5649 -0.7786 7.4654 8.5567
# 2 20.7933 117.6085 39.2281 13.6241 -9.5054 15.1465
# 3 30.5649 39.2281 83.5665 4.5366 0.7468 6.7723
# 4 -0.7786 13.6241 4.5366 35.6910 1.3945 -0.1848
# 5 7.4654 -9.5054 0.7468 1.3945 32.3803 -13.0140
# 6 8.5567 15.1465 6.7723 -0.1848 -13.0140 23.4716
#
#
#
# Elastic Compliance Matrix: (Units=1/GPa)
#
#
# Indices 1 2 3 4 5 6 
#
# 1 0.018582 -0.001151 -0.005557 0.001824 -0.008166 -0.008941
# 2 -0.001151 0.011362 -0.004349 -0.003913 0.002037 -0.004559
# 3 -0.005557 -0.004349 0.016070 -0.000490 -0.000345 0.000001
# 4 0.001824 -0.003913 -0.000490 0.029716 -0.002495 0.000852
# 5 -0.008166 0.002037 -0.000345 -0.002495 0.043980 0.026127
# 6 -0.008941 -0.004559 0.000001 0.000852 0.026127 0.063298
#
#
# Mechanical properties :
#
#
# Convention : Reuss Voigt Hill
#
# Bulk Modulus (GPa) = 41.84336 50.45207 46.14771
# Shear Modulus (GPa) = 23.46443 30.46257 26.96350
#
# Velocity S-wave (km/s) = 3.35906 3.82733 3.60081
# Velocity P-wave (km/s) = 5.93004 6.61755 6.28320
#
# Compressibility (1/GPa) = 0.02389866
#
# Stress axis : x y z
#
# Youngs Moduli (GPa) = 53.81691 88.01349 62.22696
#
# Poissons Ratio (x) = 0.10134 0.34581
# Poissons Ratio (y) = 0.06197 0.27061
# Poissons Ratio (z) = 0.29907 0.38275
#
# Static dielectric constant tensor:
#      x y z
#    x 3.709990 -0.048030 -0.073720 
#    y -0.048030 4.040600 0.095130 
#    z -0.073720 0.095130 3.728150 
# 
# 
# High freq. dielectric constant tensor:
#      x y z
#    x 1.813150 0.005490 -0.001990 
#    y 0.005490 1.820520 -0.002330 
#    z -0.001990 -0.002330 1.806670 
# 
# From -- ./inp_files/56426.got.cif
#   From: 2010.06.25/outbox.cif.g09.slc.cpg/sg2_29_cif.got.tgz:56426.got - 2010.06.27 13:26:56.
