data_PCOD8004965
_publ_section_title
;
Structure prediction by ZEFSAII (Michael W. Deem and Ramdas Pophale) SiO2 
 PCOD8004965
Probable space group: P -1
;
_chemical_formula_sum "Si O2"
_cell_formula_units_Z 16
_cell_length_a 8.647740
_cell_length_b 11.815509
_cell_length_c 10.475833
_cell_angle_alpha 65.277047
_cell_angle_beta 128.807422
_cell_angle_gamma 101.859998
_cell_volume 755.232667
_symmetry_space_group_name_H-M "P -1"
_symmetry_group_IT_number 2
_symmetry_cell_setting 'triclinic'
loop_
_space_group_symop_operation_xyz
x,y,z
-x,-y,-z
loop_
_atom_site_type_symbol
_atom_site_label
_atom_site_fract_x
_atom_site_fract_y
_atom_site_fract_z
Si Si1 0.272665 0.824866 0.836702
Si Si2 0.993393 0.193300 0.065317
Si Si3 0.367745 0.083557 0.683773
Si Si4 0.690122 0.521237 0.504700
Si Si5 0.321970 0.968165 0.328785
Si Si6 0.093617 0.296531 0.312544
Si Si7 0.336945 0.261068 0.809613
Si Si8 0.097220 0.736290 0.298495
O O1 0.190295 0.854054 0.924850
O O2 0.123927 0.734888 0.731661
O O3 0.267869 0.952523 0.694208
O O4 0.493060 0.752771 0.987418
O O5 0.090270 0.299391 0.153781
O O6 0.911877 0.251695 0.864534
O O7 0.156751 0.081124 0.174362
O O8 0.589872 0.059931 0.753324
O O9 0.248670 0.180877 0.483487
O O10 0.372787 0.135440 0.804520
O O11 0.500000 0.500000 0.500000
O O12 0.852310 0.574526 0.658793
O O13 0.632244 0.617709 0.316402
O O14 0.778528 0.394077 0.545190
O O15 0.211736 0.846037 0.372540
O O16 0.500000 0.000000 0.500000
O O17 0.120963 0.268563 0.755403
#
# Coordination Sequence:
#
# PCOD8004965 Si02
#       8
#     2   2   2   2   2   2   2   2
#     4  10  20  38  63  94 126 167 204 260 313 373
#     4  10  22  40  63  94 132 159 214 254 321 370
#     4  11  20  38  64  94 133 167 207 255 323 376
#     4  11  24  45  69  90 123 167 216 262 317 377
#     4  12  23  39  64 100 129 161 210 264 316 376
#     4   9  22  39  65  95 124 166 212 257 314 370
#     4  11  24  42  63  93 126 169 214 256 317 377
#     4  12  25  43  64  92 131 171 208 261 315 379
#
# _framework density 21.185525999999999
#
# number of rings (size 3 to 8) (size 9 to 14) (size 15 to 20)
#    0.750    0.500    1.250    6.000    0.000    2.500 
#    0.000    0.625    0.000    0.000    0.000    0.000 
#    0.000    0.000    0.000    0.000    0.000    0.000 
#
# Total GULP energy -198339.360221 kJ/mol
# GULP energy per Si atom -12396.210014 kJ/mol
# Density = 2.113731 g / cm^3
# Si number density = 21.185526 Si / 1000 Ang^3
#
#
#
# Elastic Constant Matrix: (Units=GPa)
#
#
# Indices 1 2 3 4 5 6 
#
# 1 111.6957 8.1105 -5.3508 -8.6214 21.5952 14.0608
# 2 8.1105 96.3649 19.5397 0.2775 13.2867 12.6905
# 3 -5.3508 19.5397 46.1960 -2.1072 9.6855 3.6885
# 4 -8.6214 0.2775 -2.1072 24.1892 1.2025 2.0845
# 5 21.5952 13.2867 9.6855 1.2025 39.1051 -1.6775
# 6 14.0608 12.6905 3.6885 2.0845 -1.6775 36.1181
#
#
#
# Elastic Compliance Matrix: (Units=1/GPa)
#
#
# Indices 1 2 3 4 5 6 
#
# 1 0.011768 0.000076 0.003673 0.005391 -0.007843 -0.005658
# 2 0.000076 0.012202 -0.004126 0.000043 -0.003341 -0.004053
# 3 0.003673 -0.004126 0.025793 0.004241 -0.007282 -0.003197
# 4 0.005391 0.000043 0.004241 0.044374 -0.005637 -0.005370
# 5 -0.007843 -0.003341 -0.007282 -0.005637 0.033309 0.006843
# 6 -0.005658 -0.004053 -0.003197 -0.005370 0.006843 0.032268
#
#
# Mechanical properties :
#
#
# Convention : Reuss Voigt Hill
#
# Bulk Modulus (GPa) = 20.40475 33.20615 26.80545
# Shear Modulus (GPa) = 28.27973 35.34629 31.81301
#
# Velocity S-wave (km/s) = 3.65754 4.08906 3.87930
# Velocity P-wave (km/s) = 5.24301 6.16456 5.72237
#
# Compressibility (1/GPa) = 0.04900819
#
# Stress axis : x y z
#
# Youngs Moduli (GPa) = 84.97565 81.95524 38.76989
#
# Poissons Ratio (x) = -0.00621 -0.14240
# Poissons Ratio (y) = -0.00644 0.15997
# Poissons Ratio (z) = -0.31212 0.33817
#
# Static dielectric constant tensor:
#      x y z
#    x 3.888490 0.095280 0.072450 
#    y 0.095280 3.855680 0.081980 
#    z 0.072450 0.081980 3.831660 
# 
# 
# High freq. dielectric constant tensor:
#      x y z
#    x 1.836110 0.007830 0.011760 
#    y 0.007830 1.820970 0.001720 
#    z 0.011760 0.001720 1.828350 
# 
# From -- ./inp_files/392393.got.cif
#   From: 2010.06.25/outbox.cif.g09.slc.cpg/sg2_197_cif.got.tgz:392393.got - 2010.06.27 13:26:56.
