data_PCOD8004776
_publ_section_title
;
Structure prediction by ZEFSAII (Michael W. Deem and Ramdas Pophale) SiO2 
 PCOD8004776
Probable space group: P -1
;
_chemical_formula_sum "Si O2"
_cell_formula_units_Z 16
_cell_length_a 8.984792
_cell_length_b 12.410937
_cell_length_c 15.241285
_cell_angle_alpha 137.110778
_cell_angle_beta 141.911959
_cell_angle_gamma 49.881587
_cell_volume 704.185466
_symmetry_space_group_name_H-M "P -1"
_symmetry_group_IT_number 2
_symmetry_cell_setting 'triclinic'
loop_
_space_group_symop_operation_xyz
x,y,z
-x,-y,-z
loop_
_atom_site_type_symbol
_atom_site_label
_atom_site_fract_x
_atom_site_fract_y
_atom_site_fract_z
Si Si1 0.371874 0.636306 0.287082
Si Si2 0.834907 0.171445 0.844989
Si Si3 0.881838 0.078615 0.275987
Si Si4 0.605022 0.011877 0.444898
Si Si5 0.572629 0.114090 0.307818
Si Si6 0.823401 0.383722 0.317342
Si Si7 0.027088 0.305607 0.179532
Si Si8 0.252525 0.580523 0.388034
O O1 0.178687 0.687264 0.149567
O O2 0.479322 0.795183 0.464916
O O3 0.566290 0.496630 0.251404
O O4 0.253817 0.561719 0.271785
O O5 0.597940 0.084182 0.666645
O O6 0.079473 0.044929 0.861624
O O7 0.845427 0.237567 0.987176
O O8 0.659052 0.034645 0.206737
O O9 0.806215 0.257329 0.311053
O O10 0.133704 0.056543 0.434500
O O11 0.610498 0.983224 0.324942
O O12 0.293824 0.201438 0.230701
O O13 0.774351 0.233516 0.487211
O O14 0.000000 0.500000 0.500000
O O15 0.917602 0.291584 0.216721
O O16 0.036074 0.492376 0.272689
O O17 0.500000 0.500000 0.500000
#
# Coordination Sequence:
#
# PCOD8004776 Si02
#       8
#     2   2   2   2   2   2   2   2
#     4  10  21  39  63  87 118 160 208 251 292 350
#     4  11  24  41  58  88 130 163 193 243 308 368
#     4  11  22  38  64  90 118 159 206 248 294 358
#     4  10  21  40  63  91 123 157 198 249 303 356
#     4  10  20  38  62  88 117 155 205 252 294 351
#     4  12  21  36  63  90 113 153 206 252 297 353
#     4  11  24  38  59  90 127 159 194 249 309 359
#     4   9  18  36  58  84 115 151 199 252 292 337
#
# _framework density 22.721287
#
# number of rings (size 3 to 8) (size 9 to 14) (size 15 to 20)
#    0.000    1.500    0.000    8.625    0.000    3.500 
#    0.000    1.250    0.000    0.000    0.000    0.000 
#    0.000    0.000    0.000    0.000    0.000    0.000 
#
# Total GULP energy -198333.649732 kJ/mol
# GULP energy per Si atom -12395.853108 kJ/mol
# Density = 2.266957 g / cm^3
# Si number density = 22.721287 Si / 1000 Ang^3
#
#
#
# Elastic Constant Matrix: (Units=GPa)
#
#
# Indices 1 2 3 4 5 6 
#
# 1 123.3114 32.8064 2.3609 -10.6773 -20.9720 4.7513
# 2 32.8064 102.8900 11.2556 -11.4207 -3.9028 6.7908
# 3 2.3609 11.2556 54.5370 -9.0848 -16.8702 -3.0477
# 4 -10.6773 -11.4207 -9.0848 16.6569 4.5378 -9.0560
# 5 -20.9720 -3.9028 -16.8702 4.5378 32.1879 -4.2836
# 6 4.7513 6.7908 -3.0477 -9.0560 -4.2836 41.4500
#
#
#
# Elastic Compliance Matrix: (Units=1/GPa)
#
#
# Indices 1 2 3 4 5 6 
#
# 1 0.010570 -0.002966 0.003559 0.005375 0.007837 0.001520
# 2 -0.002966 0.011418 -0.002243 0.004914 -0.002534 -0.000884
# 3 0.003559 -0.002243 0.025887 0.014472 0.014442 0.006517
# 4 0.005375 0.004914 0.014472 0.084043 0.002262 0.018238
# 5 0.007837 -0.002534 0.014442 0.002262 0.043863 0.005606
# 6 0.001520 -0.000884 0.006517 0.018238 0.005606 0.029139
#
#
# Mechanical properties :
#
#
# Convention : Reuss Voigt Hill
#
# Bulk Modulus (GPa) = 22.43353 41.50936 31.97145
# Shear Modulus (GPa) = 22.41361 33.67998 28.04679
#
# Velocity S-wave (km/s) = 3.14420 3.85425 3.51719
# Velocity P-wave (km/s) = 4.80376 6.17379 5.53135
#
# Compressibility (1/GPa) = 0.04457613
#
# Stress axis : x y z
#
# Youngs Moduli (GPa) = 94.60476 87.58196 38.62892
#
# Poissons Ratio (x) = 0.25978 -0.13749
# Poissons Ratio (y) = 0.28061 0.08664
# Poissons Ratio (z) = -0.33672 0.19643
#
# Static dielectric constant tensor:
#      x y z
#    x 4.264090 0.320000 -0.215560 
#    y 0.320000 4.131980 0.093280 
#    z -0.215560 0.093280 3.816520 
# 
# 
# High freq. dielectric constant tensor:
#      x y z
#    x 1.908020 0.016220 -0.023360 
#    y 0.016220 1.896570 -0.008250 
#    z -0.023360 -0.008250 1.861600 
# 
# From -- ./inp_files/500909.got.cif
#   From: 2010.06.25/outbox.cif.g09.slc.cpg/sg2_251_cif.got.tgz:500909.got - 2010.06.27 13:26:56.
