data_PCOD8004664
_publ_section_title
;
Structure prediction by ZEFSAII (Michael W. Deem and Ramdas Pophale) SiO2 
 PCOD8004664
Probable space group: P -1
;
_chemical_formula_sum "Si O2"
_cell_formula_units_Z 16
_cell_length_a 13.745848
_cell_length_b 14.226889
_cell_length_c 9.501856
_cell_angle_alpha 58.416493
_cell_angle_beta 93.407972
_cell_angle_gamma 45.890338
_cell_volume 819.202779
_symmetry_space_group_name_H-M "P -1"
_symmetry_group_IT_number 2
_symmetry_cell_setting 'triclinic'
loop_
_space_group_symop_operation_xyz
x,y,z
-x,-y,-z
loop_
_atom_site_type_symbol
_atom_site_label
_atom_site_fract_x
_atom_site_fract_y
_atom_site_fract_z
Si Si1 0.782659 0.737246 0.818560
Si Si2 0.538742 0.511240 0.340377
Si Si3 0.287090 0.010451 0.171482
Si Si4 0.050142 0.824206 0.981248
Si Si5 0.706314 0.046374 0.095666
Si Si6 0.943890 0.165656 0.695154
Si Si7 0.455934 0.367659 0.320473
Si Si8 0.542241 0.114999 0.302615
O O1 0.756725 0.829682 0.888276
O O2 0.662936 0.741313 0.818450
O O3 0.704134 0.881753 0.565780
O O4 0.000000 0.500000 0.000000
O O5 0.500000 0.500000 0.500000
O O6 0.736018 0.384858 0.442317
O O7 0.536686 0.412674 0.307313
O O8 0.374995 0.753967 0.099089
O O9 0.482809 0.770534 0.435045
O O10 0.127829 0.077621 0.149077
O O11 0.295707 0.021170 0.996204
O O12 0.078912 0.812558 0.157294
O O13 0.231057 0.588382 0.118384
O O14 0.020565 0.974007 0.794834
O O15 0.592535 0.086363 0.167250
O O16 0.918126 0.867067 0.310742
O O17 0.536185 0.238155 0.285057
#
# Coordination Sequence:
#
# PCOD8004664 Si02
#       8
#     2   2   2   2   2   2   2   2
#     4  10  22  46  67  80 106 148 195 245 299 346
#     4  12  18  33  57  86 121 161 193 221 269 339
#     4  10  20  34  63  87 108 151 197 231 281 341
#     4  10  16  29  52  81 112 148 194 227 262 320
#     4  11  22  37  55  89 125 149 185 237 280 334
#     4  10  18  29  49  81 118 152 183 230 266 320
#     4  11  19  34  57  82 115 158 194 222 275 340
#     4  10  25  41  59  86 116 145 191 246 292 339
#
# _framework density 19.531182000000001
#
# number of rings (size 3 to 8) (size 9 to 14) (size 15 to 20)
#    0.000    1.500    5.000    1.500    0.000    2.000 
#    0.000    1.250    0.000    0.000    0.000    0.000 
#    0.000    0.000    0.000    0.000    0.000    0.000 
#
# Total GULP energy -198407.172694 kJ/mol
# GULP energy per Si atom -12400.448293 kJ/mol
# Density = 1.948673 g / cm^3
# Si number density = 19.531182 Si / 1000 Ang^3
#
#
#
# Elastic Constant Matrix: (Units=GPa)
#
#
# Indices 1 2 3 4 5 6 
#
# 1 70.1021 43.3714 30.6701 8.3112 8.4915 6.3536
# 2 43.3714 92.0361 46.2939 -1.0453 2.4744 2.7560
# 3 30.6701 46.2939 63.3382 -8.0639 11.7598 -8.8849
# 4 8.3112 -1.0453 -8.0639 32.4482 -4.5046 2.5912
# 5 8.4915 2.4744 11.7598 -4.5046 26.7950 -0.2859
# 6 6.3536 2.7560 -8.8849 2.5912 -0.2859 37.6041
#
#
#
# Elastic Compliance Matrix: (Units=1/GPa)
#
#
# Indices 1 2 3 4 5 6 
#
# 1 0.024089 -0.007823 -0.006644 -0.008471 -0.005468 -0.004524
# 2 -0.007823 0.021160 -0.013267 0.000545 0.006404 -0.003353
# 3 -0.006644 -0.013267 0.032735 0.007323 -0.009706 0.009251
# 4 -0.008471 0.000545 0.007323 0.035518 0.005399 0.000715
# 5 -0.005468 0.006404 -0.009706 0.005399 0.043609 -0.001879
# 6 -0.004524 -0.003353 0.009251 0.000715 -0.001879 0.029725
#
#
# Mechanical properties :
#
#
# Convention : Reuss Voigt Hill
#
# Bulk Modulus (GPa) = 44.41787 51.79412 48.10599
# Shear Modulus (GPa) = 20.01520 26.37887 23.19704
#
# Velocity S-wave (km/s) = 3.20469 3.67904 3.45003
# Velocity P-wave (km/s) = 6.04027 6.68007 6.36821
#
# Compressibility (1/GPa) = 0.02251346
#
# Stress axis : x y z
#
# Youngs Moduli (GPa) = 41.51329 47.25939 30.54843
#
# Poissons Ratio (x) = 0.36972 0.20297
# Poissons Ratio (y) = 0.32477 0.40530
# Poissons Ratio (z) = 0.27583 0.62701
#
# Static dielectric constant tensor:
#      x y z
#    x 3.568540 0.157770 0.345040 
#    y 0.157770 3.498580 -0.187260 
#    z 0.345040 -0.187260 3.564400 
# 
# 
# High freq. dielectric constant tensor:
#      x y z
#    x 1.753490 0.014390 0.027590 
#    y 0.014390 1.751930 -0.018890 
#    z 0.027590 -0.018890 1.749880 
# 
# From -- ./inp_files/217609.got.cif
#   From: 2010.06.25/outbox.cif.g09.slc.cpg/sg2_109_cif.got.tgz:217609.got - 2010.06.27 13:26:56.
