data_PCOD8004909
_publ_section_title
;
Structure prediction by ZEFSAII (Michael W. Deem and Ramdas Pophale) SiO2 
 PCOD8004909
Probable space group: P -1
;
_chemical_formula_sum "Si O2"
_cell_formula_units_Z 16
_cell_length_a 9.503760
_cell_length_b 23.765392
_cell_length_c 5.027581
_cell_angle_alpha 124.459058
_cell_angle_beta 57.102788
_cell_angle_gamma 109.752062
_cell_volume 785.375033
_symmetry_space_group_name_H-M "P -1"
_symmetry_group_IT_number 2
_symmetry_cell_setting 'triclinic'
loop_
_space_group_symop_operation_xyz
x,y,z
-x,-y,-z
loop_
_atom_site_type_symbol
_atom_site_label
_atom_site_fract_x
_atom_site_fract_y
_atom_site_fract_z
Si Si1 0.255574 0.892092 0.756441
Si Si2 0.842841 0.964248 0.704719
Si Si3 0.550796 0.430602 0.124039
Si Si4 0.623054 0.848728 0.355207
Si Si5 0.738761 0.771892 0.522027
Si Si6 0.632749 0.618817 0.348503
Si Si7 0.118698 0.496508 0.117443
Si Si8 0.950017 0.143926 0.616058
O O1 0.431254 0.867103 0.602586
O O2 0.199939 0.857010 0.442683
O O3 0.119290 0.866717 0.044912
O O4 0.268724 0.974276 0.912234
O O5 0.734705 0.916930 0.486094
O O6 0.917228 0.916563 0.734400
O O7 0.000000 0.000000 0.500000
O O8 0.500000 0.500000 0.500000
O O9 0.503355 0.374479 0.252165
O O10 0.448661 0.416549 0.921994
O O11 0.747394 0.438275 0.864498
O O12 0.647876 0.789882 0.389134
O O13 0.667951 0.820595 0.948193
O O14 0.705842 0.693242 0.405608
O O15 0.940665 0.784880 0.322891
O O16 0.785528 0.574077 0.168367
O O17 0.000000 0.500000 0.500000
O O18 0.000000 0.500000 0.000000
#
# Coordination Sequence:
#
# PCOD8004909 Si02
#       8
#     2   2   2   2   2   2   2   2
#     4  11  21  37  58  86 114 146 192 253 305 333
#     4   9  19  36  59  85 111 150 195 240 299 357
#     4  10  20  38  63  89 117 152 189 228 280 336
#     4  11  23  38  59  85 116 149 196 252 286 333
#     4  11  23  42  59  81 114 162 200 224 278 356
#     4  11  22  40  63  84 117 161 194 224 279 357
#     4  11  21  37  61  93 122 142 182 243 288 321
#     4  10  21  38  59  81 117 154 190 236 291 357
#
# _framework density 20.372432
#
# number of rings (size 3 to 8) (size 9 to 14) (size 15 to 20)
#    0.000    1.500    0.000    8.250    0.000    3.000 
#    0.000   13.750    0.000    0.000    0.000    0.000 
#    0.000    0.000    0.000    0.000    0.000    0.000 
#
# Total GULP energy -198332.495871 kJ/mol
# GULP energy per Si atom -12395.780992 kJ/mol
# Density = 2.032606 g / cm^3
# Si number density = 20.372432 Si / 1000 Ang^3
#
#
#
# Elastic Constant Matrix: (Units=GPa)
#
#
# Indices 1 2 3 4 5 6 
#
# 1 112.0536 43.7748 24.8162 -1.8543 -1.3443 14.1529
# 2 43.7748 142.5019 29.6028 -11.1120 -10.3577 12.8362
# 3 24.8162 29.6028 63.3910 -21.1831 0.5610 6.9971
# 4 -1.8543 -11.1120 -21.1831 30.6668 -3.9709 5.4799
# 5 -1.3443 -10.3577 0.5610 -3.9709 31.5649 -6.4559
# 6 14.1529 12.8362 6.9971 5.4799 -6.4559 26.9039
#
#
#
# Elastic Compliance Matrix: (Units=1/GPa)
#
#
# Indices 1 2 3 4 5 6 
#
# 1 0.011120 -0.002648 -0.003449 -0.002207 -0.001340 -0.003561
# 2 -0.002648 0.008833 -0.002110 0.002305 0.002684 -0.002098
# 3 -0.003449 -0.002110 0.024705 0.017315 -0.000587 -0.007272
# 4 -0.002207 0.002305 0.017315 0.048135 0.003677 -0.013364
# 5 -0.001340 0.002684 -0.000587 0.003677 0.034427 0.007089
# 6 -0.003561 -0.002098 -0.007272 -0.013364 0.007089 0.046358
#
#
# Mechanical properties :
#
#
# Convention : Reuss Voigt Hill
#
# Bulk Modulus (GPa) = 35.40671 57.14825 46.27748
# Shear Modulus (GPa) = 25.07438 32.47731 28.77584
#
# Velocity S-wave (km/s) = 3.51208 3.99705 3.76239
# Velocity P-wave (km/s) = 5.81926 7.02955 6.45284
#
# Compressibility (1/GPa) = 0.02824323
#
# Stress axis : x y z
#
# Youngs Moduli (GPa) = 89.92923 113.21060 40.47830
#
# Poissons Ratio (x) = 0.29979 0.13961
# Poissons Ratio (y) = 0.23814 0.08541
# Poissons Ratio (z) = 0.31017 0.23888
#
# Static dielectric constant tensor:
#      x y z
#    x 3.784090 0.034100 0.024240 
#    y 0.034100 4.238520 -0.280080 
#    z 0.024240 -0.280080 3.715770 
# 
# 
# High freq. dielectric constant tensor:
#      x y z
#    x 1.806550 0.005000 0.011700 
#    y 0.005000 1.805100 -0.021350 
#    z 0.011700 -0.021350 1.778870 
# 
# From -- ./inp_files/56572.got.cif
#   From: 2010.06.25/outbox.cif.g09.slc.cpg/sg2_29_cif.got.tgz:56572.got - 2010.06.27 13:26:56.
