data_PCOD8004577
_publ_section_title
;
Structure prediction by ZEFSAII (Michael W. Deem and Ramdas Pophale) SiO2 
 PCOD8004577
Probable space group: P -1
;
_chemical_formula_sum "Si O2"
_cell_formula_units_Z 16
_cell_length_a 11.621856
_cell_length_b 9.224076
_cell_length_c 22.745832
_cell_angle_alpha 36.438839
_cell_angle_beta 149.611667
_cell_angle_gamma 137.633091
_cell_volume 724.419678
_symmetry_space_group_name_H-M "P -1"
_symmetry_group_IT_number 2
_symmetry_cell_setting 'triclinic'
loop_
_space_group_symop_operation_xyz
x,y,z
-x,-y,-z
loop_
_atom_site_type_symbol
_atom_site_label
_atom_site_fract_x
_atom_site_fract_y
_atom_site_fract_z
Si Si1 0.016019 0.400245 0.865167
Si Si2 0.521473 0.247610 0.309304
Si Si3 0.651717 0.949781 0.822277
Si Si4 0.747574 0.146355 0.237100
Si Si5 0.752363 0.750269 0.209410
Si Si6 0.842429 0.491656 0.876309
Si Si7 0.392496 0.997425 0.038376
Si Si8 0.953136 0.204069 0.572648
O O1 0.087182 0.589240 0.780339
O O2 0.971248 0.573809 0.845198
O O3 0.215945 0.245430 0.022156
O O4 0.785105 0.225474 0.799766
O O5 0.368646 0.088364 0.244871
O O6 0.699363 0.454690 0.285747
O O7 0.361270 0.351780 0.252864
O O8 0.690536 0.102287 0.470698
O O9 0.389668 0.911733 0.743669
O O10 0.566332 0.179309 0.094671
O O11 0.878599 0.911115 0.360529
O O12 0.979207 0.871146 0.306483
O O13 0.518664 0.835130 0.102413
O O14 0.778657 0.845204 0.122903
O O15 0.756402 0.200251 0.920178
O O16 0.000000 0.500000 0.000000
O O17 0.000000 0.500000 0.500000
#
# Coordination Sequence:
#
# PCOD8004577 Si02
#       8
#     2   2   2   2   2   2   2   2
#     4  11  24  40  62  97 128 163 209 262 323 372
#     4  10  20  38  60  87 125 168 209 255 316 371
#     4  11  23  41  62  93 130 167 205 262 316 383
#     4  11  22  40  66  90 128 171 209 255 317 380
#     4   8  16  30  56  87 115 147 206 256 299 366
#     4  11  21  36  61  91 126 162 203 268 321 367
#     4   9  17  31  57  88 115 153 199 252 314 359
#     4   9  20  37  63  91 122 165 217 261 306 372
#
# _framework density 22.086645000000001
#
# number of rings (size 3 to 8) (size 9 to 14) (size 15 to 20)
#    0.000    2.000    2.500    1.875    5.250    0.500 
#    0.000    1.250    0.000    0.000    0.000    0.000 
#    0.000    0.000    0.000    0.000    0.000    0.000 
#
# Total GULP energy -198259.290552 kJ/mol
# GULP energy per Si atom -12391.205659 kJ/mol
# Density = 2.203638 g / cm^3
# Si number density = 22.086645 Si / 1000 Ang^3
#
#
#
# Elastic Constant Matrix: (Units=GPa)
#
#
# Indices 1 2 3 4 5 6 
#
# 1 69.5312 33.3835 21.2028 -4.9282 18.7831 3.9781
# 2 33.3835 98.2116 22.9344 1.9101 4.4293 2.8705
# 3 21.2028 22.9344 103.2002 12.3079 9.5440 -4.0606
# 4 -4.9282 1.9101 12.3079 27.8495 -5.3030 0.1842
# 5 18.7831 4.4293 9.5440 -5.3030 23.9913 -0.5252
# 6 3.9781 2.8705 -4.0606 0.1842 -0.5252 27.5877
#
#
#
# Elastic Compliance Matrix: (Units=1/GPa)
#
#
# Indices 1 2 3 4 5 6 
#
# 1 0.022609 -0.006433 -0.002252 0.002580 -0.015118 -0.003227
# 2 -0.006433 0.012658 -0.001741 -0.000616 0.003243 -0.000580
# 3 -0.002252 -0.001741 0.011729 -0.006222 -0.003909 0.002199
# 4 0.002580 -0.000616 -0.006222 0.040993 0.009601 -0.001315
# 5 -0.015118 0.003243 -0.003909 0.009601 0.056646 0.002282
# 6 -0.003227 -0.000580 0.002199 -0.001315 0.002282 0.037150
#
#
# Mechanical properties :
#
#
# Convention : Reuss Voigt Hill
#
# Bulk Modulus (GPa) = 38.24877 47.33159 42.79018
# Shear Modulus (GPa) = 23.65737 28.78053 26.21895
#
# Velocity S-wave (km/s) = 3.27634 3.61373 3.44916
# Velocity P-wave (km/s) = 5.62741 6.23607 5.93954
#
# Compressibility (1/GPa) = 0.02614463
#
# Stress axis : x y z
#
# Youngs Moduli (GPa) = 44.23045 79.00170 85.25571
#
# Poissons Ratio (x) = 0.50824 0.19200
# Poissons Ratio (y) = 0.28454 0.14839
# Poissons Ratio (z) = 0.09961 0.13751
#
# Static dielectric constant tensor:
#      x y z
#    x 3.942550 0.064090 0.004810 
#    y 0.064090 4.068380 0.126780 
#    z 0.004810 0.126780 4.144760 
# 
# 
# High freq. dielectric constant tensor:
#      x y z
#    x 1.849440 -0.006920 0.005730 
#    y -0.006920 1.866710 0.006380 
#    z 0.005730 0.006380 1.851280 
# 
# From -- ./inp_files/609776.got.cif
#   From: 2010.06.25/outbox.cif.g09.slc.cpg/sg2_305_cif.got.tgz:609776.got - 2010.06.27 13:26:56.
