data_PCOD8004883
_publ_section_title
;
Structure prediction by ZEFSAII (Michael W. Deem and Ramdas Pophale) SiO2 
 PCOD8004883
Probable space group: P -1
;
_chemical_formula_sum "Si O2"
_cell_formula_units_Z 14
_cell_length_a 7.571459
_cell_length_b 14.617521
_cell_length_c 20.136811
_cell_angle_alpha 18.814060
_cell_angle_beta 80.723396
_cell_angle_gamma 89.781704
_cell_volume 627.071828
_symmetry_space_group_name_H-M "P -1"
_symmetry_group_IT_number 2
_symmetry_cell_setting 'triclinic'
loop_
_space_group_symop_operation_xyz
x,y,z
-x,-y,-z
loop_
_atom_site_type_symbol
_atom_site_label
_atom_site_fract_x
_atom_site_fract_y
_atom_site_fract_z
Si Si1 0.621237 0.638368 0.249764
Si Si2 0.057527 0.751692 0.964563
Si Si3 0.378831 0.657313 0.775003
Si Si4 0.688432 0.500135 0.806254
Si Si5 0.378069 0.909441 0.154931
Si Si6 0.698730 0.972527 0.371444
Si Si7 0.258972 0.368232 0.616006
O O1 0.436867 0.701467 0.243109
O O2 0.520458 0.284931 0.466512
O O3 0.779191 0.667022 0.277980
O O4 0.734175 0.911803 0.998548
O O5 0.140041 0.889724 0.791795
O O6 0.119844 0.038635 0.815224
O O7 0.131173 0.501259 0.160352
O O8 0.816791 0.562986 0.105443
O O9 0.526114 0.495272 0.873698
O O10 0.500000 0.000000 0.500000
O O11 0.320184 0.721397 0.808351
O O12 0.768212 0.802544 0.542375
O O13 0.584315 0.170088 0.997925
O O14 0.219426 0.656322 0.391339
O O15 0.500000 0.500000 0.500000
#
# Coordination Sequence:
#
# PCOD8004883 Si02
#       7
#     2   2   2   2   2   2   2
#     4   9  15  27  54  88 110 147 190 233 290 346
#     4  12  21  38  67  88 114 164 200 239 300 351
#     4  10  25  43  58  88 124 155 202 251 290 348
#     4  10  21  39  63  88 120 158 194 244 302 348
#     4   9  15  28  54  85 114 148 185 233 293 346
#     4  10  20  37  61  90 118 155 203 243 289 355
#     4  10  16  29  54  90 113 141 194 237 285 351
#
# _framework density 22.325993
#
# number of rings (size 3 to 8) (size 9 to 14) (size 15 to 20)
#    0.000    2.000    5.714    0.429    0.000    2.857 
#    0.000    3.571    0.000    7.714    0.000    0.000 
#    0.000    0.000    0.000    0.000    0.000    0.000 
#
# Total GULP energy -173481.588118 kJ/mol
# GULP energy per Si atom -12391.542008 kJ/mol
# Density = 2.227518 g / cm^3
# Si number density = 22.325993 Si / 1000 Ang^3
#
#
#
# Elastic Constant Matrix: (Units=GPa)
#
#
# Indices 1 2 3 4 5 6 
#
# 1 40.2295 14.6319 27.5428 6.2734 -5.3591 6.4961
# 2 14.6319 88.8883 50.4146 5.7081 2.4308 23.5701
# 3 27.5428 50.4146 100.1331 13.0737 -0.2401 21.0512
# 4 6.2734 5.7081 13.0737 50.6794 12.1150 5.4006
# 5 -5.3591 2.4308 -0.2401 12.1150 20.2414 -2.7479
# 6 6.4961 23.5701 21.0512 5.4006 -2.7479 16.9205
#
#
#
# Elastic Compliance Matrix: (Units=1/GPa)
#
#
# Indices 1 2 3 4 5 6 
#
# 1 0.033016 -0.001719 -0.008293 -0.005113 0.012410 0.003684
# 2 -0.001719 0.021217 -0.005564 0.003994 -0.008810 -0.024679
# 3 -0.008293 -0.005564 0.017487 -0.001220 -0.002051 -0.010765
# 4 -0.005113 0.003994 -0.001220 0.026337 -0.019465 -0.013650
# 5 0.012410 -0.008810 -0.002051 -0.019465 0.069106 0.027495
# 6 0.003684 -0.024679 -0.010765 -0.013650 0.027495 0.114278
#
#
# Mechanical properties :
#
#
# Convention : Reuss Voigt Hill
#
# Bulk Modulus (GPa) = 24.65015 46.04771 35.34893
# Shear Modulus (GPa) = 15.33201 26.67904 21.00552
#
# Velocity S-wave (km/s) = 2.62340 3.46059 3.07066
# Velocity P-wave (km/s) = 4.49903 6.05290 5.33286
#
# Compressibility (1/GPa) = 0.04056770
#
# Stress axis : x y z
#
# Youngs Moduli (GPa) = 30.28835 47.13195 57.18665
#
# Poissons Ratio (x) = 0.08102 0.47425
# Poissons Ratio (y) = 0.05207 0.31817
# Poissons Ratio (z) = 0.25118 0.26223
#
# Static dielectric constant tensor:
#      x y z
#    x 3.693400 0.021680 0.437770 
#    y 0.021680 4.870610 0.255100 
#    z 0.437770 0.255100 4.650730 
# 
# 
# High freq. dielectric constant tensor:
#      x y z
#    x 1.827200 0.009190 0.011470 
#    y 0.009190 1.891330 -0.001960 
#    z 0.011470 -0.001960 1.889210 
# 
# From -- ./inp_files/590010.got.cif
#   From: 2010.06.25/outbox.cif.g09.slc.cpg/sg2_296_cif.got.tgz:590010.got - 2010.06.27 13:26:56.
