data_PCOD8004779
_publ_section_title
;
Structure prediction by ZEFSAII (Michael W. Deem and Ramdas Pophale) SiO2 
 PCOD8004779
Probable space group: P -1
;
_chemical_formula_sum "Si O2"
_cell_formula_units_Z 16
_cell_length_a 14.071567
_cell_length_b 13.245027
_cell_length_c 8.754322
_cell_angle_alpha 88.250580
_cell_angle_beta 124.741141
_cell_angle_gamma 48.162760
_cell_volume 740.898218
_symmetry_space_group_name_H-M "P -1"
_symmetry_group_IT_number 2
_symmetry_cell_setting 'triclinic'
loop_
_space_group_symop_operation_xyz
x,y,z
-x,-y,-z
loop_
_atom_site_type_symbol
_atom_site_label
_atom_site_fract_x
_atom_site_fract_y
_atom_site_fract_z
Si Si1 0.030400 0.755439 0.319587
Si Si2 0.285920 0.855474 0.891658
Si Si3 0.623374 0.352801 0.251936
Si Si4 0.974814 0.561188 0.720531
Si Si5 0.238270 0.424304 0.691821
Si Si6 0.007301 0.354383 0.976495
Si Si7 0.617242 0.540230 0.701567
Si Si8 0.217948 0.799007 0.144468
O O1 0.237876 0.676360 0.508765
O O2 0.078842 0.622232 0.468732
O O3 0.951222 0.779151 0.076099
O O4 0.843852 0.947936 0.224430
O O5 0.225999 0.839360 0.681850
O O6 0.528464 0.707815 0.108864
O O7 0.237364 0.813483 0.984873
O O8 0.448835 0.420589 0.184805
O O9 0.500000 0.500000 0.000000
O O10 0.794249 0.654605 0.434629
O O11 0.060235 0.409963 0.915096
O O12 0.172791 0.455650 0.806798
O O13 0.883222 0.712821 0.750886
O O14 0.761718 0.530642 0.793872
O O15 0.410525 0.712665 0.407361
O O16 0.753878 0.340764 0.795441
O O17 0.000000 0.000000 0.000000
#
# Coordination Sequence:
#
# PCOD8004779 Si02
#       8
#     2   2   2   2   2   2   2   2
#     4  11  23  39  59  91 126 160 200 248 294 366
#     4  12  23  39  62  90 125 162 200 245 301 360
#     4  12  22  39  60  90 125 164 200 242 293 358
#     4   9  20  38  65  90 114 156 204 262 304 354
#     4  10  20  41  66  89 119 157 204 250 311 352
#     4  10  20  38  62  88 119 156 206 251 306 354
#     4  11  21  37  59  85 119 158 196 240 295 361
#     4  11  22  36  58  88 122 158 194 237 294 360
#
# _framework density 21.595407000000002
#
# number of rings (size 3 to 8) (size 9 to 14) (size 15 to 20)
#    0.000    1.250    2.500    5.625    0.000    0.000 
#    0.000    7.500    0.000    3.000    0.000    0.000 
#    0.000    0.000    0.000    0.000    0.000    0.000 
#
# Total GULP energy -198220.246681 kJ/mol
# GULP energy per Si atom -12388.765418 kJ/mol
# Density = 2.154626 g / cm^3
# Si number density = 21.595407 Si / 1000 Ang^3
#
#
#
# Elastic Constant Matrix: (Units=GPa)
#
#
# Indices 1 2 3 4 5 6 
#
# 1 102.6541 39.5053 17.2134 3.0484 5.9161 -18.8798
# 2 39.5053 163.2573 45.6413 18.1977 -2.0986 -8.0803
# 3 17.2134 45.6413 51.5826 0.2530 -5.4941 5.8255
# 4 3.0484 18.1977 0.2530 43.6764 1.1639 -0.0860
# 5 5.9161 -2.0986 -5.4941 1.1639 19.1470 8.2814
# 6 -18.8798 -8.0803 5.8255 -0.0860 8.2814 32.9110
#
#
#
# Elastic Compliance Matrix: (Units=1/GPa)
#
#
# Indices 1 2 3 4 5 6 
#
# 1 0.014041 -0.001250 -0.006095 -0.000101 -0.011262 0.011660
# 2 -0.001250 0.009378 -0.008536 -0.003699 -0.002408 0.003693
# 3 -0.006095 -0.008536 0.032506 0.003315 0.016806 -0.015567
# 4 -0.000101 -0.003699 0.003315 0.024430 -0.000296 -0.001415
# 5 -0.011262 -0.002408 0.016806 -0.000296 0.072513 -0.028274
# 6 0.011660 0.003693 -0.015567 -0.001415 -0.028274 0.047847
#
#
# Mechanical properties :
#
#
# Convention : Reuss Voigt Hill
#
# Bulk Modulus (GPa) = 41.38848 58.02378 49.70613
# Shear Modulus (GPa) = 20.78721 33.48914 27.13818
#
# Velocity S-wave (km/s) = 3.10591 3.94223 3.54879
# Velocity P-wave (km/s) = 5.66297 6.90279 6.31339
#
# Compressibility (1/GPa) = 0.02416131
#
# Stress axis : x y z
#
# Youngs Moduli (GPa) = 71.21897 106.62727 30.76400
#
# Poissons Ratio (x) = 0.13329 0.18752
# Poissons Ratio (y) = 0.08903 0.26262
# Poissons Ratio (z) = 0.43411 0.91022
#
# Static dielectric constant tensor:
#      x y z
#    x 4.060410 0.003580 0.112100 
#    y 0.003580 4.452880 0.459200 
#    z 0.112100 0.459200 3.781130 
# 
# 
# High freq. dielectric constant tensor:
#      x y z
#    x 1.861770 -0.016490 0.007790 
#    y -0.016490 1.855810 0.034810 
#    z 0.007790 0.034810 1.818410 
# 
# From -- ./inp_files/273719.got.cif
#   From: 2010.06.25/outbox.cif.g09.slc.cpg/sg2_137_cif.got.tgz:273719.got - 2010.06.27 13:26:56.
