data_PCOD8004292
_publ_section_title
;
Structure prediction by ZEFSAII (Michael W. Deem and Ramdas Pophale) SiO2 
 PCOD8004292
Probable space group: P -1
;
_chemical_formula_sum "Si O2"
_cell_formula_units_Z 12
_cell_length_a 9.767670
_cell_length_b 17.533276
_cell_length_c 13.672754
_cell_angle_alpha 154.782535
_cell_angle_beta 44.397974
_cell_angle_gamma 146.693303
_cell_volume 539.098391
_symmetry_space_group_name_H-M "P -1"
_symmetry_group_IT_number 2
_symmetry_cell_setting 'triclinic'
loop_
_space_group_symop_operation_xyz
x,y,z
-x,-y,-z
loop_
_atom_site_type_symbol
_atom_site_label
_atom_site_fract_x
_atom_site_fract_y
_atom_site_fract_z
Si Si1 0.602830 0.977188 0.570021
Si Si2 0.374208 0.609565 0.660735
Si Si3 0.745100 0.631607 0.747571
Si Si4 0.367041 0.390467 0.839265
Si Si5 0.311456 0.022929 0.929963
Si Si6 0.154610 0.631639 0.247620
O O1 0.747941 0.877371 0.410653
O O2 0.371908 0.800028 0.409964
O O3 0.493401 0.000141 0.750055
O O4 0.805483 0.224380 0.702151
O O5 0.500000 0.500000 0.500000
O O6 0.329042 0.576501 0.528513
O O7 0.110748 0.472699 0.692511
O O8 0.562854 0.877347 0.910690
O O9 0.577900 0.527293 0.807413
O O10 0.708135 0.799938 0.909980
O O11 0.036813 0.775660 0.797692
O O12 0.500000 0.500000 0.000000
O O13 0.156668 0.423614 0.971517
#
# Coordination Sequence:
#
# PCOD8004292 Si02
#       6
#     2   2   2   2   2   2
#     4  10  20  37  67  93 119 169 210 248 316 370
#     4  10  22  38  66  94 122 166 210 253 314 371
#     4  10  20  40  64  89 128 162 205 262 307 365
#     4  10  22  38  66  94 122 166 210 253 314 371
#     4  10  20  37  67  93 119 169 210 248 316 370
#     4  10  20  40  64  89 128 162 205 262 307 365
#
# _framework density 22.259387
#
# number of rings (size 3 to 8) (size 9 to 14) (size 15 to 20)
#    0.000    2.000    3.333    0.000    0.000    1.333 
#    0.000    1.667    0.000    0.000    0.000    0.000 
#    0.000    0.000    0.000    0.000    0.000    0.000 
#
# Total GULP energy -148753.082486 kJ/mol
# GULP energy per Si atom -12396.090207 kJ/mol
# Density = 2.220872 g / cm^3
# Si number density = 22.259387 Si / 1000 Ang^3
#
#
#
# Elastic Constant Matrix: (Units=GPa)
#
#
# Indices 1 2 3 4 5 6 
#
# 1 65.7054 54.4925 52.6680 -4.7524 -0.2407 3.7385
# 2 54.4925 114.7010 45.3789 -40.2606 -3.7538 0.4652
# 3 52.6680 45.3789 142.3844 -27.0053 -2.5283 -1.2792
# 4 -4.7524 -40.2606 -27.0053 37.4028 -0.0527 -3.2565
# 5 -0.2407 -3.7538 -2.5283 -0.0527 34.1760 -4.0297
# 6 3.7385 0.4652 -1.2792 -3.2565 -4.0297 23.5401
#
#
#
# Elastic Compliance Matrix: (Units=1/GPa)
#
#
# Indices 1 2 3 4 5 6 
#
# 1 0.060287 -0.038363 -0.019751 -0.049473 -0.007450 -0.018009
# 2 -0.038363 0.039020 0.010722 0.046043 0.006457 0.013379
# 3 -0.019751 0.010722 0.014900 0.020410 0.003006 0.007073
# 4 -0.049473 0.046043 0.020410 0.086637 0.008895 0.021564
# 5 -0.007450 0.006457 0.003006 0.008895 0.031069 0.007768
# 6 -0.018009 0.013379 0.007073 0.021564 0.007768 0.049774
#
#
# Mechanical properties :
#
#
# Convention : Reuss Voigt Hill
#
# Bulk Modulus (GPa) = 51.48591 69.76328 60.62460
# Shear Modulus (GPa) = 13.05670 30.37386 21.71528
#
# Velocity S-wave (km/s) = 2.42455 3.69798 3.12678
# Velocity P-wave (km/s) = 5.56939 7.04574 6.35061
#
# Compressibility (1/GPa) = 0.01942279
#
# Stress axis : x y z
#
# Youngs Moduli (GPa) = 16.58737 25.62757 67.11490
#
# Poissons Ratio (x) = 0.98316 1.32558
# Poissons Ratio (y) = 0.63635 -0.71962
# Poissons Ratio (z) = 0.32762 -0.27478
#
# Static dielectric constant tensor:
#      x y z
#    x 4.185280 -0.015180 0.016790 
#    y -0.015180 4.025900 0.022010 
#    z 0.016790 0.022010 4.931440 
# 
# 
# High freq. dielectric constant tensor:
#      x y z
#    x 1.864800 -0.000430 -0.001530 
#    y -0.000430 1.864300 -0.019200 
#    z -0.001530 -0.019200 1.896020 
# 
# From -- ./inp_files/150370.got.cif
#   From: 2010.06.25/outbox.cif.g09.slc.cpg/sg2_76_cif.got.tgz:150370.got - 2010.06.27 13:26:56.
