data_PCOD8004260
_publ_section_title
;
Structure prediction by ZEFSAII (Michael W. Deem and Ramdas Pophale) SiO2 
 PCOD8004260
Probable space group: P -1
;
_chemical_formula_sum "Si O2"
_cell_formula_units_Z 16
_cell_length_a 9.072029
_cell_length_b 11.857199
_cell_length_c 9.761761
_cell_angle_alpha 118.265709
_cell_angle_beta 95.586522
_cell_angle_gamma 58.544804
_cell_volume 773.110728
_symmetry_space_group_name_H-M "P -1"
_symmetry_group_IT_number 2
_symmetry_cell_setting 'triclinic'
loop_
_space_group_symop_operation_xyz
x,y,z
-x,-y,-z
loop_
_atom_site_type_symbol
_atom_site_label
_atom_site_fract_x
_atom_site_fract_y
_atom_site_fract_z
Si Si1 0.176607 0.334270 0.927050
Si Si2 0.076323 0.319796 0.406758
Si Si3 0.918253 0.823633 0.395787
Si Si4 0.639219 0.826792 0.877548
Si Si5 0.473884 0.691796 0.634289
Si Si6 0.257585 0.824874 0.431017
Si Si7 0.426783 0.414297 0.861333
Si Si8 0.723853 0.441468 0.337148
O O1 0.153606 0.217727 0.766758
O O2 0.342021 0.344930 0.907662
O O3 0.218947 0.267149 0.045125
O O4 0.000000 0.500000 0.000000
O O5 0.109599 0.262006 0.531846
O O6 0.249251 0.203274 0.268352
O O7 0.000000 0.500000 0.500000
O O8 0.918557 0.307081 0.321546
O O9 0.120956 0.771831 0.365823
O O10 0.812888 0.003160 0.518036
O O11 0.504820 0.775214 0.807116
O O12 0.500000 0.000000 0.000000
O O13 0.313961 0.803819 0.583122
O O14 0.656901 0.596592 0.508247
O O15 0.427704 0.587881 0.656462
O O16 0.418077 0.723496 0.287885
O O17 0.276365 0.532443 0.810076
O O18 0.500000 0.500000 0.000000
#
# Coordination Sequence:
#
# PCOD8004260 Si02
#       8
#     2   2   2   2   2   2   2   2
#     4  12  26  43  67  98 138 179 223 280 337 404
#     4  12  23  42  69  98 127 176 229 271 326 407
#     4  11  24  43  68  96 133 175 227 270 338 400
#     4  12  27  43  64  98 141 173 215 281 344 394
#     4  10  20  40  65  93 130 165 221 268 331 381
#     4  10  23  42  67  96 130 176 221 281 326 403
#     4  11  23  39  65  97 133 173 221 272 340 394
#     4  10  20  37  66  95 118 169 225 271 310 394
#
# _framework density 20.695613999999999
#
# number of rings (size 3 to 8) (size 9 to 14) (size 15 to 20)
#    0.000    1.000    2.500    4.500    3.500    0.500 
#    0.000    0.625    0.000    0.000    0.000    0.000 
#    0.000    0.000    0.000    0.000    0.000    0.000 
#
# Total GULP energy -198363.404945 kJ/mol
# GULP energy per Si atom -12397.712809 kJ/mol
# Density = 2.064851 g / cm^3
# Si number density = 20.695614 Si / 1000 Ang^3
#
#
#
# Elastic Constant Matrix: (Units=GPa)
#
#
# Indices 1 2 3 4 5 6 
#
# 1 95.5832 21.1414 45.8547 7.0932 5.3353 -3.2403
# 2 21.1414 87.7293 31.1619 -1.7893 -0.0751 -0.2451
# 3 45.8547 31.1619 109.6389 2.4314 18.3212 3.3121
# 4 7.0932 -1.7893 2.4314 36.1906 -5.2507 -1.6876
# 5 5.3353 -0.0751 18.3212 -5.2507 41.0623 -3.3142
# 6 -3.2403 -0.2451 3.3121 -1.6876 -3.3142 34.9764
#
#
#
# Elastic Compliance Matrix: (Units=1/GPa)
#
#
# Indices 1 2 3 4 5 6 
#
# 1 0.013530 -0.001403 -0.005341 -0.002215 0.000476 0.001688
# 2 -0.001403 0.013011 -0.003494 0.001469 0.001998 0.000552
# 3 -0.005341 -0.003494 0.013374 -0.000946 -0.005591 -0.002361
# 4 -0.002215 0.001469 -0.000946 0.028943 0.004552 0.001723
# 5 0.000476 0.001998 -0.005591 0.004552 0.027649 0.003427
# 6 0.001688 0.000552 -0.002361 0.001723 0.003427 0.029382
#
#
# Mechanical properties :
#
#
# Convention : Reuss Voigt Hill
#
# Bulk Modulus (GPa) = 51.44509 54.36305 52.90407
# Shear Modulus (GPa) = 32.71271 35.43208 34.07240
#
# Velocity S-wave (km/s) = 3.98006 4.14219 4.06194
# Velocity P-wave (km/s) = 6.78477 7.01441 6.90055
#
# Compressibility (1/GPa) = 0.01943820
#
# Stress axis : x y z
#
# Youngs Moduli (GPa) = 73.91087 76.85649 74.76927
#
# Poissons Ratio (x) = 0.10786 0.39935
# Poissons Ratio (y) = 0.10372 0.26126
# Poissons Ratio (z) = 0.39477 0.26855
#
# Static dielectric constant tensor:
#      x y z
#    x 3.917140 -0.082070 0.055010 
#    y -0.082070 3.705270 -0.178730 
#    z 0.055010 -0.178730 3.584820 
# 
# 
# High freq. dielectric constant tensor:
#      x y z
#    x 1.827710 -0.003600 0.008460 
#    y -0.003600 1.805520 -0.009570 
#    z 0.008460 -0.009570 1.811250 
# 
# From -- ./inp_files/190172.got.cif
#   From: 2010.06.25/outbox.cif.g09.slc.cpg/sg2_96_cif.got.tgz:190172.got - 2010.06.27 13:26:56.
