data_PCOD8004887
_publ_section_title
;
Structure prediction by ZEFSAII (Michael W. Deem and Ramdas Pophale) SiO2 
 PCOD8004887
Probable space group: P -1
;
_chemical_formula_sum "Si O2"
_cell_formula_units_Z 16
_cell_length_a 17.628997
_cell_length_b 9.557713
_cell_length_c 14.825019
_cell_angle_alpha 74.763418
_cell_angle_beta 152.926931
_cell_angle_gamma 121.793208
_cell_volume 817.373043
_symmetry_space_group_name_H-M "P -1"
_symmetry_group_IT_number 2
_symmetry_cell_setting 'triclinic'
loop_
_space_group_symop_operation_xyz
x,y,z
-x,-y,-z
loop_
_atom_site_type_symbol
_atom_site_label
_atom_site_fract_x
_atom_site_fract_y
_atom_site_fract_z
Si Si1 0.349109 0.754138 0.603056
Si Si2 0.746340 0.613259 0.426895
Si Si3 0.575535 0.629933 0.419719
Si Si4 0.708377 0.227432 0.667409
Si Si5 0.248645 0.114116 0.715822
Si Si6 0.734888 0.047456 0.068591
Si Si7 0.202828 0.431035 0.193026
Si Si8 0.628600 0.955353 0.323380
O O1 0.255241 0.551634 0.582428
O O2 0.284777 0.717870 0.437270
O O3 0.619508 0.912674 0.879061
O O4 0.245635 0.833205 0.533186
O O5 0.594479 0.536772 0.368579
O O6 0.646826 0.668017 0.237822
O O7 0.001105 0.803731 0.688970
O O8 0.322380 0.476791 0.215275
O O9 0.745139 0.674013 0.669064
O O10 0.642330 0.831251 0.428751
O O11 0.692839 0.360074 0.691126
O O12 0.500000 0.000000 0.500000
O O13 0.937608 0.278419 0.925132
O O14 0.361408 0.101031 0.922645
O O15 0.252012 0.011981 0.649542
O O16 0.000000 0.000000 0.500000
O O17 0.632947 0.151772 0.954076
#
# Coordination Sequence:
#
# PCOD8004887 Si02
#       8
#     2   2   2   2   2   2   2   2
#     4  10  22  36  58  91 113 151 205 237 293 352
#     4  10  20  38  63  85 121 155 198 245 298 349
#     4  10  20  39  60  88 116 162 193 246 302 346
#     4  11  23  39  62  88 117 158 202 249 294 351
#     4   9  18  38  62  88 116 160 191 239 306 348
#     4   9  21  36  65  83 120 156 196 244 294 352
#     4  10  23  39  62  82 122 157 203 242 297 358
#     4   9  20  36  63  83 121 152 198 237 293 354
#
# _framework density 19.574904
#
# number of rings (size 3 to 8) (size 9 to 14) (size 15 to 20)
#    0.750    1.500    1.250    1.125    3.500    0.500 
#    0.000   13.125    0.000    0.000    0.000    0.000 
#    0.000    0.000    0.000    0.000    0.000    0.000 
#
# Total GULP energy -198228.564009 kJ/mol
# GULP energy per Si atom -12389.285251 kJ/mol
# Density = 1.953035 g / cm^3
# Si number density = 19.574904 Si / 1000 Ang^3
#
#
#
# Elastic Constant Matrix: (Units=GPa)
#
#
# Indices 1 2 3 4 5 6 
#
# 1 96.5997 33.8976 21.8923 -11.7782 8.3764 0.6696
# 2 33.8976 126.0585 34.1192 -13.1725 -4.0206 -8.8519
# 3 21.8923 34.1192 86.0358 -6.5279 3.9322 -2.4911
# 4 -11.7782 -13.1725 -6.5279 29.1863 -1.3017 -2.1376
# 5 8.3764 -4.0206 3.9322 -1.3017 21.5069 -2.8482
# 6 0.6696 -8.8519 -2.4911 -2.1376 -2.8482 21.3235
#
#
#
# Elastic Compliance Matrix: (Units=1/GPa)
#
#
# Indices 1 2 3 4 5 6 
#
# 1 0.012596 -0.002958 -0.001629 0.002986 -0.005274 -0.002219
# 2 -0.002958 0.010442 -0.003196 0.003374 0.004555 0.005001
# 3 -0.001629 -0.003196 0.013477 0.000814 -0.002369 0.000064
# 4 0.002986 0.003374 0.000814 0.037678 0.002326 0.005490
# 5 -0.005274 0.004555 -0.002369 0.002326 0.051148 0.008845
# 6 -0.002219 0.005001 0.000064 0.005490 0.008845 0.050782
#
#
# Mechanical properties :
#
#
# Convention : Reuss Voigt Hill
#
# Bulk Modulus (GPa) = 47.73344 54.27913 51.00629
# Shear Modulus (GPa) = 25.16723 28.98899 27.07811
#
# Velocity S-wave (km/s) = 3.58954 3.85246 3.72332
# Velocity P-wave (km/s) = 6.45118 6.89766 6.67815
#
# Compressibility (1/GPa) = 0.02094967
#
# Stress axis : x y z
#
# Youngs Moduli (GPa) = 79.39032 95.76437 74.20219
#
# Poissons Ratio (x) = 0.28330 0.12084
# Poissons Ratio (y) = 0.23486 0.23713
# Poissons Ratio (z) = 0.12929 0.30604
#
# Static dielectric constant tensor:
#      x y z
#    x 3.675760 0.156470 -0.101840 
#    y 0.156470 4.114660 -0.436880 
#    z -0.101840 -0.436880 3.352290 
# 
# 
# High freq. dielectric constant tensor:
#      x y z
#    x 1.761680 0.002590 -0.002000 
#    y 0.002590 1.776380 -0.029340 
#    z -0.002000 -0.029340 1.735260 
# 
# From -- ./inp_files/537353.got.cif
#   From: 2010.06.25/outbox.cif.g09.slc.cpg/sg2_269_cif.got.tgz:537353.got - 2010.06.27 13:26:56.
