data_PCOD8004729
_publ_section_title
;
Structure prediction by ZEFSAII (Michael W. Deem and Ramdas Pophale) SiO2 
 PCOD8004729
Probable space group: P -1
;
_chemical_formula_sum "Si O2"
_cell_formula_units_Z 16
_cell_length_a 23.329231
_cell_length_b 21.158187
_cell_length_c 9.314777
_cell_angle_alpha 29.355147
_cell_angle_beta 32.386349
_cell_angle_gamma 19.008363
_cell_volume 728.116860
_symmetry_space_group_name_H-M "P -1"
_symmetry_group_IT_number 2
_symmetry_cell_setting 'triclinic'
loop_
_space_group_symop_operation_xyz
x,y,z
-x,-y,-z
loop_
_atom_site_type_symbol
_atom_site_label
_atom_site_fract_x
_atom_site_fract_y
_atom_site_fract_z
Si Si1 0.032335 0.827850 0.333549
Si Si2 0.428819 0.436220 0.211758
Si Si3 0.247721 0.069904 0.433889
Si Si4 0.220949 0.130691 0.693881
Si Si5 0.584056 0.677207 0.813140
Si Si6 0.008827 0.287357 0.091907
Si Si7 0.335084 0.298526 0.118420
Si Si8 0.687160 0.852858 0.132881
O O1 0.238358 0.591588 0.376007
O O2 0.962250 0.870492 0.561276
O O3 0.925933 0.837297 0.435099
O O4 0.000000 0.000000 0.000000
O O5 0.388237 0.474679 0.047419
O O6 0.577064 0.186973 0.422937
O O7 0.500000 0.500000 0.000000
O O8 0.186315 0.182107 0.496028
O O9 0.292410 0.145781 0.084342
O O10 0.276313 0.216799 0.470655
O O11 0.376614 0.879996 0.886302
O O12 0.057893 0.227144 0.938084
O O13 0.677918 0.585935 0.950585
O O14 0.638957 0.750602 0.459054
O O15 0.128535 0.286931 0.904302
O O16 0.801386 0.525125 0.064730
O O17 0.532202 0.097163 0.035389
#
# Coordination Sequence:
#
# PCOD8004729 Si02
#       8
#     2   2   2   2   2   2   2   2
#     4  11  24  44  65  87 115 166 213 261 307 355
#     4  11  23  42  64  86 118 164 211 254 303 355
#     4  10  23  39  67  91 127 158 206 260 308 359
#     4  10  20  38  61  95 131 164 194 248 311 375
#     4  10  21  37  65  92 129 164 204 246 309 368
#     4  11  22  36  65  91 126 164 200 245 317 370
#     4  11  20  36  61  93 135 161 197 244 310 376
#     4  10  20  39  59  98 129 162 198 252 307 369
#
# _framework density 21.974495000000001
#
# number of rings (size 3 to 8) (size 9 to 14) (size 15 to 20)
#    0.000    1.500    3.750    1.875    1.750    5.500 
#    0.000    3.125    0.000    4.500    0.000    0.000 
#    0.000    0.000    0.000    0.000    0.000    0.000 
#
# Total GULP energy -198228.866498 kJ/mol
# GULP energy per Si atom -12389.304156 kJ/mol
# Density = 2.192448 g / cm^3
# Si number density = 21.974495 Si / 1000 Ang^3
#
#
#
# Elastic Constant Matrix: (Units=GPa)
#
#
# Indices 1 2 3 4 5 6 
#
# 1 147.4311 52.2087 35.6863 14.4457 7.5281 5.2232
# 2 52.2087 70.7289 17.5109 9.3746 1.8586 -15.0224
# 3 35.6863 17.5109 56.8410 11.2505 14.0289 10.0880
# 4 14.4457 9.3746 11.2505 22.5942 4.8576 0.5990
# 5 7.5281 1.8586 14.0289 4.8576 35.1301 6.6958
# 6 5.2232 -15.0224 10.0880 0.5990 6.6958 42.0477
#
#
#
# Elastic Compliance Matrix: (Units=1/GPa)
#
#
# Indices 1 2 3 4 5 6 
#
# 1 0.010492 -0.007289 -0.003505 -0.001942 0.000397 -0.003102
# 2 -0.007289 0.023000 -0.003710 -0.003384 0.000389 0.009999
# 3 -0.003505 -0.003710 0.025069 -0.007046 -0.007005 -0.005689
# 4 -0.001942 -0.003384 -0.007046 0.051211 -0.003786 0.000596
# 5 0.000397 0.000389 -0.007005 -0.003786 0.032314 -0.003322
# 6 -0.003102 0.009999 -0.005689 0.000596 -0.003322 0.029625
#
#
# Mechanical properties :
#
#
# Convention : Reuss Voigt Hill
#
# Bulk Modulus (GPa) = 33.83676 53.97923 43.90799
# Shear Modulus (GPa) = 23.74493 31.26073 27.50283
#
# Velocity S-wave (km/s) = 3.29077 3.77582 3.54161
# Velocity P-wave (km/s) = 5.46539 6.60506 6.06207
#
# Compressibility (1/GPa) = 0.02955366
#
# Stress axis : x y z
#
# Youngs Moduli (GPa) = 95.30730 43.47919 39.88913
#
# Poissons Ratio (x) = 0.31693 0.13980
# Poissons Ratio (y) = 0.69471 0.14798
# Poissons Ratio (z) = 0.33403 0.16130
#
# Static dielectric constant tensor:
#      x y z
#    x 4.282360 -0.093230 0.183770 
#    y -0.093230 4.095880 0.290510 
#    z 0.183770 0.290510 3.713500 
# 
# 
# High freq. dielectric constant tensor:
#      x y z
#    x 1.876840 -0.017680 0.019890 
#    y -0.017680 1.863880 0.025940 
#    z 0.019890 0.025940 1.829030 
# 
# From -- ./inp_files/282597.got.cif
#   From: 2010.06.25/outbox.cif.g09.slc.cpg/sg2_142_cif.got.tgz:282597.got - 2010.06.27 13:26:56.
