data_PCOD8004352
_publ_section_title
;
Structure prediction by ZEFSAII (Michael W. Deem and Ramdas Pophale) SiO2 
 PCOD8004352
Probable space group: P -1
;
_chemical_formula_sum "Si O2"
_cell_formula_units_Z 16
_cell_length_a 9.770007
_cell_length_b 16.166745
_cell_length_c 12.161021
_cell_angle_alpha 102.117520
_cell_angle_beta 58.652979
_cell_angle_gamma 53.571905
_cell_volume 865.433510
_symmetry_space_group_name_H-M "P -1"
_symmetry_group_IT_number 2
_symmetry_cell_setting 'triclinic'
loop_
_space_group_symop_operation_xyz
x,y,z
-x,-y,-z
loop_
_atom_site_type_symbol
_atom_site_label
_atom_site_fract_x
_atom_site_fract_y
_atom_site_fract_z
Si Si1 0.824148 0.474120 0.137221
Si Si2 0.344509 0.266320 0.718398
Si Si3 0.721553 0.097433 0.954394
Si Si4 0.429842 0.169414 0.882302
Si Si5 0.400015 0.582284 0.679621
Si Si6 0.633995 0.120420 0.335487
Si Si7 0.255442 0.061249 0.941155
Si Si8 0.336278 0.367691 0.350633
O O1 0.624322 0.646059 0.283276
O O2 0.614606 0.485564 0.241315
O O3 0.995395 0.398881 0.925952
O O4 0.082933 0.352756 0.089703
O O5 0.541345 0.145771 0.706152
O O6 0.457192 0.172605 0.534088
O O7 0.630992 0.129203 0.874231
O O8 0.542646 0.253522 0.128467
O O9 0.069474 0.960704 0.779694
O O10 0.633169 0.049857 0.039820
O O11 0.454424 0.057300 0.857160
O O12 0.500000 0.500000 0.500000
O O13 0.639471 0.543506 0.610124
O O14 0.087802 0.767525 0.847807
O O15 0.429738 0.272326 0.391066
O O16 0.709678 0.000249 0.207993
O O17 0.000000 0.500000 0.500000
#
# Coordination Sequence:
#
# PCOD8004352 Si02
#       8
#     2   2   2   2   2   2   2   2
#     4   8  19  36  56  87 114 145 202 240 278 342
#     4   9  19  36  60  85 114 159 200 233 288 340
#     4  11  21  37  59  83 125 148 187 249 292 347
#     4   9  20  35  59  81 111 157 192 236 281 342
#     4  11  20  36  62  85 116 153 194 239 297 344
#     4  11  21  38  59  81 123 158 184 245 291 349
#     4  10  20  38  53  89 118 148 192 236 302 341
#     4  11  24  37  59  91 117 150 198 237 301 349
#
# _framework density 18.487845
#
# number of rings (size 3 to 8) (size 9 to 14) (size 15 to 20)
#    0.750    1.250    2.500    1.875    5.250    1.000 
#    0.000    0.000    0.000    4.500    0.000    0.000 
#    0.000    0.000    0.000    0.000    0.000    0.000 
#
# Total GULP energy -198341.297495 kJ/mol
# GULP energy per Si atom -12396.331093 kJ/mol
# Density = 1.844577 g / cm^3
# Si number density = 18.487845 Si / 1000 Ang^3
#
#
#
# Elastic Constant Matrix: (Units=GPa)
#
#
# Indices 1 2 3 4 5 6 
#
# 1 122.5743 51.5002 48.1681 -6.0879 4.2054 -0.4902
# 2 51.5002 75.2449 36.8925 -10.4811 4.2582 -1.1565
# 3 48.1681 36.8925 108.7225 -11.8934 16.1967 -5.0057
# 4 -6.0879 -10.4811 -11.8934 28.4621 -7.4026 1.6174
# 5 4.2054 4.2582 16.1967 -7.4026 30.3476 0.4520
# 6 -0.4902 -1.1565 -5.0057 1.6174 0.4520 35.7869
#
#
#
# Elastic Compliance Matrix: (Units=1/GPa)
#
#
# Indices 1 2 3 4 5 6 
#
# 1 0.012334 -0.007006 -0.003349 -0.001106 0.000799 -0.000486
# 2 -0.007006 0.020394 -0.003461 0.004872 0.001147 -0.000156
# 3 -0.003349 -0.003461 0.012963 0.001894 -0.005531 0.001640
# 4 -0.001106 0.004872 0.001894 0.039691 0.008163 -0.001490
# 5 0.000799 0.001147 -0.005531 0.008163 0.037646 -0.001570
# 6 -0.000486 -0.000156 0.001640 -0.001490 -0.001570 0.028248
#
#
# Mechanical properties :
#
#
# Convention : Reuss Voigt Hill
#
# Bulk Modulus (GPa) = 55.38135 64.40705 59.89420
# Shear Modulus (GPa) = 27.03747 30.25137 28.64442
#
# Velocity S-wave (km/s) = 3.82834 4.04949 3.94047
# Velocity P-wave (km/s) = 7.04004 7.53509 7.29177
#
# Compressibility (1/GPa) = 0.01805662
#
# Stress axis : x y z
#
# Youngs Moduli (GPa) = 81.07674 49.03470 77.14424
#
# Poissons Ratio (x) = 0.34356 0.25838
# Poissons Ratio (y) = 0.56805 0.26701
# Poissons Ratio (z) = 0.27155 0.16972
#
# Static dielectric constant tensor:
#      x y z
#    x 3.326880 0.192420 0.126890 
#    y 0.192420 3.364420 -0.069320 
#    z 0.126890 -0.069320 3.353920 
# 
# 
# High freq. dielectric constant tensor:
#      x y z
#    x 1.704210 0.015280 0.009700 
#    y 0.015280 1.710140 -0.004020 
#    z 0.009700 -0.004020 1.711950 
# 
# From -- ./inp_files/403132.got.cif
#   From: 2010.06.25/outbox.cif.g09.slc.cpg/sg2_202_cif.got.tgz:403132.got - 2010.06.27 13:26:56.
