data_PCOD8004398
_publ_section_title
;
Structure prediction by ZEFSAII (Michael W. Deem and Ramdas Pophale) SiO2 
 PCOD8004398
Probable space group: P -1
;
_chemical_formula_sum "Si O2"
_cell_formula_units_Z 16
_cell_length_a 13.927130
_cell_length_b 14.801603
_cell_length_c 10.875355
_cell_angle_alpha 136.965170
_cell_angle_beta 33.518054
_cell_angle_gamma 121.515421
_cell_volume 822.198992
_symmetry_space_group_name_H-M "P -1"
_symmetry_group_IT_number 2
_symmetry_cell_setting 'triclinic'
loop_
_space_group_symop_operation_xyz
x,y,z
-x,-y,-z
loop_
_atom_site_type_symbol
_atom_site_label
_atom_site_fract_x
_atom_site_fract_y
_atom_site_fract_z
Si Si1 0.264713 0.541182 0.219925
Si Si2 0.900296 0.703024 0.774610
Si Si3 0.368760 0.251751 0.084963
Si Si4 0.163657 0.098519 0.742959
Si Si5 0.389821 0.544771 0.349904
Si Si6 0.360872 0.905177 0.527377
Si Si7 0.527479 0.004792 0.118858
Si Si8 0.223041 0.837743 0.867438
O O1 0.177445 0.428459 0.261046
O O2 0.359915 0.589355 0.283949
O O3 0.105820 0.668445 0.476839
O O4 0.391886 0.491815 0.916255
O O5 0.791886 0.789260 0.863079
O O6 0.875137 0.765991 0.999723
O O7 0.324506 0.410373 0.332155
O O8 0.537827 0.229282 0.788807
O O9 0.412779 0.150552 0.052320
O O10 0.343385 0.085381 0.458246
O O11 0.195147 0.977424 0.689402
O O12 0.992808 0.107484 0.844284
O O13 0.290492 0.675747 0.666356
O O14 0.286914 0.863641 0.690170
O O15 0.500000 0.000000 0.500000
O O16 0.685999 0.081414 0.050737
O O17 0.500000 0.000000 0.000000
#
# Coordination Sequence:
#
# PCOD8004398 Si02
#       8
#     2   2   2   2   2   2   2   2
#     4   9  17  26  47  83 128 159 165 205 280 359
#     4  10  16  29  50  87 125 146 178 217 279 355
#     4  10  20  36  56  83 119 152 185 231 283 348
#     4  11  21  34  59  89 115 150 196 234 285 343
#     4  10  19  32  52  85 121 148 184 221 284 345
#     4  11  18  33  54  87 127 154 181 220 284 352
#     4  11  25  46  62  75 109 156 202 252 292 331
#     4  12  21  37  62  88 115 154 188 240 287 347
#
# _framework density 19.460008999999999
#
# number of rings (size 3 to 8) (size 9 to 14) (size 15 to 20)
#    0.000    1.500    5.000    3.375    0.000    0.500 
#    2.250    0.625    0.000    0.750    0.000    0.000 
#    0.000    0.000    0.000    0.000    0.000    0.000 
#
# Total GULP energy -198251.198131 kJ/mol
# GULP energy per Si atom -12390.699883 kJ/mol
# Density = 1.941572 g / cm^3
# Si number density = 19.460009 Si / 1000 Ang^3
#
#
#
# Elastic Constant Matrix: (Units=GPa)
#
#
# Indices 1 2 3 4 5 6 
#
# 1 116.8360 33.4049 53.1743 -0.8845 -12.4535 0.9510
# 2 33.4049 59.3422 26.4930 13.5438 -4.9211 5.4393
# 3 53.1743 26.4930 90.2500 8.1994 -30.9979 4.0141
# 4 -0.8845 13.5438 8.1994 25.8775 3.3991 -2.7934
# 5 -12.4535 -4.9211 -30.9979 3.3991 28.8928 -3.0429
# 6 0.9510 5.4393 4.0141 -2.7934 -3.0429 21.5570
#
#
#
# Elastic Compliance Matrix: (Units=1/GPa)
#
#
# Indices 1 2 3 4 5 6 
#
# 1 0.013915 -0.006253 -0.009014 0.007615 -0.005331 0.002877
# 2 -0.006253 0.025063 -0.002058 -0.013500 0.000176 -0.007389
# 3 -0.009014 -0.002058 0.027002 -0.011394 0.025870 -0.001936
# 4 0.007615 -0.013500 -0.011394 0.052786 -0.016429 0.009713
# 5 -0.005331 0.000176 0.025870 -0.016429 0.062245 0.002031
# 6 0.002877 -0.007389 -0.001936 0.009713 0.002031 0.050032
#
#
# Mechanical properties :
#
#
# Convention : Reuss Voigt Hill
#
# Bulk Modulus (GPa) = 31.91633 54.73029 43.32331
# Shear Modulus (GPa) = 18.10707 25.48919 21.79813
#
# Velocity S-wave (km/s) = 3.05368 3.62308 3.35050
# Velocity P-wave (km/s) = 5.37307 6.75927 6.10564
#
# Compressibility (1/GPa) = 0.03133192
#
# Stress axis : x y z
#
# Youngs Moduli (GPa) = 71.86414 39.89984 37.03411
#
# Poissons Ratio (x) = 0.24948 0.33382
# Poissons Ratio (y) = 0.44934 0.07620
# Poissons Ratio (z) = 0.64778 0.08210
#
# Static dielectric constant tensor:
#      x y z
#    x 3.608630 0.306370 -0.556560 
#    y 0.306370 3.552580 0.179930 
#    z -0.556560 0.179930 3.822040 
# 
# 
# High freq. dielectric constant tensor:
#      x y z
#    x 1.721790 0.022910 -0.040750 
#    y 0.022910 1.749880 0.023040 
#    z -0.040750 0.023040 1.756700 
# 
# From -- ./inp_files/455031.got.cif
#   From: 2010.06.25/outbox.cif.g09.slc.cpg/sg2_228_cif.got.tgz:455031.got - 2010.06.27 13:26:56.
