data_PCOD8004610
_publ_section_title
;
Structure prediction by ZEFSAII (Michael W. Deem and Ramdas Pophale) SiO2 
 PCOD8004610
Probable space group: P -1
;
_chemical_formula_sum "Si O2"
_cell_formula_units_Z 14
_cell_length_a 6.567874
_cell_length_b 8.568781
_cell_length_c 10.158308
_cell_angle_alpha 82.995249
_cell_angle_beta 119.374133
_cell_angle_gamma 78.264551
_cell_volume 471.025290
_symmetry_space_group_name_H-M "P -1"
_symmetry_group_IT_number 2
_symmetry_cell_setting 'triclinic'
loop_
_space_group_symop_operation_xyz
x,y,z
-x,-y,-z
loop_
_atom_site_type_symbol
_atom_site_label
_atom_site_fract_x
_atom_site_fract_y
_atom_site_fract_z
Si Si1 0.884772 0.339223 0.622815
Si Si2 0.302269 0.594698 0.170533
Si Si3 0.893838 0.926686 0.591960
Si Si4 0.218917 0.274385 0.096858
Si Si5 0.422291 0.914838 0.308470
Si Si6 0.613693 0.822130 0.112399
Si Si7 0.178948 0.587860 0.695440
O O1 0.133402 0.183755 0.732996
O O2 0.968266 0.503656 0.647241
O O3 0.687033 0.342794 0.678153
O O4 0.771755 0.347223 0.441692
O O5 0.245248 0.419980 0.182328
O O6 0.561348 0.551251 0.172566
O O7 0.068051 0.717136 0.007597
O O8 0.800701 0.071832 0.658944
O O9 0.093475 0.760812 0.733293
O O10 0.674325 0.860472 0.474826
O O11 0.000000 0.000000 0.500000
O O12 0.375750 0.102262 0.226560
O O13 0.325599 0.300498 0.981513
O O14 0.432586 0.805285 0.184638
O O15 0.500000 0.000000 0.000000
#
# Coordination Sequence:
#
# PCOD8004610 Si02
#       7
#     2   2   2   2   2   2   2
#     4  10  21  39  61  94 123 164 207 253 315 364
#     4  10  20  38  60  91 124 162 202 256 309 371
#     4  11  23  38  62  93 122 160 210 260 310 370
#     4   9  19  37  65  89 124 168 205 250 313 372
#     4  10  20  40  60  86 123 165 203 256 311 360
#     4   9  18  38  65  87 122 167 204 246 307 371
#     4  11  22  38  62  92 126 160 208 259 309 371
#
# _framework density 29.722394999999999
#
# number of rings (size 3 to 8) (size 9 to 14) (size 15 to 20)
#    0.000    2.000    1.429    2.143    0.000    1.143 
#    2.571   15.714    0.000   11.143    0.000    0.000 
#    0.000    0.000    0.000    0.000    0.000    0.000 
#
# Total GULP energy -173464.033455 kJ/mol
# GULP energy per Si atom -12390.288104 kJ/mol
# Density = 2.965475 g / cm^3
# Si number density = 29.722395 Si / 1000 Ang^3
#
#
#
# Elastic Constant Matrix: (Units=GPa)
#
#
# Indices 1 2 3 4 5 6 
#
# 1 155.4789 21.8780 32.6244 -1.0550 -16.1586 -43.7915
# 2 21.8780 194.7036 38.7365 -13.6567 7.5737 -42.1883
# 3 32.6244 38.7365 77.1812 -7.2135 -17.9868 -24.5257
# 4 -1.0550 -13.6567 -7.2135 51.5983 -3.5421 -3.8963
# 5 -16.1586 7.5737 -17.9868 -3.5421 48.1956 9.1532
# 6 -43.7915 -42.1883 -24.5257 -3.8963 9.1532 43.0363
#
#
#
# Elastic Compliance Matrix: (Units=1/GPa)
#
#
# Indices 1 2 3 4 5 6 
#
# 1 0.009475 0.001490 -0.001185 0.001251 0.000615 0.010409
# 2 0.001490 0.007498 -0.002199 0.002142 -0.002944 0.008434
# 3 -0.001185 -0.002199 0.018052 0.002762 0.005758 0.005952
# 4 0.001251 0.002142 0.002762 0.020950 0.001410 0.006544
# 5 0.000615 -0.002944 0.005758 0.001410 0.024439 -0.004048
# 6 0.010409 0.008434 0.005952 0.006544 -0.004048 0.046941
#
#
# Mechanical properties :
#
#
# Convention : Reuss Voigt Hill
#
# Bulk Modulus (GPa) = 32.01205 68.20459 50.10832
# Shear Modulus (GPa) = 35.32169 50.84104 43.08136
#
# Velocity S-wave (km/s) = 3.45104 4.14034 3.81131
# Velocity P-wave (km/s) = 5.16462 6.77153 6.02191
#
# Compressibility (1/GPa) = 0.03123823
#
# Stress axis : x y z
#
# Youngs Moduli (GPa) = 105.54155 133.36400 55.39421
#
# Poissons Ratio (x) = -0.19876 0.06564
# Poissons Ratio (y) = -0.15730 0.12181
# Poissons Ratio (z) = 0.12507 0.29327
#
# Static dielectric constant tensor:
#      x y z
#    x 6.026920 -0.581620 -0.308740 
#    y -0.581620 6.361570 -0.026510 
#    z -0.308740 -0.026510 5.650370 
# 
# 
# High freq. dielectric constant tensor:
#      x y z
#    x 2.233960 -0.007770 -0.024590 
#    y -0.007770 2.255360 -0.018110 
#    z -0.024590 -0.018110 2.190470 
# 
# From -- ./inp_files/100985.got.cif
#   From: 2010.06.25/outbox.cif.g09.slc.cpg/sg2_51_cif.got.tgz:100985.got - 2010.06.27 13:26:56.
