data_PCOD8004764
_publ_section_title
;
Structure prediction by ZEFSAII (Michael W. Deem and Ramdas Pophale) SiO2 
 PCOD8004764
Probable space group: P -1
;
_chemical_formula_sum "Si O2"
_cell_formula_units_Z 16
_cell_length_a 16.123789
_cell_length_b 6.791517
_cell_length_c 16.639524
_cell_angle_alpha 129.192634
_cell_angle_beta 33.357454
_cell_angle_gamma 124.582227
_cell_volume 773.115888
_symmetry_space_group_name_H-M "P -1"
_symmetry_group_IT_number 2
_symmetry_cell_setting 'triclinic'
loop_
_space_group_symop_operation_xyz
x,y,z
-x,-y,-z
loop_
_atom_site_type_symbol
_atom_site_label
_atom_site_fract_x
_atom_site_fract_y
_atom_site_fract_z
Si Si1 0.136912 0.509108 0.168851
Si Si2 0.822686 0.018769 0.653543
Si Si3 0.859278 0.784444 0.059869
Si Si4 0.189937 0.535103 0.512080
Si Si5 0.677398 0.101413 0.630841
Si Si6 0.649789 0.508414 0.470699
Si Si7 0.663062 0.907506 0.115106
Si Si8 0.693399 0.479359 0.249967
O O1 0.215895 0.800203 0.192932
O O2 0.099627 0.455512 0.090924
O O3 0.988659 0.497210 0.339767
O O4 0.238608 0.288709 0.062962
O O5 0.756247 0.160350 0.667486
O O6 0.747826 0.725391 0.641403
O O7 0.000000 0.000000 0.500000
O O8 0.711258 0.895162 0.167818
O O9 0.816219 0.678333 0.156639
O O10 0.000000 0.000000 0.000000
O O11 0.218253 0.758605 0.484243
O O12 0.270174 0.621643 0.553706
O O13 0.510539 0.196354 0.784966
O O14 0.671176 0.808059 0.540170
O O15 0.732227 0.446182 0.304204
O O16 0.471354 0.412233 0.592128
O O17 0.693842 0.200770 0.135746
#
# Coordination Sequence:
#
# PCOD8004764 Si02
#       8
#     2   2   2   2   2   2   2   2
#     4   9  22  40  55  86 123 152 197 246 299 355
#     4   9  20  41  59  88 122 149 202 249 294 363
#     4  10  23  39  56  86 125 159 199 243 295 360
#     4  10  20  38  62  87 116 154 204 248 295 354
#     4  10  20  38  65  87 118 154 199 255 296 347
#     4   9  21  35  62  88 115 159 203 247 293 353
#     4   9  22  39  56  89 120 155 197 245 297 358
#     4  10  20  39  59  85 121 160 200 245 300 352
#
# _framework density 20.695474000000001
#
# number of rings (size 3 to 8) (size 9 to 14) (size 15 to 20)
#    0.750    1.750    0.000    0.750    3.500    3.000 
#    9.000    4.375    0.000    0.000    0.000    0.000 
#    0.000    0.000    0.000    0.000    0.000    0.000 
#
# Total GULP energy -198221.513318 kJ/mol
# GULP energy per Si atom -12388.844582 kJ/mol
# Density = 2.064837 g / cm^3
# Si number density = 20.695474 Si / 1000 Ang^3
#
#
#
# Elastic Constant Matrix: (Units=GPa)
#
#
# Indices 1 2 3 4 5 6 
#
# 1 98.0071 14.5083 25.1630 0.6395 1.7378 10.7966
# 2 14.5083 55.1250 32.8229 -14.3800 19.2794 0.6928
# 3 25.1630 32.8229 83.1980 6.5402 8.8901 4.6509
# 4 0.6395 -14.3800 6.5402 29.5579 -2.2929 2.7889
# 5 1.7378 19.2794 8.8901 -2.2929 33.9001 4.9020
# 6 10.7966 0.6928 4.6509 2.7889 4.9020 27.3768
#
#
#
# Elastic Compliance Matrix: (Units=1/GPa)
#
#
# Indices 1 2 3 4 5 6 
#
# 1 0.011651 -0.002186 -0.002610 -0.000168 0.001960 -0.004430
# 2 -0.002186 0.038677 -0.014557 0.020437 -0.017168 0.003349
# 3 -0.002610 -0.014557 0.019179 -0.010932 0.002824 -0.001253
# 4 -0.000168 0.020437 -0.010932 0.046006 -0.005298 -0.002332
# 5 0.001960 -0.017168 0.002824 -0.005298 0.039116 -0.007282
# 6 -0.004430 0.003349 -0.001253 -0.002332 -0.007282 0.039944
#
#
# Mechanical properties :
#
#
# Convention : Reuss Voigt Hill
#
# Bulk Modulus (GPa) = 32.46513 42.36872 37.41692
# Shear Modulus (GPa) = 20.52995 29.08936 24.80966
#
# Velocity S-wave (km/s) = 3.15302 3.75319 3.46612
# Velocity P-wave (km/s) = 5.38299 6.26888 5.84274
#
# Compressibility (1/GPa) = 0.03080228
#
# Stress axis : x y z
#
# Youngs Moduli (GPa) = 85.82640 25.85515 52.13922
#
# Poissons Ratio (x) = 0.05652 0.13609
# Poissons Ratio (y) = 0.18760 0.75898
# Poissons Ratio (z) = 0.22402 0.37637
#
# Static dielectric constant tensor:
#      x y z
#    x 4.015700 0.235590 -0.123190 
#    y 0.235590 3.741280 0.265450 
#    z -0.123190 0.265450 3.637790 
# 
# 
# High freq. dielectric constant tensor:
#      x y z
#    x 1.807480 0.011680 -0.010180 
#    y 0.011680 1.802590 0.018490 
#    z -0.010180 0.018490 1.791060 
# 
# From -- ./inp_files/503228.got.cif
#   From: 2010.06.25/outbox.cif.g09.slc.cpg/sg2_252_cif.got.tgz:503228.got - 2010.06.27 13:26:56.
