data_PCOD8004785
_publ_section_title
;
Structure prediction by ZEFSAII (Michael W. Deem and Ramdas Pophale) SiO2 
 PCOD8004785
Probable space group: P -1
;
_chemical_formula_sum "Si O2"
_cell_formula_units_Z 16
_cell_length_a 9.692635
_cell_length_b 19.703718
_cell_length_c 6.689454
_cell_angle_alpha 138.249449
_cell_angle_beta 106.452173
_cell_angle_gamma 70.914503
_cell_volume 802.382522
_symmetry_space_group_name_H-M "P -1"
_symmetry_group_IT_number 2
_symmetry_cell_setting 'triclinic'
loop_
_space_group_symop_operation_xyz
x,y,z
-x,-y,-z
loop_
_atom_site_type_symbol
_atom_site_label
_atom_site_fract_x
_atom_site_fract_y
_atom_site_fract_z
Si Si1 0.298823 0.657550 0.212931
Si Si2 0.549971 0.998231 0.742982
Si Si3 0.687547 0.867898 0.837427
Si Si4 0.341349 0.507563 0.550833
Si Si5 0.627691 0.649318 0.436976
Si Si6 0.201006 0.882647 0.812236
Si Si7 0.030734 0.054586 0.837892
Si Si8 0.169388 0.503287 0.082149
O O1 0.464808 0.630862 0.295371
O O2 0.230332 0.777633 0.465504
O O3 0.197621 0.601730 0.187634
O O4 0.300225 0.614445 0.893505
O O5 0.500000 0.000000 0.500000
O O6 0.642899 0.887597 0.624432
O O7 0.399346 0.027043 0.866659
O O8 0.644578 0.087704 0.006927
O O9 0.637034 0.769879 0.703395
O O10 0.857480 0.864190 0.951724
O O11 0.500000 0.500000 0.500000
O O12 0.328741 0.406601 0.457172
O O13 0.214864 0.513270 0.350265
O O14 0.735684 0.600662 0.198563
O O15 0.099758 0.963403 0.810940
O O16 0.116948 0.878760 0.981054
O O17 0.000000 0.000000 0.500000
O O18 0.000000 0.500000 0.000000
#
# Coordination Sequence:
#
# PCOD8004785 Si02
#       8
#     2   2   2   2   2   2   2   2
#     4  11  22  41  66  95 124 162 216 263 315 390
#     4  10  20  38  62  88 123 158 199 251 306 364
#     4  10  22  38  59  92 125 153 205 258 301 368
#     4  11  21  43  69  89 125 174 209 259 328 381
#     4  11  22  41  64  95 127 160 213 263 318 384
#     4  10  22  40  61  90 124 160 209 256 303 377
#     4  10  22  42  61  85 128 169 202 254 318 369
#     4  11  25  43  65  93 130 164 207 271 322 376
#
# _framework density 19.940614
#
# number of rings (size 3 to 8) (size 9 to 14) (size 15 to 20)
#    0.000    1.500    3.750    1.500    1.750    4.000 
#    4.500    0.000    0.000    0.000    0.000    0.000 
#    0.000    0.000    0.000    0.000    0.000    0.000 
#
# Total GULP energy -198331.359192 kJ/mol
# GULP energy per Si atom -12395.709949 kJ/mol
# Density = 1.989523 g / cm^3
# Si number density = 19.940614 Si / 1000 Ang^3
#
#
#
# Elastic Constant Matrix: (Units=GPa)
#
#
# Indices 1 2 3 4 5 6 
#
# 1 135.7675 27.5367 50.3570 -2.0358 5.4444 9.6558
# 2 27.5367 66.9963 61.6672 0.5795 5.9977 13.6946
# 3 50.3570 61.6672 122.6896 -15.7374 -1.2027 1.7387
# 4 -2.0358 0.5795 -15.7374 41.3055 -2.6132 2.0802
# 5 5.4444 5.9977 -1.2027 -2.6132 34.8803 1.7727
# 6 9.6558 13.6946 1.7387 2.0802 1.7727 27.6937
#
#
#
# Elastic Compliance Matrix: (Units=1/GPa)
#
#
# Indices 1 2 3 4 5 6 
#
# 1 0.009053 0.001201 -0.004445 -0.001207 -0.001697 -0.003272
# 2 0.001201 0.036534 -0.019663 -0.007563 -0.006889 -0.016241
# 3 -0.004445 -0.019663 0.020782 0.007829 0.004917 0.009066
# 4 -0.001207 -0.007563 0.007829 0.027407 0.003742 0.001371
# 5 -0.001697 -0.006889 0.004917 0.003742 0.030495 0.001456
# 6 -0.003272 -0.016241 0.009066 0.001371 0.001456 0.044516
#
#
# Mechanical properties :
#
#
# Convention : Reuss Voigt Hill
#
# Bulk Modulus (GPa) = 48.64829 67.17503 57.91166
# Shear Modulus (GPa) = 22.57816 33.16873 27.87344
#
# Velocity S-wave (km/s) = 3.36857 4.08287 3.74280
# Velocity P-wave (km/s) = 6.29120 7.48246 6.91254
#
# Compressibility (1/GPa) = 0.02055571
#
# Stress axis : x y z
#
# Youngs Moduli (GPa) = 110.45933 27.37191 48.11776
#
# Poissons Ratio (x) = -0.03288 0.21387
# Poissons Ratio (y) = -0.13270 0.94616
# Poissons Ratio (z) = 0.49095 0.53823
#
# Static dielectric constant tensor:
#      x y z
#    x 3.744890 0.039370 -0.105520 
#    y 0.039370 3.568460 -0.107850 
#    z -0.105520 -0.107850 3.625190 
# 
# 
# High freq. dielectric constant tensor:
#      x y z
#    x 1.793020 0.006340 -0.002060 
#    y 0.006340 1.772720 -0.006030 
#    z -0.002060 -0.006030 1.772020 
# 
# From -- ./inp_files/49397.got.cif
#   From: 2010.06.25/outbox.cif.g09.slc.cpg/sg2_25_cif.got.tgz:49397.got - 2010.06.27 13:26:56.
