data_PCOD8004377
_publ_section_title
;
Structure prediction by ZEFSAII (Michael W. Deem and Ramdas Pophale) SiO2 
 PCOD8004377
Probable space group: P -1
;
_chemical_formula_sum "Si O2"
_cell_formula_units_Z 16
_cell_length_a 24.202418
_cell_length_b 21.120377
_cell_length_c 7.931543
_cell_angle_alpha 47.765047
_cell_angle_beta 138.081016
_cell_angle_gamma 161.887172
_cell_volume 830.003130
_symmetry_space_group_name_H-M "P -1"
_symmetry_group_IT_number 2
_symmetry_cell_setting 'triclinic'
loop_
_space_group_symop_operation_xyz
x,y,z
-x,-y,-z
loop_
_atom_site_type_symbol
_atom_site_label
_atom_site_fract_x
_atom_site_fract_y
_atom_site_fract_z
Si Si1 0.278606 0.295147 0.422021
Si Si2 0.367013 0.750281 0.701642
Si Si3 0.929631 0.061658 0.917928
Si Si4 0.060703 0.732870 0.431160
Si Si5 0.776714 0.101086 0.126314
Si Si6 0.279895 0.295892 0.799774
Si Si7 0.922968 0.054372 0.538206
Si Si8 0.285048 0.860443 0.401642
O O1 0.500000 0.500000 0.500000
O O2 0.267995 0.320487 0.540809
O O3 0.192889 0.118348 0.538898
O O4 0.160418 0.249702 0.115501
O O5 0.287623 0.760663 0.594686
O O6 0.176538 0.510678 0.665324
O O7 0.485806 0.887241 0.551278
O O8 0.532920 0.860841 0.002651
O O9 0.909091 0.140694 0.782663
O O10 0.845967 0.969596 0.705119
O O11 0.804606 0.880666 0.076917
O O12 0.149485 0.798381 0.702085
O O13 0.180952 0.791874 0.460512
O O14 0.885535 0.116385 0.288772
O O15 0.836025 0.224396 0.891588
O O16 0.156501 0.247959 0.716840
O O17 0.500000 0.500000 0.000000
#
# Coordination Sequence:
#
# PCOD8004377 Si02
#       8
#     2   2   2   2   2   2   2   2
#     4  11  22  33  59  80 110 159 186 237 300 339
#     4   9  21  43  61  93 126 161 202 255 309 366
#     4  10  22  38  55  86 112 147 202 239 291 360
#     4  11  22  40  65  89 127 163 200 259 308 354
#     4   9  22  40  60  93 122 155 211 251 296 373
#     4  11  22  38  57  83 117 156 197 238 297 360
#     4  10  20  38  57  80 119 145 193 253 282 352
#     4   9  21  42  62  92 129 155 209 255 297 383
#
# _framework density 19.277035999999999
#
# number of rings (size 3 to 8) (size 9 to 14) (size 15 to 20)
#    0.750    1.250    0.000    4.875    5.250    1.000 
#    6.750    0.000    0.000    0.000    0.000    0.000 
#    0.000    0.000    0.000    0.000    0.000    0.000 
#
# Total GULP energy -198267.528677 kJ/mol
# GULP energy per Si atom -12391.720542 kJ/mol
# Density = 1.923316 g / cm^3
# Si number density = 19.277036 Si / 1000 Ang^3
#
#
#
# Elastic Constant Matrix: (Units=GPa)
#
#
# Indices 1 2 3 4 5 6 
#
# 1 97.8769 33.5653 38.4063 3.9380 4.7447 -2.0550
# 2 33.5653 76.8283 39.0169 20.0832 9.0762 2.3812
# 3 38.4063 39.0169 102.8242 10.0274 10.8833 -12.0246
# 4 3.9380 20.0832 10.0274 34.6109 -2.1751 1.0356
# 5 4.7447 9.0762 10.8833 -2.1751 36.8037 -0.8238
# 6 -2.0550 2.3812 -12.0246 1.0356 -0.8238 21.1329
#
#
#
# Elastic Compliance Matrix: (Units=1/GPa)
#
#
# Indices 1 2 3 4 5 6 
#
# 1 0.013012 -0.004585 -0.003429 0.002218 0.000593 -0.000255
# 2 -0.004585 0.021127 -0.005580 -0.010184 -0.003697 -0.005646
# 3 -0.003429 -0.005580 0.014454 -0.000959 -0.002323 0.008476
# 4 0.002218 -0.010184 -0.000959 0.035136 0.004570 -0.000726
# 5 0.000593 -0.003697 -0.002323 0.004570 0.028965 0.000058
# 6 -0.000255 -0.005646 0.008476 -0.000726 0.000058 0.052792
#
#
# Mechanical properties :
#
#
# Convention : Reuss Voigt Hill
#
# Bulk Modulus (GPa) = 46.71935 55.50069 51.11002
# Shear Modulus (GPa) = 25.02397 29.61224 27.31811
#
# Velocity S-wave (km/s) = 3.60686 3.92362 3.76857
# Velocity P-wave (km/s) = 6.45246 7.02709 6.74589
#
# Compressibility (1/GPa) = 0.02140441
#
# Stress axis : x y z
#
# Youngs Moduli (GPa) = 76.85507 47.33297 69.18477
#
# Poissons Ratio (x) = 0.21703 0.23723
# Poissons Ratio (y) = 0.35240 0.38604
# Poissons Ratio (z) = 0.26353 0.26411
#
# Static dielectric constant tensor:
#      x y z
#    x 3.389100 -0.011260 0.115730 
#    y -0.011260 3.361600 0.114360 
#    z 0.115730 0.114360 3.554810 
# 
# 
# High freq. dielectric constant tensor:
#      x y z
#    x 1.750030 0.003880 0.005930 
#    y 0.003880 1.731340 0.004380 
#    z 0.005930 0.004380 1.757050 
# 
# From -- ./inp_files/355178.got.cif
#   From: 2010.06.25/outbox.cif.g09.slc.cpg/sg2_178_cif.got.tgz:355178.got - 2010.06.27 13:26:56.
