data_PCOD8004881
_publ_section_title
;
Structure prediction by ZEFSAII (Michael W. Deem and Ramdas Pophale) SiO2 
 PCOD8004881
Probable space group: P -1
;
_chemical_formula_sum "Si O2"
_cell_formula_units_Z 16
_cell_length_a 14.172092
_cell_length_b 8.669304
_cell_length_c 14.581334
_cell_angle_alpha 102.643604
_cell_angle_beta 37.224857
_cell_angle_gamma 75.312984
_cell_volume 728.558419
_symmetry_space_group_name_H-M "P -1"
_symmetry_group_IT_number 2
_symmetry_cell_setting 'triclinic'
loop_
_space_group_symop_operation_xyz
x,y,z
-x,-y,-z
loop_
_atom_site_type_symbol
_atom_site_label
_atom_site_fract_x
_atom_site_fract_y
_atom_site_fract_z
Si Si1 0.427898 0.279749 0.158236
Si Si2 0.066440 0.769814 0.472838
Si Si3 0.410460 0.460927 0.668965
Si Si4 0.021975 0.361505 0.046832
Si Si5 0.176664 0.788781 0.199669
Si Si6 0.750896 0.119181 0.221280
Si Si7 0.261005 0.435644 0.975162
Si Si8 0.565084 0.056832 0.834489
O O1 0.184674 0.537310 0.402496
O O2 0.468953 0.107002 0.175563
O O3 0.617553 0.274966 0.018609
O O4 0.413386 0.219179 0.059387
O O5 0.231829 0.703758 0.252628
O O6 0.034848 0.933308 0.593532
O O7 0.827200 0.899017 0.630486
O O8 0.650848 0.217902 0.414664
O O9 0.404729 0.658890 0.698566
O O10 0.359265 0.431363 0.804249
O O11 0.220771 0.547011 0.750537
O O12 0.083805 0.421824 0.096011
O O13 0.231391 0.082363 0.837262
O O14 0.000000 0.500000 0.000000
O O15 0.121775 0.673670 0.167963
O O16 0.000000 0.000000 0.000000
O O17 0.478759 0.215734 0.834150
#
# Coordination Sequence:
#
# PCOD8004881 Si02
#       8
#     2   2   2   2   2   2   2   2
#     4  10  20  40  62  81 122 165 209 251 315 369
#     4  10  20  38  63  84 118 171 213 245 317 370
#     4   9  20  40  67  88 119 168 200 250 313 373
#     4   9  20  38  61  88 123 163 195 250 310 375
#     4  10  22  36  62  87 119 163 209 259 301 363
#     4   9  18  40  67  89 115 159 204 243 313 383
#     4  11  22  39  57  92 130 152 214 264 302 361
#     4  10  22  37  60  89 121 161 204 265 308 364
#
# _framework density 21.961175000000001
#
# number of rings (size 3 to 8) (size 9 to 14) (size 15 to 20)
#    0.000    2.250    1.250    0.750    3.500    3.000 
#    9.000    0.000    5.500    0.000    0.000    0.000 
#    0.000    0.000    0.000    0.000    0.000    0.000 
#
# Total GULP energy -198213.230321 kJ/mol
# GULP energy per Si atom -12388.326895 kJ/mol
# Density = 2.191119 g / cm^3
# Si number density = 21.961175 Si / 1000 Ang^3
#
#
#
# Elastic Constant Matrix: (Units=GPa)
#
#
# Indices 1 2 3 4 5 6 
#
# 1 87.2346 47.3589 44.3028 18.6815 19.0663 18.5373
# 2 47.3589 143.8847 51.0766 26.1340 16.6041 16.4927
# 3 44.3028 51.0766 118.8709 19.9298 17.3682 9.3910
# 4 18.6815 26.1340 19.9298 38.8997 6.4152 11.7539
# 5 19.0663 16.6041 17.3682 6.4152 23.9144 3.1396
# 6 18.5373 16.4927 9.3910 11.7539 3.1396 34.0534
#
#
#
# Elastic Compliance Matrix: (Units=1/GPa)
#
#
# Indices 1 2 3 4 5 6 
#
# 1 0.018432 -0.002712 -0.003605 -0.001821 -0.008881 -0.006279
# 2 -0.002712 0.009577 -0.002177 -0.003337 -0.001849 -0.001240
# 3 -0.003605 -0.002177 0.011528 -0.002444 -0.003462 0.001000
# 4 -0.001821 -0.003337 -0.002444 0.032812 -0.002229 -0.007838
# 5 -0.008881 -0.001849 -0.003462 -0.002229 0.052955 0.002572
# 6 -0.006279 -0.001240 0.001000 -0.007838 0.002572 0.035576
#
#
# Mechanical properties :
#
#
# Convention : Reuss Voigt Hill
#
# Bulk Modulus (GPa) = 44.34770 70.60741 57.47756
# Shear Modulus (GPa) = 26.97112 33.19030 30.08071
#
# Velocity S-wave (km/s) = 3.50827 3.89178 3.70499
# Velocity P-wave (km/s) = 6.05377 7.23985 6.67321
#
# Compressibility (1/GPa) = 0.02254908
#
# Stress axis : x y z
#
# Youngs Moduli (GPa) = 54.25425 104.41943 86.74448
#
# Poissons Ratio (x) = 0.28313 0.31275
# Poissons Ratio (y) = 0.14711 0.18883
# Poissons Ratio (z) = 0.19561 0.22731
#
# Static dielectric constant tensor:
#      x y z
#    x 3.916030 0.463540 0.053520 
#    y 0.463540 4.529830 0.276690 
#    z 0.053520 0.276690 3.971240 
# 
# 
# High freq. dielectric constant tensor:
#      x y z
#    x 1.818570 0.026190 0.004580 
#    y 0.026190 1.886780 0.013110 
#    z 0.004580 0.013110 1.858290 
# 
# From -- ./inp_files/528724.got.cif
#   From: 2010.06.25/outbox.cif.g09.slc.cpg/sg2_265_cif.got.tgz:528724.got - 2010.06.27 13:26:56.
