data_PCOD8004952
_publ_section_title
;
Structure prediction by ZEFSAII (Michael W. Deem and Ramdas Pophale) SiO2 
 PCOD8004952
Probable space group: P -1
;
_chemical_formula_sum "Si O2"
_cell_formula_units_Z 12
_cell_length_a 12.459563
_cell_length_b 4.945871
_cell_length_c 11.504822
_cell_angle_alpha 94.923105
_cell_angle_beta 40.306269
_cell_angle_gamma 79.282179
_cell_volume 420.717794
_symmetry_space_group_name_H-M "P -1"
_symmetry_group_IT_number 2
_symmetry_cell_setting 'triclinic'
loop_
_space_group_symop_operation_xyz
x,y,z
-x,-y,-z
loop_
_atom_site_type_symbol
_atom_site_label
_atom_site_fract_x
_atom_site_fract_y
_atom_site_fract_z
Si Si1 0.706618 0.120732 0.134416
Si Si2 0.321053 0.331578 0.506982
Si Si3 0.135149 0.965738 0.762329
Si Si4 0.732486 0.959581 0.676866
Si Si5 0.075723 0.964526 0.280925
Si Si6 0.337821 0.376341 0.979870
O O1 0.530015 0.130943 0.352356
O O2 0.869212 0.046647 0.093096
O O3 0.645821 0.447163 0.142290
O O4 0.743136 0.866708 0.995258
O O5 0.283909 0.666153 0.579296
O O6 0.280462 0.300798 0.401709
O O7 0.190360 0.233875 0.691248
O O8 0.949027 0.010354 0.842924
O O9 0.874418 0.072907 0.500529
O O10 0.817021 0.857187 0.733557
O O11 0.537112 0.221397 0.864798
O O12 0.198282 0.618777 0.191470
#
# Coordination Sequence:
#
# PCOD8004952 Si02
#       6
#     2   2   2   2   2   2
#     4  11  22  39  62  92 129 163 205 256 307 368
#     4  10  20  38  63  93 125 163 209 254 306 367
#     4  11  22  37  63  94 125 165 206 252 311 368
#     4   9  21  43  66  92 124 163 210 256 308 365
#     4  10  22  41  66  93 126 164 206 257 309 367
#     4  11  24  42  65  93 125 164 207 255 308 365
#
# _framework density 28.522684000000002
#
# number of rings (size 3 to 8) (size 9 to 14) (size 15 to 20)
#    0.000    1.667    0.000    5.500    0.000    4.667 
#    0.000   15.833    0.000    0.000    0.000    0.000 
#    0.000    0.000    0.000    0.000    0.000    0.000 
#
# Total GULP energy -148734.864255 kJ/mol
# GULP energy per Si atom -12394.572021 kJ/mol
# Density = 2.845777 g / cm^3
# Si number density = 28.522684 Si / 1000 Ang^3
#
#
#
# Elastic Constant Matrix: (Units=GPa)
#
#
# Indices 1 2 3 4 5 6 
#
# 1 240.9131 40.0121 77.1223 -11.8655 -2.2597 -18.4632
# 2 40.0121 61.3373 12.3340 3.9163 4.3437 -2.0238
# 3 77.1223 12.3340 110.1386 2.1408 -9.9596 -7.1728
# 4 -11.8655 3.9163 2.1408 34.6993 4.3101 12.6594
# 5 -2.2597 4.3437 -9.9596 4.3101 68.8608 -12.8788
# 6 -18.4632 -2.0238 -7.1728 12.6594 -12.8788 39.2080
#
#
#
# Elastic Compliance Matrix: (Units=1/GPa)
#
#
# Indices 1 2 3 4 5 6 
#
# 1 0.006165 -0.003334 -0.003911 0.002272 -0.000059 0.001262
# 2 -0.003334 0.018716 0.000215 -0.003181 -0.001037 0.000122
# 3 -0.003911 0.000215 0.012197 -0.003177 0.002225 0.002158
# 4 0.002272 -0.003181 -0.003177 0.035361 -0.004765 -0.012658
# 5 -0.000059 -0.001037 0.002225 -0.004765 0.016572 0.007308
# 6 0.001262 0.000122 0.002158 -0.012658 0.007308 0.032988
#
#
# Mechanical properties :
#
#
# Convention : Reuss Voigt Hill
#
# Bulk Modulus (GPa) = 43.44519 74.59175 59.01847
# Shear Modulus (GPa) = 34.78722 47.41499 41.10110
#
# Velocity S-wave (km/s) = 3.49611 4.08163 3.80016
# Velocity P-wave (km/s) = 5.61800 6.95855 6.32390
#
# Compressibility (1/GPa) = 0.02301751
#
# Stress axis : x y z
#
# Youngs Moduli (GPa) = 162.21591 53.43102 81.98636
#
# Poissons Ratio (x) = 0.17815 0.32061
# Poissons Ratio (y) = 0.54087 -0.01761
# Poissons Ratio (z) = 0.63436 -0.01148
#
# Static dielectric constant tensor:
#      x y z
#    x 5.928230 -0.126780 -0.087010 
#    y -0.126780 4.611160 -0.153970 
#    z -0.087010 -0.153970 5.516040 
# 
# 
# High freq. dielectric constant tensor:
#      x y z
#    x 2.194160 0.004980 -0.013790 
#    y 0.004980 2.123660 -0.018670 
#    z -0.013790 -0.018670 2.202350 
# 
# From -- ./inp_files/31250.got.cif
#   From: 2010.06.25/outbox.cif.g09.slc.cpg/sg2_16_cif.got.tgz:31250.got - 2010.06.27 13:26:56.
