data_PCOD8004951
_publ_section_title
;
Structure prediction by ZEFSAII (Michael W. Deem and Ramdas Pophale) SiO2 
 PCOD8004951
Probable space group: P -1
;
_chemical_formula_sum "Si O2"
_cell_formula_units_Z 16
_cell_length_a 15.748957
_cell_length_b 10.781526
_cell_length_c 7.922341
_cell_angle_alpha 43.597324
_cell_angle_beta 107.139406
_cell_angle_gamma 129.546451
_cell_volume 679.373823
_symmetry_space_group_name_H-M "P -1"
_symmetry_group_IT_number 2
_symmetry_cell_setting 'triclinic'
loop_
_space_group_symop_operation_xyz
x,y,z
-x,-y,-z
loop_
_atom_site_type_symbol
_atom_site_label
_atom_site_fract_x
_atom_site_fract_y
_atom_site_fract_z
Si Si1 0.462874 0.249522 0.248159
Si Si2 0.409449 0.585261 0.517324
Si Si3 0.031017 0.409248 0.959064
Si Si4 0.847549 0.655241 0.337773
Si Si5 0.201917 0.915841 0.447547
Si Si6 0.432425 0.189250 0.915747
Si Si7 0.179033 0.789443 0.196619
Si Si8 0.930110 0.914792 0.782494
O O1 0.545004 0.268384 0.422159
O O2 0.334286 0.075906 0.424153
O O3 0.500000 0.500000 0.000000
O O4 0.468357 0.161153 0.152870
O O5 0.275710 0.457053 0.543942
O O6 0.429541 0.399753 0.714764
O O7 0.477094 0.758667 0.225220
O O8 0.918672 0.242916 0.939587
O O9 0.142395 0.646372 0.707343
O O10 0.000000 0.500000 0.000000
O O11 0.063062 0.243696 0.191259
O O12 0.865986 0.465636 0.529427
O O13 0.860443 0.747489 0.066854
O O14 0.941896 0.857125 0.320358
O O15 0.193586 0.939605 0.218187
O O16 0.139971 0.005941 0.414337
O O17 0.305739 0.947086 0.027152
#
# Coordination Sequence:
#
# PCOD8004951 Si02
#       8
#     2   2   2   2   2   2   2   2
#     4   9  19  38  63  91 125 170 216 266 321 383
#     4  10  20  38  63  93 124 172 224 259 328 390
#     4  12  26  41  62  99 134 165 212 269 330 388
#     4  11  21  38  68  97 122 170 225 264 321 392
#     4  11  22  43  70  93 125 172 218 266 324 386
#     4   9  20  37  61  88 127 170 214 273 321 380
#     4  11  21  42  65  92 130 168 215 274 321 381
#     4  11  22  41  69  94 126 171 218 263 326 395
#
# _framework density 23.551100999999999
#
# number of rings (size 3 to 8) (size 9 to 14) (size 15 to 20)
#    0.000    1.500    2.500    4.875    1.750    1.000 
#    2.250    3.750    2.750    0.000    0.000    0.000 
#    0.000    0.000    0.000    0.000    0.000    0.000 
#
# Total GULP energy -198344.123435 kJ/mol
# GULP energy per Si atom -12396.507715 kJ/mol
# Density = 2.349750 g / cm^3
# Si number density = 23.551101 Si / 1000 Ang^3
#
#
#
# Elastic Constant Matrix: (Units=GPa)
#
#
# Indices 1 2 3 4 5 6 
#
# 1 100.1174 30.6147 32.9531 -12.7997 -8.0802 -0.2731
# 2 30.6147 80.3958 43.9810 -17.3238 -17.3025 11.8774
# 3 32.9531 43.9810 53.3924 -21.0575 -4.5067 0.9702
# 4 -12.7997 -17.3238 -21.0575 36.0579 1.5319 -6.2237
# 5 -8.0802 -17.3025 -4.5067 1.5319 39.2283 -14.2216
# 6 -0.2731 11.8774 0.9702 -6.2237 -14.2216 36.0220
#
#
#
# Elastic Compliance Matrix: (Units=1/GPa)
#
#
# Indices 1 2 3 4 5 6 
#
# 1 0.012711 -0.000729 -0.007020 0.000210 0.001967 0.001339
# 2 -0.000729 0.026256 -0.020918 -0.001110 0.007078 -0.005497
# 3 -0.007020 -0.020918 0.046068 0.015708 -0.003475 0.006945
# 4 0.000210 -0.001110 0.015708 0.037627 0.002597 0.007471
# 5 0.001967 0.007078 -0.003475 0.002597 0.032530 0.011067
# 6 0.001339 -0.005497 0.006945 0.007471 0.011067 0.035056
#
#
# Mechanical properties :
#
#
# Convention : Reuss Voigt Hill
#
# Bulk Modulus (GPa) = 36.10032 49.88925 42.99479
# Shear Modulus (GPa) = 19.46922 30.68542 25.07732
#
# Velocity S-wave (km/s) = 2.87832 3.61353 3.26667
# Velocity P-wave (km/s) = 5.13888 6.21607 5.70296
#
# Compressibility (1/GPa) = 0.02770058
#
# Stress axis : x y z
#
# Youngs Moduli (GPa) = 78.67138 38.08714 21.70702
#
# Poissons Ratio (x) = 0.02778 0.15238
# Poissons Ratio (y) = 0.05738 0.45406
# Poissons Ratio (z) = 0.55227 0.79670
#
# Static dielectric constant tensor:
#      x y z
#    x 4.454310 0.897860 -0.771050 
#    y 0.897860 8.064820 -2.123400 
#    z -0.771050 -2.123400 5.447140 
# 
# 
# High freq. dielectric constant tensor:
#      x y z
#    x 1.924520 -0.001390 -0.010720 
#    y -0.001390 1.924950 -0.023490 
#    z -0.010720 -0.023490 1.933840 
# 
# From -- ./inp_files/273569.got.cif
#   From: 2010.06.25/outbox.cif.g09.slc.cpg/sg2_137_cif.got.tgz:273569.got - 2010.06.27 13:26:56.
