data_PCOD8004720
_publ_section_title
;
Structure prediction by ZEFSAII (Michael W. Deem and Ramdas Pophale) SiO2 
 PCOD8004720
Probable space group: P -1
;
_chemical_formula_sum "Si O2"
_cell_formula_units_Z 16
_cell_length_a 7.488276
_cell_length_b 18.097552
_cell_length_c 12.230193
_cell_angle_alpha 27.052407
_cell_angle_beta 70.475370
_cell_angle_gamma 73.603569
_cell_volume 710.005523
_symmetry_space_group_name_H-M "P -1"
_symmetry_group_IT_number 2
_symmetry_cell_setting 'triclinic'
loop_
_space_group_symop_operation_xyz
x,y,z
-x,-y,-z
loop_
_atom_site_type_symbol
_atom_site_label
_atom_site_fract_x
_atom_site_fract_y
_atom_site_fract_z
Si Si1 0.337251 0.826399 0.353088
Si Si2 0.761742 0.489400 0.941814
Si Si3 0.394322 0.350224 0.782526
Si Si4 0.519053 0.774422 0.606393
Si Si5 0.309476 0.910863 0.884742
Si Si6 0.189451 0.485225 0.844480
Si Si7 0.250806 0.098467 0.867776
Si Si8 0.965269 0.686193 0.240327
O O1 0.379377 0.837851 0.457793
O O2 0.210848 0.668853 0.557568
O O3 0.540710 0.820530 0.259299
O O4 0.214758 0.972299 0.141299
O O5 0.681659 0.653516 0.686709
O O6 0.968268 0.438770 0.926830
O O7 0.618034 0.336359 0.140757
O O8 0.759785 0.532586 0.015014
O O9 0.500000 0.500000 0.500000
O O10 0.335930 0.385646 0.873497
O O11 0.199589 0.295940 0.836425
O O12 0.524576 0.195898 0.961059
O O13 0.616094 0.945773 0.405554
O O14 0.225498 0.012199 0.869868
O O15 0.152606 0.787799 0.025373
O O16 0.097231 0.236849 0.732206
O O17 0.000000 0.500000 0.500000
#
# Coordination Sequence:
#
# PCOD8004720 Si02
#       8
#     2   2   2   2   2   2   2   2
#     4   9  18  33  63  91 122 165 207 262 326 375
#     4   9  20  41  66  95 122 161 231 274 320 374
#     4  12  24  44  62  95 143 172 205 264 332 392
#     4   9  19  39  63  94 119 155 220 286 315 368
#     4  11  24  42  64  92 129 176 219 264 324 388
#     4  10  21  38  65  93 126 175 210 268 327 386
#     4  10  20  38  61  92 128 171 215 264 310 396
#     4  12  25  38  60  94 133 175 216 255 323 399
#
# _framework density 22.535036000000002
#
# number of rings (size 3 to 8) (size 9 to 14) (size 15 to 20)
#    0.000    1.750    1.250    4.125    1.750    2.000 
#    6.750    1.250    0.000    0.000    0.000    0.000 
#    0.000    0.000    0.000    0.000    0.000    0.000 
#
# Total GULP energy -198218.120857 kJ/mol
# GULP energy per Si atom -12388.632554 kJ/mol
# Density = 2.248375 g / cm^3
# Si number density = 22.535036 Si / 1000 Ang^3
#
#
#
# Elastic Constant Matrix: (Units=GPa)
#
#
# Indices 1 2 3 4 5 6 
#
# 1 111.9638 9.3448 50.1818 -7.2776 -26.0253 -7.7752
# 2 9.3448 79.1236 18.3789 -10.7695 0.4942 -9.3426
# 3 50.1818 18.3789 157.5866 -19.4856 -30.2683 -10.9931
# 4 -7.2776 -10.7695 -19.4856 26.0033 -2.6410 3.5673
# 5 -26.0253 0.4942 -30.2683 -2.6410 40.9450 -1.2916
# 6 -7.7752 -9.3426 -10.9931 3.5673 -1.2916 22.9287
#
#
#
# Elastic Compliance Matrix: (Units=1/GPa)
#
#
# Indices 1 2 3 4 5 6 
#
# 1 0.011612 -0.000348 -0.002075 0.001773 0.006056 0.002867
# 2 -0.000348 0.013997 -0.000756 0.004464 -0.000519 0.004500
# 3 -0.002075 -0.000756 0.009209 0.006235 0.005987 0.002771
# 4 0.001773 0.004464 0.006235 0.046536 0.008642 -0.001344
# 5 0.006056 -0.000519 0.005987 0.008642 0.033428 0.005252
# 6 0.002867 0.004500 0.002771 -0.001344 0.005252 0.048252
#
#
# Mechanical properties :
#
#
# Convention : Reuss Voigt Hill
#
# Bulk Modulus (GPa) = 35.13397 56.05388 45.59393
# Shear Modulus (GPa) = 27.95204 36.02665 31.98935
#
# Velocity S-wave (km/s) = 3.52573 4.00271 3.77176
# Velocity P-wave (km/s) = 5.67442 6.80370 6.26456
#
# Compressibility (1/GPa) = 0.02846249
#
# Stress axis : x y z
#
# Youngs Moduli (GPa) = 86.11437 71.44344 108.59129
#
# Poissons Ratio (x) = 0.02483 0.22531
# Poissons Ratio (y) = 0.02993 0.08205
# Poissons Ratio (z) = 0.17868 0.05398
#
# Static dielectric constant tensor:
#      x y z
#    x 4.174890 -0.184040 -0.278030 
#    y -0.184040 3.797530 -0.025530 
#    z -0.278030 -0.025530 4.532690 
# 
# 
# High freq. dielectric constant tensor:
#      x y z
#    x 1.896730 -0.014970 -0.010230 
#    y -0.014970 1.841570 -0.006790 
#    z -0.010230 -0.006790 1.904030 
# 
# From -- ./inp_files/508051.got.cif
#   From: 2010.06.25/outbox.cif.g09.slc.cpg/sg2_255_cif.got.tgz:508051.got - 2010.06.27 13:26:56.
