data_PCOD8004689
_publ_section_title
;
Structure prediction by ZEFSAII (Michael W. Deem and Ramdas Pophale) SiO2 
 PCOD8004689
Probable space group: P -1
;
_chemical_formula_sum "Si O2"
_cell_formula_units_Z 16
_cell_length_a 14.506725
_cell_length_b 15.009262
_cell_length_c 15.603496
_cell_angle_alpha 153.087405
_cell_angle_beta 151.210920
_cell_angle_gamma 36.646588
_cell_volume 737.179688
_symmetry_space_group_name_H-M "P -1"
_symmetry_group_IT_number 2
_symmetry_cell_setting 'triclinic'
loop_
_space_group_symop_operation_xyz
x,y,z
-x,-y,-z
loop_
_atom_site_type_symbol
_atom_site_label
_atom_site_fract_x
_atom_site_fract_y
_atom_site_fract_z
Si Si1 0.278068 0.457436 0.549696
Si Si2 0.966482 0.314369 0.870416
Si Si3 0.886832 0.147517 0.173266
Si Si4 0.552752 0.379842 0.558633
Si Si5 0.291350 0.749966 0.056156
Si Si6 0.287034 0.308014 0.613721
Si Si7 0.382597 0.200773 0.107315
Si Si8 0.990095 0.266527 0.041738
O O1 0.261678 0.687849 0.761330
O O2 0.471239 0.394474 0.600643
O O3 0.281527 0.317233 0.514505
O O4 0.093291 0.429079 0.317197
O O5 0.761383 0.249615 0.616342
O O6 0.156661 0.162258 0.880448
O O7 0.940095 0.362975 0.991528
O O8 0.000000 0.500000 0.000000
O O9 0.105599 0.202108 0.406182
O O10 0.822143 0.119492 0.997802
O O11 0.873390 0.940309 0.033410
O O12 0.419008 0.258251 0.285197
O O13 0.561786 0.608902 0.736355
O O14 0.511325 0.805830 0.288084
O O15 0.272951 0.523549 0.826687
O O16 0.196506 0.790973 0.107203
O O17 0.500000 0.000000 0.000000
#
# Coordination Sequence:
#
# PCOD8004689 Si02
#       8
#     2   2   2   2   2   2   2   2
#     4  11  21  39  63  87 127 165 205 249 305 371
#     4  10  23  44  64  93 124 162 212 257 314 376
#     4  11  23  39  58  93 127 160 209 253 307 360
#     4  10  22  41  64  89 122 166 200 253 318 369
#     4  10  20  38  62  89 126 164 207 251 302 369
#     4  10  20  38  61  89 125 169 203 248 307 361
#     4  10  22  41  68  92 121 154 205 263 314 371
#     4  12  22  39  65  88 124 166 206 259 310 365
#
# _framework density 21.704340999999999
#
# number of rings (size 3 to 8) (size 9 to 14) (size 15 to 20)
#    0.000    1.500    3.750    1.875    1.750    1.000 
#    2.250    2.500    0.000    0.000    0.000    0.000 
#    0.000    0.000    0.000    0.000    0.000    0.000 
#
# Total GULP energy -198295.081502 kJ/mol
# GULP energy per Si atom -12393.442594 kJ/mol
# Density = 2.165494 g / cm^3
# Si number density = 21.704341 Si / 1000 Ang^3
#
#
#
# Elastic Constant Matrix: (Units=GPa)
#
#
# Indices 1 2 3 4 5 6 
#
# 1 99.9642 37.1575 21.5426 -1.0707 -6.1831 -11.8533
# 2 37.1575 94.4255 46.1180 -13.9650 -1.6952 -11.2161
# 3 21.5426 46.1180 50.6810 -8.6547 -3.9294 -2.8607
# 4 -1.0707 -13.9650 -8.6547 36.0775 -10.4882 0.2016
# 5 -6.1831 -1.6952 -3.9294 -10.4882 27.0554 -10.4384
# 6 -11.8533 -11.2161 -2.8607 0.2016 -10.4384 39.9680
#
#
#
# Elastic Compliance Matrix: (Units=1/GPa)
#
#
# Indices 1 2 3 4 5 6 
#
# 1 0.012324 -0.003736 -0.001443 -0.000419 0.003533 0.003428
# 2 -0.003736 0.021453 -0.016826 0.004530 0.001362 0.004041
# 3 -0.001443 -0.016826 0.036579 0.003634 0.004841 -0.001285
# 4 -0.000419 0.004530 0.003634 0.035081 0.016447 0.005526
# 5 0.003533 0.001362 0.004841 0.016447 0.050695 0.014933
# 6 0.003428 0.004041 -0.001285 0.005526 0.014933 0.030951
#
#
# Mechanical properties :
#
#
# Convention : Reuss Voigt Hill
#
# Bulk Modulus (GPa) = 37.95668 50.52300 44.23984
# Shear Modulus (GPa) = 20.84423 29.97036 25.40730
#
# Velocity S-wave (km/s) = 3.10235 3.72001 3.42513
# Velocity P-wave (km/s) = 5.50988 6.46372 6.00576
#
# Compressibility (1/GPa) = 0.02634582
#
# Stress axis : x y z
#
# Youngs Moduli (GPa) = 81.14389 46.61350 27.33808
#
# Poissons Ratio (x) = 0.17416 0.03944
# Poissons Ratio (y) = 0.30318 0.45999
# Poissons Ratio (z) = 0.11705 0.78433
#
# Static dielectric constant tensor:
#      x y z
#    x 3.895640 0.076380 -0.074070 
#    y 0.076380 3.637020 -0.133050 
#    z -0.074070 -0.133050 3.865560 
# 
# 
# High freq. dielectric constant tensor:
#      x y z
#    x 1.856960 -0.006950 0.002280 
#    y -0.006950 1.847530 -0.016990 
#    z 0.002280 -0.016990 1.843540 
# 
# From -- ./inp_files/529757.got.cif
#   From: 2010.06.25/outbox.cif.g09.slc.cpg/sg2_265_cif.got.tgz:529757.got - 2010.06.27 13:26:56.
