data_PCOD8004904
_publ_section_title
;
Structure prediction by ZEFSAII (Michael W. Deem and Ramdas Pophale) SiO2 
 PCOD8004904
Probable space group: P -1
;
_chemical_formula_sum "Si O2"
_cell_formula_units_Z 16
_cell_length_a 14.869955
_cell_length_b 14.305260
_cell_length_c 8.672563
_cell_angle_alpha 116.795447
_cell_angle_beta 106.821280
_cell_angle_gamma 29.750335
_cell_volume 795.177317
_symmetry_space_group_name_H-M "P -1"
_symmetry_group_IT_number 2
_symmetry_cell_setting 'triclinic'
loop_
_space_group_symop_operation_xyz
x,y,z
-x,-y,-z
loop_
_atom_site_type_symbol
_atom_site_label
_atom_site_fract_x
_atom_site_fract_y
_atom_site_fract_z
Si Si1 0.606856 0.971407 0.917261
Si Si2 0.191059 0.372727 0.447315
Si Si3 0.958105 0.658212 0.052396
Si Si4 0.674478 0.293883 0.037638
Si Si5 0.121088 0.622096 0.360469
Si Si6 0.962318 0.163758 0.237166
Si Si7 0.803088 0.479225 0.183955
Si Si8 0.574448 0.638266 0.931400
O O1 0.668817 0.852644 0.703874
O O2 0.775060 0.854848 0.012353
O O3 0.500000 0.000000 0.000000
O O4 0.485553 0.184052 0.960452
O O5 0.174723 0.466226 0.364035
O O6 0.282660 0.352522 0.615713
O O7 0.000000 0.500000 0.500000
O O8 0.954365 0.742413 0.256808
O O9 0.000000 0.500000 0.000000
O O10 0.128960 0.521284 0.927653
O O11 0.500000 0.500000 0.000000
O O12 0.771227 0.285487 0.192276
O O13 0.596008 0.279342 0.102704
O O14 0.845839 0.085491 0.862961
O O15 0.050536 0.782953 0.554598
O O16 0.288792 0.508558 0.255894
O O17 0.964819 0.259778 0.191598
O O18 0.660249 0.535915 0.071777
#
# Coordination Sequence:
#
# PCOD8004904 Si02
#       8
#     2   2   2   2   2   2   2   2
#     4  12  22  37  57  94 130 166 210 258 317 364
#     4  11  20  36  60  86 126 168 212 253 299 381
#     4  11  19  37  59  85 127 176 203 248 311 376
#     4  11  23  45  70  95 125 160 213 269 329 374
#     4  10  22  41  62  93 126 165 216 252 316 383
#     4  10  23  44  70  93 124 164 211 267 321 382
#     4  10  20  38  63  88 122 168 211 251 313 376
#     4  11  23  40  64  93 128 165 207 269 316 376
#
# _framework density 20.121299
#
# number of rings (size 3 to 8) (size 9 to 14) (size 15 to 20)
#    0.000    1.250    5.000    1.500    1.750    1.000 
#    4.500    0.625    0.000    0.000    0.000    0.000 
#    0.000    0.000    0.000    0.000    0.000    0.000 
#
# Total GULP energy -198248.567263 kJ/mol
# GULP energy per Si atom -12390.535454 kJ/mol
# Density = 2.007550 g / cm^3
# Si number density = 20.121299 Si / 1000 Ang^3
#
#
#
# Elastic Constant Matrix: (Units=GPa)
#
#
# Indices 1 2 3 4 5 6 
#
# 1 93.4264 12.1257 38.4141 -3.5109 2.5194 -10.4828
# 2 12.1257 88.0156 46.8591 0.1688 6.8958 -4.7634
# 3 38.4141 46.8591 165.1229 -7.4985 11.8622 -4.6249
# 4 -3.5109 0.1688 -7.4985 32.3668 -0.3158 3.3011
# 5 2.5194 6.8958 11.8622 -0.3158 26.5919 -2.7857
# 6 -10.4828 -4.7634 -4.6249 3.3011 -2.7857 26.6448
#
#
#
# Elastic Compliance Matrix: (Units=1/GPa)
#
#
# Indices 1 2 3 4 5 6 
#
# 1 0.012332 -0.000032 -0.002764 0.000255 0.000536 0.004391
# 2 -0.000032 0.013579 -0.003727 -0.001131 -0.001687 0.001731
# 3 -0.002764 -0.003727 0.007980 0.001629 -0.002398 -0.000821
# 4 0.000255 -0.001131 0.001629 0.031689 -0.000479 -0.003795
# 5 0.000536 -0.001687 -0.002398 -0.000479 0.039441 0.003676
# 6 0.004391 0.001731 -0.000821 -0.003795 0.003676 0.040280
#
#
# Mechanical properties :
#
#
# Convention : Reuss Voigt Hill
#
# Bulk Modulus (GPa) = 47.97650 60.15142 54.06396
# Shear Modulus (GPa) = 30.24877 33.73174 31.99025
#
# Velocity S-wave (km/s) = 3.88147 4.09885 3.99164
# Velocity P-wave (km/s) = 6.63198 7.23603 6.94058
#
# Compressibility (1/GPa) = 0.02084354
#
# Stress axis : x y z
#
# Youngs Moduli (GPa) = 81.09028 73.64493 125.31232
#
# Poissons Ratio (x) = 0.00239 0.34632
# Poissons Ratio (y) = 0.00263 0.46710
# Poissons Ratio (z) = 0.22410 0.27451
#
# Static dielectric constant tensor:
#      x y z
#    x 3.763160 -0.069100 -0.021860 
#    y -0.069100 3.929560 -0.327590 
#    z -0.021860 -0.327590 3.844290 
# 
# 
# High freq. dielectric constant tensor:
#      x y z
#    x 1.801230 -0.000670 0.005400 
#    y -0.000670 1.770500 -0.011350 
#    z 0.005400 -0.011350 1.788630 
# 
# From -- ./inp_files/206678.got.cif
#   From: 2010.06.25/outbox.cif.g09.slc.cpg/sg2_104_cif.got.tgz:206678.got - 2010.06.27 13:26:56.
