data_PCOD8004076
_publ_section_title
;
Structure prediction by ZEFSAII (Michael W. Deem and Ramdas Pophale) SiO2 
 PCOD8004076
Probable space group: P -1
;
_chemical_formula_sum "Si O2"
_cell_formula_units_Z 14
_cell_length_a 19.534088
_cell_length_b 8.465033
_cell_length_c 11.838305
_cell_angle_alpha 144.339473
_cell_angle_beta 31.528863
_cell_angle_gamma 130.078119
_cell_volume 589.103904
_symmetry_space_group_name_H-M "P -1"
_symmetry_group_IT_number 2
_symmetry_cell_setting 'triclinic'
loop_
_space_group_symop_operation_xyz
x,y,z
-x,-y,-z
loop_
_atom_site_type_symbol
_atom_site_label
_atom_site_fract_x
_atom_site_fract_y
_atom_site_fract_z
Si Si1 0.948950 0.475822 0.720299
Si Si2 0.874059 0.361292 0.264535
Si Si3 0.623377 0.260246 0.698487
Si Si4 0.389904 0.814034 0.069078
Si Si5 0.655526 0.745174 0.216279
Si Si6 0.836872 0.979735 0.666983
Si Si7 0.177530 0.085621 0.094902
O O1 0.997637 0.694203 0.865693
O O2 0.068443 0.367882 0.400630
O O3 0.948933 0.176971 0.609580
O O4 0.808212 0.622952 0.962563
O O5 0.744653 0.361256 0.523490
O O6 0.875190 0.665733 0.390328
O O7 0.882727 0.147218 0.026112
O O8 0.660839 0.169843 0.721564
O O9 0.588100 0.983816 0.531027
O O10 0.500000 0.500000 0.000000
O O11 0.275278 0.896143 0.189953
O O12 0.439714 0.486593 0.786837
O O13 0.500000 0.000000 0.000000
O O14 0.679896 0.865144 0.127529
O O15 0.784759 0.005687 0.883802
#
# Coordination Sequence:
#
# PCOD8004076 Si02
#       7
#     2   2   2   2   2   2   2
#     4  10  21  37  60  98 132 161 205 256 311 371
#     4  10  21  39  66  93 125 171 208 248 312 373
#     4  11  25  45  66  91 123 165 218 265 310 372
#     4  11  24  43  66  90 122 166 213 263 316 374
#     4  10  24  42  66  95 125 165 211 265 316 365
#     4  10  22  38  59  94 131 162 204 256 311 371
#     4  10  20  37  63  93 130 166 201 251 311 377
#
# _framework density 23.764907000000001
#
# number of rings (size 3 to 8) (size 9 to 14) (size 15 to 20)
#    0.000    1.714    0.000    4.714    0.000   11.429 
#    0.000    4.286    0.000    0.000    0.000    0.000 
#    0.000    0.000    0.000    0.000    0.000    0.000 
#
# Total GULP energy -173469.722968 kJ/mol
# GULP energy per Si atom -12390.694498 kJ/mol
# Density = 2.371082 g / cm^3
# Si number density = 23.764907 Si / 1000 Ang^3
#
#
#
# Elastic Constant Matrix: (Units=GPa)
#
#
# Indices 1 2 3 4 5 6 
#
# 1 108.8395 36.5697 51.8154 5.4133 28.0744 -0.0794
# 2 36.5697 125.7795 29.6140 20.3740 7.7173 24.7188
# 3 51.8154 29.6140 88.8294 25.0831 22.6443 -4.6790
# 4 5.4133 20.3740 25.0831 28.5348 10.4284 7.0761
# 5 28.0744 7.7173 22.6443 10.4284 24.4899 0.0057
# 6 -0.0794 24.7188 -4.6790 7.0761 0.0057 36.6105
#
#
#
# Elastic Compliance Matrix: (Units=1/GPa)
#
#
# Indices 1 2 3 4 5 6 
#
# 1 0.018921 -0.004403 -0.009074 0.014343 -0.018020 -0.000915
# 2 -0.004403 0.011560 -0.001073 -0.006754 0.005274 -0.006647
# 3 -0.009074 -0.001073 0.023320 -0.018796 -0.002821 0.007319
# 4 0.014343 -0.006754 -0.018796 0.065294 -0.024736 -0.010427
# 5 -0.018020 0.005274 -0.002821 -0.024736 0.072971 0.000809
# 6 -0.000915 -0.006647 0.007319 -0.010427 0.000809 0.034751
#
#
# Mechanical properties :
#
#
# Convention : Reuss Voigt Hill
#
# Bulk Modulus (GPa) = 40.48199 62.16071 51.32135
# Shear Modulus (GPa) = 18.92867 31.62366 25.27616
#
# Velocity S-wave (km/s) = 2.82529 3.65182 3.26481
# Velocity P-wave (km/s) = 5.26444 6.63282 5.98785
#
# Compressibility (1/GPa) = 0.02470234
#
# Stress axis : x y z
#
# Youngs Moduli (GPa) = 52.85129 86.50583 42.88162
#
# Poissons Ratio (x) = 0.38085 0.38909
# Poissons Ratio (y) = 0.23268 0.04602
# Poissons Ratio (z) = 0.47955 0.09283
#
# Static dielectric constant tensor:
#      x y z
#    x 4.535940 0.320350 0.127680 
#    y 0.320350 5.648820 -0.054980 
#    z 0.127680 -0.054980 4.029950 
# 
# 
# High freq. dielectric constant tensor:
#      x y z
#    x 1.958090 0.002890 0.008300 
#    y 0.002890 1.967060 0.008450 
#    z 0.008300 0.008450 1.918950 
# 
# From -- ./inp_files/470178.got.cif
#   From: 2010.06.25/outbox.cif.g09.slc.cpg/sg2_236_cif.got.tgz:470178.got - 2010.06.27 13:26:56.
