data_PCOD8004518
_publ_section_title
;
Structure prediction by ZEFSAII (Michael W. Deem and Ramdas Pophale) SiO2 
 PCOD8004518
Probable space group: P -1
;
_chemical_formula_sum "Si O2"
_cell_formula_units_Z 16
_cell_length_a 10.538242
_cell_length_b 16.340641
_cell_length_c 19.652712
_cell_angle_alpha 20.402828
_cell_angle_beta 135.877598
_cell_angle_gamma 127.229461
_cell_volume 788.661909
_symmetry_space_group_name_H-M "P -1"
_symmetry_group_IT_number 2
_symmetry_cell_setting 'triclinic'
loop_
_space_group_symop_operation_xyz
x,y,z
-x,-y,-z
loop_
_atom_site_type_symbol
_atom_site_label
_atom_site_fract_x
_atom_site_fract_y
_atom_site_fract_z
Si Si1 0.285167 0.778374 0.148112
Si Si2 0.055835 0.314451 0.605422
Si Si3 0.303438 0.820466 0.410307
Si Si4 0.664462 0.432087 0.525415
Si Si5 0.059693 0.183286 0.430939
Si Si6 0.273923 0.311207 0.298524
Si Si7 0.935968 0.708966 0.002282
Si Si8 0.008947 0.837473 0.784555
O O1 0.470213 0.651446 0.273250
O O2 0.339690 0.741266 0.277402
O O3 0.123864 0.647242 0.169153
O O4 0.209187 0.065832 0.881504
O O5 0.858324 0.266676 0.541972
O O6 0.000000 0.500000 0.500000
O O7 0.162311 0.445717 0.490682
O O8 0.309439 0.734914 0.401510
O O9 0.503925 0.725086 0.599615
O O10 0.240973 0.118271 0.158562
O O11 0.241631 0.242641 0.418722
O O12 0.901378 0.449145 0.170115
O O13 0.092340 0.055053 0.617728
O O14 0.000000 0.000000 0.500000
O O15 0.190051 0.147058 0.342528
O O16 0.168758 0.589063 0.023154
O O17 0.971129 0.864564 0.828860
#
# Coordination Sequence:
#
# PCOD8004518 Si02
#       8
#     2   2   2   2   2   2   2   2
#     4  10  21  37  60  83 108 146 192 229 270 324
#     4   9  20  36  55  80 112 143 176 224 276 326
#     4  10  21  37  54  81 118 148 181 226 279 332
#     4  10  20  38  60  81 109 149 188 231 272 318
#     4   9  18  36  59  80 104 142 188 228 270 322
#     4   9  18  36  58  80 108 142 183 228 272 326
#     4  10  21  35  54  83 116 146 179 227 277 331
#     4   9  18  35  58  79 106 143 183 229 273 318
#
# _framework density 20.287527000000001
#
# number of rings (size 3 to 8) (size 9 to 14) (size 15 to 20)
#    0.000    2.500    0.000    2.625    0.000    7.000 
#    0.000   16.250    0.000    0.000    0.000    0.000 
#    0.000    0.000    0.000    0.000    0.000    0.000 
#
# Total GULP energy -198222.022761 kJ/mol
# GULP energy per Si atom -12388.876423 kJ/mol
# Density = 2.024135 g / cm^3
# Si number density = 20.287527 Si / 1000 Ang^3
#
#
#
# Elastic Constant Matrix: (Units=GPa)
#
#
# Indices 1 2 3 4 5 6 
#
# 1 80.2194 27.7173 59.6765 -3.6730 15.2177 3.0143
# 2 27.7173 75.7475 44.3893 -5.6023 23.3321 0.1307
# 3 59.6765 44.3893 99.9474 -13.3171 8.9184 2.7935
# 4 -3.6730 -5.6023 -13.3171 41.3280 0.3760 9.1029
# 5 15.2177 23.3321 8.9184 0.3760 41.7788 0.6963
# 6 3.0143 0.1307 2.7935 9.1029 0.6963 33.6808
#
#
#
# Elastic Compliance Matrix: (Units=1/GPa)
#
#
# Indices 1 2 3 4 5 6 
#
# 1 0.024060 0.001751 -0.014863 -0.002318 -0.006545 -0.000166
# 2 0.001751 0.021484 -0.009684 -0.000137 -0.010581 0.000819
# 3 -0.014863 -0.009684 0.023433 0.005335 0.005808 -0.002138
# 4 -0.002318 -0.000137 0.005335 0.027374 -0.000338 -0.007626
# 5 -0.006545 -0.010581 0.005808 -0.000338 0.030999 -0.000404
# 6 -0.000166 0.000819 -0.002138 -0.007626 -0.000404 0.031949
#
#
# Mechanical properties :
#
#
# Convention : Reuss Voigt Hill
#
# Bulk Modulus (GPa) = 42.76404 57.72006 50.24205
# Shear Modulus (GPa) = 23.50890 31.63294 27.57092
#
# Velocity S-wave (km/s) = 3.40779 3.95299 3.69047
# Velocity P-wave (km/s) = 6.05052 7.02479 6.55578
#
# Compressibility (1/GPa) = 0.02338413
#
# Stress axis : x y z
#
# Youngs Moduli (GPa) = 41.56345 46.54709 42.67430
#
# Poissons Ratio (x) = -0.08152 0.63429
# Poissons Ratio (y) = -0.07279 0.41326
# Poissons Ratio (z) = 0.61778 0.45077
#
# Static dielectric constant tensor:
#      x y z
#    x 3.917170 0.100840 -0.025570 
#    y 0.100840 3.749570 -0.252000 
#    z -0.025570 -0.252000 3.718280 
# 
# 
# High freq. dielectric constant tensor:
#      x y z
#    x 1.785030 -0.009590 0.007740 
#    y -0.009590 1.786370 -0.018060 
#    z 0.007740 -0.018060 1.783610 
# 
# From -- ./inp_files/595832.got.cif
#   From: 2010.06.25/outbox.cif.g09.slc.cpg/sg2_298_cif.got.tgz:595832.got - 2010.06.27 13:26:56.
