data_PCOD8004731
_publ_section_title
;
Structure prediction by ZEFSAII (Michael W. Deem and Ramdas Pophale) SiO2 
 PCOD8004731
Probable space group: P -1
;
_chemical_formula_sum "Si O2"
_cell_formula_units_Z 14
_cell_length_a 5.212285
_cell_length_b 13.145134
_cell_length_c 14.779842
_cell_angle_alpha 122.266668
_cell_angle_beta 131.052519
_cell_angle_gamma 83.644512
_cell_volume 598.275821
_symmetry_space_group_name_H-M "P -1"
_symmetry_group_IT_number 2
_symmetry_cell_setting 'triclinic'
loop_
_space_group_symop_operation_xyz
x,y,z
-x,-y,-z
loop_
_atom_site_type_symbol
_atom_site_label
_atom_site_fract_x
_atom_site_fract_y
_atom_site_fract_z
Si Si1 0.008157 0.643820 0.078884
Si Si2 0.581390 0.790341 0.980262
Si Si3 0.699753 0.280263 0.625474
Si Si4 0.869866 0.146562 0.430516
Si Si5 0.521350 0.513010 0.405764
Si Si6 0.308892 0.712757 0.694497
Si Si7 0.629359 0.130350 0.846234
O O1 0.055478 0.694756 0.216731
O O2 0.348684 0.741301 0.144345
O O3 0.630083 0.657194 0.962714
O O4 0.000000 0.500000 0.000000
O O5 0.431239 0.855376 0.054810
O O6 0.983684 0.889470 0.086892
O O7 0.297974 0.764231 0.818033
O O8 0.861347 0.211879 0.555731
O O9 0.749601 0.423275 0.667503
O O10 0.280064 0.190261 0.507628
O O11 0.599431 0.175804 0.307687
O O12 0.705165 0.991207 0.330296
O O13 0.500000 0.500000 0.500000
O O14 0.413985 0.365776 0.273023
O O15 0.928920 0.608569 0.519308
#
# Coordination Sequence:
#
# PCOD8004731 Si02
#       7
#     2   2   2   2   2   2   2
#     4  10  25  46  65  96 129 167 213 258 319 379
#     4  10  24  42  64  94 123 172 205 259 318 369
#     4  11  24  40  70  94 127 169 208 268 312 371
#     4  11  24  43  65  97 126 166 217 259 319 369
#     4  10  20  38  61  96 126 165 211 258 320 364
#     4  10  22  38  63  93 132 163 210 266 310 382
#     4  10  25  44  62  97 126 170 213 256 317 376
#
# _framework density 23.400580000000001
#
# number of rings (size 3 to 8) (size 9 to 14) (size 15 to 20)
#    0.857    0.857    1.429    1.714    4.000    2.857 
#    0.000    0.000    0.000    0.000    0.000    0.000 
#    0.000    0.000    0.000    0.000    0.000    0.000 
#
# Total GULP energy -173496.248112 kJ/mol
# GULP energy per Si atom -12392.589151 kJ/mol
# Density = 2.334732 g / cm^3
# Si number density = 23.400580 Si / 1000 Ang^3
#
#
#
# Elastic Constant Matrix: (Units=GPa)
#
#
# Indices 1 2 3 4 5 6 
#
# 1 100.3288 16.0664 16.3216 -0.5543 -30.9829 15.5888
# 2 16.0664 79.9331 37.7821 8.8788 -3.9773 19.6762
# 3 16.3216 37.7821 96.7849 -12.1449 -35.4908 14.3742
# 4 -0.5543 8.8788 -12.1449 37.8464 5.8970 -5.7805
# 5 -30.9829 -3.9773 -35.4908 5.8970 46.0449 -4.5048
# 6 15.5888 19.6762 14.3742 -5.7805 -4.5048 24.1700
#
#
#
# Elastic Compliance Matrix: (Units=1/GPa)
#
#
# Indices 1 2 3 4 5 6 
#
# 1 0.014598 -0.001969 0.003712 -0.001221 0.011878 -0.008098
# 2 -0.001969 0.021729 -0.009882 -0.009325 -0.007252 -0.014124
# 3 0.003712 -0.009882 0.020752 0.006113 0.016648 -0.002125
# 4 -0.001221 -0.009325 0.006113 0.032444 0.000156 0.012531
# 5 0.011878 -0.007252 0.016648 0.000156 0.041516 -0.003883
# 6 -0.008098 -0.014124 -0.002125 0.012531 -0.003883 0.061632
#
#
# Mechanical properties :
#
#
# Convention : Reuss Voigt Hill
#
# Bulk Modulus (GPa) = 24.50936 46.37633 35.44284
# Shear Modulus (GPa) = 22.46693 35.40405 28.93549
#
# Velocity S-wave (km/s) = 3.10191 3.89389 3.52025
# Velocity P-wave (km/s) = 4.82967 6.33072 5.63044
#
# Compressibility (1/GPa) = 0.04080074
#
# Stress axis : x y z
#
# Youngs Moduli (GPa) = 68.50117 46.02168 48.18895
#
# Poissons Ratio (x) = 0.09060 -0.17887
# Poissons Ratio (y) = 0.13485 0.47622
# Poissons Ratio (z) = -0.25426 0.45480
#
# Static dielectric constant tensor:
#      x y z
#    x 3.843490 0.074640 -0.190010 
#    y 0.074640 4.464980 0.082200 
#    z -0.190010 0.082200 4.089040 
# 
# 
# High freq. dielectric constant tensor:
#      x y z
#    x 1.920250 0.011930 -0.017590 
#    y 0.011930 1.923360 -0.005320 
#    z -0.017590 -0.005320 1.914060 
# 
# From -- ./inp_files/65441.got.cif
#   From: 2010.06.25/outbox.cif.g09.slc.cpg/sg2_33_cif.got.tgz:65441.got - 2010.06.27 13:26:56.
