data_PCOD8004917
_publ_section_title
;
Structure prediction by ZEFSAII (Michael W. Deem and Ramdas Pophale) SiO2 
 PCOD8004917
Probable space group: P -1
;
_chemical_formula_sum "Si O2"
_cell_formula_units_Z 16
_cell_length_a 14.297300
_cell_length_b 11.042088
_cell_length_c 14.074085
_cell_angle_alpha 112.191955
_cell_angle_beta 152.017651
_cell_angle_gamma 51.714281
_cell_volume 726.557764
_symmetry_space_group_name_H-M "P -1"
_symmetry_group_IT_number 2
_symmetry_cell_setting 'triclinic'
loop_
_space_group_symop_operation_xyz
x,y,z
-x,-y,-z
loop_
_atom_site_type_symbol
_atom_site_label
_atom_site_fract_x
_atom_site_fract_y
_atom_site_fract_z
Si Si1 0.718319 0.897175 0.414067
Si Si2 0.838920 0.476898 0.278997
Si Si3 0.446466 0.408978 0.301412
Si Si4 0.000427 0.405029 0.186733
Si Si5 0.101029 0.080881 0.232688
Si Si6 0.341898 0.819717 0.004514
Si Si7 0.891907 0.061139 0.524664
Si Si8 0.484270 0.693169 0.454600
O O1 0.680428 0.970943 0.507229
O O2 0.034599 0.719940 0.644771
O O3 0.694120 0.023173 0.353172
O O4 0.519060 0.866744 0.207266
O O5 0.000000 0.500000 0.500000
O O6 0.886888 0.487656 0.213904
O O7 0.528263 0.624884 0.069644
O O8 0.719657 0.266256 0.446399
O O9 0.403281 0.581008 0.325787
O O10 0.457970 0.324209 0.385640
O O11 0.205132 0.458543 0.036909
O O12 0.063697 0.222662 0.173441
O O13 0.262601 0.376475 0.399968
O O14 0.808977 0.170043 0.035922
O O15 0.239222 0.891129 0.257154
O O16 0.134193 0.962833 0.785162
O O17 0.000000 0.000000 0.500000
#
# Coordination Sequence:
#
# PCOD8004917 Si02
#       8
#     2   2   2   2   2   2   2   2
#     4   9  20  37  60  89 125 166 210 260 325 378
#     4   9  20  39  65  96 126 166 213 268 332 379
#     4  11  25  43  63  97 132 177 217 261 328 382
#     4  11  24  40  69  98 127 172 219 271 327 385
#     4  10  22  42  65  97 122 165 219 271 323 377
#     4  10  20  38  63  89 129 166 208 263 330 381
#     4  11  23  39  61  93 129 166 219 266 315 393
#     4  11  24  46  64  91 139 170 223 268 316 390
#
# _framework density 22.021649
#
# number of rings (size 3 to 8) (size 9 to 14) (size 15 to 20)
#    0.000    1.750    2.500    1.500    0.000   13.500 
#    0.000    0.000    0.000    0.000    0.000    0.000 
#    0.000    0.000    0.000    0.000    0.000    0.000 
#
# Total GULP energy -198322.968693 kJ/mol
# GULP energy per Si atom -12395.185543 kJ/mol
# Density = 2.197153 g / cm^3
# Si number density = 22.021649 Si / 1000 Ang^3
#
#
#
# Elastic Constant Matrix: (Units=GPa)
#
#
# Indices 1 2 3 4 5 6 
#
# 1 70.4763 3.6890 17.5163 -2.8689 7.8762 -6.2709
# 2 3.6890 79.8520 17.5468 -15.3873 5.3923 -6.2486
# 3 17.5163 17.5468 89.8456 -13.3171 15.1209 -0.8036
# 4 -2.8689 -15.3873 -13.3171 34.6757 -0.1410 6.8413
# 5 7.8762 5.3923 15.1209 -0.1410 31.4086 -4.6639
# 6 -6.2709 -6.2486 -0.8036 6.8413 -4.6639 33.0133
#
#
#
# Elastic Compliance Matrix: (Units=1/GPa)
#
#
# Indices 1 2 3 4 5 6 
#
# 1 0.015310 0.000193 -0.002656 -0.000191 -0.002207 0.002608
# 2 0.000193 0.014130 -0.001758 0.005336 -0.001401 0.001365
# 3 -0.002656 -0.001758 0.013663 0.004679 -0.005932 -0.002312
# 4 -0.000191 0.005336 0.004679 0.034268 -0.003943 -0.006571
# 5 -0.002207 -0.001401 -0.005932 -0.003943 0.036229 0.005106
# 6 0.002608 0.001365 -0.002312 -0.006571 0.005106 0.033071
#
#
# Mechanical properties :
#
#
# Convention : Reuss Voigt Hill
#
# Bulk Modulus (GPa) = 28.85194 35.29755 32.07475
# Shear Modulus (GPa) = 29.99981 33.24765 31.62373
#
# Velocity S-wave (km/s) = 3.69492 3.88979 3.79361
# Velocity P-wave (km/s) = 5.59762 6.01975 5.81252
#
# Compressibility (1/GPa) = 0.03465971
#
# Stress axis : x y z
#
# Youngs Moduli (GPa) = 65.31618 70.76999 73.19228
#
# Poissons Ratio (x) = -0.01363 0.19440
# Poissons Ratio (y) = -0.01258 0.12869
# Poissons Ratio (z) = 0.17348 0.12443
#
# Static dielectric constant tensor:
#      x y z
#    x 4.647230 -0.528320 -0.032400 
#    y -0.528320 4.871560 -0.198610 
#    z -0.032400 -0.198610 3.948600 
# 
# 
# High freq. dielectric constant tensor:
#      x y z
#    x 1.853180 -0.003180 -0.000800 
#    y -0.003180 1.881280 -0.006760 
#    z -0.000800 -0.006760 1.868750 
# 
# From -- ./inp_files/532561.got.cif
#   From: 2010.06.25/outbox.cif.g09.slc.cpg/sg2_267_cif.got.tgz:532561.got - 2010.06.27 13:26:56.
