data_PCOD8004412
_publ_section_title
;
Structure prediction by ZEFSAII (Michael W. Deem and Ramdas Pophale) SiO2 
 PCOD8004412
Probable space group: P -1
;
_chemical_formula_sum "Si O2"
_cell_formula_units_Z 14
_cell_length_a 7.518954
_cell_length_b 15.276029
_cell_length_c 8.412314
_cell_angle_alpha 119.636607
_cell_angle_beta 54.009580
_cell_angle_gamma 118.616882
_cell_volume 654.694877
_symmetry_space_group_name_H-M "P -1"
_symmetry_group_IT_number 2
_symmetry_cell_setting 'triclinic'
loop_
_space_group_symop_operation_xyz
x,y,z
-x,-y,-z
loop_
_atom_site_type_symbol
_atom_site_label
_atom_site_fract_x
_atom_site_fract_y
_atom_site_fract_z
Si Si1 0.529675 0.640937 0.921135
Si Si2 0.704216 0.875216 0.003883
Si Si3 0.227228 0.900688 0.333481
Si Si4 0.122381 0.684976 0.365446
Si Si5 0.174314 0.515988 0.781364
Si Si6 0.000222 0.392767 0.321440
Si Si7 0.011926 0.039099 0.771814
O O1 0.427159 0.556134 0.759699
O O2 0.742454 0.610030 0.861170
O O3 0.616126 0.754147 0.894557
O O4 0.340218 0.645567 0.158372
O O5 0.496977 0.923380 0.197724
O O6 0.866016 0.885849 0.083215
O O7 0.832907 0.936429 0.840953
O O8 0.115514 0.792482 0.385075
O O9 0.113674 0.894299 0.212829
O O10 0.193252 0.999624 0.536522
O O11 0.124990 0.698558 0.569397
O O12 0.881709 0.597134 0.377413
O O13 0.138301 0.610109 0.772102
O O14 0.000000 0.500000 0.000000
O O15 0.000000 0.500000 0.500000
#
# Coordination Sequence:
#
# PCOD8004412 Si02
#       7
#     2   2   2   2   2   2   2
#     4  10  21  38  58  82 114 149 184 226 275 328
#     4  10  21  37  58  84 111 147 188 227 278 332
#     4  10  20  38  58  83 113 145 186 230 279 330
#     4   9  20  37  57  83 114 146 186 228 272 332
#     4   9  20  37  57  82 113 146 182 226 271 327
#     4  10  21  37  56  81 112 148 186 226 272 324
#     4  10  21  37  59  82 112 146 184 236 280 323
#
# _framework density 21.384005999999999
#
# number of rings (size 3 to 8) (size 9 to 14) (size 15 to 20)
#    0.000    2.286    0.000    1.714    0.000   10.857 
#    0.000   14.286    0.000    0.000    0.000    0.000 
#    0.000    0.000    0.000    0.000    0.000    0.000 
#
# Total GULP energy -173547.864541 kJ/mol
# GULP energy per Si atom -12396.276039 kJ/mol
# Density = 2.133534 g / cm^3
# Si number density = 21.384006 Si / 1000 Ang^3
#
#
#
# Elastic Constant Matrix: (Units=GPa)
#
#
# Indices 1 2 3 4 5 6 
#
# 1 85.0936 23.6008 20.8459 -18.6014 3.1085 -15.9803
# 2 23.6008 50.5545 14.8901 -6.2539 2.4776 -4.9471
# 3 20.8459 14.8901 47.7864 -15.4728 0.7790 -4.5669
# 4 -18.6014 -6.2539 -15.4728 26.0221 -4.9667 6.7841
# 5 3.1085 2.4776 0.7790 -4.9667 32.3317 -11.5580
# 6 -15.9803 -4.9471 -4.5669 6.7841 -11.5580 35.1067
#
#
#
# Elastic Compliance Matrix: (Units=1/GPa)
#
#
# Indices 1 2 3 4 5 6 
#
# 1 0.016635 -0.005619 -0.002394 0.008061 0.002134 0.005614
# 2 -0.005619 0.023883 -0.005572 -0.001858 -0.001454 -0.000037
# 3 -0.002394 -0.005572 0.028249 0.014210 0.002064 -0.000267
# 4 0.008061 -0.001858 0.014210 0.054208 0.006218 -0.003172
# 5 0.002134 -0.001454 0.002064 0.006218 0.035908 0.011655
# 6 0.005614 -0.000037 -0.000267 -0.003172 0.011655 0.035450
#
#
# Mechanical properties :
#
#
# Convention : Reuss Voigt Hill
#
# Bulk Modulus (GPa) = 24.04027 33.56757 28.80392
# Shear Modulus (GPa) = 21.24337 26.96530 24.10434
#
# Velocity S-wave (km/s) = 3.15528 3.55491 3.36104
# Velocity P-wave (km/s) = 4.95389 5.70802 5.34427
#
# Compressibility (1/GPa) = 0.04159686
#
# Stress axis : x y z
#
# Youngs Moduli (GPa) = 60.11398 41.87130 35.39954
#
# Poissons Ratio (x) = 0.23527 0.08475
# Poissons Ratio (y) = 0.33777 0.19725
# Poissons Ratio (z) = 0.14392 0.23331
#
# Static dielectric constant tensor:
#      x y z
#    x 4.370910 -0.084600 0.263140 
#    y -0.084600 3.964790 -0.223490 
#    z 0.263140 -0.223490 4.072050 
# 
# 
# High freq. dielectric constant tensor:
#      x y z
#    x 1.832780 -0.010990 -0.001440 
#    y -0.010990 1.832770 -0.013610 
#    z -0.001440 -0.013610 1.842700 
# 
# From -- ./inp_files/46427.got.cif
#   From: 2010.06.25/outbox.cif.g09.slc.cpg/sg2_24_cif.got.tgz:46427.got - 2010.06.27 13:26:56.
