data_PCOD8004181
_publ_section_title
;
Structure prediction by ZEFSAII (Michael W. Deem and Ramdas Pophale) SiO2 
 PCOD8004181
Probable space group: P -1
;
_chemical_formula_sum "Si O2"
_cell_formula_units_Z 16
_cell_length_a 13.774073
_cell_length_b 9.021067
_cell_length_c 9.357865
_cell_angle_alpha 133.145258
_cell_angle_beta 95.994271
_cell_angle_gamma 76.889641
_cell_volume 824.171333
_symmetry_space_group_name_H-M "P -1"
_symmetry_group_IT_number 2
_symmetry_cell_setting 'triclinic'
loop_
_space_group_symop_operation_xyz
x,y,z
-x,-y,-z
loop_
_atom_site_type_symbol
_atom_site_label
_atom_site_fract_x
_atom_site_fract_y
_atom_site_fract_z
Si Si1 0.606225 0.998237 0.696006
Si Si2 0.311396 0.604344 0.038796
Si Si3 0.231521 0.353545 0.391762
Si Si4 0.861029 0.505292 0.226488
Si Si5 0.615570 0.861105 0.285798
Si Si6 0.086680 0.324169 0.120238
Si Si7 0.793745 0.350596 0.659148
Si Si8 0.825790 0.893304 0.278442
O O1 0.488242 0.018244 0.719355
O O2 0.666424 0.816572 0.685175
O O3 0.631895 0.945686 0.500836
O O4 0.636032 0.213658 0.884177
O O5 0.206070 0.626728 0.956116
O O6 0.384051 0.384097 0.866676
O O7 0.292193 0.620080 0.215823
O O8 0.184818 0.442641 0.591345
O O9 0.150072 0.251459 0.226599
O O10 0.256286 0.542741 0.425204
O O11 0.865811 0.718027 0.286538
O O12 0.970524 0.362014 0.163988
O O13 0.708398 0.899843 0.230963
O O14 0.117315 0.535038 0.203518
O O15 0.113331 0.148741 0.887290
O O16 0.842651 0.109760 0.484608
#
# Coordination Sequence:
#
# PCOD8004181 Si02
#       8
#     2   2   2   2   2   2   2   2
#     4  11  21  38  63  87 114 156 193 243 290 342
#     4  11  20  39  60  90 116 152 197 241 282 346
#     4  10  21  41  56  86 124 153 189 244 289 343
#     4  11  20  39  63  86 117 157 198 237 281 349
#     4  10  20  37  65  87 113 146 205 241 285 339
#     4  10  23  39  59  83 127 151 193 240 293 337
#     4  10  22  37  59  82 127 150 189 241 292 336
#     4  11  20  41  61  87 113 157 198 241 281 346
#
# _framework density 19.413437999999999
#
# number of rings (size 3 to 8) (size 9 to 14) (size 15 to 20)
#    0.750    0.750    6.250    1.125    0.000    1.500 
#    2.250    4.375    0.000    0.000    0.000    0.000 
#    0.000    0.000    0.000    0.000    0.000    0.000 
#
# Total GULP energy -198376.312538 kJ/mol
# GULP energy per Si atom -12398.519534 kJ/mol
# Density = 1.936925 g / cm^3
# Si number density = 19.413438 Si / 1000 Ang^3
#
#
#
# Elastic Constant Matrix: (Units=GPa)
#
#
# Indices 1 2 3 4 5 6 
#
# 1 76.9771 26.9249 12.7559 -2.6636 -10.8025 -31.5953
# 2 26.9249 59.9097 22.7942 -11.5577 1.3650 -20.1498
# 3 12.7559 22.7942 90.8353 8.4493 -1.5899 -6.9246
# 4 -2.6636 -11.5577 8.4493 32.9301 2.9725 1.3769
# 5 -10.8025 1.3650 -1.5899 2.9725 24.8573 2.7696
# 6 -31.5953 -20.1498 -6.9246 1.3769 2.7696 33.3813
#
#
#
# Elastic Compliance Matrix: (Units=1/GPa)
#
#
# Indices 1 2 3 4 5 6 
#
# 1 0.023491 -0.004449 -0.000502 -0.001082 0.008457 0.018787
# 2 -0.004449 0.027050 -0.006462 0.010911 -0.006346 0.010853
# 3 -0.000502 -0.006462 0.013152 -0.005784 0.001844 -0.001561
# 4 -0.001082 0.010911 -0.005784 0.036005 -0.006122 0.003385
# 5 0.008457 -0.006346 0.001844 -0.006122 0.044983 0.001076
# 6 0.018787 0.010853 -0.001561 0.003385 0.001076 0.053737
#
#
# Mechanical properties :
#
#
# Convention : Reuss Voigt Hill
#
# Bulk Modulus (GPa) = 24.46904 39.18580 31.82742
# Shear Modulus (GPa) = 21.28885 29.25021 25.26953
#
# Velocity S-wave (km/s) = 3.31509 3.88583 3.61175
# Velocity P-wave (km/s) = 5.22347 6.35308 5.81577
#
# Compressibility (1/GPa) = 0.04086797
#
# Stress axis : x y z
#
# Youngs Moduli (GPa) = 42.56988 36.96922 76.03324
#
# Poissons Ratio (x) = 0.16448 0.03813
# Poissons Ratio (y) = 0.18940 0.49130
# Poissons Ratio (z) = 0.02135 0.23888
#
# Static dielectric constant tensor:
#      x y z
#    x 3.421090 -0.137020 -0.024680 
#    y -0.137020 3.382810 0.050380 
#    z -0.024680 0.050380 3.602760 
# 
# 
# High freq. dielectric constant tensor:
#      x y z
#    x 1.745900 -0.009450 -0.005300 
#    y -0.009450 1.733300 0.004260 
#    z -0.005300 0.004260 1.767400 
# 
# From -- ./inp_files/299713.got.cif
#   From: 2010.06.25/outbox.cif.g09.slc.cpg/sg2_150_cif.got.tgz:299713.got - 2010.06.27 13:26:56.
