data_PCOD8004130
_publ_section_title
;
Structure prediction by ZEFSAII (Michael W. Deem and Ramdas Pophale) SiO2 
 PCOD8004130
Probable space group: P -1
;
_chemical_formula_sum "Si O2"
_cell_formula_units_Z 16
_cell_length_a 9.291898
_cell_length_b 9.420713
_cell_length_c 12.600317
_cell_angle_alpha 65.275972
_cell_angle_beta 125.332209
_cell_angle_gamma 124.021780
_cell_volume 738.453990
_symmetry_space_group_name_H-M "P -1"
_symmetry_group_IT_number 2
_symmetry_cell_setting 'triclinic'
loop_
_space_group_symop_operation_xyz
x,y,z
-x,-y,-z
loop_
_atom_site_type_symbol
_atom_site_label
_atom_site_fract_x
_atom_site_fract_y
_atom_site_fract_z
Si Si1 0.698299 0.644157 0.081022
Si Si2 0.697708 0.974669 0.085565
Si Si3 0.174726 0.456728 0.464562
Si Si4 0.047446 0.158688 0.046475
Si Si5 0.202311 0.109080 0.614423
Si Si6 0.617955 0.880744 0.687971
Si Si7 0.452672 0.805231 0.412750
Si Si8 0.770350 0.398166 0.332240
O O1 0.662213 0.807681 0.051558
O O2 0.772852 0.574374 0.234217
O O3 0.500000 0.500000 0.000000
O O4 0.855055 0.677501 0.041451
O O5 0.793164 0.960301 0.243316
O O6 0.856044 0.141411 0.036068
O O7 0.500000 0.000000 0.000000
O O8 0.245151 0.310755 0.567408
O O9 0.313782 0.600873 0.393745
O O10 0.192866 0.579891 0.533722
O O11 0.945880 0.366676 0.360941
O O12 0.201858 0.161223 0.198490
O O13 0.000000 0.000000 0.000000
O O14 0.389208 0.105667 0.638831
O O15 0.000000 0.000000 0.500000
O O16 0.575076 0.827879 0.564641
O O17 0.434702 0.767793 0.721922
O O18 0.674546 0.083659 0.668177
#
# Coordination Sequence:
#
# PCOD8004130 Si02
#       8
#     2   2   2   2   2   2   2   2
#     4  11  22  42  70  97 125 176 224 272 329 401
#     4  11  27  45  65  97 139 176 221 282 335 397
#     4  10  22  38  59  94 126 166 211 272 327 384
#     4  10  23  38  65  89 127 169 226 259 327 391
#     4  12  24  41  65  92 135 179 220 264 345 393
#     4  10  20  40  61  95 124 162 222 269 322 388
#     4  10  23  36  65  91 128 168 214 274 325 397
#     4  10  20  37  64  91 127 160 212 273 324 384
#
# _framework density 21.666888
#
# number of rings (size 3 to 8) (size 9 to 14) (size 15 to 20)
#    0.000    1.500    2.500    1.875    7.000    3.000 
#    0.000    0.625    0.000    0.000    0.000    0.000 
#    0.000    0.000    0.000    0.000    0.000    0.000 
#
# Total GULP energy -198284.820622 kJ/mol
# GULP energy per Si atom -12392.801289 kJ/mol
# Density = 2.161757 g / cm^3
# Si number density = 21.666888 Si / 1000 Ang^3
#
#
#
# Elastic Constant Matrix: (Units=GPa)
#
#
# Indices 1 2 3 4 5 6 
#
# 1 130.5646 33.6695 35.5832 -1.1810 -1.6504 29.4588
# 2 33.6695 81.8173 22.2616 -9.3497 -6.1933 17.8195
# 3 35.5832 22.2616 70.3149 -5.3032 -0.5392 10.5903
# 4 -1.1810 -9.3497 -5.3032 30.2175 2.9787 -0.0875
# 5 -1.6504 -6.1933 -0.5392 2.9787 35.0397 -7.6183
# 6 29.4588 17.8195 10.5903 -0.0875 -7.6183 38.2283
#
#
#
# Elastic Compliance Matrix: (Units=1/GPa)
#
#
# Indices 1 2 3 4 5 6 
#
# 1 0.010682 -0.002143 -0.003831 -0.000812 -0.001262 -0.006425
# 2 -0.002143 0.015403 -0.002800 0.004054 0.001257 -0.004493
# 3 -0.003831 -0.002800 0.017301 0.002091 -0.000734 -0.000677
# 4 -0.000812 0.004054 0.002091 0.034949 -0.002764 -0.002314
# 5 -0.001262 0.001257 -0.000734 -0.002764 0.030368 0.006636
# 6 -0.006425 -0.004493 -0.000677 -0.002314 0.006636 0.034709
#
#
# Mechanical properties :
#
#
# Convention : Reuss Voigt Hill
#
# Bulk Modulus (GPa) = 38.70107 51.74728 45.22418
# Shear Modulus (GPa) = 29.48620 33.44259 31.46440
#
# Velocity S-wave (km/s) = 3.69302 3.93299 3.81489
# Velocity P-wave (km/s) = 6.00709 6.67529 6.34999
#
# Compressibility (1/GPa) = 0.02583908
#
# Stress axis : x y z
#
# Youngs Moduli (GPa) = 93.61675 64.92254 57.80091
#
# Poissons Ratio (x) = 0.13910 0.22141
# Poissons Ratio (y) = 0.20058 0.16185
# Poissons Ratio (z) = 0.35860 0.18180
#
# Static dielectric constant tensor:
#      x y z
#    x 4.283150 0.615150 -0.158360 
#    y 0.615150 4.156570 -0.177310 
#    z -0.158360 -0.177310 3.836160 
# 
# 
# High freq. dielectric constant tensor:
#      x y z
#    x 1.849700 0.027690 0.000290 
#    y 0.027690 1.843210 -0.008700 
#    z 0.000290 -0.008700 1.847910 
# 
# From -- ./inp_files/184852.got.cif
#   From: 2010.06.25/outbox.cif.g09.slc.cpg/sg2_93_cif.got.tgz:184852.got - 2010.06.27 13:26:56.
