data_PCOD8004141
_publ_section_title
;
Structure prediction by ZEFSAII (Michael W. Deem and Ramdas Pophale) SiO2 
 PCOD8004141
Probable space group: P -1
;
_chemical_formula_sum "Si O2"
_cell_formula_units_Z 16
_cell_length_a 11.169657
_cell_length_b 8.805128
_cell_length_c 11.476420
_cell_angle_alpha 95.939609
_cell_angle_beta 86.123165
_cell_angle_gamma 137.951718
_cell_volume 751.829686
_symmetry_space_group_name_H-M "P -1"
_symmetry_group_IT_number 2
_symmetry_cell_setting 'triclinic'
loop_
_space_group_symop_operation_xyz
x,y,z
-x,-y,-z
loop_
_atom_site_type_symbol
_atom_site_label
_atom_site_fract_x
_atom_site_fract_y
_atom_site_fract_z
Si Si1 0.567806 0.685551 0.708053
Si Si2 0.080758 0.541988 0.371422
Si Si3 0.130751 0.254745 0.398101
Si Si4 0.927981 0.573079 0.181631
Si Si5 0.816050 0.744243 0.346055
Si Si6 0.704054 0.022163 0.922111
Si Si7 0.393067 0.923843 0.855473
Si Si8 0.541158 0.981447 0.623923
O O1 0.727670 0.735730 0.653362
O O2 0.386450 0.412962 0.698113
O O3 0.511361 0.773340 0.634027
O O4 0.631620 0.804630 0.840985
O O5 0.144320 0.427225 0.343915
O O6 0.000000 0.500000 0.500000
O O7 0.946020 0.460225 0.271671
O O8 0.249057 0.806138 0.352396
O O9 0.173524 0.329111 0.535566
O O10 0.927788 0.006133 0.370385
O O11 0.912316 0.726592 0.246506
O O12 0.742633 0.342071 0.118168
O O13 0.088817 0.740097 0.092682
O O14 0.592210 0.063578 0.891597
O O15 0.669370 0.981262 0.062518
O O16 0.413942 0.962328 0.716957
O O17 0.500000 0.000000 0.500000
#
# Coordination Sequence:
#
# PCOD8004141 Si02
#       8
#     2   2   2   2   2   2   2   2
#     4  11  21  41  61  92 124 160 211 250 306 366
#     4  12  23  38  58  90 129 164 198 256 312 366
#     4  11  24  38  57  85 132 166 205 247 308 375
#     4  12  19  39  61  92 124 158 206 257 311 358
#     4  11  21  37  58  88 122 164 202 251 306 368
#     4  10  20  37  64  93 120 158 209 262 299 364
#     4  10  21  37  61  96 121 158 207 257 309 357
#     4  11  21  38  63  92 128 159 197 258 312 365
#
# _framework density 21.281416
#
# number of rings (size 3 to 8) (size 9 to 14) (size 15 to 20)
#    0.000    1.000    7.500    2.250    1.750    0.000 
#    2.250    0.000    0.000    1.500    0.000    0.000 
#    0.000    0.000    0.000    0.000    0.000    0.000 
#
# Total GULP energy -198260.302465 kJ/mol
# GULP energy per Si atom -12391.268904 kJ/mol
# Density = 2.123298 g / cm^3
# Si number density = 21.281416 Si / 1000 Ang^3
#
#
#
# Elastic Constant Matrix: (Units=GPa)
#
#
# Indices 1 2 3 4 5 6 
#
# 1 53.8649 22.5951 22.8659 -4.4083 -10.6251 7.5282
# 2 22.5951 91.4868 27.6566 8.3727 -11.6458 32.6873
# 3 22.8659 27.6566 111.8502 -2.9614 -26.2869 10.8403
# 4 -4.4083 8.3727 -2.9614 26.4979 3.9046 -5.6720
# 5 -10.6251 -11.6458 -26.2869 3.9046 28.6445 -7.8065
# 6 7.5282 32.6873 10.8403 -5.6720 -7.8065 35.3685
#
#
#
# Elastic Compliance Matrix: (Units=1/GPa)
#
#
# Indices 1 2 3 4 5 6 
#
# 1 0.022933 -0.006115 -0.002423 0.005600 0.003927 0.003278
# 2 -0.006115 0.021319 -0.002304 -0.012284 0.000638 -0.019524
# 3 -0.002423 -0.002304 0.012157 0.000514 0.009553 0.001110
# 4 0.005600 -0.012284 0.000514 0.046789 -0.004312 0.016555
# 5 0.003927 0.000638 0.009553 -0.004312 0.047462 0.005431
# 6 0.003278 -0.019524 0.001110 0.016555 0.005431 0.049133
#
#
# Mechanical properties :
#
#
# Convention : Reuss Voigt Hill
#
# Bulk Modulus (GPa) = 28.79831 44.82633 36.81232
# Shear Modulus (GPa) = 21.45448 30.37445 25.91447
#
# Velocity S-wave (km/s) = 3.17855 3.78203 3.49335
# Velocity P-wave (km/s) = 5.19928 6.33885 5.79713
#
# Compressibility (1/GPa) = 0.03472426
#
# Stress axis : x y z
#
# Youngs Moduli (GPa) = 43.60434 46.90758 82.25861
#
# Poissons Ratio (x) = 0.28685 0.19929
# Poissons Ratio (y) = 0.26665 0.18954
# Poissons Ratio (z) = 0.10564 0.10809
#
# Static dielectric constant tensor:
#      x y z
#    x 3.697160 0.452270 -0.211180 
#    y 0.452270 4.028100 0.281640 
#    z -0.211180 0.281640 4.342740 
# 
# 
# High freq. dielectric constant tensor:
#      x y z
#    x 1.813040 0.037730 -0.027750 
#    y 0.037730 1.838050 0.016660 
#    z -0.027750 0.016660 1.831540 
# 
# From -- ./inp_files/281894.got.cif
#   From: 2010.06.25/outbox.cif.g09.slc.cpg/sg2_141_cif.got.tgz:281894.got - 2010.06.27 13:26:56.
