data_PCOD8004541
_publ_section_title
;
Structure prediction by ZEFSAII (Michael W. Deem and Ramdas Pophale) SiO2 
 PCOD8004541
Probable space group: P -1
;
_chemical_formula_sum "Si O2"
_cell_formula_units_Z 16
_cell_length_a 13.982798
_cell_length_b 11.144733
_cell_length_c 6.057174
_cell_angle_alpha 92.144661
_cell_angle_beta 61.466498
_cell_angle_gamma 68.705764
_cell_volume 746.567137
_symmetry_space_group_name_H-M "P -1"
_symmetry_group_IT_number 2
_symmetry_cell_setting 'triclinic'
loop_
_space_group_symop_operation_xyz
x,y,z
-x,-y,-z
loop_
_atom_site_type_symbol
_atom_site_label
_atom_site_fract_x
_atom_site_fract_y
_atom_site_fract_z
Si Si1 0.638609 0.807627 0.766147
Si Si2 0.755322 0.307817 0.048474
Si Si3 0.780466 0.919860 0.329464
Si Si4 0.583025 0.014821 0.224042
Si Si5 0.588643 0.376246 0.618427
Si Si6 0.203913 0.859877 0.397245
Si Si7 0.352093 0.452741 0.104037
Si Si8 0.971802 0.149662 0.102540
O O1 0.725098 0.824749 0.485456
O O2 0.501612 0.855669 0.821065
O O3 0.694494 0.652758 0.762694
O O4 0.635765 0.889230 0.993847
O O5 0.769278 0.173865 0.893048
O O6 0.755780 0.418599 0.881507
O O7 0.868587 0.265044 0.081254
O O8 0.624400 0.375011 0.320700
O O9 0.906563 0.830577 0.056351
O O10 0.693640 0.020327 0.242386
O O11 0.808275 0.994880 0.511348
O O12 0.500000 0.000000 0.500000
O O13 0.682399 0.235872 0.595448
O O14 0.595708 0.500825 0.740933
O O15 0.456854 0.381694 0.800212
O O16 0.084050 0.837595 0.588583
O O17 0.000000 0.000000 0.000000
#
# Coordination Sequence:
#
# PCOD8004541 Si02
#       8
#     2   2   2   2   2   2   2   2
#     4  10  22  38  58  86 117 149 198 235 284 355
#     4  10  20  38  60  83 118 153 189 245 290 335
#     4  10  21  38  58  86 119 155 190 238 293 337
#     4   9  21  38  54  83 116 157 187 236 284 339
#     4   9  20  37  56  86 113 152 191 238 290 345
#     4   9  20  36  59  89 117 144 197 238 288 348
#     4  10  21  38  57  86 116 151 196 235 289 351
#     4   9  20  38  57  86 115 149 197 244 285 339
#
# _framework density 21.431426999999999
#
# number of rings (size 3 to 8) (size 9 to 14) (size 15 to 20)
#    0.000    2.500    0.000    0.375    5.250    8.000 
#   13.500    0.625    0.000    7.500    0.000    0.000 
#    0.000    0.000    0.000    0.000    0.000    0.000 
#
# Total GULP energy -198210.974844 kJ/mol
# GULP energy per Si atom -12388.185928 kJ/mol
# Density = 2.138265 g / cm^3
# Si number density = 21.431427 Si / 1000 Ang^3
#
#
#
# Elastic Constant Matrix: (Units=GPa)
#
#
# Indices 1 2 3 4 5 6 
#
# 1 78.0148 16.9667 48.3689 -6.0844 -13.1397 -0.3860
# 2 16.9667 77.0512 27.6174 -13.5443 -13.2923 2.3243
# 3 48.3689 27.6174 123.7220 -0.9403 -5.6492 2.4658
# 4 -6.0844 -13.5443 -0.9403 27.9471 0.1930 -0.0635
# 5 -13.1397 -13.2923 -5.6492 0.1930 32.2345 0.8998
# 6 -0.3860 2.3243 2.4658 -0.0635 0.8998 17.3526
#
#
#
# Elastic Compliance Matrix: (Units=1/GPa)
#
#
# Indices 1 2 3 4 5 6 
#
# 1 0.018465 0.000158 -0.006958 0.003821 0.006320 0.001065
# 2 0.000158 0.016728 -0.003403 0.007978 0.006375 -0.002055
# 3 -0.006958 -0.003403 0.011466 -0.002766 -0.002179 -0.001225
# 4 0.003821 0.007978 -0.002766 0.040357 0.004139 -0.000657
# 5 0.006320 0.006375 -0.002179 0.004139 0.035884 -0.002249
# 6 0.001065 -0.002055 -0.001225 -0.000657 -0.002249 0.058215
#
#
# Mechanical properties :
#
#
# Convention : Reuss Voigt Hill
#
# Bulk Modulus (GPa) = 38.09071 51.63268 44.86169
# Shear Modulus (GPa) = 23.77866 27.89585 25.83725
#
# Velocity S-wave (km/s) = 3.33456 3.61173 3.47591
# Velocity P-wave (km/s) = 5.71294 6.44493 6.08994
#
# Compressibility (1/GPa) = 0.02625312
#
# Stress axis : x y z
#
# Youngs Moduli (GPa) = 54.15555 59.78159 87.21232
#
# Poissons Ratio (x) = -0.00943 0.60680
# Poissons Ratio (y) = -0.00854 0.29678
# Poissons Ratio (z) = 0.37680 0.20343
#
# Static dielectric constant tensor:
#      x y z
#    x 3.954870 -0.296840 -0.057980 
#    y -0.296840 3.623300 0.035960 
#    z -0.057980 0.035960 4.542640 
# 
# 
# High freq. dielectric constant tensor:
#      x y z
#    x 1.808550 -0.021790 0.002080 
#    y -0.021790 1.818390 -0.003860 
#    z 0.002080 -0.003860 1.860280 
# 
# From -- ./inp_files/93571.got.cif
#   From: 2010.06.25/outbox.cif.g09.slc.cpg/sg2_47_cif.got.tgz:93571.got - 2010.06.27 13:26:56.
