data_PCOD8004966
_publ_section_title
;
Structure prediction by ZEFSAII (Michael W. Deem and Ramdas Pophale) SiO2 
 PCOD8004966
Probable space group: P -1
;
_chemical_formula_sum "Si O2"
_cell_formula_units_Z 14
_cell_length_a 10.459979
_cell_length_b 7.688955
_cell_length_c 16.637377
_cell_angle_alpha 78.123532
_cell_angle_beta 41.257294
_cell_angle_gamma 51.824645
_cell_volume 601.013332
_symmetry_space_group_name_H-M "P -1"
_symmetry_group_IT_number 2
_symmetry_cell_setting 'triclinic'
loop_
_space_group_symop_operation_xyz
x,y,z
-x,-y,-z
loop_
_atom_site_type_symbol
_atom_site_label
_atom_site_fract_x
_atom_site_fract_y
_atom_site_fract_z
Si Si1 0.096546 0.456631 0.322701
Si Si2 0.648224 0.016750 0.497659
Si Si3 0.688948 0.593161 0.255009
Si Si4 0.738392 0.699102 0.915772
Si Si5 0.540561 0.624863 0.572383
Si Si6 0.616903 0.128673 0.210702
Si Si7 0.798010 0.399796 0.051218
O O1 0.229239 0.402703 0.178232
O O2 0.332486 0.245366 0.294340
O O3 0.955890 0.735715 0.392268
O O4 0.870084 0.447557 0.425428
O O5 0.500000 0.000000 0.500000
O O6 0.483715 0.126721 0.651195
O O7 0.628993 0.225588 0.445451
O O8 0.496734 0.551619 0.368680
O O9 0.733695 0.571515 0.140473
O O10 0.985393 0.381095 0.177879
O O11 0.660989 0.585291 0.021399
O O12 0.500000 0.000000 0.000000
O O13 0.419338 0.834393 0.679748
O O14 0.678913 0.281569 0.128604
O O15 0.867116 0.828083 0.099928
#
# Coordination Sequence:
#
# PCOD8004966 Si02
#       7
#     2   2   2   2   2   2   2
#     4  11  23  40  65  98 126 167 217 266 320 379
#     4  10  20  38  63  94 127 169 208 261 327 376
#     4  11  22  42  66  94 130 172 212 262 325 382
#     4  12  25  42  65  95 128 168 220 264 317 379
#     4  10  21  40  65  95 130 170 212 262 323 384
#     4  10  22  43  68  96 130 169 215 265 320 380
#     4  10  24  44  66  93 130 176 214 260 323 381
#
# _framework density 23.293990999999998
#
# number of rings (size 3 to 8) (size 9 to 14) (size 15 to 20)
#    0.000    1.429    2.857    3.000    2.000    1.714 
#    2.571    1.429    0.000    0.000    0.000    0.000 
#    0.000    0.000    0.000    0.000    0.000    0.000 
#
# Total GULP energy -173601.941014 kJ/mol
# GULP energy per Si atom -12400.138644 kJ/mol
# Density = 2.324097 g / cm^3
# Si number density = 23.293991 Si / 1000 Ang^3
#
#
#
# Elastic Constant Matrix: (Units=GPa)
#
#
# Indices 1 2 3 4 5 6 
#
# 1 69.4359 11.9153 40.0748 6.6600 20.5433 -7.5107
# 2 11.9153 74.6254 39.7393 22.5773 9.7475 -20.0133
# 3 40.0748 39.7393 139.8965 16.5432 36.1274 -11.4647
# 4 6.6600 22.5773 16.5432 37.5045 -3.2926 6.5202
# 5 20.5433 9.7475 36.1274 -3.2926 53.2508 5.4159
# 6 -7.5107 -20.0133 -11.4647 6.5202 5.4159 32.7368
#
#
#
# Elastic Compliance Matrix: (Units=1/GPa)
#
#
# Indices 1 2 3 4 5 6 
#
# 1 0.019198 0.003509 -0.003372 -0.005980 -0.006914 0.007704
# 2 0.003509 0.027392 -0.002387 -0.020646 -0.008283 0.022197
# 3 -0.003372 -0.002387 0.011263 -0.004134 -0.006526 0.003614
# 4 -0.005980 -0.020646 -0.004134 0.048033 0.014651 -0.027432
# 5 -0.006914 -0.008283 -0.006526 0.014651 0.030006 -0.016817
# 6 0.007704 0.022197 0.003614 -0.027432 -0.016817 0.055396
#
#
# Mechanical properties :
#
#
# Convention : Reuss Voigt Hill
#
# Bulk Modulus (GPa) = 18.74314 51.93519 35.33917
# Shear Modulus (GPa) = 23.41121 37.51367 30.46244
#
# Velocity S-wave (km/s) = 3.17366 4.01739 3.62019
# Velocity P-wave (km/s) = 4.63609 6.62292 5.71649
#
# Compressibility (1/GPa) = 0.05335285
#
# Stress axis : x y z
#
# Youngs Moduli (GPa) = 52.08752 36.50675 88.79013
#
# Poissons Ratio (x) = -0.12809 0.29943
# Poissons Ratio (y) = -0.18276 0.21191
# Poissons Ratio (z) = 0.17565 0.08713
#
# Static dielectric constant tensor:
#      x y z
#    x 4.201620 0.189790 0.274900 
#    y 0.189790 4.967910 -0.224630 
#    z 0.274900 -0.224630 4.539090 
# 
# 
# High freq. dielectric constant tensor:
#      x y z
#    x 1.907530 0.004690 0.024480 
#    y 0.004690 1.930260 -0.013100 
#    z 0.024480 -0.013100 1.939060 
# 
# From -- ./inp_files/238746.got.cif
#   From: 2010.06.25/outbox.cif.g09.slc.cpg/sg2_120_cif.got.tgz:238746.got - 2010.06.27 13:26:56.
