data_PCOD8004579
_publ_section_title
;
Structure prediction by ZEFSAII (Michael W. Deem and Ramdas Pophale) SiO2 
 PCOD8004579
Probable space group: P -1
;
_chemical_formula_sum "Si O2"
_cell_formula_units_Z 16
_cell_length_a 9.330941
_cell_length_b 10.940028
_cell_length_c 15.192708
_cell_angle_alpha 67.152424
_cell_angle_beta 31.171591
_cell_angle_gamma 62.831725
_cell_volume 714.164785
_symmetry_space_group_name_H-M "P -1"
_symmetry_group_IT_number 2
_symmetry_cell_setting 'triclinic'
loop_
_space_group_symop_operation_xyz
x,y,z
-x,-y,-z
loop_
_atom_site_type_symbol
_atom_site_label
_atom_site_fract_x
_atom_site_fract_y
_atom_site_fract_z
Si Si1 0.827483 0.307737 0.944709
Si Si2 0.058499 0.902133 0.211632
Si Si3 0.786693 0.691333 0.486524
Si Si4 0.230821 0.417207 0.291336
Si Si5 0.908642 0.212630 0.454122
Si Si6 0.302879 0.946732 0.246257
Si Si7 0.049583 0.096494 0.024060
Si Si8 0.597768 0.633903 0.428146
O O1 0.799576 0.196902 0.916174
O O2 0.066781 0.384336 0.767456
O O3 0.515698 0.414685 0.086461
O O4 0.906834 0.247678 0.018882
O O5 0.827213 0.842455 0.401942
O O6 0.298406 0.918279 0.151649
O O7 0.914370 0.050528 0.198487
O O8 0.089946 0.574350 0.348221
O O9 0.671182 0.681702 0.647478
O O10 0.556098 0.665389 0.545102
O O11 0.007267 0.353328 0.372805
O O12 0.865189 0.152291 0.589426
O O13 0.605644 0.241811 0.554095
O O14 0.144499 0.104871 0.304314
O O15 0.619917 0.917440 0.124739
O O16 0.000000 0.000000 0.000000
O O17 0.500000 0.500000 0.500000
#
# Coordination Sequence:
#
# PCOD8004579 Si02
#       8
#     2   2   2   2   2   2   2   2
#     4  10  23  41  66  94 127 170 211 260 327 376
#     4  10  21  39  62  95 124 165 210 265 312 373
#     4  10  23  41  68  90 129 167 213 265 317 379
#     4  11  22  44  66  94 125 170 215 260 319 384
#     4  11  22  39  67  92 127 169 213 258 324 374
#     4  11  22  39  63  95 126 170 214 259 314 384
#     4  10  20  38  60  87 133 164 201 265 316 366
#     4  11  22  43  66  93 130 168 210 267 317 374
#
# _framework density 22.403793
#
# number of rings (size 3 to 8) (size 9 to 14) (size 15 to 20)
#    0.000    1.500    3.750    1.875    0.000    3.000 
#    2.250    3.750    0.000    0.000    0.000    0.000 
#    0.000    0.000    0.000    0.000    0.000    0.000 
#
# Total GULP energy -198299.129406 kJ/mol
# GULP energy per Si atom -12393.695588 kJ/mol
# Density = 2.235280 g / cm^3
# Si number density = 22.403793 Si / 1000 Ang^3
#
#
#
# Elastic Constant Matrix: (Units=GPa)
#
#
# Indices 1 2 3 4 5 6 
#
# 1 149.5856 12.4799 31.8867 -13.3386 4.9555 5.2343
# 2 12.4799 52.3704 15.9103 -27.3752 6.7611 5.9072
# 3 31.8867 15.9103 81.4641 -8.0257 -4.7831 8.3145
# 4 -13.3386 -27.3752 -8.0257 31.3587 0.3954 2.4960
# 5 4.9555 6.7611 -4.7831 0.3954 30.5588 -14.1347
# 6 5.2343 5.9072 8.3145 2.4960 -14.1347 30.3022
#
#
#
# Elastic Compliance Matrix: (Units=1/GPa)
#
#
# Indices 1 2 3 4 5 6 
#
# 1 0.007798 0.002592 -0.002946 0.005136 -0.003882 -0.003278
# 2 0.002592 0.049103 -0.005200 0.044779 -0.023409 -0.023201
# 3 -0.002946 -0.005200 0.014514 -0.002077 0.003657 -0.000583
# 4 0.005136 0.044779 -0.002077 0.075055 -0.024330 -0.026578
# 5 -0.003882 -0.023409 0.003657 -0.024330 0.053942 0.031396
# 6 -0.003278 -0.023201 -0.000583 -0.026578 0.031396 0.055084
#
#
# Mechanical properties :
#
#
# Convention : Reuss Voigt Hill
#
# Bulk Modulus (GPa) = 16.58162 44.88599 30.73381
# Shear Modulus (GPa) = 17.43952 33.32014 25.37983
#
# Velocity S-wave (km/s) = 2.79304 3.86068 3.36941
# Velocity P-wave (km/s) = 4.22123 6.32073 5.37449
#
# Compressibility (1/GPa) = 0.06030773
#
# Stress axis : x y z
#
# Youngs Moduli (GPa) = 128.23633 20.36533 68.90130
#
# Poissons Ratio (x) = -0.05279 0.20298
# Poissons Ratio (y) = -0.33240 0.35825
# Poissons Ratio (z) = 0.37779 0.10589
#
# Static dielectric constant tensor:
#      x y z
#    x 4.718340 -0.370920 0.143560 
#    y -0.370920 4.030080 -0.290760 
#    z 0.143560 -0.290760 3.752780 
# 
# 
# High freq. dielectric constant tensor:
#      x y z
#    x 1.906560 -0.016150 0.003920 
#    y -0.016150 1.875910 -0.024630 
#    z 0.003920 -0.024630 1.857780 
# 
# From -- ./inp_files/297581.got.cif
#   From: 2010.06.25/outbox.cif.g09.slc.cpg/sg2_149_cif.got.tgz:297581.got - 2010.06.27 13:26:56.
