data_PCOD8004573
_publ_section_title
;
Structure prediction by ZEFSAII (Michael W. Deem and Ramdas Pophale) SiO2 
 PCOD8004573
Probable space group: P -1
;
_chemical_formula_sum "Si O2"
_cell_formula_units_Z 16
_cell_length_a 9.487367
_cell_length_b 12.202680
_cell_length_c 9.269367
_cell_angle_alpha 101.422434
_cell_angle_beta 94.881567
_cell_angle_gamma 48.312931
_cell_volume 783.931427
_symmetry_space_group_name_H-M "P -1"
_symmetry_group_IT_number 2
_symmetry_cell_setting 'triclinic'
loop_
_space_group_symop_operation_xyz
x,y,z
-x,-y,-z
loop_
_atom_site_type_symbol
_atom_site_label
_atom_site_fract_x
_atom_site_fract_y
_atom_site_fract_z
Si Si1 0.360250 0.592478 0.820015
Si Si2 0.591869 0.897036 0.839951
Si Si3 0.876354 0.212214 0.396242
Si Si4 0.310732 0.958506 0.330683
Si Si5 0.496232 0.682620 0.087627
Si Si6 0.178876 0.401189 0.092387
Si Si7 0.292205 0.507912 0.358113
Si Si8 0.566041 0.191938 0.407836
O O1 0.169160 0.719572 0.750629
O O2 0.362513 0.462791 0.836339
O O3 0.537873 0.517572 0.711731
O O4 0.366111 0.668889 0.979073
O O5 0.792118 0.732732 0.858420
O O6 0.451145 0.877297 0.754178
O O7 0.634160 0.961338 0.733062
O O8 0.500000 0.000000 0.000000
O O9 0.836304 0.333558 0.535064
O O10 0.758794 0.162110 0.408336
O O11 0.094456 0.069119 0.387933
O O12 0.348214 0.830546 0.204463
O O13 0.435607 0.883070 0.467834
O O14 0.626568 0.693196 0.005166
O O15 0.160328 0.513006 0.232390
O O16 0.000000 0.500000 0.000000
O O17 0.385156 0.370739 0.442630
#
# Coordination Sequence:
#
# PCOD8004573 Si02
#       8
#     2   2   2   2   2   2   2   2
#     4   9  19  36  62  89 117 161 207 251 304 363
#     4  11  24  45  61  87 129 172 203 249 315 374
#     4  11  22  37  64  95 124 153 210 260 309 357
#     4  12  24  38  63  95 129 159 207 252 315 370
#     4  10  20  38  60  87 123 161 203 250 310 367
#     4  10  22  40  63  87 118 165 213 254 299 363
#     4   9  19  40  64  87 121 160 203 256 309 359
#     4  10  22  43  64  88 125 170 205 246 314 372
#
# _framework density 20.409949000000001
#
# number of rings (size 3 to 8) (size 9 to 14) (size 15 to 20)
#    0.000    1.750    1.250    4.500    1.750    1.500 
#    2.250    1.250    0.000    0.000    0.000    0.000 
#    0.000    0.000    0.000    0.000    0.000    0.000 
#
# Total GULP energy -198394.382437 kJ/mol
# GULP energy per Si atom -12399.648902 kJ/mol
# Density = 2.036350 g / cm^3
# Si number density = 20.409949 Si / 1000 Ang^3
#
#
#
# Elastic Constant Matrix: (Units=GPa)
#
#
# Indices 1 2 3 4 5 6 
#
# 1 73.0442 47.7367 41.1537 2.3702 11.2911 5.9462
# 2 47.7367 120.2585 75.8675 -2.3648 10.1787 7.6998
# 3 41.1537 75.8675 127.6516 1.1752 14.3658 3.6705
# 4 2.3702 -2.3648 1.1752 48.9778 6.0444 -4.4730
# 5 11.2911 10.1787 14.3658 6.0444 27.0083 -6.2226
# 6 5.9462 7.6998 3.6705 -4.4730 -6.2226 31.3495
#
#
#
# Elastic Compliance Matrix: (Units=1/GPa)
#
#
# Indices 1 2 3 4 5 6 
#
# 1 0.019905 -0.005835 -0.002226 -0.000812 -0.005515 -0.003292
# 2 -0.005835 0.015281 -0.007146 0.001055 -0.000144 -0.001688
# 3 -0.002226 -0.007146 0.013180 -0.000143 -0.003368 -0.000055
# 4 -0.000812 0.001055 -0.000143 0.021227 -0.004250 0.002097
# 5 -0.005515 -0.000144 -0.003368 -0.004250 0.044356 0.009674
# 6 -0.003292 -0.001688 -0.000055 0.002097 0.009674 0.035163
#
#
# Mechanical properties :
#
#
# Convention : Reuss Voigt Hill
#
# Bulk Modulus (GPa) = 55.70509 72.27446 63.98977
# Shear Modulus (GPa) = 26.95265 31.88021 29.41643
#
# Velocity S-wave (km/s) = 3.63790 3.95649 3.80054
# Velocity P-wave (km/s) = 6.70806 7.50733 7.11892
#
# Compressibility (1/GPa) = 0.01795168
#
# Stress axis : x y z
#
# Youngs Moduli (GPa) = 50.23870 65.44258 75.87075
#
# Poissons Ratio (x) = 0.38187 0.16892
# Poissons Ratio (y) = 0.29315 0.54214
# Poissons Ratio (z) = 0.11185 0.46763
#
# Static dielectric constant tensor:
#      x y z
#    x 3.457940 0.311550 0.082120 
#    y 0.311550 3.847760 -0.250700 
#    z 0.082120 -0.250700 3.862060 
# 
# 
# High freq. dielectric constant tensor:
#      x y z
#    x 1.773130 0.023400 0.010660 
#    y 0.023400 1.806420 -0.014890 
#    z 0.010660 -0.014890 1.809800 
# 
# From -- ./inp_files/186641.got.cif
#   From: 2010.06.25/outbox.cif.g09.slc.cpg/sg2_94_cif.got.tgz:186641.got - 2010.06.27 13:26:56.
