data_PCOD8004548
_publ_section_title
;
Structure prediction by ZEFSAII (Michael W. Deem and Ramdas Pophale) SiO2 
 PCOD8004548
Probable space group: P -1
;
_chemical_formula_sum "Si O2"
_cell_formula_units_Z 14
_cell_length_a 16.197825
_cell_length_b 6.189313
_cell_length_c 15.044921
_cell_angle_alpha 61.664331
_cell_angle_beta 155.560882
_cell_angle_gamma 106.508675
_cell_volume 501.881265
_symmetry_space_group_name_H-M "P -1"
_symmetry_group_IT_number 2
_symmetry_cell_setting 'triclinic'
loop_
_space_group_symop_operation_xyz
x,y,z
-x,-y,-z
loop_
_atom_site_type_symbol
_atom_site_label
_atom_site_fract_x
_atom_site_fract_y
_atom_site_fract_z
Si Si1 0.827569 0.856169 0.319941
Si Si2 0.300326 0.505609 0.861157
Si Si3 0.558750 0.722524 0.227082
Si Si4 0.808666 0.302568 0.677182
Si Si5 0.742452 0.152671 0.822806
Si Si6 0.023043 0.330377 0.144448
Si Si7 0.526705 0.080499 0.294954
O O1 0.799787 0.693754 0.239052
O O2 0.753600 0.749401 0.356406
O O3 0.088069 0.799212 0.595838
O O4 0.659920 0.172632 0.072652
O O5 0.500000 0.500000 0.000000
O O6 0.408607 0.392304 0.086561
O O7 0.641959 0.413517 0.407391
O O8 0.512392 0.910250 0.229846
O O9 0.659824 0.328233 0.616451
O O10 0.930965 0.507085 0.761654
O O11 0.998111 0.010945 0.910860
O O12 0.608959 0.976957 0.746259
O O13 0.784915 0.309497 0.920428
O O14 0.226582 0.030163 0.403379
O O15 0.000000 0.500000 0.000000
#
# Coordination Sequence:
#
# PCOD8004548 Si02
#       7
#     2   2   2   2   2   2   2
#     4   9  19  37  57  79 114 152 193 244 298 353
#     4  10  21  37  58  84 113 150 198 249 297 353
#     4   9  18  35  56  82 116 153 193 241 292 348
#     4   9  19  36  59  88 120 157 202 241 290 357
#     4  10  20  38  60  84 122 160 192 247 297 343
#     4   9  20  37  56  83 117 153 195 240 291 351
#     4  10  21  36  57  85 117 154 199 243 296 359
#
# _framework density 27.895043000000001
#
# number of rings (size 3 to 8) (size 9 to 14) (size 15 to 20)
#    0.000    2.571    0.000    0.857    0.000    9.714 
#    0.000   20.000    0.000    0.000    0.000    0.000 
#    0.000    0.000    0.000    0.000    0.000    0.000 
#
# Total GULP energy -173434.914114 kJ/mol
# GULP energy per Si atom -12388.208151 kJ/mol
# Density = 2.783155 g / cm^3
# Si number density = 27.895043 Si / 1000 Ang^3
#
#
#
# Elastic Constant Matrix: (Units=GPa)
#
#
# Indices 1 2 3 4 5 6 
#
# 1 95.7268 20.2142 64.5790 -1.1880 -19.6626 27.2891
# 2 20.2142 87.6445 74.8259 -32.9269 -11.1028 22.2785
# 3 64.5790 74.8259 230.8287 -8.5038 -26.1614 21.0897
# 4 -1.1880 -32.9269 -8.5038 57.0550 7.0971 -3.1874
# 5 -19.6626 -11.1028 -26.1614 7.0971 44.7277 -7.1496
# 6 27.2891 22.2785 21.0897 -3.1874 -7.1496 40.5929
#
#
#
# Elastic Compliance Matrix: (Units=1/GPa)
#
#
# Indices 1 2 3 4 5 6 
#
# 1 0.016139 0.002841 -0.004117 0.000354 0.003806 -0.009571
# 2 0.002841 0.024299 -0.007321 0.012484 -0.000674 -0.010581
# 3 -0.004117 -0.007321 0.007685 -0.003234 0.001839 0.002863
# 4 0.000354 0.012484 -0.003234 0.024424 -0.003160 -0.004048
# 5 0.003806 -0.000674 0.001839 -0.003160 0.025619 0.001120
# 6 -0.009571 -0.010581 0.002863 -0.004048 0.001120 0.035268
#
#
# Mechanical properties :
#
#
# Convention : Reuss Voigt Hill
#
# Bulk Modulus (GPa) = 32.33381 81.49314 56.91348
# Shear Modulus (GPa) = 31.06767 45.44719 38.25743
#
# Velocity S-wave (km/s) = 3.34089 4.04074 3.70736
# Velocity P-wave (km/s) = 5.14766 7.14477 6.22680
#
# Compressibility (1/GPa) = 0.03092738
#
# Stress axis : x y z
#
# Youngs Moduli (GPa) = 61.96307 41.15325 130.12298
#
# Poissons Ratio (x) = -0.11691 0.53573
# Poissons Ratio (y) = -0.17602 0.95269
# Poissons Ratio (z) = 0.25511 0.30130
#
# Static dielectric constant tensor:
#      x y z
#    x 4.887980 -0.360460 -0.620490 
#    y -0.360460 5.675080 -0.364910 
#    z -0.620490 -0.364910 6.175610 
# 
# 
# High freq. dielectric constant tensor:
#      x y z
#    x 2.098980 -0.034640 -0.038310 
#    y -0.034640 2.169030 -0.001720 
#    z -0.038310 -0.001720 2.170610 
# 
# From -- ./inp_files/140108.got.cif
#   From: 2010.06.25/outbox.cif.g09.slc.cpg/sg2_71_cif.got.tgz:140108.got - 2010.06.27 13:26:56.
