data_PCOD8004290
_publ_section_title
;
Structure prediction by ZEFSAII (Michael W. Deem and Ramdas Pophale) SiO2 
 PCOD8004290
Probable space group: P -1
;
_chemical_formula_sum "Si O2"
_cell_formula_units_Z 16
_cell_length_a 8.006453
_cell_length_b 10.556652
_cell_length_c 21.500866
_cell_angle_alpha 145.452317
_cell_angle_beta 125.243182
_cell_angle_gamma 47.291098
_cell_volume 756.531937
_symmetry_space_group_name_H-M "P -1"
_symmetry_group_IT_number 2
_symmetry_cell_setting 'triclinic'
loop_
_space_group_symop_operation_xyz
x,y,z
-x,-y,-z
loop_
_atom_site_type_symbol
_atom_site_label
_atom_site_fract_x
_atom_site_fract_y
_atom_site_fract_z
Si Si1 0.683659 0.277745 0.697268
Si Si2 0.173640 0.968213 0.897213
Si Si3 0.685171 0.328878 0.923382
Si Si4 0.817275 0.449362 0.504992
Si Si5 0.455566 0.968647 0.318518
Si Si6 0.892491 0.005002 0.413369
Si Si7 0.394855 0.318559 0.062355
Si Si8 0.226790 0.555993 0.645581
O O1 0.625529 0.118991 0.672311
O O2 0.697677 0.515192 0.828105
O O3 0.486252 0.366117 0.638833
O O4 0.921808 0.125390 0.653100
O O5 0.925899 0.176125 0.948552
O O6 0.325828 0.806379 0.922878
O O7 0.137435 0.794877 0.767748
O O8 0.315130 0.103071 0.951950
O O9 0.611545 0.131705 0.797982
O O10 0.705561 0.509096 0.948778
O O11 0.500000 0.500000 0.000000
O O12 0.750214 0.292031 0.476945
O O13 0.800735 0.345386 0.391075
O O14 0.073636 0.407063 0.559588
O O15 0.652470 0.737532 0.588976
O O16 0.728032 0.871058 0.333743
O O17 0.000000 0.000000 0.500000
#
# Coordination Sequence:
#
# PCOD8004290 Si02
#       8
#     2   2   2   2   2   2   2   2
#     4  10  22  42  65  91 128 166 206 265 317 378
#     4  10  20  41  65  95 126 162 216 258 314 384
#     4  11  24  40  64  95 130 167 205 265 323 374
#     4  11  22  38  62  90 125 166 209 261 311 383
#     4  11  24  44  62  94 129 165 215 258 318 386
#     4  12  26  40  63  93 126 167 214 265 316 376
#     4   9  22  40  67  94 123 166 215 258 314 388
#     4  10  20  37  67  92 121 171 209 254 326 371
#
# _framework density 21.149139000000002
#
# number of rings (size 3 to 8) (size 9 to 14) (size 15 to 20)
#    0.000    1.500    1.250    3.750    3.500    3.000 
#    0.000    2.500    0.000    0.000    0.000    0.000 
#    0.000    0.000    0.000    0.000    0.000    0.000 
#
# Total GULP energy -198376.472067 kJ/mol
# GULP energy per Si atom -12398.529504 kJ/mol
# Density = 2.110100 g / cm^3
# Si number density = 21.149139 Si / 1000 Ang^3
#
#
#
# Elastic Constant Matrix: (Units=GPa)
#
#
# Indices 1 2 3 4 5 6 
#
# 1 99.2662 30.5823 26.3324 -0.8610 -8.6555 -14.2056
# 2 30.5823 93.6928 26.8644 7.0276 -7.1149 -14.4105
# 3 26.3324 26.8644 63.5560 0.7974 -4.7036 -5.9729
# 4 -0.8610 7.0276 0.7974 32.8358 -3.9855 0.1156
# 5 -8.6555 -7.1149 -4.7036 -3.9855 28.3612 4.4534
# 6 -14.2056 -14.4105 -5.9729 0.1156 4.4534 35.4195
#
#
#
# Elastic Compliance Matrix: (Units=1/GPa)
#
#
# Indices 1 2 3 4 5 6 
#
# 1 0.012456 -0.002454 -0.003681 0.001205 0.002260 0.003088
# 2 -0.002454 0.013543 -0.004254 -0.002754 0.000976 0.003695
# 3 -0.003681 -0.004254 0.019119 0.000479 0.001066 -0.000118
# 4 0.001205 -0.002754 0.000479 0.031601 0.004387 -0.001211
# 5 0.002260 0.000976 0.001066 0.004387 0.037497 -0.003246
# 6 0.003088 0.003695 -0.000118 -0.001211 -0.003246 0.031367
#
#
# Mechanical properties :
#
#
# Convention : Reuss Voigt Hill
#
# Bulk Modulus (GPa) = 41.08417 47.11922 44.10170
# Shear Modulus (GPa) = 28.65771 30.83903 29.74837
#
# Velocity S-wave (km/s) = 3.68507 3.82274 3.75453
# Velocity P-wave (km/s) = 6.12979 6.46625 6.30027
#
# Compressibility (1/GPa) = 0.02434028
#
# Stress axis : x y z
#
# Youngs Moduli (GPa) = 80.28335 73.84013 52.30397
#
# Poissons Ratio (x) = 0.18120 0.19253
# Poissons Ratio (y) = 0.19702 0.22248
# Poissons Ratio (z) = 0.29553 0.31409
#
# Static dielectric constant tensor:
#      x y z
#    x 3.613590 -0.463710 0.320560 
#    y -0.463710 3.302430 0.546410 
#    z 0.320560 0.546410 3.570890 
# 
# 
# High freq. dielectric constant tensor:
#      x y z
#    x 1.808280 -0.012250 0.009340 
#    y -0.012250 1.847810 0.001660 
#    z 0.009340 0.001660 1.836800 
# 
# From -- ./inp_files/500854.got.cif
#   From: 2010.06.25/outbox.cif.g09.slc.cpg/sg2_251_cif.got.tgz:500854.got - 2010.06.27 13:26:56.
