data_PCOD8004797
_publ_section_title
;
Structure prediction by ZEFSAII (Michael W. Deem and Ramdas Pophale) SiO2 
 PCOD8004797
Probable space group: P -1
;
_chemical_formula_sum "Si O2"
_cell_formula_units_Z 16
_cell_length_a 11.833801
_cell_length_b 17.909117
_cell_length_c 9.467005
_cell_angle_alpha 98.926737
_cell_angle_beta 140.196449
_cell_angle_gamma 51.402883
_cell_volume 764.745213
_symmetry_space_group_name_H-M "P -1"
_symmetry_group_IT_number 2
_symmetry_cell_setting 'triclinic'
loop_
_space_group_symop_operation_xyz
x,y,z
-x,-y,-z
loop_
_atom_site_type_symbol
_atom_site_label
_atom_site_fract_x
_atom_site_fract_y
_atom_site_fract_z
Si Si1 0.340594 0.491777 0.756492
Si Si2 0.145297 0.768967 0.727742
Si Si3 0.241161 0.975384 0.056169
Si Si4 0.277761 0.588757 0.436363
Si Si5 0.803008 0.987786 0.660995
Si Si6 0.231444 0.245529 0.690541
Si Si7 0.625223 0.779034 0.867617
Si Si8 0.205258 0.789220 0.489890
O O1 0.385879 0.498414 0.639422
O O2 0.990853 0.605886 0.493899
O O3 0.500000 0.500000 0.000000
O O4 0.523138 0.353325 0.927823
O O5 0.161754 0.820435 0.625198
O O6 0.000172 0.743354 0.517356
O O7 0.940905 0.866638 0.687436
O O8 0.291049 0.997264 0.263274
O O9 0.551010 0.839204 0.255610
O O10 0.043454 0.970302 0.882245
O O11 0.093468 0.086352 0.841779
O O12 0.500000 0.500000 0.500000
O O13 0.278780 0.676909 0.501973
O O14 0.961156 0.665282 0.108693
O O15 0.524101 0.105369 0.335396
O O16 0.410651 0.187798 0.991730
O O17 0.475096 0.749046 0.683649
#
# Coordination Sequence:
#
# PCOD8004797 Si02
#       8
#     2   2   2   2   2   2   2   2
#     4   9  19  40  58  89 122 157 202 252 295 361
#     4  11  21  37  67  88 122 165 204 253 305 355
#     4  10  23  40  58  90 127 156 206 254 309 363
#     4  11  24  41  65  89 126 161 203 255 301 364
#     4  10  23  40  59  90 126 159 199 262 305 361
#     4  10  20  38  62  89 122 155 210 252 291 372
#     4  10  22  42  63  91 121 159 210 246 308 364
#     4  11  22  41  65  88 123 164 201 254 305 362
#
# _framework density 20.922001000000002
#
# number of rings (size 3 to 8) (size 9 to 14) (size 15 to 20)
#    0.000    1.750    3.750    1.500    3.500    6.000 
#    0.000    5.625    0.000    0.000    0.000    0.000 
#    0.000    0.000    0.000    0.000    0.000    0.000 
#
# Total GULP energy -198325.302107 kJ/mol
# GULP energy per Si atom -12395.331382 kJ/mol
# Density = 2.087438 g / cm^3
# Si number density = 20.922001 Si / 1000 Ang^3
#
#
#
# Elastic Constant Matrix: (Units=GPa)
#
#
# Indices 1 2 3 4 5 6 
#
# 1 98.0776 48.2579 62.6046 -23.8057 -12.6519 -34.6062
# 2 48.2579 57.7495 34.7486 -10.3663 -12.0825 -26.5142
# 3 62.6046 34.7486 138.9439 -20.2475 -22.9304 -15.3853
# 4 -23.8057 -10.3663 -20.2475 29.4169 6.8454 5.6461
# 5 -12.6519 -12.0825 -22.9304 6.8454 41.9419 -0.1451
# 6 -34.6062 -26.5142 -15.3853 5.6461 -0.1451 41.9458
#
#
#
# Elastic Compliance Matrix: (Units=1/GPa)
#
#
# Indices 1 2 3 4 5 6 
#
# 1 0.026059 -0.011320 -0.006242 0.010901 -0.000555 0.010585
# 2 -0.011320 0.033986 -0.001357 -0.001792 0.005968 0.011908
# 3 -0.006242 -0.001357 0.010901 0.001604 0.003417 -0.002213
# 4 0.010901 -0.001792 0.001604 0.043600 -0.003458 0.002568
# 5 -0.000555 0.005968 0.003417 -0.003458 0.027844 0.005129
# 6 0.010585 0.011908 -0.002213 0.002568 0.005129 0.038961
#
#
# Mechanical properties :
#
#
# Convention : Reuss Voigt Hill
#
# Bulk Modulus (GPa) = 30.20237 65.11035 47.65636
# Shear Modulus (GPa) = 21.71785 32.60491 27.16138
#
# Velocity S-wave (km/s) = 3.22536 3.95194 3.60699
# Velocity P-wave (km/s) = 5.32331 7.21193 6.33836
#
# Compressibility (1/GPa) = 0.03310999
#
# Stress axis : x y z
#
# Youngs Moduli (GPa) = 38.37405 29.42387 91.73132
#
# Poissons Ratio (x) = 0.33307 0.57255
# Poissons Ratio (y) = 0.43439 0.12447
# Poissons Ratio (z) = 0.23952 0.03992
#
# Static dielectric constant tensor:
#      x y z
#    x 3.786320 -0.094550 -0.177480 
#    y -0.094550 3.864690 -0.223750 
#    z -0.177480 -0.223750 4.214120 
# 
# 
# High freq. dielectric constant tensor:
#      x y z
#    x 1.813480 -0.005690 -0.004210 
#    y -0.005690 1.806120 -0.003750 
#    z -0.004210 -0.003750 1.834890 
# 
# From -- ./inp_files/279577.got.cif
#   From: 2010.06.25/outbox.cif.g09.slc.cpg/sg2_140_cif.got.tgz:279577.got - 2010.06.27 13:26:56.
