data_PCOD8004722
_publ_section_title
;
Structure prediction by ZEFSAII (Michael W. Deem and Ramdas Pophale) SiO2 
 PCOD8004722
Probable space group: P -1
;
_chemical_formula_sum "Si O2"
_cell_formula_units_Z 16
_cell_length_a 9.904300
_cell_length_b 15.482917
_cell_length_c 9.752737
_cell_angle_alpha 96.549422
_cell_angle_beta 119.998428
_cell_angle_gamma 130.695981
_cell_volume 728.817177
_symmetry_space_group_name_H-M "P -1"
_symmetry_group_IT_number 2
_symmetry_cell_setting 'triclinic'
loop_
_space_group_symop_operation_xyz
x,y,z
-x,-y,-z
loop_
_atom_site_type_symbol
_atom_site_label
_atom_site_fract_x
_atom_site_fract_y
_atom_site_fract_z
Si Si1 0.321398 0.830309 0.378772
Si Si2 0.731326 0.333111 0.900387
Si Si3 0.104655 0.861144 0.695188
Si Si4 0.564796 0.839533 0.745150
Si Si5 0.866689 0.813427 0.840125
Si Si6 0.335032 0.307064 0.769073
Si Si7 0.667534 0.207808 0.110907
Si Si8 0.747886 0.645097 0.995088
O O1 0.395861 0.800586 0.285082
O O2 0.362558 0.797700 0.534648
O O3 0.001617 0.705055 0.187972
O O4 0.500000 0.000000 0.500000
O O5 0.490919 0.291994 0.799312
O O6 0.819940 0.332023 0.091408
O O7 0.000000 0.500000 0.000000
O O8 0.127480 0.768153 0.713345
O O9 0.908018 0.807350 0.703670
O O10 0.967313 0.825740 0.475936
O O11 0.407399 0.040734 0.879710
O O12 0.612446 0.763427 0.705304
O O13 0.432835 0.774118 0.817041
O O14 0.855886 0.021791 0.923688
O O15 0.792492 0.696226 0.872204
O O16 0.299452 0.295023 0.914302
O O17 0.486287 0.463081 0.823858
#
# Coordination Sequence:
#
# PCOD8004722 Si02
#       8
#     2   2   2   2   2   2   2   2
#     4  12  24  42  72  98 128 180 225 271 330 400
#     4  12  26  46  66  98 141 174 218 280 338 389
#     4  10  22  40  66  95 126 169 225 266 330 389
#     4  10  21  38  63  95 127 163 219 272 325 379
#     4  10  20  38  61  93 128 165 213 273 322 385
#     4  11  25  43  63  96 135 177 218 273 336 396
#     4  10  23  41  67  95 130 170 218 277 321 397
#     4  11  23  42  65  93 135 176 219 270 332 397
#
# _framework density 21.953382000000001
#
# number of rings (size 3 to 8) (size 9 to 14) (size 15 to 20)
#    0.000    1.250    2.500    3.000    5.250    1.000 
#    2.250    0.625    0.000    0.000    0.000    0.000 
#    0.000    0.000    0.000    0.000    0.000    0.000 
#
# Total GULP energy -198450.482798 kJ/mol
# GULP energy per Si atom -12403.155175 kJ/mol
# Density = 2.190341 g / cm^3
# Si number density = 21.953382 Si / 1000 Ang^3
#
#
#
# Elastic Constant Matrix: (Units=GPa)
#
#
# Indices 1 2 3 4 5 6 
#
# 1 126.6221 21.6455 16.9102 4.5669 -4.3748 -17.2247
# 2 21.6455 86.2235 11.5830 -22.3220 -3.6142 6.1013
# 3 16.9102 11.5830 57.5705 -4.7237 4.8433 -9.8942
# 4 4.5669 -22.3220 -4.7237 25.1473 -3.2093 1.7650
# 5 -4.3748 -3.6142 4.8433 -3.2093 39.8759 -4.6986
# 6 -17.2247 6.1013 -9.8942 1.7650 -4.6986 23.7472
#
#
#
# Elastic Compliance Matrix: (Units=1/GPa)
#
#
# Indices 1 2 3 4 5 6 
#
# 1 0.010407 -0.004805 -0.001210 -0.006844 0.001370 0.009059
# 2 -0.004805 0.018598 -0.002803 0.017804 0.001704 -0.010418
# 3 -0.001210 -0.002803 0.019821 0.000681 -0.001834 0.007688
# 4 -0.006844 0.017804 0.000681 0.058345 0.003967 -0.012806
# 5 0.001370 0.001704 -0.001834 0.003967 0.026483 0.004737
# 6 0.009059 -0.010418 0.007688 -0.012806 0.004737 0.056449
#
#
# Mechanical properties :
#
#
# Convention : Reuss Voigt Hill
#
# Bulk Modulus (GPa) = 32.06297 41.18817 36.62557
# Shear Modulus (GPa) = 22.92138 32.43925 27.68031
#
# Velocity S-wave (km/s) = 3.23475 3.84818 3.55472
# Velocity P-wave (km/s) = 5.34679 6.20863 5.79376
#
# Compressibility (1/GPa) = 0.03118863
#
# Stress axis : x y z
#
# Youngs Moduli (GPa) = 96.08916 53.76797 50.45207
#
# Poissons Ratio (x) = 0.25837 0.06104
# Poissons Ratio (y) = 0.46174 0.14144
# Poissons Ratio (z) = 0.11626 0.15074
#
# Static dielectric constant tensor:
#      x y z
#    x 4.236710 -0.048370 -0.099550 
#    y -0.048370 3.797900 -0.101160 
#    z -0.099550 -0.101160 3.852270 
# 
# 
# High freq. dielectric constant tensor:
#      x y z
#    x 1.883440 0.001540 -0.002180 
#    y 0.001540 1.854470 -0.014970 
#    z -0.002180 -0.014970 1.853380 
# 
# From -- ./inp_files/207923.got.cif
#   From: 2010.06.25/outbox.cif.g09.slc.cpg/sg2_104_cif.got.tgz:207923.got - 2010.06.27 13:26:56.
