data_PCOD8004354
_publ_section_title
;
Structure prediction by ZEFSAII (Michael W. Deem and Ramdas Pophale) SiO2 
 PCOD8004354
Probable space group: P -1
;
_chemical_formula_sum "Si O2"
_cell_formula_units_Z 12
_cell_length_a 16.065892
_cell_length_b 8.939780
_cell_length_c 9.000275
_cell_angle_alpha 104.243480
_cell_angle_beta 46.440340
_cell_angle_gamma 69.369376
_cell_volume 607.646127
_symmetry_space_group_name_H-M "P -1"
_symmetry_group_IT_number 2
_symmetry_cell_setting 'triclinic'
loop_
_space_group_symop_operation_xyz
x,y,z
-x,-y,-z
loop_
_atom_site_type_symbol
_atom_site_label
_atom_site_fract_x
_atom_site_fract_y
_atom_site_fract_z
Si Si1 0.446440 0.696140 0.516381
Si Si2 0.286855 0.083681 0.022458
Si Si3 0.125373 0.186356 0.543619
Si Si4 0.613625 0.258019 0.722437
Si Si5 0.743467 0.639768 0.112256
Si Si6 0.609675 0.923956 0.634773
O O1 0.500000 0.500000 0.500000
O O2 0.357028 0.723751 0.481303
O O3 0.615866 0.624248 0.250188
O O4 0.307356 0.930139 0.838313
O O5 0.233028 0.294701 0.056779
O O6 0.467477 0.936484 0.853644
O O7 0.147741 0.165833 0.332758
O O8 0.224023 0.240743 0.501495
O O9 0.206124 0.949347 0.460549
O O10 0.926401 0.391273 0.879392
O O11 0.520709 0.182543 0.815016
O O12 0.500000 0.500000 0.000000
O O13 0.669742 0.835401 0.369824
#
# Coordination Sequence:
#
# PCOD8004354 Si02
#       6
#     2   2   2   2   2   2
#     4  11  22  38  60  80 110 154 193 223 271 341
#     4  11  18  37  59  88 108 150 186 226 275 338
#     4  10  21  32  60  89 113 139 186 232 285 320
#     4  10  20  38  55  79 116 150 184 226 275 334
#     4  11  19  38  59  86 113 144 183 239 278 318
#     4   9  19  34  60  77 113 147 187 217 275 327
#
# _framework density 19.748335999999998
#
# number of rings (size 3 to 8) (size 9 to 14) (size 15 to 20)
#    1.000    0.667    3.333    3.500    0.000    0.000 
#    0.000    4.167    0.000    0.000    0.000    0.000 
#    0.000    0.000    0.000    0.000    0.000    0.000 
#
# Total GULP energy -148681.157080 kJ/mol
# GULP energy per Si atom -12390.096423 kJ/mol
# Density = 1.970339 g / cm^3
# Si number density = 19.748336 Si / 1000 Ang^3
#
#
#
# Elastic Constant Matrix: (Units=GPa)
#
#
# Indices 1 2 3 4 5 6 
#
# 1 64.4184 28.0305 42.8512 5.3509 14.9998 -10.2838
# 2 28.0305 119.4944 29.8506 5.5983 12.0953 -10.6274
# 3 42.8512 29.8506 78.3027 10.6316 8.7731 4.4738
# 4 5.3509 5.5983 10.6316 31.2559 -6.2351 5.4231
# 5 14.9998 12.0953 8.7731 -6.2351 26.3774 3.6910
# 6 -10.2838 -10.6274 4.4738 5.4231 3.6910 22.1007
#
#
#
# Elastic Compliance Matrix: (Units=1/GPa)
#
#
# Indices 1 2 3 4 5 6 
#
# 1 0.038249 0.000992 -0.019165 -0.009484 -0.022013 0.028158
# 2 0.000992 0.010618 -0.003921 -0.003373 -0.006074 0.008203
# 3 -0.019165 -0.003921 0.025005 -0.000253 0.006687 -0.016919
# 4 -0.009484 -0.003373 -0.000253 0.041589 0.019577 -0.019458
# 5 -0.022013 -0.006074 0.006687 0.019577 0.059717 -0.029295
# 6 0.028158 0.008203 -0.016919 -0.019458 -0.029295 0.075386
#
#
# Mechanical properties :
#
#
# Convention : Reuss Voigt Hill
#
# Bulk Modulus (GPa) = 33.68706 51.52002 42.60354
# Shear Modulus (GPa) = 16.41250 26.71235 21.56243
#
# Velocity S-wave (km/s) = 2.88598 3.68181 3.30792
# Velocity P-wave (km/s) = 5.31040 6.64975 6.01746
#
# Compressibility (1/GPa) = 0.02968499
#
# Stress axis : x y z
#
# Youngs Moduli (GPa) = 26.14464 94.18246 39.99172
#
# Poissons Ratio (x) = -0.09342 0.76642
# Poissons Ratio (y) = -0.02593 0.15680
# Poissons Ratio (z) = 0.50105 0.36926
#
# Static dielectric constant tensor:
#      x y z
#    x 3.624070 -0.220750 0.127770 
#    y -0.220750 3.503730 0.027070 
#    z 0.127770 0.027070 3.369740 
# 
# 
# High freq. dielectric constant tensor:
#      x y z
#    x 1.760530 -0.023270 0.020140 
#    y -0.023270 1.761390 0.001930 
#    z 0.020140 0.001930 1.752220 
# 
# From -- ./inp_files/147359.got.cif
#   From: 2010.06.25/outbox.cif.g09.slc.cpg/sg2_74_cif.got.tgz:147359.got - 2010.06.27 13:26:56.
