data_PCOD8004708
_publ_section_title
;
Structure prediction by ZEFSAII (Michael W. Deem and Ramdas Pophale) SiO2 
 PCOD8004708
Probable space group: P -1
;
_chemical_formula_sum "Si O2"
_cell_formula_units_Z 16
_cell_length_a 6.712671
_cell_length_b 14.465484
_cell_length_c 16.641316
_cell_angle_alpha 147.394631
_cell_angle_beta 115.510282
_cell_angle_gamma 66.713138
_cell_volume 784.080498
_symmetry_space_group_name_H-M "P -1"
_symmetry_group_IT_number 2
_symmetry_cell_setting 'triclinic'
loop_
_space_group_symop_operation_xyz
x,y,z
-x,-y,-z
loop_
_atom_site_type_symbol
_atom_site_label
_atom_site_fract_x
_atom_site_fract_y
_atom_site_fract_z
Si Si1 0.136738 0.490776 0.727391
Si Si2 0.315191 0.926268 0.817512
Si Si3 0.781391 0.971126 0.889950
Si Si4 0.939966 0.334669 0.321620
Si Si5 0.180561 0.804299 0.535690
Si Si6 0.790317 0.072754 0.666466
Si Si7 0.468265 0.779972 0.413292
Si Si8 0.916022 0.197550 0.948100
O O1 0.146231 0.621260 0.750251
O O2 0.372727 0.386770 0.702209
O O3 0.946614 0.362187 0.584075
O O4 0.079632 0.602756 0.879708
O O5 0.566890 0.975821 0.914077
O O6 0.252683 0.768172 0.746239
O O7 0.312266 0.864945 0.679790
O O8 0.153940 0.095582 0.927434
O O9 0.828587 0.781082 0.721800
O O10 0.743452 0.107740 0.910938
O O11 0.000000 0.000000 0.000000
O O12 0.000000 0.500000 0.500000
O O13 0.349415 0.751984 0.456179
O O14 0.006094 0.958533 0.590590
O O15 0.712887 0.199508 0.673861
O O16 0.840006 0.189858 0.837305
O O17 0.598941 0.950956 0.569087
#
# Coordination Sequence:
#
# PCOD8004708 Si02
#       8
#     2   2   2   2   2   2   2   2
#     4  11  23  39  56  91 124 155 195 254 293 350
#     4  10  23  38  65  85 115 169 197 239 299 350
#     4  11  23  41  59  88 119 158 202 241 292 356
#     4  11  23  40  57  87 126 155 199 249 288 355
#     4  10  20  38  61  91 117 149 205 242 296 355
#     4   9  20  40  62  86 118 153 201 247 295 355
#     4  10  21  37  64  88 114 158 197 250 300 348
#     4  10  22  41  58  86 125 155 198 247 295 359
#
# _framework density 20.406068999999999
#
# number of rings (size 3 to 8) (size 9 to 14) (size 15 to 20)
#    0.000    1.750    2.500    1.125    3.500    5.000 
#    0.000    0.625    0.000    0.000    0.000    0.000 
#    0.000    0.000    0.000    0.000    0.000    0.000 
#
# Total GULP energy -198429.829853 kJ/mol
# GULP energy per Si atom -12401.864366 kJ/mol
# Density = 2.035962 g / cm^3
# Si number density = 20.406069 Si / 1000 Ang^3
#
#
#
# Elastic Constant Matrix: (Units=GPa)
#
#
# Indices 1 2 3 4 5 6 
#
# 1 129.2111 24.8518 33.4207 2.3252 -2.8600 2.1625
# 2 24.8518 77.5609 19.8635 0.2896 -3.3709 1.5057
# 3 33.4207 19.8635 104.2588 -1.8074 -22.0625 -9.6456
# 4 2.3252 0.2896 -1.8074 25.7812 -0.1135 -1.5476
# 5 -2.8600 -3.3709 -22.0625 -0.1135 26.2475 -5.0714
# 6 2.1625 1.5057 -9.6456 -1.5476 -5.0714 26.3625
#
#
#
# Elastic Compliance Matrix: (Units=1/GPa)
#
#
# Indices 1 2 3 4 5 6 
#
# 1 0.008988 -0.002108 -0.003240 -0.001166 -0.002474 -0.002347
# 2 -0.002108 0.014166 -0.002321 -0.000233 -0.000678 -0.001630
# 3 -0.003240 -0.002321 0.014717 0.001917 0.013363 0.008466
# 4 -0.001166 -0.000233 0.001917 0.039254 0.002312 0.003559
# 5 -0.002474 -0.000678 0.013363 0.002312 0.051933 0.015257
# 6 -0.002347 -0.001630 0.008466 0.003559 0.015257 0.044460
#
#
# Mechanical properties :
#
#
# Convention : Reuss Voigt Hill
#
# Bulk Modulus (GPa) = 44.38138 51.92253 48.15195
# Shear Modulus (GPa) = 25.46240 31.20455 28.33347
#
# Velocity S-wave (km/s) = 3.53623 3.91472 3.73028
# Velocity P-wave (km/s) = 6.20239 6.77740 6.49626
#
# Compressibility (1/GPa) = 0.02253197
#
# Stress axis : x y z
#
# Youngs Moduli (GPa) = 111.25549 70.59147 67.94904
#
# Poissons Ratio (x) = 0.14879 0.22019
# Poissons Ratio (y) = 0.23449 0.15774
# Poissons Ratio (z) = 0.36052 0.16388
#
# Static dielectric constant tensor:
#      x y z
#    x 3.913050 -0.120750 -0.236810 
#    y -0.120750 3.844850 -0.029620 
#    z -0.236810 -0.029620 3.849810 
# 
# 
# High freq. dielectric constant tensor:
#      x y z
#    x 1.795780 0.002290 -0.012280 
#    y 0.002290 1.792710 -0.006470 
#    z -0.012280 -0.006470 1.802550 
# 
# From -- ./inp_files/37431.got.cif
#   From: 2010.06.25/outbox.cif.g09.slc.cpg/sg2_19_cif.got.tgz:37431.got - 2010.06.27 13:26:56.
