data_PCOD8004101
_publ_section_title
;
Structure prediction by ZEFSAII (Michael W. Deem and Ramdas Pophale) SiO2 
 PCOD8004101
Probable space group: P -1
;
_chemical_formula_sum "Si O2"
_cell_formula_units_Z 16
_cell_length_a 22.192717
_cell_length_b 20.204780
_cell_length_c 12.273130
_cell_angle_alpha 152.666985
_cell_angle_beta 28.191202
_cell_angle_gamma 162.994092
_cell_volume 717.929820
_symmetry_space_group_name_H-M "P -1"
_symmetry_group_IT_number 2
_symmetry_cell_setting 'triclinic'
loop_
_space_group_symop_operation_xyz
x,y,z
-x,-y,-z
loop_
_atom_site_type_symbol
_atom_site_label
_atom_site_fract_x
_atom_site_fract_y
_atom_site_fract_z
Si Si1 0.201001 0.066762 0.807980
Si Si2 0.430088 0.708093 0.149642
Si Si3 0.685946 0.287954 0.893673
Si Si4 0.387365 0.590992 0.616452
Si Si5 0.214221 0.147070 0.141528
Si Si6 0.777657 0.781136 0.229533
Si Si7 0.095209 0.472901 0.509458
Si Si8 0.592085 0.229066 0.360950
O O1 0.129310 0.100473 0.867842
O O2 0.427374 0.202911 0.618778
O O3 0.251148 0.205941 0.039364
O O4 0.021810 0.783618 0.703352
O O5 0.407901 0.754723 0.135414
O O6 0.289363 0.674369 0.409040
O O7 0.680592 0.913739 0.080919
O O8 0.373893 0.490803 0.934639
O O9 0.923887 0.444946 0.729425
O O10 0.522725 0.028461 0.827908
O O11 0.692105 0.433641 0.173923
O O12 0.275556 0.341431 0.397717
O O13 0.642485 0.795087 0.509198
O O14 0.331624 0.668731 0.734166
O O15 0.960097 0.905487 0.206760
O O16 0.196066 0.571663 0.612723
#
# Coordination Sequence:
#
# PCOD8004101 Si02
#       8
#     2   2   2   2   2   2   2   2
#     4  10  20  37  63  99 121 144 200 257 313 347
#     4  11  24  39  61  92 124 158 202 245 301 358
#     4  11  26  44  57  86 128 167 204 240 286 367
#     4  10  24  41  63  91 121 158 203 246 302 356
#     4  11  21  37  66  92 121 155 195 253 302 363
#     4  10  22  37  64  93 125 154 189 259 309 354
#     4  11  22  40  67  90 118 159 200 255 301 349
#     4  10  22  40  66  89 118 158 203 256 296 347
#
# _framework density 22.286301000000002
#
# number of rings (size 3 to 8) (size 9 to 14) (size 15 to 20)
#    0.000    1.500    2.500    1.875    1.750    6.500 
#    0.000    1.250    0.000    0.000    0.000    0.000 
#    0.000    0.000    0.000    0.000    0.000    0.000 
#
# Total GULP energy -198364.073444 kJ/mol
# GULP energy per Si atom -12397.754590 kJ/mol
# Density = 2.223558 g / cm^3
# Si number density = 22.286301 Si / 1000 Ang^3
#
#
#
# Elastic Constant Matrix: (Units=GPa)
#
#
# Indices 1 2 3 4 5 6 
#
# 1 103.6929 24.3359 30.7430 -31.9898 -7.9961 35.9508
# 2 24.3359 35.4125 26.0394 -6.6602 9.0171 39.1172
# 3 30.7430 26.0394 107.4959 -17.2571 3.2041 17.1196
# 4 -31.9898 -6.6602 -17.2571 23.0328 2.0758 -6.7962
# 5 -7.9961 9.0171 3.2041 2.0758 20.9777 -8.8719
# 6 35.9508 39.1172 17.1196 -6.7962 -8.8719 38.2745
#
#
#
# Elastic Compliance Matrix: (Units=1/GPa)
#
#
# Indices 1 2 3 4 5 6 
#
# 1 0.021100 -0.012452 0.000796 0.025194 0.010557 -0.000528
# 2 -0.012452 -0.038355 0.000344 -0.014734 0.037140 0.056735
# 3 0.000796 0.000344 0.011430 0.008487 -0.004901 -0.005841
# 4 0.025194 -0.014734 0.008487 0.080905 0.008276 0.003883
# 5 0.010557 0.037140 -0.004901 0.008276 0.018804 -0.039854
# 6 -0.000528 0.056735 -0.005841 0.003883 -0.039854 -0.037297
#
#
# Mechanical properties :
#
#
# Convention : Reuss Voigt Hill
#
# Bulk Modulus (GPa) = -35.15084 45.42640 5.13778
# Shear Modulus (GPa) = 71.70699 27.48921 49.59810
#
# Velocity S-wave (km/s) = 5.67849 3.51587 4.72264
# Velocity P-wave (km/s) = 5.21411 6.07529 5.66110
#
# Compressibility (1/GPa) = -0.02844882
#
# Stress axis : x y z
#
# Youngs Moduli (GPa) = 47.39388 -26.07189 87.48526
#
# Poissons Ratio (x) = -0.32465 -0.06963
# Poissons Ratio (y) = 0.59015 -0.03013
# Poissons Ratio (z) = -0.03772 0.00898
#
# Static dielectric constant tensor:
#      x y z
#    x 3.952420 0.284070 -0.170560 
#    y 0.284070 4.070150 -0.284580 
#    z -0.170560 -0.284580 3.946930 
# 
# 
# High freq. dielectric constant tensor:
#      x y z
#    x 1.873150 0.023630 -0.011660 
#    y 0.023630 1.877820 -0.015700 
#    z -0.011660 -0.015700 1.874930 
# 
# From -- ./inp_files/438395.got.cif
#   From: 2010.06.25/outbox.cif.g09.slc.cpg/sg2_220_cif.got.tgz:438395.got - 2010.06.27 13:26:56.
