data_PCOD8004587
_publ_section_title
;
Structure prediction by ZEFSAII (Michael W. Deem and Ramdas Pophale) SiO2 
 PCOD8004587
Probable space group: P -1
;
_chemical_formula_sum "Si O2"
_cell_formula_units_Z 16
_cell_length_a 11.842973
_cell_length_b 12.670940
_cell_length_c 13.033711
_cell_angle_alpha 38.878369
_cell_angle_beta 106.287738
_cell_angle_gamma 75.434482
_cell_volume 737.668571
_symmetry_space_group_name_H-M "P -1"
_symmetry_group_IT_number 2
_symmetry_cell_setting 'triclinic'
loop_
_space_group_symop_operation_xyz
x,y,z
-x,-y,-z
loop_
_atom_site_type_symbol
_atom_site_label
_atom_site_fract_x
_atom_site_fract_y
_atom_site_fract_z
Si Si1 0.745485 0.389139 0.678863
Si Si2 0.976662 0.440907 0.646244
Si Si3 0.821531 0.249720 0.030691
Si Si4 0.174665 0.107597 0.592477
Si Si5 0.919342 0.267662 0.243996
Si Si6 0.560997 0.154314 0.496452
Si Si7 0.502298 0.158661 0.256336
Si Si8 0.687971 0.112227 0.761261
O O1 0.849553 0.417026 0.620971
O O2 0.864240 0.227369 0.937653
O O3 0.757115 0.214770 0.740991
O O4 0.530134 0.678326 0.426349
O O5 0.868862 0.679427 0.516418
O O6 0.000000 0.500000 0.500000
O O7 0.188139 0.168706 0.941959
O O8 0.603482 0.526341 0.782667
O O9 0.931985 0.257175 0.129811
O O10 0.863068 0.012242 0.255504
O O11 0.044381 0.264245 0.338221
O O12 0.390962 0.874378 0.786821
O O13 0.704020 0.531426 0.024654
O O14 0.000000 0.000000 0.500000
O O15 0.623473 0.064695 0.462044
O O16 0.717381 0.058958 0.685443
O O17 0.500358 0.038712 0.611255
#
# Coordination Sequence:
#
# PCOD8004587 Si02
#       8
#     2   2   2   2   2   2   2   2
#     4  10  22  43  66  87 119 161 202 252 307 362
#     4  12  26  42  62  91 122 155 202 259 310 360
#     4   9  19  38  59  87 122 155 199 246 293 357
#     4  11  22  37  61  88 119 162 200 242 307 361
#     4   9  20  36  58  92 126 155 197 245 292 356
#     4   9  19  37  61  88 120 158 200 244 291 355
#     4  10  20  38  60  88 126 160 197 248 299 353
#     4  10  21  41  65  90 119 159 206 247 301 365
#
# _framework density 21.689955000000001
#
# number of rings (size 3 to 8) (size 9 to 14) (size 15 to 20)
#    0.000    2.000    0.000    3.375    0.000    6.000 
#    0.000   20.625    0.000    0.000    0.000    0.000 
#    0.000    0.000    0.000    0.000    0.000    0.000 
#
# Total GULP energy -198283.079595 kJ/mol
# GULP energy per Si atom -12392.692475 kJ/mol
# Density = 2.164059 g / cm^3
# Si number density = 21.689955 Si / 1000 Ang^3
#
#
#
# Elastic Constant Matrix: (Units=GPa)
#
#
# Indices 1 2 3 4 5 6 
#
# 1 82.3416 49.0430 32.9904 12.5152 -10.1600 -9.9470
# 2 49.0430 146.5347 54.1685 18.8881 2.9606 13.9328
# 3 32.9904 54.1685 120.7156 5.7981 0.7810 4.1299
# 4 12.5152 18.8881 5.7981 39.6627 -0.3945 8.3857
# 5 -10.1600 2.9606 0.7810 -0.3945 23.5872 1.9092
# 6 -9.9470 13.9328 4.1299 8.3857 1.9092 25.3182
#
#
#
# Elastic Compliance Matrix: (Units=1/GPa)
#
#
# Indices 1 2 3 4 5 6 
#
# 1 0.020869 -0.006603 -0.002983 -0.005789 0.008721 0.013579
# 2 -0.006603 0.011010 -0.002798 -0.001193 -0.003544 -0.007534
# 3 -0.002983 -0.002798 0.010365 0.001085 -0.001130 -0.001597
# 4 -0.005789 -0.001193 0.001085 0.029897 -0.000938 -0.011626
# 5 0.008721 -0.003544 -0.001130 -0.000938 0.046427 0.002370
# 6 0.013579 -0.007534 -0.001597 -0.011626 0.002370 0.052911
#
#
# Mechanical properties :
#
#
# Convention : Reuss Voigt Hill
#
# Bulk Modulus (GPa) = 57.22406 69.11065 63.16736
# Shear Modulus (GPa) = 24.74363 31.93960 28.34162
#
# Velocity S-wave (km/s) = 3.38122 3.84155 3.61871
# Velocity P-wave (km/s) = 6.45628 7.18393 6.82980
#
# Compressibility (1/GPa) = 0.01747517
#
# Stress axis : x y z
#
# Youngs Moduli (GPa) = 47.91894 90.82399 96.48139
#
# Poissons Ratio (x) = 0.59969 0.28783
# Poissons Ratio (y) = 0.31640 0.26997
# Poissons Ratio (z) = 0.14296 0.25414
#
# Static dielectric constant tensor:
#      x y z
#    x 3.497440 0.194990 0.098960 
#    y 0.194990 4.449530 0.326910 
#    z 0.098960 0.326910 4.220680 
# 
# 
# High freq. dielectric constant tensor:
#      x y z
#    x 1.818330 0.011640 0.004950 
#    y 0.011640 1.876360 -0.000310 
#    z 0.004950 -0.000310 1.860060 
# 
# From -- ./inp_files/427438.got.cif
#   From: 2010.06.25/outbox.cif.g09.slc.cpg/sg2_214_cif.got.tgz:427438.got - 2010.06.27 13:26:56.
