data_PCOD8004604
_publ_section_title
;
Structure prediction by ZEFSAII (Michael W. Deem and Ramdas Pophale) SiO2 
 PCOD8004604
Probable space group: P -1
;
_chemical_formula_sum "Si O2"
_cell_formula_units_Z 16
_cell_length_a 9.225751
_cell_length_b 11.377709
_cell_length_c 10.652350
_cell_angle_alpha 55.158479
_cell_angle_beta 84.788428
_cell_angle_gamma 64.441789
_cell_volume 809.410508
_symmetry_space_group_name_H-M "P -1"
_symmetry_group_IT_number 2
_symmetry_cell_setting 'triclinic'
loop_
_space_group_symop_operation_xyz
x,y,z
-x,-y,-z
loop_
_atom_site_type_symbol
_atom_site_label
_atom_site_fract_x
_atom_site_fract_y
_atom_site_fract_z
Si Si1 0.993648 0.661578 0.951021
Si Si2 0.346021 0.523860 0.666770
Si Si3 0.064187 0.433159 0.727522
Si Si4 0.686257 0.951801 0.683251
Si Si5 0.365894 0.943233 0.652810
Si Si6 0.547740 0.271636 0.625742
Si Si7 0.222161 0.297097 0.543138
Si Si8 0.337529 0.636895 0.871624
O O1 0.865766 0.808125 0.785958
O O2 0.174347 0.643310 0.937547
O O3 0.935490 0.681265 0.088864
O O4 0.000000 0.500000 0.000000
O O5 0.174000 0.521635 0.693183
O O6 0.489546 0.341937 0.729094
O O7 0.342441 0.647774 0.484066
O O8 0.372597 0.592351 0.751189
O O9 0.125429 0.324881 0.664507
O O10 0.881913 0.577787 0.633054
O O11 0.556514 0.882481 0.713253
O O12 0.673719 0.050045 0.496724
O O13 0.644854 0.076415 0.728494
O O14 0.318277 0.813722 0.794616
O O15 0.257258 0.119035 0.610664
O O16 0.382391 0.323346 0.525372
O O17 0.500000 0.500000 0.000000
#
# Coordination Sequence:
#
# PCOD8004604 Si02
#       8
#     2   2   2   2   2   2   2   2
#     4  12  24  39  60  88 120 156 198 249 299 347
#     4  10  20  38  60  90 116 153 199 242 292 345
#     4  10  21  39  60  90 119 157 201 242 293 352
#     4  10  21  39  63  89 117 155 198 245 296 354
#     4  10  21  39  61  87 119 158 197 241 296 357
#     4   9  19  38  65  89 113 153 200 244 291 349
#     4   9  20  39  64  86 120 159 197 240 294 354
#     4  12  26  40  59  88 122 158 198 244 301 354
#
# _framework density 19.767472999999999
#
# number of rings (size 3 to 8) (size 9 to 14) (size 15 to 20)
#    0.000    1.750    2.500    1.500    1.750    1.500 
#    2.250    2.500    0.000    0.000    0.000    0.000 
#    0.000    0.000    0.000    0.000    0.000    0.000 
#
# Total GULP energy -198318.384754 kJ/mol
# GULP energy per Si atom -12394.899047 kJ/mol
# Density = 1.972248 g / cm^3
# Si number density = 19.767473 Si / 1000 Ang^3
#
#
#
# Elastic Constant Matrix: (Units=GPa)
#
#
# Indices 1 2 3 4 5 6 
#
# 1 112.4181 31.3617 49.9839 -15.6806 -12.5378 -15.3324
# 2 31.3617 92.7498 26.6549 -11.6709 -0.5152 3.3235
# 3 49.9839 26.6549 69.6522 -4.1194 -6.9948 -6.9805
# 4 -15.6806 -11.6709 -4.1194 32.7350 -2.5843 -0.7004
# 5 -12.5378 -0.5152 -6.9948 -2.5843 34.6522 -6.4494
# 6 -15.3324 3.3235 -6.9805 -0.7004 -6.4494 30.4979
#
#
#
# Elastic Compliance Matrix: (Units=1/GPa)
#
#
# Indices 1 2 3 4 5 6 
#
# 1 0.016118 -0.002320 -0.008934 0.006400 0.005905 0.007707
# 2 -0.002320 0.013134 -0.003762 0.002867 -0.001896 -0.003794
# 3 -0.008934 -0.003762 0.022296 -0.002691 0.001239 0.001222
# 4 0.006400 0.002867 -0.002691 0.034797 0.005189 0.004186
# 5 0.005905 -0.001896 0.001239 0.005189 0.033592 0.010682
# 6 0.007707 -0.003794 0.001222 0.004186 0.010682 0.039712
#
#
# Mechanical properties :
#
#
# Convention : Reuss Voigt Hill
#
# Bulk Modulus (GPa) = 46.48239 54.53569 50.50904
# Shear Modulus (GPa) = 25.39985 30.69831 28.04908
#
# Velocity S-wave (km/s) = 3.58848 3.94505 3.77098
# Velocity P-wave (km/s) = 6.38242 6.95699 6.67589
#
# Compressibility (1/GPa) = 0.02151352
#
# Stress axis : x y z
#
# Youngs Moduli (GPa) = 62.04430 76.14100 44.85123
#
# Poissons Ratio (x) = 0.17667 0.40072
# Poissons Ratio (y) = 0.14396 0.16873
# Poissons Ratio (z) = 0.55433 0.28644
#
# Static dielectric constant tensor:
#      x y z
#    x 3.643030 0.043540 -0.065830 
#    y 0.043540 3.871930 -0.001070 
#    z -0.065830 -0.001070 3.495940 
# 
# 
# High freq. dielectric constant tensor:
#      x y z
#    x 1.773000 0.002470 -0.004760 
#    y 0.002470 1.788400 0.001350 
#    z -0.004760 0.001350 1.744650 
# 
# From -- ./inp_files/274418.got.cif
#   From: 2010.06.25/outbox.cif.g09.slc.cpg/sg2_138_cif.got.tgz:274418.got - 2010.06.27 13:26:56.
