data_PCOD8004619
_publ_section_title
;
Structure prediction by ZEFSAII (Michael W. Deem and Ramdas Pophale) SiO2 
 PCOD8004619
Probable space group: P -1
;
_chemical_formula_sum "Si O2"
_cell_formula_units_Z 14
_cell_length_a 27.881986
_cell_length_b 12.548429
_cell_length_c 19.774453
_cell_angle_alpha 21.137577
_cell_angle_beta 17.995201
_cell_angle_gamma 20.590244
_cell_volume 692.114287
_symmetry_space_group_name_H-M "P -1"
_symmetry_group_IT_number 2
_symmetry_cell_setting 'triclinic'
loop_
_space_group_symop_operation_xyz
x,y,z
-x,-y,-z
loop_
_atom_site_type_symbol
_atom_site_label
_atom_site_fract_x
_atom_site_fract_y
_atom_site_fract_z
Si Si1 0.386460 0.835601 0.779389
Si Si2 0.720684 0.439370 0.306569
Si Si3 0.148002 0.163329 0.027116
Si Si4 0.775959 0.393429 0.972770
Si Si5 0.431445 0.849087 0.107280
Si Si6 0.882789 0.921781 0.511916
Si Si7 0.347161 0.546027 0.758945
O O1 0.514645 0.448688 0.843454
O O2 0.500000 0.000000 0.500000
O O3 0.226938 0.870856 0.921311
O O4 0.306502 0.003749 0.857133
O O5 0.825585 0.118183 0.401785
O O6 0.516479 0.608082 0.496557
O O7 0.757726 0.320473 0.249293
O O8 0.778223 0.732635 0.067325
O O9 0.063859 0.911443 0.301508
O O10 0.000000 0.500000 0.000000
O O11 0.914962 0.539131 0.685827
O O12 0.591174 0.731994 0.016946
O O13 0.782548 0.263334 0.117848
O O14 0.256796 0.893805 0.352064
O O15 0.409049 0.156307 0.910407
#
# Coordination Sequence:
#
# PCOD8004619 Si02
#       7
#     2   2   2   2   2   2   2
#     4  10  18  30  52  72  97 125 171 205 233 283
#     4  10  17  28  48  76 101 126 160 199 244 285
#     4  10  21  31  47  73 101 130 162 201 243 288
#     4   9  17  30  52  71  97 123 171 197 236 282
#     4   9  17  31  52  73  95 125 171 198 231 287
#     4  10  16  33  51  72 102 129 163 198 238 292
#     4  10  16  29  52  76  98 125 161 205 239 287
#
# _framework density 20.227875000000001
#
# number of rings (size 3 to 8) (size 9 to 14) (size 15 to 20)
#    0.857    1.429    2.857    3.429    0.000    0.571 
#    0.000    3.571    0.000    3.429    0.000    0.000 
#    0.000    0.000    0.000    0.000    0.000    0.000 
#
# Total GULP energy -173457.596543 kJ/mol
# GULP energy per Si atom -12389.828325 kJ/mol
# Density = 2.018184 g / cm^3
# Si number density = 20.227875 Si / 1000 Ang^3
#
#
#
# Elastic Constant Matrix: (Units=GPa)
#
#
# Indices 1 2 3 4 5 6 
#
# 1 94.5469 0.8376 37.0907 -10.5968 -5.7476 11.2818
# 2 0.8376 30.0125 -1.0760 -1.0732 -0.9653 8.9659
# 3 37.0907 -1.0760 120.6631 -13.3385 -23.5473 4.0035
# 4 -10.5968 -1.0732 -13.3385 23.8825 10.4329 -3.0871
# 5 -5.7476 -0.9653 -23.5473 10.4329 34.2670 -5.8692
# 6 11.2818 8.9659 4.0035 -3.0871 -5.8692 18.5780
#
#
#
# Elastic Compliance Matrix: (Units=1/GPa)
#
#
# Indices 1 2 3 4 5 6 
#
# 1 0.013415 0.002102 -0.003981 0.004083 -0.003146 -0.008618
# 2 0.002102 0.039473 0.000048 0.001085 -0.002416 -0.020920
# 3 -0.003981 0.000048 0.010937 0.001713 0.006748 0.002454
# 4 0.004083 0.001085 0.001713 0.050642 -0.013386 0.000814
# 5 -0.003146 -0.002416 0.006748 -0.013386 0.039324 0.011821
# 6 -0.008618 -0.020920 0.002454 0.000814 0.011821 0.072498
#
#
# Mechanical properties :
#
#
# Convention : Reuss Voigt Hill
#
# Bulk Modulus (GPa) = 16.62147 35.43635 26.02891
# Shear Modulus (GPa) = 19.99966 29.23685 24.61826
#
# Velocity S-wave (km/s) = 3.14780 3.80593 3.49240
# Velocity P-wave (km/s) = 4.63103 6.07208 5.39984
#
# Compressibility (1/GPa) = 0.06016315
#
# Stress axis : x y z
#
# Youngs Moduli (GPa) = 74.54420 25.33364 91.43613
#
# Poissons Ratio (x) = -0.05326 0.36405
# Poissons Ratio (y) = -0.15672 -0.00442
# Poissons Ratio (z) = 0.29679 -0.00123
#
# Static dielectric constant tensor:
#      x y z
#    x 3.644300 0.264020 -0.302750 
#    y 0.264020 3.247980 -0.144550 
#    z -0.302750 -0.144550 4.016480 
# 
# 
# High freq. dielectric constant tensor:
#      x y z
#    x 1.766900 0.029970 -0.011070 
#    y 0.029970 1.752690 -0.006400 
#    z -0.011070 -0.006400 1.802660 
# 
# From -- ./inp_files/435741.got.cif
#   From: 2010.06.25/outbox.cif.g09.slc.cpg/sg2_218_cif.got.tgz:435741.got - 2010.06.27 13:26:56.
