data_PCOD8004068
_publ_section_title
;
Structure prediction by ZEFSAII (Michael W. Deem and Ramdas Pophale) SiO2 
 PCOD8004068
Probable space group: P -1
;
_chemical_formula_sum "Si O2"
_cell_formula_units_Z 16
_cell_length_a 28.865293
_cell_length_b 28.969174
_cell_length_c 8.592761
_cell_angle_alpha 140.655573
_cell_angle_beta 140.656788
_cell_angle_gamma 10.118932
_cell_volume 795.645506
_symmetry_space_group_name_H-M "P -1"
_symmetry_group_IT_number 2
_symmetry_cell_setting 'triclinic'
loop_
_space_group_symop_operation_xyz
x,y,z
-x,-y,-z
loop_
_atom_site_type_symbol
_atom_site_label
_atom_site_fract_x
_atom_site_fract_y
_atom_site_fract_z
Si Si1 0.289437 0.365599 0.342590
Si Si2 0.948138 0.947290 0.859499
Si Si3 0.551703 0.527687 0.628507
Si Si4 0.047977 0.013149 0.382262
Si Si5 0.598053 0.577161 0.178636
Si Si6 0.218395 0.177156 0.960374
Si Si7 0.353396 0.069381 0.361244
Si Si8 0.825731 0.608514 0.586424
O O1 0.368863 0.368959 0.615517
O O2 0.152691 0.452702 0.354106
O O3 0.066315 0.584204 0.199471
O O4 0.550664 0.074335 0.204493
O O5 0.941688 0.964412 0.703808
O O6 0.168221 0.678428 0.775548
O O7 0.668567 0.184481 0.802215
O O8 0.009761 0.962991 0.150259
O O9 0.500000 0.500000 0.500000
O O10 0.810702 0.278400 0.546739
O O11 0.313339 0.778845 0.551990
O O12 0.593537 0.548728 0.920934
O O13 0.272051 0.101056 0.080140
O O14 0.210884 0.271028 0.165182
O O15 0.093555 0.338927 0.484840
O O16 0.500000 0.000000 0.500000
O O17 0.569128 0.821498 0.383118
#
# Coordination Sequence:
#
# PCOD8004068 Si02
#       8
#     2   2   2   2   2   2   2   2
#     4  12  25  40  58  90 124 168 198 248 310 359
#     4  11  22  41  63  90 121 154 197 258 298 360
#     4  12  21  39  64  95 117 158 197 252 300 361
#     4  11  22  38  66  95 115 151 207 249 302 352
#     4  12  25  41  60  86 130 161 201 248 309 361
#     4  11  21  40  64  90 118 161 210 248 296 364
#     4  10  20  37  63  93 118 150 198 261 304 344
#     4  11  21  39  65  92 122 154 208 257 296 352
#
# _framework density 20.109458
#
# number of rings (size 3 to 8) (size 9 to 14) (size 15 to 20)
#    0.000    0.750    2.500    7.875    0.000    2.000 
#    0.000    7.500    0.000    0.000    0.000    0.000 
#    0.000    0.000    0.000    0.000    0.000    0.000 
#
# Total GULP energy -198466.790084 kJ/mol
# GULP energy per Si atom -12404.174380 kJ/mol
# Density = 2.006369 g / cm^3
# Si number density = 20.109458 Si / 1000 Ang^3
#
#
#
# Elastic Constant Matrix: (Units=GPa)
#
#
# Indices 1 2 3 4 5 6 
#
# 1 64.0190 42.1286 50.1577 21.5668 -14.4571 -6.9337
# 2 42.1286 178.9579 52.8979 -1.3341 -5.4665 -9.6285
# 3 50.1577 52.8979 121.6304 -10.1682 -2.1167 -10.6771
# 4 21.5668 -1.3341 -10.1682 49.1552 -8.6095 -14.7083
# 5 -14.4571 -5.4665 -2.1167 -8.6095 27.3563 -6.2821
# 6 -6.9337 -9.6285 -10.6771 -14.7083 -6.2821 33.0184
#
#
#
# Elastic Compliance Matrix: (Units=1/GPa)
#
#
# Indices 1 2 3 4 5 6 
#
# 1 0.041385 -0.004808 -0.017060 -0.021468 0.011549 -0.005594
# 2 -0.004808 0.007057 -0.000657 0.002841 0.000204 0.002140
# 3 -0.017060 -0.000657 0.017189 0.012749 -0.002187 0.007047
# 4 -0.021468 0.002841 0.012749 0.039527 0.007104 0.019402
# 5 0.011549 0.000204 -0.002187 0.007104 0.047997 0.014074
# 6 -0.005594 0.002140 0.007047 0.019402 0.014074 0.043335
#
#
# Mechanical properties :
#
#
# Convention : Reuss Voigt Hill
#
# Bulk Modulus (GPa) = 48.59106 72.77508 60.68307
# Shear Modulus (GPa) = 20.12881 36.53418 28.33149
#
# Velocity S-wave (km/s) = 3.16723 4.26698 3.75756
# Velocity P-wave (km/s) = 6.13114 7.78101 7.00482
#
# Compressibility (1/GPa) = 0.02057992
#
# Stress axis : x y z
#
# Youngs Moduli (GPa) = 24.16337 141.71129 58.17661
#
# Poissons Ratio (x) = 0.68134 0.99249
# Poissons Ratio (y) = 0.11618 0.03824
# Poissons Ratio (z) = 0.41223 0.09316
#
# Static dielectric constant tensor:
#      x y z
#    x 3.696470 0.173860 -0.354070 
#    y 0.173860 4.086260 -0.239000 
#    z -0.354070 -0.239000 3.830380 
# 
# 
# High freq. dielectric constant tensor:
#      x y z
#    x 1.780860 -0.001210 -0.025630 
#    y -0.001210 1.812610 -0.006250 
#    z -0.025630 -0.006250 1.779180 
# 
# From -- ./inp_files/343222.got.cif
#   From: 2010.06.25/outbox.cif.g09.slc.cpg/sg2_172_cif.got.tgz:343222.got - 2010.06.27 13:26:56.
