data_PCOD8004046
_publ_section_title
;
Structure prediction by ZEFSAII (Michael W. Deem and Ramdas Pophale) SiO2 
 PCOD8004046
Probable space group: P -1
;
_chemical_formula_sum "Si O2"
_cell_formula_units_Z 12
_cell_length_a 22.733746
_cell_length_b 11.404594
_cell_length_c 11.687948
_cell_angle_alpha 40.524600
_cell_angle_beta 19.234799
_cell_angle_gamma 32.862454
_cell_volume 532.420961
_symmetry_space_group_name_H-M "P -1"
_symmetry_group_IT_number 2
_symmetry_cell_setting 'triclinic'
loop_
_space_group_symop_operation_xyz
x,y,z
-x,-y,-z
loop_
_atom_site_type_symbol
_atom_site_label
_atom_site_fract_x
_atom_site_fract_y
_atom_site_fract_z
Si Si1 0.053852 0.278044 0.519869
Si Si2 0.141081 0.081789 0.726996
Si Si3 0.397113 0.655969 0.681261
Si Si4 0.738123 0.287814 0.707404
Si Si5 0.132023 0.185575 0.192205
Si Si6 0.802532 0.456284 0.236411
O O1 0.219130 0.116960 0.435775
O O2 0.173196 0.213966 0.227286
O O3 0.000000 0.500000 0.500000
O O4 0.832180 0.294457 0.897686
O O5 0.346730 0.894255 0.562343
O O6 0.992537 0.305315 0.907708
O O7 0.000000 0.000000 0.000000
O O8 0.500000 0.500000 0.500000
O O9 0.563054 0.549222 0.560340
O O10 0.841767 0.304174 0.386565
O O11 0.883173 0.278014 0.552491
O O12 0.724820 0.077132 0.897832
O O13 0.500000 0.500000 0.000000
O O14 0.194753 0.329683 0.897480
#
# Coordination Sequence:
#
# PCOD8004046 Si02
#       6
#     2   2   2   2   2   2
#     4  11  20  41  65  96 136 166 211 269 329 394
#     4  10  20  37  63  91 133 171 206 261 328 380
#     4  11  21  36  60  95 130 172 215 257 321 391
#     4  11  26  46  69  95 129 174 225 277 321 382
#     4  11  25  45  67  99 131 172 222 271 326 390
#     4  12  23  44  68  95 132 174 220 268 330 390
#
# _framework density 22.538556
#
# number of rings (size 3 to 8) (size 9 to 14) (size 15 to 20)
#    0.000    1.000    5.000    3.500    0.000    3.333 
#    3.000    1.667    0.000    0.000    0.000    0.000 
#    0.000    0.000    0.000    0.000    0.000    0.000 
#
# Total GULP energy -148682.145872 kJ/mol
# GULP energy per Si atom -12390.178823 kJ/mol
# Density = 2.248726 g / cm^3
# Si number density = 22.538556 Si / 1000 Ang^3
#
#
#
# Elastic Constant Matrix: (Units=GPa)
#
#
# Indices 1 2 3 4 5 6 
#
# 1 85.8888 31.6385 3.2240 2.1074 4.1443 -5.6857
# 2 31.6385 156.8627 19.7035 -4.3596 -10.5567 -1.5572
# 3 3.2240 19.7035 36.2200 8.3943 -1.6908 1.1826
# 4 2.1074 -4.3596 8.3943 40.8069 -6.0192 -5.0617
# 5 4.1443 -10.5567 -1.6908 -6.0192 25.9588 -4.1121
# 6 -5.6857 -1.5572 1.1826 -5.0617 -4.1121 40.4502
#
#
#
# Elastic Compliance Matrix: (Units=1/GPa)
#
#
# Indices 1 2 3 4 5 6 
#
# 1 0.012984 -0.002950 0.000592 -0.001463 -0.003388 0.001167
# 2 -0.002950 0.007889 -0.004468 0.002616 0.004116 0.000765
# 3 0.000592 -0.004468 0.031726 -0.007590 -0.001948 -0.002164
# 4 -0.001463 0.002616 -0.007590 0.028161 0.008039 0.004458
# 5 -0.003388 0.004116 -0.001948 0.008039 0.043290 0.005146
# 6 0.001167 0.000765 -0.002164 0.004458 0.005146 0.026059
#
#
# Mechanical properties :
#
#
# Convention : Reuss Voigt Hill
#
# Bulk Modulus (GPa) = 25.67676 43.12259 34.39967
# Shear Modulus (GPa) = 28.28966 36.40353 32.34660
#
# Velocity S-wave (km/s) = 3.54668 4.02327 3.79247
# Velocity P-wave (km/s) = 5.30933 6.38409 5.87136
#
# Compressibility (1/GPa) = 0.03894573
#
# Stress axis : x y z
#
# Youngs Moduli (GPa) = 77.01697 126.76522 31.52024
#
# Poissons Ratio (x) = 0.37400 -0.01866
# Poissons Ratio (y) = 0.22722 0.14083
# Poissons Ratio (z) = -0.04559 0.56638
#
# Static dielectric constant tensor:
#      x y z
#    x 4.449400 -0.470360 -0.087540 
#    y -0.470360 4.812200 -0.111680 
#    z -0.087540 -0.111680 3.686030 
# 
# 
# High freq. dielectric constant tensor:
#      x y z
#    x 1.895020 -0.013860 0.001010 
#    y -0.013860 1.911960 -0.008590 
#    z 0.001010 -0.008590 1.854870 
# 
# From -- ./inp_files/32749.got.cif
#   From: 2010.06.25/outbox.cif.g09.slc.cpg/sg2_17_cif.got.tgz:32749.got - 2010.06.27 13:26:56.
