data_PCOD8004998
_publ_section_title
;
Structure prediction by ZEFSAII (Michael W. Deem and Ramdas Pophale) SiO2 
 PCOD8004998
Probable space group: P -1
;
_chemical_formula_sum "Si O2"
_cell_formula_units_Z 16
_cell_length_a 20.009956
_cell_length_b 8.124372
_cell_length_c 11.749005
_cell_angle_alpha 93.417396
_cell_angle_beta 30.173143
_cell_angle_gamma 74.371792
_cell_volume 736.607418
_symmetry_space_group_name_H-M "P -1"
_symmetry_group_IT_number 2
_symmetry_cell_setting 'triclinic'
loop_
_space_group_symop_operation_xyz
x,y,z
-x,-y,-z
loop_
_atom_site_type_symbol
_atom_site_label
_atom_site_fract_x
_atom_site_fract_y
_atom_site_fract_z
Si Si1 0.818405 0.062802 0.922117
Si Si2 0.654919 0.483553 0.062404
Si Si3 0.000541 0.894027 0.161706
Si Si4 0.531547 0.785303 0.467993
Si Si5 0.935703 0.422239 0.502148
Si Si6 0.070854 0.421292 0.727122
Si Si7 0.260352 0.220348 0.655420
Si Si8 0.718645 0.169068 0.414848
O O1 0.976538 0.023234 0.753505
O O2 0.756691 0.231836 0.919723
O O3 0.649741 0.166452 0.253509
O O4 0.899934 0.830029 0.748543
O O5 0.647329 0.597741 0.195834
O O6 0.463940 0.592312 0.301192
O O7 0.755324 0.494670 0.814754
O O8 0.013690 0.691726 0.163633
O O9 0.811650 0.084254 0.396704
O O10 0.155971 0.824531 0.848348
O O11 0.632159 0.718703 0.438667
O O12 0.500000 0.000000 0.500000
O O13 0.889151 0.536511 0.453243
O O14 0.000000 0.500000 0.500000
O O15 0.241675 0.281523 0.551020
O O16 0.930854 0.649222 0.003690
O O17 0.333957 0.975889 0.555235
#
# Coordination Sequence:
#
# PCOD8004998 Si02
#       8
#     2   2   2   2   2   2   2   2
#     4  12  25  42  66  96 129 178 227 272 330 393
#     4  12  25  42  65 103 137 171 225 271 336 396
#     4  10  20  40  65  96 133 167 221 270 335 383
#     4  12  21  38  70 101 132 165 225 282 320 378
#     4  12  26  46  67  94 136 181 219 270 343 408
#     4  10  22  39  66  96 131 178 218 272 332 395
#     4  10  20  38  64 100 130 167 226 277 324 378
#     4  10  21  38  65  98 132 172 211 279 328 390
#
# _framework density 21.721202000000002
#
# number of rings (size 3 to 8) (size 9 to 14) (size 15 to 20)
#    0.000    1.000    2.500    5.250    1.750    1.000 
#    0.000    3.125    2.750    0.000    0.000    0.000 
#    0.000    0.000    0.000    0.000    0.000    0.000 
#
# Total GULP energy -198338.349403 kJ/mol
# GULP energy per Si atom -12396.146838 kJ/mol
# Density = 2.167176 g / cm^3
# Si number density = 21.721202 Si / 1000 Ang^3
#
#
#
# Elastic Constant Matrix: (Units=GPa)
#
#
# Indices 1 2 3 4 5 6 
#
# 1 106.3675 57.8513 49.0634 -3.7072 -8.0673 -21.5726
# 2 57.8513 129.9247 44.8641 -0.0792 5.1707 -16.8864
# 3 49.0634 44.8641 88.7439 -4.2578 -1.4113 -16.4485
# 4 -3.7072 -0.0792 -4.2578 33.4321 -0.8572 4.2695
# 5 -8.0673 5.1707 -1.4113 -0.8572 35.4371 -1.0662
# 6 -21.5726 -16.8864 -16.4485 4.2695 -1.0662 26.8029
#
#
#
# Elastic Compliance Matrix: (Units=1/GPa)
#
#
# Indices 1 2 3 4 5 6 
#
# 1 0.016053 -0.004636 -0.005158 0.000336 0.004343 0.006954
# 2 -0.004636 0.011051 -0.002832 -0.001119 -0.002761 0.001562
# 3 -0.005158 -0.002832 0.016328 0.001000 0.000032 0.003927
# 4 0.000336 -0.001119 0.001000 0.030693 0.000881 -0.004675
# 5 0.004343 -0.002761 0.000032 0.000881 0.029718 0.002817
# 6 0.006954 0.001562 0.003927 -0.004675 0.002817 0.047157
#
#
# Mechanical properties :
#
#
# Convention : Reuss Voigt Hill
#
# Bulk Modulus (GPa) = 55.00134 69.84374 62.42254
# Shear Modulus (GPa) = 27.42572 30.68490 29.05531
#
# Velocity S-wave (km/s) = 3.55720 3.76263 3.66135
# Velocity P-wave (km/s) = 6.49985 7.14849 6.83187
#
# Compressibility (1/GPa) = 0.01818138
#
# Stress axis : x y z
#
# Youngs Moduli (GPa) = 62.29309 90.48953 61.24541
#
# Poissons Ratio (x) = 0.41949 0.31587
# Poissons Ratio (y) = 0.28878 0.17344
# Poissons Ratio (z) = 0.32128 0.25626
#
# Static dielectric constant tensor:
#      x y z
#    x 4.367860 -0.081330 -0.310080 
#    y -0.081330 3.410060 1.036260 
#    z -0.310080 1.036260 2.454150 
# 
# 
# High freq. dielectric constant tensor:
#      x y z
#    x 1.860450 -0.006270 -0.020490 
#    y -0.006270 1.869620 0.006770 
#    z -0.020490 0.006770 1.822650 
# 
# From -- ./inp_files/469396.got.cif
#   From: 2010.06.25/outbox.cif.g09.slc.cpg/sg2_235_cif.got.tgz:469396.got - 2010.06.27 13:26:56.
