data_PCOD8004288
_publ_section_title
;
Structure prediction by ZEFSAII (Michael W. Deem and Ramdas Pophale) SiO2 
 PCOD8004288
Probable space group: P -1
;
_chemical_formula_sum "Si O2"
_cell_formula_units_Z 16
_cell_length_a 18.920798
_cell_length_b 5.551710
_cell_length_c 25.739794
_cell_angle_alpha 87.406309
_cell_angle_beta 161.107484
_cell_angle_gamma 82.219088
_cell_volume 729.881759
_symmetry_space_group_name_H-M "P -1"
_symmetry_group_IT_number 2
_symmetry_cell_setting 'triclinic'
loop_
_space_group_symop_operation_xyz
x,y,z
-x,-y,-z
loop_
_atom_site_type_symbol
_atom_site_label
_atom_site_fract_x
_atom_site_fract_y
_atom_site_fract_z
Si Si1 0.074005 0.213488 0.276241
Si Si2 0.826628 0.170638 0.453315
Si Si3 0.339704 0.989946 0.564000
Si Si4 0.627847 0.252493 0.914582
Si Si5 0.222505 0.172604 0.665776
Si Si6 0.736347 0.409205 0.797730
Si Si7 0.775424 0.009375 0.913628
Si Si8 0.657397 0.459350 0.558852
O O1 0.178935 0.392343 0.319543
O O2 0.117310 0.227507 0.368076
O O3 0.181386 0.882537 0.338181
O O4 0.769461 0.373393 0.046150
O O5 0.804890 0.119158 0.499464
O O6 0.610982 0.502298 0.287972
O O7 0.126031 0.072761 0.649286
O O8 0.756698 0.988281 0.370908
O O9 0.577659 0.747301 0.696409
O O10 0.478112 0.101691 0.695926
O O11 0.506586 0.126802 0.871392
O O12 0.820079 0.020195 0.006496
O O13 0.000000 0.500000 0.500000
O O14 0.544505 0.357314 0.630167
O O15 0.817043 0.233666 0.909470
O O16 0.998377 0.310896 0.947286
O O17 0.500000 0.500000 0.500000
#
# Coordination Sequence:
#
# PCOD8004288 Si02
#       8
#     2   2   2   2   2   2   2   2
#     4  11  26  40  64  93 133 169 215 263 330 379
#     4  10  20  37  67  91 123 160 213 261 325 381
#     4  11  21  40  61  92 126 173 207 270 316 385
#     4  11  22  38  64  96 124 168 214 269 316 384
#     4   9  20  38  62  95 121 155 209 268 319 385
#     4  10  22  36  56  88 122 166 220 263 299 372
#     4  11  20  36  59  86 122 165 218 260 310 362
#     4  11  23  43  60  87 129 180 218 266 318 378
#
# _framework density 21.921358999999999
#
# number of rings (size 3 to 8) (size 9 to 14) (size 15 to 20)
#    0.000    1.500    3.750    1.500    1.750    1.000 
#    2.250    0.625    0.000    6.750    0.000    0.000 
#    0.000    0.000    0.000    0.000    0.000    0.000 
#
# Total GULP energy -198232.200054 kJ/mol
# GULP energy per Si atom -12389.512503 kJ/mol
# Density = 2.187147 g / cm^3
# Si number density = 21.921359 Si / 1000 Ang^3
#
#
#
# Elastic Constant Matrix: (Units=GPa)
#
#
# Indices 1 2 3 4 5 6 
#
# 1 100.0249 27.0856 49.4775 16.1174 16.9316 11.4808
# 2 27.0856 83.2446 18.5595 18.5769 10.5503 11.7407
# 3 49.4775 18.5595 81.0183 38.8510 9.1074 11.8218
# 4 16.1174 18.5769 38.8510 42.3680 4.3039 9.1208
# 5 16.9316 10.5503 9.1074 4.3039 29.7382 5.3735
# 6 11.4808 11.7407 11.8218 9.1208 5.3735 32.4896
#
#
#
# Elastic Compliance Matrix: (Units=1/GPa)
#
#
# Indices 1 2 3 4 5 6 
#
# 1 0.016842 -0.003476 -0.012034 0.007002 -0.005434 -0.001384
# 2 -0.003476 0.014773 0.002667 -0.006742 -0.002605 -0.002757
# 3 -0.012034 0.002667 0.031203 -0.024989 0.000160 -0.001076
# 4 0.007002 -0.006742 -0.024989 0.047751 -0.000068 -0.004339
# 5 -0.005434 -0.002605 0.000160 -0.000068 0.038238 -0.003502
# 6 -0.001384 -0.002757 -0.001076 -0.004339 -0.003502 0.034453
#
#
# Mechanical properties :
#
#
# Convention : Reuss Voigt Hill
#
# Bulk Modulus (GPa) = 26.93093 50.50367 38.71730
# Shear Modulus (GPa) = 22.59143 32.19683 27.39413
#
# Velocity S-wave (km/s) = 3.21373 3.83658 3.53888
# Velocity P-wave (km/s) = 5.10712 6.53562 5.86502
#
# Compressibility (1/GPa) = 0.03713203
#
# Stress axis : x y z
#
# Youngs Moduli (GPa) = 59.37675 67.69232 32.04808
#
# Poissons Ratio (x) = 0.23527 0.38566
# Poissons Ratio (y) = 0.20637 -0.08546
# Poissons Ratio (z) = 0.71453 -0.18052
#
# Static dielectric constant tensor:
#      x y z
#    x 4.196050 0.076640 0.226550 
#    y 0.076640 3.804750 0.253300 
#    z 0.226550 0.253300 4.270220 
# 
# 
# High freq. dielectric constant tensor:
#      x y z
#    x 1.857170 0.003010 0.011540 
#    y 0.003010 1.859770 0.010740 
#    z 0.011540 0.010740 1.843640 
# 
# From -- ./inp_files/37252.got.cif
#   From: 2010.06.25/outbox.cif.g09.slc.cpg/sg2_19_cif.got.tgz:37252.got - 2010.06.27 13:26:56.
