data_PCOD8004453
_publ_section_title
;
Structure prediction by ZEFSAII (Michael W. Deem and Ramdas Pophale) SiO2 
 PCOD8004453
Probable space group: P -1
;
_chemical_formula_sum "Si O2"
_cell_formula_units_Z 16
_cell_length_a 9.111887
_cell_length_b 8.085985
_cell_length_c 17.727927
_cell_angle_alpha 90.659481
_cell_angle_beta 53.831480
_cell_angle_gamma 123.859988
_cell_volume 771.316749
_symmetry_space_group_name_H-M "P -1"
_symmetry_group_IT_number 2
_symmetry_cell_setting 'triclinic'
loop_
_space_group_symop_operation_xyz
x,y,z
-x,-y,-z
loop_
_atom_site_type_symbol
_atom_site_label
_atom_site_fract_x
_atom_site_fract_y
_atom_site_fract_z
Si Si1 0.115049 0.521364 0.045817
Si Si2 0.009633 0.527163 0.623291
Si Si3 0.184313 0.191664 0.003380
Si Si4 0.332349 0.395604 0.218077
Si Si5 0.901399 0.578129 0.252471
Si Si6 0.115036 0.802604 0.457951
Si Si7 0.698758 0.904393 0.882211
Si Si8 0.626483 0.699036 0.635524
O O1 0.959215 0.499684 0.162155
O O2 0.092707 0.310786 0.063601
O O3 0.404216 0.758554 0.961791
O O4 0.000000 0.500000 0.000000
O O5 0.841943 0.567179 0.705141
O O6 0.856137 0.282182 0.629023
O O7 0.153408 0.552716 0.653551
O O8 0.178648 0.718012 0.507912
O O9 0.433207 0.367542 0.883691
O O10 0.230725 0.085125 0.052923
O O11 0.000000 0.000000 0.000000
O O12 0.214207 0.203699 0.190130
O O13 0.398646 0.318921 0.267158
O O14 0.643714 0.516544 0.316731
O O15 0.138134 0.842203 0.195548
O O16 0.831101 0.695400 0.544621
O O17 0.306588 0.071989 0.406682
#
# Coordination Sequence:
#
# PCOD8004453 Si02
#       8
#     2   2   2   2   2   2   2   2
#     4  11  23  39  59  88 122 155 197 241 284 334
#     4  10  21  38  61  85 111 145 195 241 293 345
#     4  11  22  37  57  84 122 160 192 233 288 343
#     4  10  20  38  59  81 112 157 196 230 281 352
#     4  12  23  36  60  91 115 151 197 239 282 346
#     4   9  21  42  61  81 113 152 184 245 303 343
#     4  11  22  39  58  83 124 160 191 235 288 338
#     4  10  21  39  61  84 114 149 194 236 296 355
#
# _framework density 20.743746999999999
#
# number of rings (size 3 to 8) (size 9 to 14) (size 15 to 20)
#    0.000    1.500    0.000    7.125    0.000    3.000 
#    0.000    5.000    0.000    0.000    0.000    0.000 
#    0.000    0.000    0.000    0.000    0.000    0.000 
#
# Total GULP energy -198339.752068 kJ/mol
# GULP energy per Si atom -12396.234504 kJ/mol
# Density = 2.069653 g / cm^3
# Si number density = 20.743747 Si / 1000 Ang^3
#
#
#
# Elastic Constant Matrix: (Units=GPa)
#
#
# Indices 1 2 3 4 5 6 
#
# 1 101.6998 -16.3961 9.5545 -18.7107 30.2706 42.5165
# 2 -16.3961 -20.3803 -20.4495 -49.6059 14.5876 68.6843
# 3 9.5545 -20.4495 62.8827 -19.8614 12.6608 37.6671
# 4 -18.7107 -49.6059 -19.8614 23.4740 14.0173 26.7715
# 5 30.2706 14.5876 12.6608 14.0173 40.5993 -7.0352
# 6 42.5165 68.6843 37.6671 26.7715 -7.0352 6.6912
#
#
#
# Elastic Compliance Matrix: (Units=1/GPa)
#
#
# Indices 1 2 3 4 5 6 
#
# 1 0.010364 -0.004786 -0.002751 -0.001544 -0.004600 0.000097
# 2 -0.004786 0.007650 -0.005062 -0.005586 0.005869 0.008899
# 3 -0.002751 -0.005062 0.013725 -0.001973 0.000345 0.000430
# 4 -0.001544 -0.005586 -0.001973 0.017011 -0.000409 0.009759
# 5 -0.004600 0.005869 0.000345 -0.000409 0.025139 -0.004888
# 6 0.000097 0.008899 0.000430 0.009759 -0.004888 0.010878
#
#
# Mechanical properties :
#
#
# Convention : Reuss Voigt Hill
#
# Bulk Modulus (GPa) = 152.85896 9.95777 81.40836
# Shear Modulus (GPa) = 44.58555 25.58580 35.08568
#
# Velocity S-wave (km/s) = 4.64114 3.51582 4.11711
# Velocity P-wave (km/s) = 10.12765 4.61434 7.86961
#
# Compressibility (1/GPa) = 0.00654198
#
# Stress axis : x y z
#
# Youngs Moduli (GPa) = 96.48480 130.72307 72.86191
#
# Poissons Ratio (x) = 0.62564 0.20042
# Poissons Ratio (y) = 0.46178 0.36880
# Poissons Ratio (z) = 0.26540 0.66167
#
# Static dielectric constant tensor:
#      x y z
#    x 4.113070 -0.041250 0.442040 
#    y -0.041250 3.739130 0.116000 
#    z 0.442040 0.116000 3.973250 
# 
# 
# High freq. dielectric constant tensor:
#      x y z
#    x 1.817790 -0.006960 0.016430 
#    y -0.006960 1.814530 0.012270 
#    z 0.016430 0.012270 1.813440 
# 
# From -- ./inp_files/534339.got.cif
#   From: 2010.06.25/outbox.cif.g09.slc.cpg/sg2_268_cif.got.tgz:534339.got - 2010.06.27 13:26:56.
