data_PCOD8004431
_publ_section_title
;
Structure prediction by ZEFSAII (Michael W. Deem and Ramdas Pophale) SiO2 
 PCOD8004431
Probable space group: P -1
;
_chemical_formula_sum "Si O2"
_cell_formula_units_Z 14
_cell_length_a 10.488274
_cell_length_b 14.185069
_cell_length_c 11.178189
_cell_angle_alpha 115.309499
_cell_angle_beta 54.652160
_cell_angle_gamma 150.038264
_cell_volume 666.270853
_symmetry_space_group_name_H-M "P -1"
_symmetry_group_IT_number 2
_symmetry_cell_setting 'triclinic'
loop_
_space_group_symop_operation_xyz
x,y,z
-x,-y,-z
loop_
_atom_site_type_symbol
_atom_site_label
_atom_site_fract_x
_atom_site_fract_y
_atom_site_fract_z
Si Si1 0.214307 0.600232 0.756299
Si Si2 0.177775 0.995768 0.384622
Si Si3 0.075076 0.161903 0.013349
Si Si4 0.766348 0.603545 0.487029
Si Si5 0.209238 0.899131 0.079670
Si Si6 0.378129 0.441585 0.190706
Si Si7 0.768109 0.480819 0.049708
O O1 0.136380 0.452633 0.647790
O O2 0.313376 0.642462 0.864796
O O3 0.486436 0.805080 0.653234
O O4 0.931309 0.514988 0.868837
O O5 0.150675 0.954572 0.238034
O O6 0.043137 0.832234 0.452858
O O7 0.000000 0.000000 0.500000
O O8 0.387227 0.347258 0.878056
O O9 0.815766 0.059127 0.013752
O O10 0.094947 0.258784 0.163997
O O11 0.000000 0.000000 0.000000
O O12 0.500000 0.500000 0.500000
O O13 0.692354 0.551422 0.638125
O O14 0.962133 0.676857 0.112620
O O15 0.500000 0.000000 0.000000
O O16 0.489464 0.383407 0.100242
#
# Coordination Sequence:
#
# PCOD8004431 Si02
#       7
#     2   2   2   2   2   2   2
#     4  11  22  33  56  95 126 164 203 261 324 364
#     4  12  23  34  59  96 128 161 208 269 318 373
#     4  10  24  39  65  94 123 172 212 258 319 379
#     4  12  21  37  59  91 129 165 210 264 318 375
#     4  11  22  41  65  98 127 162 219 270 309 378
#     4  10  22  42  61  88 127 163 214 261 308 386
#     4  10  20  38  58  87 133 162 205 262 318 364
#
# _framework density 21.012473
#
# number of rings (size 3 to 8) (size 9 to 14) (size 15 to 20)
#    0.000    1.143    5.714    0.857    4.000    0.000 
#    0.000    0.000    0.000   10.286    0.000    0.000 
#    0.000    0.000    0.000    0.000    0.000    0.000 
#
# Total GULP energy -173500.480469 kJ/mol
# GULP energy per Si atom -12392.891462 kJ/mol
# Density = 2.096465 g / cm^3
# Si number density = 21.012473 Si / 1000 Ang^3
#
#
#
# Elastic Constant Matrix: (Units=GPa)
#
#
# Indices 1 2 3 4 5 6 
#
# 1 87.2962 22.3269 36.9423 4.8741 2.3921 -0.1661
# 2 22.3269 108.4011 38.2542 -2.9436 0.9049 -24.5427
# 3 36.9423 38.2542 152.8201 20.3600 -8.0473 -3.2295
# 4 4.8741 -2.9436 20.3600 38.0171 -5.9590 3.2741
# 5 2.3921 0.9049 -8.0473 -5.9590 39.2750 2.1416
# 6 -0.1661 -24.5427 -3.2295 3.2741 2.1416 27.7630
#
#
#
# Elastic Compliance Matrix: (Units=1/GPa)
#
#
# Indices 1 2 3 4 5 6 
#
# 1 0.013221 -0.002246 -0.002684 -0.000451 -0.001259 -0.002068
# 2 -0.002246 0.013300 -0.002831 0.001686 -0.001110 0.011302
# 3 -0.002684 -0.002831 0.008498 -0.004106 0.001410 -0.001155
# 4 -0.000451 0.001686 -0.004106 0.029521 0.003777 -0.002762
# 5 -0.001259 -0.001110 0.001410 0.003777 0.026607 -0.003323
# 6 -0.002068 0.011302 -0.001155 -0.002762 -0.003323 0.046445
#
#
# Mechanical properties :
#
#
# Convention : Reuss Voigt Hill
#
# Bulk Modulus (GPa) = 51.28639 60.39604 55.84122
# Shear Modulus (GPa) = 31.32575 37.74396 34.53486
#
# Velocity S-wave (km/s) = 3.86530 4.24283 4.05846
# Velocity P-wave (km/s) = 6.66193 7.26688 6.97097
#
# Compressibility (1/GPa) = 0.01949835
#
# Stress axis : x y z
#
# Youngs Moduli (GPa) = 75.63631 75.18578 117.67705
#
# Poissons Ratio (x) = 0.16887 0.31582
# Poissons Ratio (y) = 0.16988 0.33311
# Poissons Ratio (z) = 0.20299 0.21283
#
# Static dielectric constant tensor:
#      x y z
#    x 3.605210 -0.113200 -0.093520 
#    y -0.113200 4.105700 -0.033810 
#    z -0.093520 -0.033810 3.830230 
# 
# 
# High freq. dielectric constant tensor:
#      x y z
#    x 1.791780 -0.011180 -0.000470 
#    y -0.011180 1.839490 0.005200 
#    z -0.000470 0.005200 1.820880 
# 
# From -- ./inp_files/431633.got.cif
#   From: 2010.06.25/outbox.cif.g09.slc.cpg/sg2_216_cif.got.tgz:431633.got - 2010.06.27 13:26:56.
