data_PCOD8004687
_publ_section_title
;
Structure prediction by ZEFSAII (Michael W. Deem and Ramdas Pophale) SiO2 
 PCOD8004687
Probable space group: P -1
;
_chemical_formula_sum "Si O2"
_cell_formula_units_Z 14
_cell_length_a 13.484213
_cell_length_b 10.375810
_cell_length_c 5.247320
_cell_angle_alpha 66.387678
_cell_angle_beta 95.173212
_cell_angle_gamma 107.074035
_cell_volume 642.721681
_symmetry_space_group_name_H-M "P -1"
_symmetry_group_IT_number 2
_symmetry_cell_setting 'triclinic'
loop_
_space_group_symop_operation_xyz
x,y,z
-x,-y,-z
loop_
_atom_site_type_symbol
_atom_site_label
_atom_site_fract_x
_atom_site_fract_y
_atom_site_fract_z
Si Si1 0.942549 0.640510 0.599682
Si Si2 0.337446 0.112470 0.586488
Si Si3 0.440589 0.428499 0.293329
Si Si4 0.733955 0.040799 0.817553
Si Si5 0.841314 0.361397 0.468519
Si Si6 0.819054 0.811464 0.192142
Si Si7 0.763895 0.572276 0.979757
O O1 0.892641 0.479955 0.598667
O O2 0.925129 0.769496 0.307679
O O3 0.065050 0.670666 0.652142
O O4 0.880785 0.643317 0.843627
O O5 0.434281 0.254942 0.442318
O O6 0.321746 0.002958 0.431571
O O7 0.239693 0.180566 0.557845
O O8 0.347812 0.021913 0.919449
O O9 0.500000 0.500000 0.500000
O O10 0.500000 0.500000 0.000000
O O11 0.326502 0.456295 0.230404
O O12 0.776970 0.214681 0.711756
O O13 0.830095 0.966334 0.926982
O O14 0.762917 0.416492 0.228059
O O15 0.743620 0.683094 0.102386
#
# Coordination Sequence:
#
# PCOD8004687 Si02
#       7
#     2   2   2   2   2   2   2
#     4  10  20  39  59  89 129 165 215 256 290 358
#     4  10  20  40  61  89 126 158 199 265 306 354
#     4  12  23  38  69 100 113 154 212 262 313 368
#     4  10  20  38  61  89 124 175 195 248 311 368
#     4  10  24  35  60  92 124 177 207 241 306 378
#     4   9  18  35  62  83 122 168 199 254 304 345
#     4  11  20  39  60  90 130 157 201 270 309 355
#
# _framework density 21.782368000000002
#
# number of rings (size 3 to 8) (size 9 to 14) (size 15 to 20)
#    0.857    0.857    2.857    2.143    4.000    0.571 
#    0.000    1.429    0.000    5.143    0.000    0.000 
#    0.000    0.000    0.000    0.000    0.000    0.000 
#
# Total GULP energy -173442.646488 kJ/mol
# GULP energy per Si atom -12388.760463 kJ/mol
# Density = 2.173279 g / cm^3
# Si number density = 21.782368 Si / 1000 Ang^3
#
#
#
# Elastic Constant Matrix: (Units=GPa)
#
#
# Indices 1 2 3 4 5 6 
#
# 1 32.2717 -6.2667 17.9997 -2.7792 8.2728 6.7952
# 2 -6.2667 57.2886 46.0435 -6.7044 9.5256 7.6375
# 3 17.9997 46.0435 139.4200 -8.2147 -0.7772 7.4850
# 4 -2.7792 -6.7044 -8.2147 45.8762 -3.8539 0.1887
# 5 8.2728 9.5256 -0.7772 -3.8539 38.9402 -2.7450
# 6 6.7952 7.6375 7.4850 0.1887 -2.7450 20.3532
#
#
#
# Elastic Compliance Matrix: (Units=1/GPa)
#
#
# Indices 1 2 3 4 5 6 
#
# 1 0.052596 0.022724 -0.012957 0.002739 -0.018400 -0.023829
# 2 0.022724 0.036357 -0.013870 0.003022 -0.014980 -0.018177
# 3 -0.012957 -0.013870 0.013169 0.000095 0.006813 0.005606
# 4 0.002739 0.003022 0.000095 0.022495 0.000752 -0.002191
# 5 -0.018400 -0.014980 0.006813 0.000752 0.034444 0.013897
# 6 -0.023829 -0.018177 0.005606 -0.002191 0.013897 0.063742
#
#
# Mechanical properties :
#
#
# Convention : Reuss Voigt Hill
#
# Bulk Modulus (GPa) = 10.64787 38.28150 24.46468
# Shear Modulus (GPa) = 19.06115 32.44751 25.75433
#
# Velocity S-wave (km/s) = 2.96137 3.86375 3.44226
# Velocity P-wave (km/s) = 4.07331 6.12515 5.20141
#
# Compressibility (1/GPa) = 0.09391548
#
# Stress axis : x y z
#
# Youngs Moduli (GPa) = 19.01268 27.50535 75.93819
#
# Poissons Ratio (x) = -0.62503 0.98392
# Poissons Ratio (y) = -0.43204 1.05327
# Poissons Ratio (z) = 0.24634 0.38150
#
# Static dielectric constant tensor:
#      x y z
#    x 3.720660 -0.151130 0.059010 
#    y -0.151130 3.602380 -0.131850 
#    z 0.059010 -0.131850 3.961440 
# 
# 
# High freq. dielectric constant tensor:
#      x y z
#    x 1.811960 -0.015880 0.008060 
#    y -0.015880 1.840510 -0.003710 
#    z 0.008060 -0.003710 1.874020 
# 
# From -- ./inp_files/93204.got.cif
#   From: 2010.06.25/outbox.cif.g09.slc.cpg/sg2_47_cif.got.tgz:93204.got - 2010.06.27 13:26:56.
