data_PCOD8004999
_publ_section_title
;
Structure prediction by ZEFSAII (Michael W. Deem and Ramdas Pophale) SiO2 
 PCOD8004999
Probable space group: P -1
;
_chemical_formula_sum "Si O2"
_cell_formula_units_Z 16
_cell_length_a 8.739728
_cell_length_b 11.965142
_cell_length_c 17.276839
_cell_angle_alpha 52.091287
_cell_angle_beta 33.012337
_cell_angle_gamma 48.772985
_cell_volume 731.847723
_symmetry_space_group_name_H-M "P -1"
_symmetry_group_IT_number 2
_symmetry_cell_setting 'triclinic'
loop_
_space_group_symop_operation_xyz
x,y,z
-x,-y,-z
loop_
_atom_site_type_symbol
_atom_site_label
_atom_site_fract_x
_atom_site_fract_y
_atom_site_fract_z
Si Si1 0.593560 0.204901 0.447453
Si Si2 0.616973 0.422071 0.224339
Si Si3 0.810972 0.443755 0.850156
Si Si4 0.041688 0.930585 0.426389
Si Si5 0.945318 0.616263 0.071401
Si Si6 0.408528 0.893704 0.142083
Si Si7 0.806298 0.360815 0.425996
Si Si8 0.902523 0.303371 0.715982
O O1 0.622834 0.261994 0.323935
O O2 0.790201 0.267568 0.395907
O O3 0.250376 0.275472 0.584173
O O4 0.729056 0.021843 0.475262
O O5 0.852493 0.470419 0.155682
O O6 0.284779 0.545801 0.316222
O O7 0.730641 0.403225 0.095346
O O8 0.798320 0.326657 0.839476
O O9 0.051880 0.357351 0.849443
O O10 0.911846 0.580778 0.717535
O O11 0.500000 0.500000 0.000000
O O12 0.297076 0.955611 0.250072
O O13 0.127692 0.750128 0.478649
O O14 0.000000 0.000000 0.500000
O O15 0.708605 0.756133 0.073436
O O16 0.147869 0.842596 0.236379
O O17 0.500000 0.000000 0.000000
O O18 0.500000 0.500000 0.500000
#
# Coordination Sequence:
#
# PCOD8004999 Si02
#       8
#     2   2   2   2   2   2   2   2
#     4  11  22  41  68  95 141 174 229 279 351 401
#     4  10  20  38  64 100 131 176 222 287 337 401
#     4  12  23  41  65 106 138 174 235 292 336 407
#     4  10  25  43  68 103 133 180 234 278 344 423
#     4  10  21  38  67  94 132 176 230 271 346 410
#     4  11  25  47  70  92 137 186 226 282 360 419
#     4  11  22  41  71  98 136 185 223 281 345 410
#     4  11  25  39  66 102 132 172 240 286 331 414
#
# _framework density 21.862472
#
# number of rings (size 3 to 8) (size 9 to 14) (size 15 to 20)
#    0.000    1.250    3.750    1.875    3.500    3.500 
#    2.250    0.625    0.000    0.000    0.000    0.000 
#    0.000    0.000    0.000    0.000    0.000    0.000 
#
# Total GULP energy -198241.969736 kJ/mol
# GULP energy per Si atom -12390.123108 kJ/mol
# Density = 2.181271 g / cm^3
# Si number density = 21.862472 Si / 1000 Ang^3
#
#
#
# Elastic Constant Matrix: (Units=GPa)
#
#
# Indices 1 2 3 4 5 6 
#
# 1 81.2409 34.7411 32.9563 -10.0808 20.5739 -6.0237
# 2 34.7411 107.6426 56.3478 -3.0457 12.3364 -28.6475
# 3 32.9563 56.3478 136.2774 3.0454 18.1063 -16.6924
# 4 -10.0808 -3.0457 3.0454 35.0076 -6.8991 7.1505
# 5 20.5739 12.3364 18.1063 -6.8991 40.2637 1.3093
# 6 -6.0237 -28.6475 -16.6924 7.1505 1.3093 41.9771
#
#
#
# Elastic Compliance Matrix: (Units=1/GPa)
#
#
# Indices 1 2 3 4 5 6 
#
# 1 0.016588 -0.004040 -0.001862 0.003788 -0.005700 -0.001585
# 2 -0.004040 0.015022 -0.004010 -0.001465 -0.001258 0.008367
# 3 -0.001862 -0.004010 0.010073 -0.002638 -0.002852 0.001540
# 4 0.003788 -0.001465 -0.002638 0.032302 0.005468 -0.007178
# 5 -0.005700 -0.001258 -0.002852 0.005468 0.030506 -0.004693
# 6 -0.001585 0.008367 0.001540 -0.007178 -0.004693 0.031286
#
#
# Mechanical properties :
#
#
# Convention : Reuss Voigt Hill
#
# Bulk Modulus (GPa) = 45.74823 63.69461 54.72142
# Shear Modulus (GPa) = 30.69581 36.85738 33.77660
#
# Velocity S-wave (km/s) = 3.75112 4.11039 3.93486
# Velocity P-wave (km/s) = 6.30334 7.19198 6.76227
#
# Compressibility (1/GPa) = 0.02185877
#
# Stress axis : x y z
#
# Youngs Moduli (GPa) = 60.28313 66.56781 99.27780
#
# Poissons Ratio (x) = 0.26895 0.18490
# Poissons Ratio (y) = 0.24356 0.39807
# Poissons Ratio (z) = 0.11228 0.26691
#
# Static dielectric constant tensor:
#      x y z
#    x 4.374020 -0.108480 0.156360 
#    y -0.108480 4.276790 -0.073740 
#    z 0.156360 -0.073740 4.018720 
# 
# 
# High freq. dielectric constant tensor:
#      x y z
#    x 1.863460 -0.019800 0.015420 
#    y -0.019800 1.850250 0.014530 
#    z 0.015420 0.014530 1.858210 
# 
# From -- ./inp_files/273915.got.cif
#   From: 2010.06.25/outbox.cif.g09.slc.cpg/sg2_137_cif.got.tgz:273915.got - 2010.06.27 13:26:56.
