data_PCOD8004306
_publ_section_title
;
Structure prediction by ZEFSAII (Michael W. Deem and Ramdas Pophale) SiO2 
 PCOD8004306
Probable space group: P -1
;
_chemical_formula_sum "Si O2"
_cell_formula_units_Z 14
_cell_length_a 8.154786
_cell_length_b 19.482873
_cell_length_c 4.965591
_cell_angle_alpha 66.540942
_cell_angle_beta 81.861562
_cell_angle_gamma 42.662768
_cell_volume 475.728064
_symmetry_space_group_name_H-M "P -1"
_symmetry_group_IT_number 2
_symmetry_cell_setting 'triclinic'
loop_
_space_group_symop_operation_xyz
x,y,z
-x,-y,-z
loop_
_atom_site_type_symbol
_atom_site_label
_atom_site_fract_x
_atom_site_fract_y
_atom_site_fract_z
Si Si1 0.226717 0.412049 0.803306
Si Si2 0.639909 0.203896 0.314215
Si Si3 0.218618 0.193652 0.282656
Si Si4 0.038635 0.136752 0.026978
Si Si5 0.456896 0.895597 0.146266
Si Si6 0.639359 0.332398 0.474922
Si Si7 0.191323 0.547024 0.040263
O O1 0.434898 0.346036 0.631233
O O2 0.964413 0.458236 0.709301
O O3 0.346807 0.306944 0.138755
O O4 0.191662 0.502873 0.826041
O O5 0.679335 0.129786 0.651906
O O6 0.716414 0.262463 0.299130
O O7 0.853751 0.128542 0.150477
O O8 0.177265 0.126078 0.269074
O O9 0.325975 0.150629 0.625446
O O10 0.423061 0.165166 0.079685
O O11 0.944020 0.327291 0.152517
O O12 0.252791 0.029966 0.952052
O O13 0.886988 0.255580 0.720276
O O14 0.474528 0.462698 0.233518
#
# Coordination Sequence:
#
# PCOD8004306 Si02
#       7
#     2   2   2   2   2   2   2
#     4   9  18  37  62 104 132 177 229 288 340 411
#     4  10  22  42  71 103 137 181 237 287 349 406
#     4  12  28  46  74 104 141 188 233 288 351 416
#     4  11  27  46  68 101 147 180 233 289 357 412
#     4  12  27  48  74 103 136 191 242 285 339 417
#     4  10  22  38  67 100 137 184 220 294 349 409
#     4  10  20  37  67  97 139 177 234 280 347 416
#
# _framework density 29.428578000000002
#
# number of rings (size 3 to 8) (size 9 to 14) (size 15 to 20)
#    0.000    1.429    1.429    2.571    8.000    1.143 
#    0.000    6.429    0.000    0.000    0.000    0.000 
#    0.000    0.000    0.000    0.000    0.000    0.000 
#
# Total GULP energy -173474.331728 kJ/mol
# GULP energy per Si atom -12391.023695 kJ/mol
# Density = 2.936160 g / cm^3
# Si number density = 29.428578 Si / 1000 Ang^3
#
#
#
# Elastic Constant Matrix: (Units=GPa)
#
#
# Indices 1 2 3 4 5 6 
#
# 1 32.3221 11.0849 0.6333 -22.1838 1.8443 -7.2745
# 2 11.0849 145.3559 33.5548 -15.0906 4.6574 -12.5451
# 3 0.6333 33.5548 89.3391 -22.7437 3.1855 -6.3925
# 4 -22.1838 -15.0906 -22.7437 31.3056 10.7996 6.4107
# 5 1.8443 4.6574 3.1855 10.7996 38.8335 -3.7047
# 6 -7.2745 -12.5451 -6.3925 6.4107 -3.7047 44.8580
#
#
#
# Elastic Compliance Matrix: (Units=1/GPa)
#
#
# Indices 1 2 3 4 5 6 
#
# 1 0.110746 -0.002339 0.030144 0.111987 -0.038364 0.002429
# 2 -0.002339 0.007838 -0.002828 -0.000063 -0.000448 0.001382
# 3 0.030144 -0.002828 0.023242 0.041884 -0.014626 0.000216
# 4 0.111987 -0.000063 0.041884 0.160949 -0.053825 -0.003335
# 5 -0.038364 -0.000448 -0.014626 -0.053825 0.044072 0.002901
# 6 0.002429 0.001382 0.000216 -0.003335 0.002901 0.023820
#
#
# Mechanical properties :
#
#
# Convention : Reuss Voigt Hill
#
# Bulk Modulus (GPa) = 5.21432 39.72923 22.47178
# Shear Modulus (GPa) = 12.99919 37.78236 25.39077
#
# Velocity S-wave (km/s) = 2.10399 3.58700 2.94052
# Velocity P-wave (km/s) = 2.77094 5.53940 4.37967
#
# Compressibility (1/GPa) = 0.19177941
#
# Stress axis : x y z
#
# Youngs Moduli (GPa) = 9.02966 127.58244 43.02614
#
# Poissons Ratio (x) = 0.29844 -1.29700
# Poissons Ratio (y) = 0.02112 0.12170
# Poissons Ratio (z) = -0.27219 0.36086
#
# Static dielectric constant tensor:
#      x y z
#    x 5.119290 -0.459640 0.018880 
#    y -0.459640 5.625250 -0.108050 
#    z 0.018880 -0.108050 5.579750 
# 
# 
# High freq. dielectric constant tensor:
#      x y z
#    x 2.201800 -0.032080 -0.006700 
#    y -0.032080 2.211650 -0.005870 
#    z -0.006700 -0.005870 2.203050 
# 
# From -- ./inp_files/27752.got.cif
#   From: 2010.06.25/outbox.cif.g09.slc.cpg/sg2_14_cif.got.tgz:27752.got - 2010.06.27 13:26:56.
