data_PCOD8004049
_publ_section_title
;
Structure prediction by ZEFSAII (Michael W. Deem and Ramdas Pophale) SiO2 
 PCOD8004049
Probable space group: P -1
;
_chemical_formula_sum "Si O2"
_cell_formula_units_Z 16
_cell_length_a 8.858097
_cell_length_b 17.482034
_cell_length_c 8.869483
_cell_angle_alpha 96.778378
_cell_angle_beta 147.309695
_cell_angle_gamma 83.901164
_cell_volume 736.581534
_symmetry_space_group_name_H-M "P -1"
_symmetry_group_IT_number 2
_symmetry_cell_setting 'triclinic'
loop_
_space_group_symop_operation_xyz
x,y,z
-x,-y,-z
loop_
_atom_site_type_symbol
_atom_site_label
_atom_site_fract_x
_atom_site_fract_y
_atom_site_fract_z
Si Si1 0.152215 0.730882 0.951407
Si Si2 0.813737 0.605509 0.119645
Si Si3 0.279164 0.881018 0.924663
Si Si4 0.368873 0.513871 0.554896
Si Si5 0.154052 0.240376 0.989897
Si Si6 0.703828 0.149458 0.419335
Si Si7 0.803731 0.981366 0.470625
Si Si8 0.707436 0.639824 0.384410
O O1 0.292686 0.808938 0.030443
O O2 0.910654 0.706529 0.627584
O O3 0.387014 0.664712 0.142805
O O4 0.032729 0.743654 0.018895
O O5 0.747497 0.680192 0.981450
O O6 0.768568 0.623658 0.259317
O O7 0.131543 0.579071 0.354539
O O8 0.603678 0.539397 0.876447
O O9 0.295527 0.851435 0.760797
O O10 0.993069 0.929621 0.730542
O O11 0.537935 0.935086 0.184253
O O12 0.500000 0.500000 0.500000
O O13 0.231819 0.436117 0.483475
O O14 0.981915 0.192837 0.711823
O O15 0.429642 0.193139 0.260363
O O16 0.706004 0.063760 0.475747
O O17 0.000000 0.000000 0.500000
#
# Coordination Sequence:
#
# PCOD8004049 Si02
#       8
#     2   2   2   2   2   2   2   2
#     4  12  25  42  61  90 125 162 200 251 308 358
#     4  12  24  42  65  93 121 161 208 250 295 360
#     4  11  21  39  63  90 119 158 204 250 299 361
#     4  12  24  42  65  94 127 161 198 250 308 360
#     4  12  24  40  60  89 124 160 200 251 308 362
#     4  11  21  39  62  88 117 158 203 249 299 362
#     4  10  20  37  63  92 119 155 203 253 299 356
#     4  12  24  43  65  90 122 163 207 252 296 357
#
# _framework density 21.721969000000001
#
# number of rings (size 3 to 8) (size 9 to 14) (size 15 to 20)
#    0.000    0.500    0.000   11.625    0.000    0.000 
#    0.000    3.750    0.000    0.000    0.000    0.000 
#    0.000    0.000    0.000    0.000    0.000    0.000 
#
# Total GULP energy -198523.572761 kJ/mol
# GULP energy per Si atom -12407.723298 kJ/mol
# Density = 2.167253 g / cm^3
# Si number density = 21.721969 Si / 1000 Ang^3
#
#
#
# Elastic Constant Matrix: (Units=GPa)
#
#
# Indices 1 2 3 4 5 6 
#
# 1 92.6743 43.8200 18.1743 -6.0040 7.5734 -15.6313
# 2 43.8200 114.3840 25.2805 -0.8715 -3.9177 -2.3166
# 3 18.1743 25.2805 98.9353 -1.6403 8.2994 -5.5552
# 4 -6.0040 -0.8715 -1.6403 32.3175 -3.7584 16.3000
# 5 7.5734 -3.9177 8.2994 -3.7584 20.6227 -7.4822
# 6 -15.6313 -2.3166 -5.5552 16.3000 -7.4822 26.1972
#
#
#
# Elastic Compliance Matrix: (Units=1/GPa)
#
#
# Indices 1 2 3 4 5 6 
#
# 1 0.015222 -0.005665 -0.000586 -0.002214 -0.003643 0.008794
# 2 -0.005665 0.011570 -0.002405 0.000662 0.004660 -0.001948
# 3 -0.000586 -0.002405 0.011252 -0.000577 -0.004555 0.000882
# 4 -0.002214 0.000662 -0.000577 0.045556 -0.001465 -0.030148
# 5 -0.003643 0.004660 -0.004555 -0.001465 0.057588 0.014632
# 6 0.008794 -0.001948 0.000882 -0.030148 0.014632 0.066371
#
#
# Mechanical properties :
#
#
# Convention : Reuss Voigt Hill
#
# Bulk Modulus (GPa) = 48.23751 53.39370 50.81561
# Shear Modulus (GPa) = 21.57208 30.40873 25.99041
#
# Velocity S-wave (km/s) = 3.15477 3.74559 3.46280
# Velocity P-wave (km/s) = 5.96029 6.58330 6.27953
#
# Compressibility (1/GPa) = 0.02073075
#
# Stress axis : x y z
#
# Youngs Moduli (GPa) = 65.69508 86.43327 88.87450
#
# Poissons Ratio (x) = 0.48969 0.05207
# Poissons Ratio (y) = 0.37219 0.21374
# Poissons Ratio (z) = 0.03849 0.20787
#
# Static dielectric constant tensor:
#      x y z
#    x 3.532510 -0.828950 0.166210 
#    y -0.828950 2.693070 -0.096570 
#    z 0.166210 -0.096570 4.005400 
# 
# 
# High freq. dielectric constant tensor:
#      x y z
#    x 1.844580 -0.005750 0.011150 
#    y -0.005750 1.874700 -0.001060 
#    z 0.011150 -0.001060 1.869440 
# 
# From -- ./inp_files/217585.got.cif
#   From: 2010.06.25/outbox.cif.g09.slc.cpg/sg2_109_cif.got.tgz:217585.got - 2010.06.27 13:26:56.
