data_PCOD8004163
_publ_section_title
;
Structure prediction by ZEFSAII (Michael W. Deem and Ramdas Pophale) SiO2 
 PCOD8004163
Probable space group: P -1
;
_chemical_formula_sum "Si O2"
_cell_formula_units_Z 16
_cell_length_a 15.639393
_cell_length_b 15.271301
_cell_length_c 11.562204
_cell_angle_alpha 60.253217
_cell_angle_beta 41.694497
_cell_angle_gamma 27.233283
_cell_volume 701.356147
_symmetry_space_group_name_H-M "P -1"
_symmetry_group_IT_number 2
_symmetry_cell_setting 'triclinic'
loop_
_space_group_symop_operation_xyz
x,y,z
-x,-y,-z
loop_
_atom_site_type_symbol
_atom_site_label
_atom_site_fract_x
_atom_site_fract_y
_atom_site_fract_z
Si Si1 0.409967 0.023910 0.202071
Si Si2 0.237907 0.775118 0.978791
Si Si3 0.111295 0.209533 0.976026
Si Si4 0.788543 0.084931 0.867047
Si Si5 0.302568 0.666803 0.481901
Si Si6 0.224824 0.530552 0.505606
Si Si7 0.266186 0.543668 0.000793
Si Si8 0.728865 0.619358 0.222801
O O1 0.069821 0.289403 0.385112
O O2 0.594691 0.946862 0.169442
O O3 0.455267 0.870660 0.275347
O O4 0.500000 0.000000 0.000000
O O5 0.542902 0.605723 0.737233
O O6 0.205908 0.676773 0.064936
O O7 0.182482 0.840196 0.125685
O O8 0.000000 0.000000 0.000000
O O9 0.034654 0.284564 0.868040
O O10 0.816461 0.452431 0.182368
O O11 0.137467 0.071405 0.043578
O O12 0.446746 0.323393 0.017646
O O13 0.029928 0.930290 0.623802
O O14 0.500000 0.500000 0.500000
O O15 0.157989 0.670076 0.567516
O O16 0.507052 0.574616 0.243910
O O17 0.321004 0.368080 0.598020
O O18 0.000000 0.500000 0.000000
#
# Coordination Sequence:
#
# PCOD8004163 Si02
#       8
#     2   2   2   2   2   2   2   2
#     4  11  22  39  64  99 134 162 211 272 329 378
#     4  11  24  47  65  89 137 176 212 267 318 386
#     4  11  22  37  64  96 126 166 208 265 323 375
#     4  12  22  41  65  92 128 172 214 266 321 382
#     4  11  20  40  61  97 128 161 215 276 317 378
#     4  11  22  42  64  98 128 169 216 261 324 387
#     4  11  24  39  65  93 128 168 220 261 330 377
#     4  10  20  37  64  96 128 163 205 267 325 368
#
# _framework density 22.812944999999999
#
# number of rings (size 3 to 8) (size 9 to 14) (size 15 to 20)
#    0.000    1.000    6.250    1.500    3.500    0.000 
#   11.250    0.625    0.000    3.750    0.000    0.000 
#    0.000    0.000    0.000    0.000    0.000    0.000 
#
# Total GULP energy -198215.616666 kJ/mol
# GULP energy per Si atom -12388.476042 kJ/mol
# Density = 2.276102 g / cm^3
# Si number density = 22.812945 Si / 1000 Ang^3
#
#
#
# Elastic Constant Matrix: (Units=GPa)
#
#
# Indices 1 2 3 4 5 6 
#
# 1 130.7001 35.3963 24.9626 18.1412 2.5132 -6.5232
# 2 35.3963 136.8957 7.6082 21.6607 2.5597 -12.3290
# 3 24.9626 7.6082 54.7514 12.3504 4.3088 6.6111
# 4 18.1412 21.6607 12.3504 30.1633 -2.5244 -1.5013
# 5 2.5132 2.5597 4.3088 -2.5244 30.6082 12.7895
# 6 -6.5232 -12.3290 6.6111 -1.5013 12.7895 33.7099
#
#
#
# Elastic Compliance Matrix: (Units=1/GPa)
#
#
# Indices 1 2 3 4 5 6 
#
# 1 0.009294 -0.001485 -0.003508 -0.003086 -0.001372 0.002326
# 2 -0.001485 0.008957 0.000510 -0.005792 -0.002705 0.003657
# 3 -0.003508 0.000510 0.022212 -0.007714 -0.001602 -0.004584
# 4 -0.003086 -0.005792 -0.007714 0.042751 0.006009 -0.001579
# 5 -0.001372 -0.002705 -0.001602 0.006009 0.040420 -0.016008
# 6 0.002326 0.003657 -0.004584 -0.001579 -0.016008 0.038355
#
#
# Mechanical properties :
#
#
# Convention : Reuss Voigt Hill
#
# Bulk Modulus (GPa) = 31.74750 50.92015 41.33382
# Shear Modulus (GPa) = 27.55531 35.85493 31.70512
#
# Velocity S-wave (km/s) = 3.47923 3.96876 3.73203
# Velocity P-wave (km/s) = 5.48513 6.58563 6.06042
#
# Compressibility (1/GPa) = 0.03149854
#
# Stress axis : x y z
#
# Youngs Moduli (GPa) = 107.59611 111.64771 45.01981
#
# Poissons Ratio (x) = 0.16576 0.15792
# Poissons Ratio (y) = 0.15974 -0.02297
# Poissons Ratio (z) = 0.37743 -0.05696
#
# Static dielectric constant tensor:
#      x y z
#    x 4.760190 -0.200390 0.047720 
#    y -0.200390 5.223000 0.224950 
#    z 0.047720 0.224950 3.688270 
# 
# 
# High freq. dielectric constant tensor:
#      x y z
#    x 1.897940 -0.012430 -0.002140 
#    y -0.012430 1.922750 0.009110 
#    z -0.002140 0.009110 1.860150 
# 
# From -- ./inp_files/455686.got.cif
#   From: 2010.06.25/outbox.cif.g09.slc.cpg/sg2_228_cif.got.tgz:455686.got - 2010.06.27 13:26:56.
