data_PCOD8004822
_publ_section_title
;
Structure prediction by ZEFSAII (Michael W. Deem and Ramdas Pophale) SiO2 
 PCOD8004822
Probable space group: P -1
;
_chemical_formula_sum "Si O2"
_cell_formula_units_Z 16
_cell_length_a 12.320300
_cell_length_b 6.357749
_cell_length_c 11.525978
_cell_angle_alpha 57.244380
_cell_angle_beta 94.472754
_cell_angle_gamma 98.164590
_cell_volume 751.564724
_symmetry_space_group_name_H-M "P -1"
_symmetry_group_IT_number 2
_symmetry_cell_setting 'triclinic'
loop_
_space_group_symop_operation_xyz
x,y,z
-x,-y,-z
loop_
_atom_site_type_symbol
_atom_site_label
_atom_site_fract_x
_atom_site_fract_y
_atom_site_fract_z
Si Si1 0.181221 0.426747 0.519302
Si Si2 0.002820 0.435499 0.686131
Si Si3 0.028302 0.098652 0.098536
Si Si4 0.120316 0.588013 0.878286
Si Si5 0.487834 0.720382 0.656960
Si Si6 0.308953 0.959300 0.709500
Si Si7 0.481002 0.165220 0.837235
Si Si8 0.611215 0.181117 0.609278
O O1 0.121524 0.464749 0.624795
O O2 0.267269 0.674008 0.431091
O O3 0.084858 0.395911 0.424185
O O4 0.238552 0.172367 0.592318
O O5 0.026490 0.523988 0.792435
O O6 0.945578 0.144765 0.754107
O O7 0.918590 0.195073 0.110208
O O8 0.127079 0.330677 0.030649
O O9 0.000000 0.000000 0.000000
O O10 0.237128 0.692369 0.805889
O O11 0.397275 0.894191 0.642899
O O12 0.478987 0.450089 0.798341
O O13 0.467923 0.681972 0.527667
O O14 0.603187 0.888432 0.650351
O O15 0.364753 0.057715 0.805266
O O16 0.574308 0.178476 0.741555
O O17 0.500000 0.000000 0.000000
#
# Coordination Sequence:
#
# PCOD8004822 Si02
#       8
#     2   2   2   2   2   2   2   2
#     4  11  22  41  62  95 131 170 213 274 319 373
#     4  10  22  41  60  92 135 162 216 276 312 366
#     4   9  19  39  61  82 126 169 211 264 313 375
#     4  10  20  38  62  91 120 171 216 257 321 385
#     4  10  22  41  71  94 123 168 216 269 324 393
#     4  11  23  39  69  94 125 172 218 258 330 387
#     4  11  25  46  65  96 136 161 210 276 323 393
#     4  10  22  41  67  96 125 169 218 257 330 387
#
# _framework density 21.288919
#
# number of rings (size 3 to 8) (size 9 to 14) (size 15 to 20)
#    0.000    1.750    2.500    1.125    3.500    2.500 
#   13.500    0.000    0.000    0.000    0.000    0.000 
#    0.000    0.000    0.000    0.000    0.000    0.000 
#
# Total GULP energy -198253.179571 kJ/mol
# GULP energy per Si atom -12390.823723 kJ/mol
# Density = 2.124046 g / cm^3
# Si number density = 21.288919 Si / 1000 Ang^3
#
#
#
# Elastic Constant Matrix: (Units=GPa)
#
#
# Indices 1 2 3 4 5 6 
#
# 1 87.5660 43.7394 46.5525 -11.6909 -12.0974 11.8533
# 2 43.7394 105.1276 50.6702 -12.7357 -3.4139 1.5941
# 3 46.5525 50.6702 128.8537 -17.4922 -10.2226 -2.7234
# 4 -11.6909 -12.7357 -17.4922 36.6110 -0.2293 -9.7897
# 5 -12.0974 -3.4139 -10.2226 -0.2293 27.5154 -7.3102
# 6 11.8533 1.5941 -2.7234 -9.7897 -7.3102 34.9759
#
#
#
# Elastic Compliance Matrix: (Units=1/GPa)
#
#
# Indices 1 2 3 4 5 6 
#
# 1 0.017382 -0.005023 -0.003990 0.000609 0.004235 -0.004917
# 2 -0.005023 0.013334 -0.003292 0.001721 -0.001495 0.001008
# 3 -0.003990 -0.003292 0.011412 0.004187 0.003238 0.004240
# 4 0.000609 0.001721 0.004187 0.032895 0.005048 0.010304
# 5 0.004235 -0.001495 0.003238 0.005048 0.041657 0.009005
# 6 -0.004917 0.001008 0.004240 0.010304 0.009005 0.035308
#
#
# Mechanical properties :
#
#
# Convention : Reuss Voigt Hill
#
# Bulk Modulus (GPa) = 57.08671 67.05239 62.06955
# Shear Modulus (GPa) = 27.40678 31.85947 29.63313
#
# Velocity S-wave (km/s) = 3.59189 3.87270 3.73493
# Velocity P-wave (km/s) = 6.63895 7.18065 6.91511
#
# Compressibility (1/GPa) = 0.01751721
#
# Stress axis : x y z
#
# Youngs Moduli (GPa) = 57.53046 74.99818 87.62920
#
# Poissons Ratio (x) = 0.37672 0.34963
# Poissons Ratio (y) = 0.28898 0.28849
# Poissons Ratio (z) = 0.22954 0.24691
#
# Static dielectric constant tensor:
#      x y z
#    x 3.713200 0.260700 -0.386240 
#    y 0.260700 4.122330 -0.313250 
#    z -0.386240 -0.313250 4.040710 
# 
# 
# High freq. dielectric constant tensor:
#      x y z
#    x 1.815380 0.010850 -0.032770 
#    y 0.010850 1.845980 -0.008210 
#    z -0.032770 -0.008210 1.831530 
# 
# From -- ./inp_files/82989.got.cif
#   From: 2010.06.25/outbox.cif.g09.slc.cpg/sg2_42_cif.got.tgz:82989.got - 2010.06.27 13:26:56.
