data_PCOD8004301
_publ_section_title
;
Structure prediction by ZEFSAII (Michael W. Deem and Ramdas Pophale) SiO2 
 PCOD8004301
Probable space group: P -1
;
_chemical_formula_sum "Si O2"
_cell_formula_units_Z 16
_cell_length_a 25.342319
_cell_length_b 9.840095
_cell_length_c 9.493555
_cell_angle_alpha 135.256931
_cell_angle_beta 27.022194
_cell_angle_gamma 135.941465
_cell_volume 729.325961
_symmetry_space_group_name_H-M "P -1"
_symmetry_group_IT_number 2
_symmetry_cell_setting 'triclinic'
loop_
_space_group_symop_operation_xyz
x,y,z
-x,-y,-z
loop_
_atom_site_type_symbol
_atom_site_label
_atom_site_fract_x
_atom_site_fract_y
_atom_site_fract_z
Si Si1 0.785506 0.177317 0.806917
Si Si2 0.255837 0.229106 0.539532
Si Si3 0.624394 0.729833 0.245041
Si Si4 0.033531 0.104634 0.143004
Si Si5 0.242527 0.416530 0.416454
Si Si6 0.252728 0.829241 0.782677
Si Si7 0.008237 0.823832 0.250099
Si Si8 0.645335 0.478364 0.271894
O O1 0.930897 0.217183 0.509462
O O2 0.730872 0.991085 0.692237
O O3 0.729159 0.135300 0.066689
O O4 0.750653 0.367160 0.963814
O O5 0.212800 0.308682 0.557576
O O6 0.371734 0.383169 0.449582
O O7 0.165727 0.246500 0.898630
O O8 0.674521 0.608579 0.155927
O O9 0.480976 0.690112 0.567195
O O10 0.683273 0.966917 0.300700
O O11 0.660793 0.665398 0.958448
O O12 0.042327 0.927944 0.095886
O O13 0.000000 0.000000 0.000000
O O14 0.305235 0.651251 0.468531
O O15 0.115074 0.355779 0.590453
O O16 0.113417 0.740134 0.002672
O O17 0.000000 0.000000 0.500000
#
# Coordination Sequence:
#
# PCOD8004301 Si02
#       8
#     2   2   2   2   2   2   2   2
#     4  11  22  44  68 101 133 177 227 271 329 408
#     4  11  22  43  66 103 138 170 222 279 329 398
#     4  11  26  50  66  98 135 171 228 288 331 393
#     4  10  20  37  67  95 140 173 208 272 334 388
#     4  12  24  43  68 102 135 175 226 267 337 403
#     4  12  24  43  69  99 136 182 223 268 335 403
#     4  12  20  40  67  98 140 179 208 274 331 396
#     4  11  27  45  73  96 128 180 228 278 344 387
#
# _framework density 21.938065000000002
#
# number of rings (size 3 to 8) (size 9 to 14) (size 15 to 20)
#    0.000    0.750    7.500    1.125    0.000    5.500 
#    2.250    2.500    0.000    0.000    0.000    0.000 
#    0.000    0.000    0.000    0.000    0.000    0.000 
#
# Total GULP energy -198267.441745 kJ/mol
# GULP energy per Si atom -12391.715109 kJ/mol
# Density = 2.188813 g / cm^3
# Si number density = 21.938065 Si / 1000 Ang^3
#
#
#
# Elastic Constant Matrix: (Units=GPa)
#
#
# Indices 1 2 3 4 5 6 
#
# 1 84.2188 29.6422 15.6700 5.5828 8.2249 -1.1431
# 2 29.6422 132.1066 42.7700 14.2998 14.2056 1.4305
# 3 15.6700 42.7700 57.7787 9.1148 8.0206 0.9318
# 4 5.5828 14.2998 9.1148 34.3663 1.4651 5.1582
# 5 8.2249 14.2056 8.0206 1.4651 26.3706 8.0694
# 6 -1.1431 1.4305 0.9318 5.1582 8.0694 35.3669
#
#
#
# Elastic Compliance Matrix: (Units=1/GPa)
#
#
# Indices 1 2 3 4 5 6 
#
# 1 0.013255 -0.002079 -0.001522 -0.000964 -0.002914 0.001358
# 2 -0.002079 0.010769 -0.006595 -0.002369 -0.003247 0.000757
# 3 -0.001522 -0.006595 0.023544 -0.003236 -0.003198 0.000799
# 4 -0.000964 -0.002369 -0.003236 0.031752 0.002331 -0.005013
# 5 -0.002914 -0.003247 -0.003198 0.002331 0.044603 -0.010395
# 6 0.001358 0.000757 0.000799 -0.005013 -0.010395 0.031370
#
#
# Mechanical properties :
#
#
# Convention : Reuss Voigt Hill
#
# Bulk Modulus (GPa) = 36.79607 50.02981 43.41294
# Shear Modulus (GPa) = 27.06454 31.62224 29.34339
#
# Velocity S-wave (km/s) = 3.51619 3.80074 3.66123
# Velocity P-wave (km/s) = 5.77009 6.48963 6.14041
#
# Compressibility (1/GPa) = 0.02717681
#
# Stress axis : x y z
#
# Youngs Moduli (GPa) = 75.44042 92.86150 42.47392
#
# Poissons Ratio (x) = 0.19303 0.06463
# Poissons Ratio (y) = 0.15681 0.28013
# Poissons Ratio (z) = 0.11479 0.61246
#
# Static dielectric constant tensor:
#      x y z
#    x 3.848650 0.120580 0.491130 
#    y 0.120580 3.189300 0.469800 
#    z 0.491130 0.469800 2.750390 
# 
# 
# High freq. dielectric constant tensor:
#      x y z
#    x 1.873940 0.006220 0.011720 
#    y 0.006220 1.867220 0.001910 
#    z 0.011720 0.001910 1.841560 
# 
# From -- ./inp_files/352373.got.cif
#   From: 2010.06.25/outbox.cif.g09.slc.cpg/sg2_177_cif.got.tgz:352373.got - 2010.06.27 13:26:56.
