data_PCOD8004492
_publ_section_title
;
Structure prediction by ZEFSAII (Michael W. Deem and Ramdas Pophale) SiO2 
 PCOD8004492
Probable space group: P -1
;
_chemical_formula_sum "Si O2"
_cell_formula_units_Z 16
_cell_length_a 18.142497
_cell_length_b 9.066315
_cell_length_c 9.052197
_cell_angle_alpha 81.306403
_cell_angle_beta 66.573359
_cell_angle_gamma 131.621412
_cell_volume 812.934491
_symmetry_space_group_name_H-M "P -1"
_symmetry_group_IT_number 2
_symmetry_cell_setting 'triclinic'
loop_
_space_group_symop_operation_xyz
x,y,z
-x,-y,-z
loop_
_atom_site_type_symbol
_atom_site_label
_atom_site_fract_x
_atom_site_fract_y
_atom_site_fract_z
Si Si1 0.027788 0.970896 0.639908
Si Si2 0.283251 0.820953 0.668078
Si Si3 0.591936 0.778268 0.909888
Si Si4 0.567568 0.888487 0.208818
Si Si5 0.803643 0.046072 0.461263
Si Si6 0.474140 0.843966 0.794777
Si Si7 0.782121 0.593349 0.104251
Si Si8 0.271984 0.344962 0.568280
O O1 0.057529 0.834392 0.631274
O O2 0.160753 0.248247 0.557902
O O3 0.000000 0.000000 0.500000
O O4 0.902385 0.811347 0.867699
O O5 0.205680 0.557383 0.819549
O O6 0.343672 0.001070 0.732045
O O7 0.179648 0.773384 0.667970
O O8 0.404373 0.952371 0.446039
O O9 0.621065 0.852682 0.047984
O O10 0.500000 0.500000 0.000000
O O11 0.731370 0.965084 0.687276
O O12 0.513284 0.805602 0.910127
O O13 0.411876 0.633544 0.401603
O O14 0.580537 0.078679 0.115963
O O15 0.711252 0.805182 0.464055
O O16 0.355555 0.583834 0.844490
O O17 0.787540 0.722460 0.210821
#
# Coordination Sequence:
#
# PCOD8004492 Si02
#       8
#     2   2   2   2   2   2   2   2
#     4  10  24  42  59  83 119 157 204 238 282 346
#     4  10  20  39  60  92 120 147 186 256 295 345
#     4  11  21  34  54  87 124 161 184 236 301 345
#     4  11  19  36  58  92 123 147 195 235 300 356
#     4   9  23  39  54  86 121 153 194 240 291 336
#     4  10  21  35  60  90 120 154 189 242 297 353
#     4  11  20  38  67  84 114 157 200 237 292 343
#     4  10  20  38  59  88 114 152 200 239 285 348
#
# _framework density 19.681782999999999
#
# number of rings (size 3 to 8) (size 9 to 14) (size 15 to 20)
#    0.750    1.000    3.750    1.500    3.500    2.000 
#    0.000    0.000    0.000    3.750    0.000    0.000 
#    0.000    0.000    0.000    0.000    0.000    0.000 
#
# Total GULP energy -198303.905561 kJ/mol
# GULP energy per Si atom -12393.994098 kJ/mol
# Density = 1.963699 g / cm^3
# Si number density = 19.681783 Si / 1000 Ang^3
#
#
#
# Elastic Constant Matrix: (Units=GPa)
#
#
# Indices 1 2 3 4 5 6 
#
# 1 65.7968 -1.2212 25.5513 7.5676 -3.2212 1.6865
# 2 -1.2212 57.8683 27.4566 25.2058 -0.8880 -6.5346
# 3 25.5513 27.4566 112.0465 22.8311 0.8511 -0.1895
# 4 7.5676 25.2058 22.8311 33.0212 -5.2399 -3.1717
# 5 -3.2212 -0.8880 0.8511 -5.2399 21.8371 1.9731
# 6 1.6865 -6.5346 -0.1895 -3.1717 1.9731 20.5876
#
#
#
# Elastic Compliance Matrix: (Units=1/GPa)
#
#
# Indices 1 2 3 4 5 6 
#
# 1 0.017472 0.003977 -0.004177 -0.003923 0.002051 -0.001008
# 2 0.003977 0.028497 -0.003771 -0.020034 -0.003451 0.005929
# 3 -0.004177 -0.003771 0.011795 -0.004800 -0.002266 -0.001269
# 4 -0.003923 -0.020034 -0.004800 0.051635 0.011111 0.000808
# 5 0.002051 -0.003451 -0.002266 0.011111 0.049097 -0.004278
# 6 -0.001008 0.005929 -0.001269 0.000808 -0.004278 0.051060
#
#
# Mechanical properties :
#
#
# Convention : Reuss Voigt Hill
#
# Bulk Modulus (GPa) = 20.07205 37.69832 28.88518
# Shear Modulus (GPa) = 21.35799 27.35084 24.35441
#
# Velocity S-wave (km/s) = 3.29776 3.73185 3.52150
# Velocity P-wave (km/s) = 4.97199 6.14528 5.58950
#
# Compressibility (1/GPa) = 0.04982053
#
# Stress axis : x y z
#
# Youngs Moduli (GPa) = 57.23589 35.09168 84.78364
#
# Poissons Ratio (x) = -0.13955 0.35411
# Poissons Ratio (y) = -0.22762 0.31976
# Poissons Ratio (z) = 0.23905 0.13235
#
# Static dielectric constant tensor:
#      x y z
#    x 3.526030 -0.076370 0.011020 
#    y -0.076370 3.476360 0.202240 
#    z 0.011020 0.202240 3.482800 
# 
# 
# High freq. dielectric constant tensor:
#      x y z
#    x 1.757490 -0.005880 0.002850 
#    y -0.005880 1.755290 0.018190 
#    z 0.002850 0.018190 1.764510 
# 
# From -- ./inp_files/226310.got.cif
#   From: 2010.06.25/outbox.cif.g09.slc.cpg/sg2_114_cif.got.tgz:226310.got - 2010.06.27 13:26:56.
