data_PCOD8004711
_publ_section_title
;
Structure prediction by ZEFSAII (Michael W. Deem and Ramdas Pophale) SiO2 
 PCOD8004711
Probable space group: P -1
;
_chemical_formula_sum "Si O2"
_cell_formula_units_Z 14
_cell_length_a 9.296739
_cell_length_b 10.915336
_cell_length_c 10.069589
_cell_angle_alpha 71.795639
_cell_angle_beta 47.829824
_cell_angle_gamma 67.209063
_cell_volume 696.153275
_symmetry_space_group_name_H-M "P -1"
_symmetry_group_IT_number 2
_symmetry_cell_setting 'triclinic'
loop_
_space_group_symop_operation_xyz
x,y,z
-x,-y,-z
loop_
_atom_site_type_symbol
_atom_site_label
_atom_site_fract_x
_atom_site_fract_y
_atom_site_fract_z
Si Si1 0.552697 0.135001 0.761237
Si Si2 0.161751 0.501287 0.510011
Si Si3 0.772304 0.628797 0.215941
Si Si4 0.497797 0.388478 0.147274
Si Si5 0.378608 0.156902 0.147238
Si Si6 0.821658 0.354048 0.156070
Si Si7 0.910371 0.217012 0.406417
O O1 0.418564 0.244146 0.708873
O O2 0.788326 0.126228 0.590866
O O3 0.515146 0.988776 0.809049
O O4 0.489482 0.180123 0.935556
O O5 0.150869 0.400384 0.670877
O O6 0.378339 0.458435 0.324799
O O7 0.123083 0.647987 0.538305
O O8 0.000000 0.500000 0.500000
O O9 0.714794 0.500878 0.230088
O O10 0.944851 0.661763 0.009019
O O11 0.400782 0.273283 0.192680
O O12 0.718950 0.325936 0.091455
O O13 0.500000 0.500000 0.000000
O O14 0.147985 0.153898 0.269716
O O15 0.815135 0.243812 0.308765
#
# Coordination Sequence:
#
# PCOD8004711 Si02
#       7
#     2   2   2   2   2   2   2
#     4  11  23  41  65  88 122 172 209 244 303 375
#     4  11  21  35  61  92 124 153 202 258 312 356
#     4  10  20  38  61  91 123 162 202 257 303 364
#     4  12  23  38  61  95 126 157 201 264 315 359
#     4  11  24  42  63  90 128 162 209 253 301 369
#     4  10  21  36  65  90 121 157 206 255 314 355
#     4  11  21  41  66  91 121 164 207 253 306 366
#
# _framework density 20.110513999999998
#
# number of rings (size 3 to 8) (size 9 to 14) (size 15 to 20)
#    0.000    1.143    2.857    4.714    2.000    2.286 
#    0.000    3.571    0.000    0.000    0.000    0.000 
#    0.000    0.000    0.000    0.000    0.000    0.000 
#
# Total GULP energy -173592.678469 kJ/mol
# GULP energy per Si atom -12399.477033 kJ/mol
# Density = 2.006474 g / cm^3
# Si number density = 20.110514 Si / 1000 Ang^3
#
#
#
# Elastic Constant Matrix: (Units=GPa)
#
#
# Indices 1 2 3 4 5 6 
#
# 1 107.9300 26.6788 26.3613 -14.6937 6.5373 -8.2922
# 2 26.6788 81.8303 24.7373 -11.1981 4.2943 -6.0820
# 3 26.3613 24.7373 118.0251 -9.6067 -0.3875 0.1879
# 4 -14.6937 -11.1981 -9.6067 25.4141 -3.6579 -0.2788
# 5 6.5373 4.2943 -0.3875 -3.6579 32.4233 1.2667
# 6 -8.2922 -6.0820 0.1879 -0.2788 1.2667 11.7294
#
#
#
# Elastic Compliance Matrix: (Units=1/GPa)
#
#
# Indices 1 2 3 4 5 6 
#
# 1 0.011536 -0.001881 -0.001795 0.004981 -0.001830 0.007525
# 2 -0.001881 0.014695 -0.002317 0.004388 -0.001357 0.006577
# 3 -0.001795 -0.002317 0.009502 0.001658 0.001075 -0.002699
# 4 0.004981 0.004388 0.001658 0.045334 0.003295 0.006492
# 5 -0.001830 -0.001357 0.001075 0.003295 0.031986 -0.005390
# 6 0.007525 0.006577 -0.002699 0.006492 -0.005390 0.094766
#
#
# Mechanical properties :
#
#
# Convention : Reuss Voigt Hill
#
# Bulk Modulus (GPa) = 42.11318 51.48224 46.79771
# Shear Modulus (GPa) = 21.95670 29.24723 25.60196
#
# Velocity S-wave (km/s) = 3.30783 3.81770 3.57187
# Velocity P-wave (km/s) = 5.96450 6.71479 6.35073
#
# Compressibility (1/GPa) = 0.02374553
#
# Stress axis : x y z
#
# Youngs Moduli (GPa) = 86.68654 68.05075 105.23916
#
# Poissons Ratio (x) = 0.12803 0.18888
# Poissons Ratio (y) = 0.16310 0.24389
# Poissons Ratio (z) = 0.15558 0.15771
#
# Static dielectric constant tensor:
#      x y z
#    x 4.053850 -0.150530 -0.016030 
#    y -0.150530 3.586600 0.060520 
#    z -0.016030 0.060520 4.024440 
# 
# 
# High freq. dielectric constant tensor:
#      x y z
#    x 1.773690 -0.015260 -0.005970 
#    y -0.015260 1.773640 -0.003610 
#    z -0.005970 -0.003610 1.804260 
# 
# From -- ./inp_files/159777.got.cif
#   From: 2010.06.25/outbox.cif.g09.slc.cpg/sg2_80_cif.got.tgz:159777.got - 2010.06.27 13:26:56.
