data_PCOD8004920
_publ_section_title
;
Structure prediction by ZEFSAII (Michael W. Deem and Ramdas Pophale) SiO2 
 PCOD8004920
Probable space group: P -1
;
_chemical_formula_sum "Si O2"
_cell_formula_units_Z 14
_cell_length_a 14.565437
_cell_length_b 9.168111
_cell_length_c 14.883283
_cell_angle_alpha 32.806573
_cell_angle_beta 38.220167
_cell_angle_gamma 38.942272
_cell_volume 623.984426
_symmetry_space_group_name_H-M "P -1"
_symmetry_group_IT_number 2
_symmetry_cell_setting 'triclinic'
loop_
_space_group_symop_operation_xyz
x,y,z
-x,-y,-z
loop_
_atom_site_type_symbol
_atom_site_label
_atom_site_fract_x
_atom_site_fract_y
_atom_site_fract_z
Si Si1 0.407452 0.728836 0.529605
Si Si2 0.265236 0.344220 0.361373
Si Si3 0.019758 0.212783 0.743973
Si Si4 0.548585 0.430329 0.751591
Si Si5 0.975377 0.650669 0.133800
Si Si6 0.285930 0.188681 0.082962
Si Si7 0.176898 0.436208 0.862564
O O1 0.500000 0.500000 0.500000
O O2 0.492494 0.665491 0.594287
O O3 0.231670 0.710830 0.681119
O O4 0.377259 0.068630 0.359002
O O5 0.160358 0.601503 0.243901
O O6 0.371038 0.457286 0.287544
O O7 0.147141 0.225806 0.567833
O O8 0.066362 0.326802 0.741941
O O9 0.037413 0.887077 0.919468
O O10 0.666803 0.146459 0.757247
O O11 0.405618 0.341100 0.949881
O O12 0.816587 0.667987 0.192117
O O13 0.112391 0.343055 0.175502
O O14 0.292455 0.198581 0.962993
O O15 0.000000 0.500000 0.000000
#
# Coordination Sequence:
#
# PCOD8004920 Si02
#       7
#     2   2   2   2   2   2   2
#     4  11  25  39  60  92 127 157 208 254 303 373
#     4  11  23  43  61  87 129 164 200 249 321 361
#     4  10  23  38  62  92 120 161 206 261 296 366
#     4  10  21  38  63  86 123 167 193 243 319 367
#     4  10  20  38  63  90 120 155 213 255 298 353
#     4   9  19  37  63  92 121 155 206 247 302 376
#     4   9  18  37  63  85 116 163 199 250 302 360
#
# _framework density 22.436457999999998
#
# number of rings (size 3 to 8) (size 9 to 14) (size 15 to 20)
#    0.000    2.000    0.000    3.857    4.000    3.429 
#    2.571    2.143    0.000    0.000    0.000    0.000 
#    0.000    0.000    0.000    0.000    0.000    0.000 
#
# Total GULP energy -173460.987365 kJ/mol
# GULP energy per Si atom -12390.070526 kJ/mol
# Density = 2.238539 g / cm^3
# Si number density = 22.436458 Si / 1000 Ang^3
#
#
#
# Elastic Constant Matrix: (Units=GPa)
#
#
# Indices 1 2 3 4 5 6 
#
# 1 149.1543 16.3111 15.1494 -6.8669 -14.3643 8.6508
# 2 16.3111 90.2004 14.8199 -18.3267 -6.1189 0.6402
# 3 15.1494 14.8199 38.0340 -6.4276 -2.8355 -0.6402
# 4 -6.8669 -18.3267 -6.4276 22.0015 2.7072 0.4401
# 5 -14.3643 -6.1189 -2.8355 2.7072 27.1658 -1.7340
# 6 8.6508 0.6402 -0.6402 0.4401 -1.7340 28.5109
#
#
#
# Elastic Compliance Matrix: (Units=1/GPa)
#
#
# Indices 1 2 3 4 5 6 
#
# 1 0.007495 -0.000551 -0.002420 0.000801 0.003371 -0.002123
# 2 -0.000551 0.013927 -0.003368 0.010272 0.001452 -0.000291
# 3 -0.002420 -0.003368 0.029475 0.004943 0.000637 0.001434
# 4 0.000801 0.010272 0.004943 0.056027 -0.002418 -0.001374
# 5 0.003371 0.001452 0.000637 -0.002418 0.039317 0.001387
# 6 -0.002123 -0.000291 0.001434 -0.001374 0.001387 0.035863
#
#
# Mechanical properties :
#
#
# Convention : Reuss Voigt Hill
#
# Bulk Modulus (GPa) = 26.16433 41.10550 33.63491
# Shear Modulus (GPa) = 24.09384 30.94285 27.51834
#
# Velocity S-wave (km/s) = 3.28055 3.71770 3.50594
# Velocity P-wave (km/s) = 5.10257 6.06539 5.60469
#
# Compressibility (1/GPa) = 0.03821998
#
# Stress axis : x y z
#
# Youngs Moduli (GPa) = 133.41866 71.80263 33.92661
#
# Poissons Ratio (x) = 0.03959 0.08209
# Poissons Ratio (y) = 0.07356 0.11426
# Poissons Ratio (z) = 0.32283 0.24182
#
# Static dielectric constant tensor:
#      x y z
#    x 4.762130 0.012050 0.031340 
#    y 0.012050 3.951270 -0.187670 
#    z 0.031340 -0.187670 3.778960 
# 
# 
# High freq. dielectric constant tensor:
#      x y z
#    x 1.906830 -0.003150 -0.003070 
#    y -0.003150 1.872260 -0.017140 
#    z -0.003070 -0.017140 1.860810 
# 
# From -- ./inp_files/505203.got.cif
#   From: 2010.06.25/outbox.cif.g09.slc.cpg/sg2_253_cif.got.tgz:505203.got - 2010.06.27 13:26:56.
