data_PCOD8004808
_publ_section_title
;
Structure prediction by ZEFSAII (Michael W. Deem and Ramdas Pophale) SiO2 
 PCOD8004808
Probable space group: P -1
;
_chemical_formula_sum "Si O2"
_cell_formula_units_Z 12
_cell_length_a 11.558247
_cell_length_b 9.405525
_cell_length_c 7.527940
_cell_angle_alpha 49.455824
_cell_angle_beta 90.452633
_cell_angle_gamma 60.543839
_cell_volume 470.487665
_symmetry_space_group_name_H-M "P -1"
_symmetry_group_IT_number 2
_symmetry_cell_setting 'triclinic'
loop_
_space_group_symop_operation_xyz
x,y,z
-x,-y,-z
loop_
_atom_site_type_symbol
_atom_site_label
_atom_site_fract_x
_atom_site_fract_y
_atom_site_fract_z
Si Si1 0.660582 0.934958 0.066374
Si Si2 0.522388 0.670878 0.760046
Si Si3 0.032656 0.776685 0.328357
Si Si4 0.266088 0.730605 0.185552
Si Si5 0.289208 0.204064 0.196216
Si Si6 0.902369 0.589599 0.646506
O O1 0.748033 0.793387 0.363164
O O2 0.761309 0.765396 0.034002
O O3 0.500000 0.000000 0.000000
O O4 0.635323 0.186856 0.848129
O O5 0.632488 0.526981 0.708501
O O6 0.594117 0.745812 0.834341
O O7 0.364188 0.926903 0.482888
O O8 0.500000 0.500000 0.000000
O O9 0.199889 0.701931 0.389914
O O10 0.013240 0.675989 0.225904
O O11 0.013061 0.655519 0.590977
O O12 0.890164 0.069682 0.090908
O O13 0.142110 0.400143 0.158346
#
# Coordination Sequence:
#
# PCOD8004808 Si02
#       6
#     2   2   2   2   2   2
#     4  11  23  39  62  96 129 160 205 259 321 376
#     4  11  21  38  63  91 128 168 207 256 314 376
#     4   9  19  38  66  83 119 173 209 250 303 374
#     4  10  20  38  62  90 121 167 210 251 313 369
#     4  11  23  40  63  95 128 162 207 263 317 368
#     4  10  20  42  66  87 123 168 208 253 317 366
#
# _framework density 25.50545
#
# number of rings (size 3 to 8) (size 9 to 14) (size 15 to 20)
#    0.000    1.667    1.667    5.000    0.000    0.667 
#    3.000    8.333    0.000    0.000    0.000    0.000 
#    0.000    0.000    0.000    0.000    0.000    0.000 
#
# Total GULP energy -148723.043849 kJ/mol
# GULP energy per Si atom -12393.586987 kJ/mol
# Density = 2.544740 g / cm^3
# Si number density = 25.505450 Si / 1000 Ang^3
#
#
#
# Elastic Constant Matrix: (Units=GPa)
#
#
# Indices 1 2 3 4 5 6 
#
# 1 144.3615 -3.9565 34.9046 9.3382 -30.3737 3.7500
# 2 -3.9565 100.7682 -1.6463 6.4204 0.2377 -7.7449
# 3 34.9046 -1.6463 51.1295 -8.1367 -13.4930 6.6735
# 4 9.3382 6.4204 -8.1367 33.9787 -0.3283 -9.5320
# 5 -30.3737 0.2377 -13.4930 -0.3283 38.6333 -1.0785
# 6 3.7500 -7.7449 6.6735 -9.5320 -1.0785 38.5044
#
#
#
# Elastic Compliance Matrix: (Units=1/GPa)
#
#
# Indices 1 2 3 4 5 6 
#
# 1 0.009831 0.000496 -0.005797 -0.004345 0.005643 -0.000771
# 2 0.000496 0.010171 -0.000444 -0.001697 0.000204 0.001660
# 3 -0.005797 -0.000444 0.026163 0.007397 0.004587 -0.002099
# 4 -0.004345 -0.001697 0.007397 0.034790 -0.000320 0.007403
# 5 0.005643 0.000204 0.004587 -0.000320 0.031905 -0.000489
# 6 -0.000771 0.001660 -0.002099 0.007403 -0.000489 0.028563
#
#
# Mechanical properties :
#
#
# Convention : Reuss Voigt Hill
#
# Bulk Modulus (GPa) = 28.83932 39.42920 34.13426
# Shear Modulus (GPa) = 30.40042 40.02043 35.21042
#
# Velocity S-wave (km/s) = 3.45616 3.96548 3.71955
# Velocity P-wave (km/s) = 5.22096 6.03816 5.64437
#
# Compressibility (1/GPa) = 0.03467489
#
# Stress axis : x y z
#
# Youngs Moduli (GPa) = 101.72349 98.31686 38.22184
#
# Poissons Ratio (x) = -0.04872 0.22157
# Poissons Ratio (y) = -0.05041 0.01696
# Poissons Ratio (z) = 0.58968 0.04362
#
# Static dielectric constant tensor:
#      x y z
#    x 4.865640 -0.186570 -0.443480 
#    y -0.186570 4.634490 -0.201020 
#    z -0.443480 -0.201020 4.355910 
# 
# 
# High freq. dielectric constant tensor:
#      x y z
#    x 2.031950 -0.020200 -0.022440 
#    y -0.020200 2.009030 -0.025650 
#    z -0.022440 -0.025650 2.003110 
# 
# From -- ./inp_files/236674.got.cif
#   From: 2010.06.25/outbox.cif.g09.slc.cpg/sg2_119_cif.got.tgz:236674.got - 2010.06.27 13:26:56.
