data_PCOD8004259
_publ_section_title
;
Structure prediction by ZEFSAII (Michael W. Deem and Ramdas Pophale) SiO2 
 PCOD8004259
Probable space group: P -1
;
_chemical_formula_sum "Si O2"
_cell_formula_units_Z 14
_cell_length_a 8.093239
_cell_length_b 20.435073
_cell_length_c 5.315121
_cell_angle_alpha 124.281090
_cell_angle_beta 117.474143
_cell_angle_gamma 53.020166
_cell_volume 570.151263
_symmetry_space_group_name_H-M "P -1"
_symmetry_group_IT_number 2
_symmetry_cell_setting 'triclinic'
loop_
_space_group_symop_operation_xyz
x,y,z
-x,-y,-z
loop_
_atom_site_type_symbol
_atom_site_label
_atom_site_fract_x
_atom_site_fract_y
_atom_site_fract_z
Si Si1 0.785020 0.701138 0.292878
Si Si2 0.644212 0.015398 0.334260
Si Si3 0.404660 0.823097 0.579451
Si Si4 0.802855 0.381006 0.339349
Si Si5 0.785393 0.557149 0.617165
Si Si6 0.311335 0.145513 0.768610
Si Si7 0.653459 0.327225 0.618234
O O1 0.536367 0.756157 0.298185
O O2 0.848131 0.767247 0.312153
O O3 0.942013 0.670027 0.574228
O O4 0.827155 0.612362 0.981661
O O5 0.746890 0.073848 0.399891
O O6 0.507738 0.077501 0.596865
O O7 0.799185 0.914430 0.330050
O O8 0.500000 0.000000 0.000000
O O9 0.272069 0.779612 0.526235
O O10 0.593923 0.819915 0.870352
O O11 0.713995 0.487624 0.540165
O O12 0.713746 0.344943 0.422666
O O13 0.747041 0.361290 0.980425
O O14 0.602343 0.621690 0.436000
O O15 0.000000 0.500000 0.500000
#
# Coordination Sequence:
#
# PCOD8004259 Si02
#       7
#     2   2   2   2   2   2   2
#     4  11  23  41  65  94 127 173 228 274 322 386
#     4   8  16  31  59 102 124 157 205 284 315 371
#     4  10  20  37  66  94 127 169 223 265 323 389
#     4  12  28  43  64  96 137 177 217 275 338 389
#     4  12  25  47  70  94 125 174 233 279 320 383
#     4   9  17  34  63  94 128 157 219 273 319 372
#     4  12  26  45  65  95 137 174 215 272 338 399
#
# _framework density 24.55489
#
# number of rings (size 3 to 8) (size 9 to 14) (size 15 to 20)
#    0.000    1.429    1.429    3.857    4.000    2.286 
#    0.000    0.000    0.000    1.714    0.000    0.000 
#    0.000    0.000    0.000    0.000    0.000    0.000 
#
# Total GULP energy -173445.406696 kJ/mol
# GULP energy per Si atom -12388.957621 kJ/mol
# Density = 2.449900 g / cm^3
# Si number density = 24.554890 Si / 1000 Ang^3
#
#
#
# Elastic Constant Matrix: (Units=GPa)
#
#
# Indices 1 2 3 4 5 6 
#
# 1 45.7566 5.1858 17.1994 12.4015 2.6184 25.3149
# 2 5.1858 124.8973 18.3277 21.5816 23.1842 44.1406
# 3 17.1994 18.3277 80.4564 7.3245 3.0513 0.9837
# 4 12.4015 21.5816 7.3245 48.1774 4.7176 16.6578
# 5 2.6184 23.1842 3.0513 4.7176 31.2514 3.9514
# 6 25.3149 44.1406 0.9837 16.6578 3.9514 45.4364
#
#
#
# Elastic Compliance Matrix: (Units=1/GPa)
#
#
# Indices 1 2 3 4 5 6 
#
# 1 0.049416 0.016992 -0.013291 -0.002891 -0.009721 -0.041847
# 2 0.016992 0.020813 -0.007406 -0.001745 -0.012361 -0.027811
# 3 -0.013291 -0.007406 0.016756 -0.001095 0.003323 0.014350
# 4 -0.002891 -0.001745 -0.001095 0.024495 -0.001354 -0.005533
# 5 -0.009721 -0.012361 0.003323 -0.001354 0.040047 0.014366
# 6 -0.041847 -0.027811 0.014350 -0.005533 0.014366 0.072810
#
#
# Mechanical properties :
#
#
# Convention : Reuss Voigt Hill
#
# Bulk Modulus (GPa) = 12.56683 36.94845 24.75764
# Shear Modulus (GPa) = 19.35951 38.99954 29.17952
#
# Velocity S-wave (km/s) = 2.81092 3.98962 3.45097
# Velocity P-wave (km/s) = 3.95778 6.02517 5.09739
#
# Compressibility (1/GPa) = 0.07957454
#
# Stress axis : x y z
#
# Youngs Moduli (GPa) = 20.23618 48.04768 59.68145
#
# Poissons Ratio (x) = -0.81641 0.79323
# Poissons Ratio (y) = -0.34385 0.44198
# Poissons Ratio (z) = 0.26896 0.35583
#
# Static dielectric constant tensor:
#      x y z
#    x 4.076370 0.706850 0.190840 
#    y 0.706850 5.544800 0.239360 
#    z 0.190840 0.239360 4.109260 
# 
# 
# High freq. dielectric constant tensor:
#      x y z
#    x 1.935330 0.039250 -0.007450 
#    y 0.039250 2.006730 0.015820 
#    z -0.007450 0.015820 1.979270 
# 
# From -- ./inp_files/52120.got.cif
#   From: 2010.06.25/outbox.cif.g09.slc.cpg/sg2_27_cif.got.tgz:52120.got - 2010.06.27 13:26:56.
