data_PCOD8004155
_publ_section_title
;
Structure prediction by ZEFSAII (Michael W. Deem and Ramdas Pophale) SiO2 
 PCOD8004155
Probable space group: P -1
;
_chemical_formula_sum "Si O2"
_cell_formula_units_Z 14
_cell_length_a 14.402177
_cell_length_b 9.010234
_cell_length_c 13.986465
_cell_angle_alpha 89.225582
_cell_angle_beta 152.150082
_cell_angle_gamma 107.996760
_cell_volume 654.348581
_symmetry_space_group_name_H-M "P -1"
_symmetry_group_IT_number 2
_symmetry_cell_setting 'triclinic'
loop_
_space_group_symop_operation_xyz
x,y,z
-x,-y,-z
loop_
_atom_site_type_symbol
_atom_site_label
_atom_site_fract_x
_atom_site_fract_y
_atom_site_fract_z
Si Si1 0.351435 0.032693 0.560471
Si Si2 0.334723 0.590358 0.484232
Si Si3 0.095412 0.366503 0.889695
Si Si4 0.150221 0.237946 0.430270
Si Si5 0.486897 0.537131 0.878682
Si Si6 0.290336 0.611539 0.234734
Si Si7 0.415518 0.128162 0.129013
O O1 0.302118 0.156111 0.574735
O O2 0.583149 0.178251 0.696122
O O3 0.406943 0.929896 0.688735
O O4 0.096481 0.864959 0.270280
O O5 0.253938 0.383670 0.434644
O O6 0.433952 0.641616 0.464541
O O7 0.573477 0.760796 0.766661
O O8 0.080139 0.568375 0.277178
O O9 0.271250 0.424387 0.955858
O O10 0.286402 0.474679 0.154690
O O11 0.215258 0.352523 0.587871
O O12 0.854011 0.066612 0.145280
O O13 0.490457 0.719017 0.872191
O O14 0.500000 0.500000 0.000000
O O15 0.000000 0.500000 0.000000
#
# Coordination Sequence:
#
# PCOD8004155 Si02
#       7
#     2   2   2   2   2   2   2
#     4  11  22  39  67  90 130 169 202 253 313 357
#     4   9  22  38  63  92 129 166 208 248 305 368
#     4  10  20  41  64  88 129 166 204 262 308 364
#     4  11  22  41  67  90 127 167 202 261 309 367
#     4  11  24  44  67  92 121 161 212 262 316 375
#     4  10  20  37  64  94 128 169 210 246 302 367
#     4  10  22  42  62  93 126 162 206 260 309 371
#
# _framework density 21.395325
#
# number of rings (size 3 to 8) (size 9 to 14) (size 15 to 20)
#    0.000    1.714    2.857    1.714    0.000    7.429 
#    0.000    8.571    0.000    0.000    0.000    0.000 
#    0.000    0.000    0.000    0.000    0.000    0.000 
#
# Total GULP energy -173472.353787 kJ/mol
# GULP energy per Si atom -12390.882413 kJ/mol
# Density = 2.134663 g / cm^3
# Si number density = 21.395325 Si / 1000 Ang^3
#
#
#
# Elastic Constant Matrix: (Units=GPa)
#
#
# Indices 1 2 3 4 5 6 
#
# 1 95.5414 40.7104 40.4704 4.5851 -15.7460 21.0953
# 2 40.7104 149.1307 47.0746 11.8157 -21.7375 7.2402
# 3 40.4704 47.0746 141.7010 31.5108 -23.3674 14.9353
# 4 4.5851 11.8157 31.5108 37.4302 -2.2936 -7.1611
# 5 -15.7460 -21.7375 -23.3674 -2.2936 27.7940 -10.5386
# 6 21.0953 7.2402 14.9353 -7.1611 -10.5386 33.6960
#
#
#
# Elastic Compliance Matrix: (Units=1/GPa)
#
#
# Indices 1 2 3 4 5 6 
#
# 1 0.014325 -0.002639 -0.002130 -0.000383 0.001556 -0.007052
# 2 -0.002639 0.008490 -0.001356 -0.000598 0.004617 0.001746
# 3 -0.002130 -0.001356 0.011450 -0.009370 0.005131 -0.003837
# 4 -0.000383 -0.000598 -0.009370 0.037104 -0.000903 0.012124
# 5 0.001556 0.004617 0.005131 -0.000903 0.048819 0.010836
# 6 -0.007052 0.001746 -0.003837 0.012124 0.010836 0.041383
#
#
# Mechanical properties :
#
#
# Convention : Reuss Voigt Hill
#
# Bulk Modulus (GPa) = 45.42342 71.43153 58.42747
# Shear Modulus (GPa) = 27.59989 36.99190 32.29589
#
# Velocity S-wave (km/s) = 3.59555 4.16260 3.88942
# Velocity P-wave (km/s) = 6.20596 7.52077 6.89478
#
# Compressibility (1/GPa) = 0.02201507
#
# Stress axis : x y z
#
# Youngs Moduli (GPa) = 69.80799 117.79088 87.33460
#
# Poissons Ratio (x) = 0.31082 0.18600
# Poissons Ratio (y) = 0.18421 0.11846
# Poissons Ratio (z) = 0.14867 0.15977
#
# Static dielectric constant tensor:
#      x y z
#    x 3.762380 -0.060270 -0.288080 
#    y -0.060270 4.131070 0.109220 
#    z -0.288080 0.109220 4.341270 
# 
# 
# High freq. dielectric constant tensor:
#      x y z
#    x 1.797320 -0.013860 -0.011840 
#    y -0.013860 1.851270 0.007240 
#    z -0.011840 0.007240 1.860850 
# 
# From -- ./inp_files/505069.got.cif
#   From: 2010.06.25/outbox.cif.g09.slc.cpg/sg2_253_cif.got.tgz:505069.got - 2010.06.27 13:26:56.
