data_PCOD8004302
_publ_section_title
;
Structure prediction by ZEFSAII (Michael W. Deem and Ramdas Pophale) SiO2 
 PCOD8004302
Probable space group: P -1
;
_chemical_formula_sum "Si O2"
_cell_formula_units_Z 14
_cell_length_a 10.052126
_cell_length_b 9.013219
_cell_length_c 11.557154
_cell_angle_alpha 107.149374
_cell_angle_beta 119.604496
_cell_angle_gamma 115.409539
_cell_volume 628.163847
_symmetry_space_group_name_H-M "P -1"
_symmetry_group_IT_number 2
_symmetry_cell_setting 'triclinic'
loop_
_space_group_symop_operation_xyz
x,y,z
-x,-y,-z
loop_
_atom_site_type_symbol
_atom_site_label
_atom_site_fract_x
_atom_site_fract_y
_atom_site_fract_z
Si Si1 0.848322 0.673708 0.389087
Si Si2 0.503858 0.075946 0.862784
Si Si3 0.544849 0.937781 0.620891
Si Si4 0.261194 0.453567 0.449373
Si Si5 0.095231 0.044310 0.179629
Si Si6 0.164260 0.672258 0.763863
Si Si7 0.805098 0.881687 0.235672
O O1 0.672762 0.540328 0.387652
O O2 0.931764 0.562917 0.361257
O O3 0.749123 0.684755 0.235646
O O4 0.049311 0.911098 0.572213
O O5 0.413614 0.179824 0.886532
O O6 0.503543 0.043405 0.719663
O O7 0.365992 0.841598 0.806465
O O8 0.747647 0.248236 0.049615
O O9 0.383287 0.680596 0.496924
O O10 0.779745 0.030428 0.763841
O O11 0.500000 0.000000 0.500000
O O12 0.267587 0.304453 0.336624
O O13 0.012741 0.322253 0.328046
O O14 0.906803 0.915561 0.162543
O O15 0.000000 0.000000 0.000000
#
# Coordination Sequence:
#
# PCOD8004302 Si02
#       7
#     2   2   2   2   2   2   2
#     4  10  20  37  67  96 123 163 224 268 321 373
#     4  11  23  42  65  98 128 166 221 273 326 384
#     4  12  28  43  68  98 135 174 225 270 326 394
#     4  11  22  43  68  92 130 180 220 262 328 400
#     4  11  25  46  66  98 138 178 210 270 338 393
#     4  11  21  38  70  96 125 166 219 276 323 382
#     4  10  23  40  70  93 130 166 223 270 319 388
#
# _framework density 22.287178000000001
#
# number of rings (size 3 to 8) (size 9 to 14) (size 15 to 20)
#    0.000    1.143    4.286    2.571   10.000    0.571 
#    2.571    1.429    0.000    0.000    0.000    0.000 
#    0.000    0.000    0.000    0.000    0.000    0.000 
#
# Total GULP energy -173548.353920 kJ/mol
# GULP energy per Si atom -12396.310994 kJ/mol
# Density = 2.223645 g / cm^3
# Si number density = 22.287178 Si / 1000 Ang^3
#
#
#
# Elastic Constant Matrix: (Units=GPa)
#
#
# Indices 1 2 3 4 5 6 
#
# 1 110.1200 35.4986 36.9444 -21.2539 -5.4177 -3.7022
# 2 35.4986 131.0941 38.6713 -34.9385 -9.5451 2.1929
# 3 36.9444 38.6713 82.1592 -31.4139 -13.0822 11.2634
# 4 -21.2539 -34.9385 -31.4139 38.4311 -0.0926 -1.2995
# 5 -5.4177 -9.5451 -13.0822 -0.0926 32.5732 -9.8812
# 6 -3.7022 2.1929 11.2634 -1.2995 -9.8812 31.5865
#
#
#
# Elastic Compliance Matrix: (Units=1/GPa)
#
#
# Indices 1 2 3 4 5 6 
#
# 1 0.011400 -0.001393 -0.004090 0.001806 0.000829 0.003225
# 2 -0.001393 0.010644 -0.000896 0.008202 0.002736 0.000611
# 3 -0.004090 -0.000896 0.021728 0.014507 0.006109 -0.005657
# 4 0.001806 0.008202 0.014507 0.046320 0.008355 -0.001011
# 5 0.000829 0.002736 0.006109 0.008355 0.037048 0.009662
# 6 0.003225 0.000611 -0.005657 -0.001011 0.009662 0.036993
#
#
# Mechanical properties :
#
#
# Convention : Reuss Voigt Hill
#
# Bulk Modulus (GPa) = 32.24342 60.62243 46.43293
# Shear Modulus (GPa) = 26.70529 34.66877 30.68703
#
# Velocity S-wave (km/s) = 3.46531 3.94832 3.71467
# Velocity P-wave (km/s) = 5.52357 6.93147 6.26718
#
# Compressibility (1/GPa) = 0.03101408
#
# Stress axis : x y z
#
# Youngs Moduli (GPa) = 87.71938 93.94594 46.02438
#
# Poissons Ratio (x) = 0.13083 0.18825
# Poissons Ratio (y) = 0.12216 0.04124
# Poissons Ratio (z) = 0.35880 0.08418
#
# Static dielectric constant tensor:
#      x y z
#    x 4.047610 -0.103550 -0.076910 
#    y -0.103550 4.225990 -0.269530 
#    z -0.076910 -0.269530 4.000720 
# 
# 
# High freq. dielectric constant tensor:
#      x y z
#    x 1.874950 -0.014410 -0.008830 
#    y -0.014410 1.877340 -0.013710 
#    z -0.008830 -0.013710 1.872740 
# 
# From -- ./inp_files/158067.got.cif
#   From: 2010.06.25/outbox.cif.g09.slc.cpg/sg2_80_cif.got.tgz:158067.got - 2010.06.27 13:26:56.
