data_PCOD8004409
_publ_section_title
;
Structure prediction by ZEFSAII (Michael W. Deem and Ramdas Pophale) SiO2 
 PCOD8004409
Probable space group: P -1
;
_chemical_formula_sum "Si O2"
_cell_formula_units_Z 14
_cell_length_a 15.320025
_cell_length_b 8.784224
_cell_length_c 5.965975
_cell_angle_alpha 97.117397
_cell_angle_beta 81.955591
_cell_angle_gamma 140.694591
_cell_volume 503.419421
_symmetry_space_group_name_H-M "P -1"
_symmetry_group_IT_number 2
_symmetry_cell_setting 'triclinic'
loop_
_space_group_symop_operation_xyz
x,y,z
-x,-y,-z
loop_
_atom_site_type_symbol
_atom_site_label
_atom_site_fract_x
_atom_site_fract_y
_atom_site_fract_z
Si Si1 0.434184 0.480647 0.739025
Si Si2 0.859647 0.404119 0.022654
Si Si3 0.013561 0.860039 0.838942
Si Si4 0.277166 0.634751 0.515921
Si Si5 0.459511 0.058795 0.222574
Si Si6 0.730712 0.925967 0.957583
Si Si7 0.807385 0.800502 0.521083
O O1 0.500000 0.500000 0.500000
O O2 0.540207 0.760557 0.832056
O O3 0.409012 0.319374 0.911566
O O4 0.283958 0.344446 0.699237
O O5 0.828011 0.429592 0.283525
O O6 0.734020 0.118157 0.947014
O O7 0.878264 0.569177 0.866504
O O8 0.000000 0.500000 0.000000
O O9 0.042607 0.943522 0.581795
O O10 0.138937 0.927579 0.903184
O O11 0.000000 0.000000 0.000000
O O12 0.421127 0.777341 0.603318
O O13 0.200604 0.378852 0.390945
O O14 0.315542 0.808793 0.339797
O O15 0.500000 0.000000 0.000000
O O16 0.746428 0.848861 0.711743
#
# Coordination Sequence:
#
# PCOD8004409 Si02
#       7
#     2   2   2   2   2   2   2
#     4  10  21  37  57  82 120 152 185 238 289 338
#     4  10  21  39  59  85 119 154 189 238 291 341
#     4  10  20  39  59  80 116 148 187 237 284 335
#     4  10  20  38  58  82 119 150 188 242 286 337
#     4  10  21  36  59  87 110 150 197 235 285 342
#     4  10  22  37  58  86 114 149 195 232 286 344
#     4  10  21  37  59  84 113 153 194 234 286 343
#
# _framework density 27.809812999999998
#
# number of rings (size 3 to 8) (size 9 to 14) (size 15 to 20)
#    0.000    2.000    1.429    1.714    0.000    2.857 
#    0.000    0.000    0.000    0.000    0.000    0.000 
#    0.000    0.000    0.000    0.000    0.000    0.000 
#
# Total GULP energy -173582.368194 kJ/mol
# GULP energy per Si atom -12398.740585 kJ/mol
# Density = 2.774652 g / cm^3
# Si number density = 27.809813 Si / 1000 Ang^3
#
#
#
# Elastic Constant Matrix: (Units=GPa)
#
#
# Indices 1 2 3 4 5 6 
#
# 1 91.2831 76.8266 51.2428 -29.5197 -19.6635 -36.6524
# 2 76.8266 298.3230 106.4378 -36.3657 -12.7372 -47.1298
# 3 51.2428 106.4378 139.7207 -55.4586 -36.4129 -35.3625
# 4 -29.5197 -36.3657 -55.4586 67.0437 -2.6918 5.1007
# 5 -19.6635 -12.7372 -36.4129 -2.6918 66.2154 5.4188
# 6 -36.6524 -47.1298 -35.3625 5.1007 5.4188 60.6927
#
#
#
# Elastic Compliance Matrix: (Units=1/GPa)
#
#
# Indices 1 2 3 4 5 6 
#
# 1 0.020615 -0.003345 0.002949 0.009192 0.006639 0.010205
# 2 -0.003345 0.005422 -0.004493 -0.002349 -0.002516 -0.000006
# 3 0.002949 -0.004493 0.020881 0.015979 0.011482 0.008090
# 4 0.009192 -0.002349 0.015979 0.030653 0.011539 0.009431
# 5 0.006639 -0.002516 0.011482 0.011539 0.022904 0.005730
# 6 0.010205 -0.000006 0.008090 0.009431 0.005730 0.026044
#
#
# Mechanical properties :
#
#
# Convention : Reuss Voigt Hill
#
# Bulk Modulus (GPa) = 26.92556 110.92679 68.92618
# Shear Modulus (GPa) = 33.63007 58.44502 46.03755
#
# Velocity S-wave (km/s) = 3.48125 4.58929 4.07313
# Velocity P-wave (km/s) = 5.08546 8.24963 6.85267
#
# Compressibility (1/GPa) = 0.03713943
#
# Stress axis : x y z
#
# Youngs Moduli (GPa) = 48.50888 184.43579 47.89047
#
# Poissons Ratio (x) = 0.61693 -0.14124
# Poissons Ratio (y) = 0.16226 0.21519
# Poissons Ratio (z) = -0.14306 0.82873
#
# Static dielectric constant tensor:
#      x y z
#    x 5.378680 0.109730 0.551030 
#    y 0.109730 6.874320 -0.418560 
#    z 0.551030 -0.418560 4.822940 
# 
# 
# High freq. dielectric constant tensor:
#      x y z
#    x 2.145890 0.012590 0.038470 
#    y 0.012590 2.181390 -0.006930 
#    z 0.038470 -0.006930 2.122840 
# 
# From -- ./inp_files/106957.got.cif
#   From: 2010.06.25/outbox.cif.g09.slc.cpg/sg2_54_cif.got.tgz:106957.got - 2010.06.27 13:26:56.
