data_PCOD8004741
_publ_section_title
;
Structure prediction by ZEFSAII (Michael W. Deem and Ramdas Pophale) SiO2 
 PCOD8004741
Probable space group: P -1
;
_chemical_formula_sum "Si O2"
_cell_formula_units_Z 16
_cell_length_a 12.138421
_cell_length_b 12.965141
_cell_length_c 9.596776
_cell_angle_alpha 47.986966
_cell_angle_beta 56.038374
_cell_angle_gamma 86.433322
_cell_volume 802.897756
_symmetry_space_group_name_H-M "P -1"
_symmetry_group_IT_number 2
_symmetry_cell_setting 'triclinic'
loop_
_space_group_symop_operation_xyz
x,y,z
-x,-y,-z
loop_
_atom_site_type_symbol
_atom_site_label
_atom_site_fract_x
_atom_site_fract_y
_atom_site_fract_z
Si Si1 0.016292 0.162747 0.025558
Si Si2 0.203159 0.047239 0.852972
Si Si3 0.983705 0.250296 0.562338
Si Si4 0.043785 0.751355 0.722611
Si Si5 0.766261 0.406096 0.272233
Si Si6 0.695782 0.517107 0.765711
Si Si7 0.141515 0.518768 0.559509
Si Si8 0.495829 0.663310 0.681791
O O1 0.982388 0.147736 0.229324
O O2 0.172689 0.165970 0.866460
O O3 0.026871 0.326015 0.816978
O O4 0.885909 0.001602 0.187939
O O5 0.382186 0.145814 0.593771
O O6 0.147168 0.882549 0.125449
O O7 0.948817 0.170246 0.504704
O O8 0.969017 0.408145 0.434560
O O9 0.159766 0.314965 0.428805
O O10 0.195467 0.736290 0.659893
O O11 0.901908 0.572048 0.966897
O O12 0.750625 0.419457 0.436730
O O13 0.608973 0.378079 0.343032
O O14 0.749362 0.429720 0.697556
O O15 0.581791 0.561237 0.725676
O O16 0.610858 0.380984 0.066364
#
# Coordination Sequence:
#
# PCOD8004741 Si02
#       8
#     2   2   2   2   2   2   2   2
#     4  10  20  38  62  82 120 158 206 231 289 349
#     4  11  22  38  56  90 125 157 184 246 301 351
#     4  11  21  38  66  90 116 149 210 243 284 345
#     4   9  19  37  62  89 108 157 204 247 274 346
#     4   9  19  37  61  87 119 147 203 246 289 340
#     4  11  21  37  60  88 117 155 201 239 282 354
#     4  10  20  38  66  91 106 158 210 246 272 345
#     4  11  23  38  55  88 129 154 184 247 307 346
#
# _framework density 19.927819
#
# number of rings (size 3 to 8) (size 9 to 14) (size 15 to 20)
#    0.000    1.750    3.750    1.875    0.000    1.000 
#    0.000    6.250    0.000    0.000    0.000    0.000 
#    0.000    0.000    0.000    0.000    0.000    0.000 
#
# Total GULP energy -198294.277915 kJ/mol
# GULP energy per Si atom -12393.392370 kJ/mol
# Density = 1.988246 g / cm^3
# Si number density = 19.927819 Si / 1000 Ang^3
#
#
#
# Elastic Constant Matrix: (Units=GPa)
#
#
# Indices 1 2 3 4 5 6 
#
# 1 106.1555 24.5131 31.7565 2.5328 -12.6128 11.7549
# 2 24.5131 111.2090 33.0188 18.8979 -5.9359 6.0463
# 3 31.7565 33.0188 124.0491 10.4943 -9.7125 13.8409
# 4 2.5328 18.8979 10.4943 32.3740 0.8647 8.7997
# 5 -12.6128 -5.9359 -9.7125 0.8647 15.0308 -0.9225
# 6 11.7549 6.0463 13.8409 8.7997 -0.9225 19.7982
#
#
#
# Elastic Compliance Matrix: (Units=1/GPa)
#
#
# Indices 1 2 3 4 5 6 
#
# 1 0.011801 -0.001771 -0.001441 0.001996 0.007790 -0.005982
# 2 -0.001771 0.011045 -0.002016 -0.006242 0.002052 0.001958
# 3 -0.001441 -0.002016 0.009901 -0.000683 0.004127 -0.004954
# 4 0.001996 -0.006242 -0.000683 0.039183 -0.004494 -0.016426
# 5 0.007790 0.002052 0.004127 -0.004494 0.076645 -0.002568
# 6 -0.005982 0.001958 -0.004954 -0.016426 -0.002568 0.064108
#
#
# Mechanical properties :
#
#
# Convention : Reuss Voigt Hill
#
# Bulk Modulus (GPa) = 44.86502 57.77671 51.32087
# Shear Modulus (GPa) = 21.68548 30.24894 25.96721
#
# Velocity S-wave (km/s) = 3.30237 3.90028 3.61371
# Velocity P-wave (km/s) = 6.09126 7.02416 6.57428
#
# Compressibility (1/GPa) = 0.02228908
#
# Stress axis : x y z
#
# Youngs Moduli (GPa) = 84.74164 90.53872 101.00411
#
# Poissons Ratio (x) = 0.16039 0.14554
# Poissons Ratio (y) = 0.15012 0.20364
# Poissons Ratio (z) = 0.12210 0.18254
#
# Static dielectric constant tensor:
#      x y z
#    x 3.600930 0.067400 0.137090 
#    y 0.067400 3.637580 0.308570 
#    z 0.137090 0.308570 3.668660 
# 
# 
# High freq. dielectric constant tensor:
#      x y z
#    x 1.767890 0.004220 0.017570 
#    y 0.004220 1.768620 0.020210 
#    z 0.017570 0.020210 1.770800 
# 
# From -- ./inp_files/261545.got.cif
#   From: 2010.06.25/outbox.cif.g09.slc.cpg/sg2_131_cif.got.tgz:261545.got - 2010.06.27 13:26:56.
