data_PCOD8004866
_publ_section_title
;
Structure prediction by ZEFSAII (Michael W. Deem and Ramdas Pophale) SiO2 
 PCOD8004866
Probable space group: P -1
;
_chemical_formula_sum "Si O2"
_cell_formula_units_Z 14
_cell_length_a 8.849239
_cell_length_b 9.094413
_cell_length_c 9.338025
_cell_angle_alpha 88.288043
_cell_angle_beta 65.226366
_cell_angle_gamma 100.249570
_cell_volume 666.858568
_symmetry_space_group_name_H-M "P -1"
_symmetry_group_IT_number 2
_symmetry_cell_setting 'triclinic'
loop_
_space_group_symop_operation_xyz
x,y,z
-x,-y,-z
loop_
_atom_site_type_symbol
_atom_site_label
_atom_site_fract_x
_atom_site_fract_y
_atom_site_fract_z
Si Si1 0.476625 0.236164 0.545081
Si Si2 0.653546 0.367904 0.749650
Si Si3 0.697202 0.698693 0.648634
Si Si4 0.763134 0.074961 0.400760
Si Si5 0.932077 0.959819 0.872401
Si Si6 0.567356 0.847070 0.951938
Si Si7 0.923809 0.179548 0.612617
O O1 0.516275 0.314644 0.679616
O O2 0.410996 0.343647 0.453459
O O3 0.648573 0.195906 0.416144
O O4 0.329349 0.085726 0.621107
O O5 0.690057 0.547113 0.745986
O O6 0.834770 0.322221 0.655222
O O7 0.571047 0.292887 0.930548
O O8 0.608728 0.814595 0.771076
O O9 0.890287 0.770886 0.529564
O O10 0.807909 0.060982 0.552386
O O11 0.940126 0.134930 0.245829
O O12 0.928377 0.104294 0.768334
O O13 0.744332 0.858894 0.966096
O O14 0.000000 0.000000 0.000000
O O15 0.500000 0.000000 0.000000
#
# Coordination Sequence:
#
# PCOD8004866 Si02
#       7
#     2   2   2   2   2   2   2
#     4  10  22  36  68  94 128 160 220 265 315 368
#     4  11  25  44  64  96 134 172 212 255 328 390
#     4  12  24  43  68  94 133 173 209 264 321 389
#     4  10  20  38  62  97 126 165 212 271 312 371
#     4  12  23  37  63  94 130 157 215 272 321 359
#     4  12  26  42  66  94 130 170 215 268 318 378
#     4  11  22  42  66  94 127 171 215 261 319 384
#
# _framework density 20.993957999999999
#
# number of rings (size 3 to 8) (size 9 to 14) (size 15 to 20)
#    0.000    0.857    4.286    3.429    6.000    0.000 
#    0.000    0.000    0.000    1.714    0.000    0.000 
#    0.000    0.000    0.000    0.000    0.000    0.000 
#
# Total GULP energy -173550.667038 kJ/mol
# GULP energy per Si atom -12396.476217 kJ/mol
# Density = 2.094617 g / cm^3
# Si number density = 20.993958 Si / 1000 Ang^3
#
#
#
# Elastic Constant Matrix: (Units=GPa)
#
#
# Indices 1 2 3 4 5 6 
#
# 1 115.0398 15.9486 39.7218 4.2450 -10.5376 1.2004
# 2 15.9486 66.5649 25.9804 -5.3741 -7.6735 -4.5881
# 3 39.7218 25.9804 98.2115 2.2204 -7.4064 -7.5343
# 4 4.2450 -5.3741 2.2204 33.3786 2.6811 3.3538
# 5 -10.5376 -7.6735 -7.4064 2.6811 45.9003 8.9424
# 6 1.2004 -4.5881 -7.5343 3.3538 8.9424 20.6655
#
#
#
# Elastic Compliance Matrix: (Units=1/GPa)
#
#
# Indices 1 2 3 4 5 6 
#
# 1 0.010500 -0.000985 -0.004029 -0.001096 0.002264 -0.003099
# 2 -0.000985 0.017344 -0.004038 0.002930 0.001604 0.001266
# 3 -0.004029 -0.004038 0.013239 -0.001451 -0.000258 0.004511
# 4 -0.001096 0.002930 -0.001451 0.031192 -0.000948 -0.004467
# 5 0.002264 0.001604 -0.000258 -0.000948 0.024607 -0.010364
# 6 -0.003099 0.001266 0.004511 -0.004467 -0.010364 0.055705
#
#
# Mechanical properties :
#
#
# Convention : Reuss Voigt Hill
#
# Bulk Modulus (GPa) = 43.51479 49.23533 46.37506
# Shear Modulus (GPa) = 28.03479 33.19990 30.61735
#
# Velocity S-wave (km/s) = 3.65824 3.98100 3.82303
# Velocity P-wave (km/s) = 6.21417 6.68088 6.45175
#
# Compressibility (1/GPa) = 0.02298069
#
# Stress axis : x y z
#
# Youngs Moduli (GPa) = 95.23494 57.65819 75.53356
#
# Poissons Ratio (x) = 0.05677 0.30430
# Poissons Ratio (y) = 0.09377 0.30500
# Poissons Ratio (z) = 0.38367 0.23282
#
# Static dielectric constant tensor:
#      x y z
#    x 4.217820 -0.011520 -0.116080 
#    y -0.011520 3.568380 0.121460 
#    z -0.116080 0.121460 3.943680 
# 
# 
# High freq. dielectric constant tensor:
#      x y z
#    x 1.845060 -0.000610 -0.009280 
#    y -0.000610 1.794590 0.005840 
#    z -0.009280 0.005840 1.821720 
# 
# From -- ./inp_files/156931.got.cif
#   From: 2010.06.25/outbox.cif.g09.slc.cpg/sg2_79_cif.got.tgz:156931.got - 2010.06.27 13:26:56.
