data_PCOD8004584
_publ_section_title
;
Structure prediction by ZEFSAII (Michael W. Deem and Ramdas Pophale) SiO2 
 PCOD8004584
Probable space group: P -1
;
_chemical_formula_sum "Si O2"
_cell_formula_units_Z 14
_cell_length_a 20.557809
_cell_length_b 14.257446
_cell_length_c 8.914143
_cell_angle_alpha 131.338731
_cell_angle_beta 31.197031
_cell_angle_gamma 150.110566
_cell_volume 640.260665
_symmetry_space_group_name_H-M "P -1"
_symmetry_group_IT_number 2
_symmetry_cell_setting 'triclinic'
loop_
_space_group_symop_operation_xyz
x,y,z
-x,-y,-z
loop_
_atom_site_type_symbol
_atom_site_label
_atom_site_fract_x
_atom_site_fract_y
_atom_site_fract_z
Si Si1 0.441397 0.036226 0.296022
Si Si2 0.224009 0.691593 0.579442
Si Si3 0.636721 0.879292 0.970690
Si Si4 0.816848 0.263598 0.957288
Si Si5 0.895421 0.995653 0.831679
Si Si6 0.724974 0.697484 0.430413
Si Si7 0.345366 0.243811 0.678653
O O1 0.351245 0.099063 0.491009
O O2 0.272170 0.832741 0.509170
O O3 0.640916 0.214746 0.188347
O O4 0.500000 0.000000 0.000000
O O5 0.027701 0.461549 0.674690
O O6 0.175590 0.720497 0.861631
O O7 0.406123 0.736756 0.287327
O O8 0.647266 0.752031 0.741853
O O9 0.758315 0.074071 0.836262
O O10 0.731296 0.956605 0.034603
O O11 0.070434 0.201191 0.796883
O O12 0.000000 0.000000 0.500000
O O13 0.781776 0.819385 0.989189
O O14 0.568521 0.465168 0.494263
O O15 0.761053 0.773593 0.270912
#
# Coordination Sequence:
#
# PCOD8004584 Si02
#       7
#     2   2   2   2   2   2   2
#     4  11  23  40  61  89 121 154 196 244 293 350
#     4  10  21  38  61  88 118 154 196 242 296 349
#     4  10  20  38  60  88 121 151 194 245 293 349
#     4  10  21  38  62  89 118 155 195 242 297 351
#     4  10  22  38  60  89 118 154 198 240 288 346
#     4  10  24  40  59  87 117 159 199 238 294 348
#     4  11  22  41  62  83 122 159 194 244 292 347
#
# _framework density 21.866094
#
# number of rings (size 3 to 8) (size 9 to 14) (size 15 to 20)
#    0.000    1.714    0.000    5.571    0.000    9.714 
#    0.000    4.286    0.000    0.000    0.000    0.000 
#    0.000    0.000    0.000    0.000    0.000    0.000 
#
# Total GULP energy -173559.668697 kJ/mol
# GULP energy per Si atom -12397.119193 kJ/mol
# Density = 2.181633 g / cm^3
# Si number density = 21.866094 Si / 1000 Ang^3
#
#
#
# Elastic Constant Matrix: (Units=GPa)
#
#
# Indices 1 2 3 4 5 6 
#
# 1 91.4880 37.3734 39.2298 -18.0192 18.2921 2.2207
# 2 37.3734 93.8203 49.2312 -23.1848 7.3936 -8.9099
# 3 39.2298 49.2312 100.0986 -23.5417 14.3213 -12.6986
# 4 -18.0192 -23.1848 -23.5417 44.6665 1.3501 -3.8021
# 5 18.2921 7.3936 14.3213 1.3501 34.6188 -3.1523
# 6 2.2207 -8.9099 -12.6986 -3.8021 -3.1523 26.9021
#
#
#
# Elastic Compliance Matrix: (Units=1/GPa)
#
#
# Indices 1 2 3 4 5 6 
#
# 1 0.015888 -0.003866 -0.003386 0.002426 -0.006685 -0.004630
# 2 -0.003866 0.016285 -0.005021 0.004570 0.000836 0.004086
# 3 -0.003386 -0.005021 0.016398 0.005347 -0.003521 0.006700
# 4 0.002426 0.004570 0.005347 0.029337 -0.004940 0.007405
# 5 -0.006685 0.000836 -0.003521 -0.004940 0.034114 0.002466
# 6 -0.004630 0.004086 0.006700 0.007405 0.002466 0.043406
#
#
# Mechanical properties :
#
#
# Convention : Reuss Voigt Hill
#
# Bulk Modulus (GPa) = 41.62116 59.67509 50.64812
# Shear Modulus (GPa) = 26.59860 31.87565 29.23713
#
# Velocity S-wave (km/s) = 3.49152 3.82221 3.66060
# Velocity P-wave (km/s) = 5.94392 6.84321 6.40935
#
# Compressibility (1/GPa) = 0.02402624
#
# Stress axis : x y z
#
# Youngs Moduli (GPa) = 62.93925 61.40770 60.98434
#
# Poissons Ratio (x) = 0.23739 0.20648
# Poissons Ratio (y) = 0.24331 0.30618
# Poissons Ratio (z) = 0.21310 0.30830
#
# Static dielectric constant tensor:
#      x y z
#    x 4.375530 0.140880 -0.054500 
#    y 0.140880 3.944410 -0.304520 
#    z -0.054500 -0.304520 3.886390 
# 
# 
# High freq. dielectric constant tensor:
#      x y z
#    x 1.872180 0.006020 0.000270 
#    y 0.006020 1.851720 -0.014050 
#    z 0.000270 -0.014050 1.855080 
# 
# From -- ./inp_files/274235.got.cif
#   From: 2010.06.25/outbox.cif.g09.slc.cpg/sg2_138_cif.got.tgz:274235.got - 2010.06.27 13:26:56.
