data_PCOD8004265
_publ_section_title
;
Structure prediction by ZEFSAII (Michael W. Deem and Ramdas Pophale) SiO2 
 PCOD8004265
Probable space group: P -1
;
_chemical_formula_sum "Si O2"
_cell_formula_units_Z 14
_cell_length_a 8.294111
_cell_length_b 14.722913
_cell_length_c 5.161369
_cell_angle_alpha 64.570249
_cell_angle_beta 78.984434
_cell_angle_gamma 68.501393
_cell_volume 529.179071
_symmetry_space_group_name_H-M "P -1"
_symmetry_group_IT_number 2
_symmetry_cell_setting 'triclinic'
loop_
_space_group_symop_operation_xyz
x,y,z
-x,-y,-z
loop_
_atom_site_type_symbol
_atom_site_label
_atom_site_fract_x
_atom_site_fract_y
_atom_site_fract_z
Si Si1 0.939020 0.453717 0.821277
Si Si2 0.492866 0.333579 0.403647
Si Si3 0.070696 0.823584 0.082335
Si Si4 0.369883 0.603870 0.213822
Si Si5 0.213106 0.255588 0.834290
Si Si6 0.199050 0.885680 0.453009
Si Si7 0.608671 0.957362 0.767210
O O1 0.052818 0.330363 0.959935
O O2 0.000000 0.500000 0.500000
O O3 0.731948 0.471088 0.805516
O O4 0.000000 0.500000 0.000000
O O5 0.532816 0.418148 0.499586
O O6 0.306432 0.321066 0.546679
O O7 0.627977 0.215655 0.507342
O O8 0.492549 0.380555 0.056870
O O9 0.219255 0.710545 0.200368
O O10 0.094856 0.901908 0.198285
O O11 0.881395 0.813065 0.219565
O O12 0.078609 0.872021 0.739122
O O13 0.342542 0.171333 0.091603
O O14 0.231753 0.997124 0.346419
O O15 0.500000 0.000000 0.500000
O O16 0.500000 0.000000 0.000000
#
# Coordination Sequence:
#
# PCOD8004265 Si02
#       7
#     2   2   2   2   2   2   2
#     4  11  25  48  73  98 134 176 228 284 344 400
#     4  10  20  37  66  95 136 174 215 265 336 399
#     4   9  21  38  63  92 132 176 226 268 329 393
#     4   9  20  39  64  96 131 174 211 275 338 395
#     4  11  26  44  70 104 134 181 230 284 335 403
#     4  10  20  40  61  92 136 182 214 272 328 394
#     4  12  26  41  66 102 143 178 228 276 336 400
#
# _framework density 26.456074000000001
#
# number of rings (size 3 to 8) (size 9 to 14) (size 15 to 20)
#    0.000    1.714    1.429    1.714    4.000    9.143 
#    0.000    4.286    0.000    0.000    0.000    0.000 
#    0.000    0.000    0.000    0.000    0.000    0.000 
#
# Total GULP energy -173485.762615 kJ/mol
# GULP energy per Si atom -12391.840187 kJ/mol
# Density = 2.639586 g / cm^3
# Si number density = 26.456074 Si / 1000 Ang^3
#
#
#
# Elastic Constant Matrix: (Units=GPa)
#
#
# Indices 1 2 3 4 5 6 
#
# 1 66.0341 -150.2110 -267.0194 212.5502 7.2962 144.7935
# 2 -150.2110 -247.9814 -559.2804 340.9287 34.2915 221.8821
# 3 -267.0194 -559.2804 -944.0454 655.2584 60.8671 408.2202
# 4 212.5502 340.9287 655.2584 -326.9638 -17.2571 -221.8794
# 5 7.2962 34.2915 60.8671 -17.2571 45.9988 -24.6114
# 6 144.7935 221.8821 408.2202 -221.8794 -24.6114 -89.5024
#
#
#
# Elastic Compliance Matrix: (Units=1/GPa)
#
#
# Indices 1 2 3 4 5 6 
#
# 1 0.008215 -0.002496 -0.003067 -0.002403 0.002805 -0.001700
# 2 -0.002496 0.016316 -0.004213 0.007650 -0.003722 -0.000746
# 3 -0.003067 -0.004213 0.005791 0.003561 -0.001337 0.002548
# 4 -0.002403 0.007650 0.003561 0.017461 -0.008619 -0.009600
# 5 0.002805 -0.003722 -0.001337 -0.008619 0.024640 0.003805
# 6 -0.001700 -0.000746 0.002548 -0.009600 0.003805 0.018600
#
#
# Mechanical properties :
#
#
# Convention : Reuss Voigt Hill
#
# Bulk Modulus (GPa) = 92.84627 -342.11272 -124.63322
# Shear Modulus (GPa) = 43.79547 -84.05893 -20.13173
#
# Velocity S-wave (km/s) = 4.07308 -5.64287 -2.76152
# Velocity P-wave (km/s) = 7.56906 13.11679 7.57494
#
# Compressibility (1/GPa) = 0.01077049
#
# Stress axis : x y z
#
# Youngs Moduli (GPa) = 121.72117 61.28779 172.68180
#
# Poissons Ratio (x) = 0.15300 0.52955
# Poissons Ratio (y) = 0.30388 0.72753
# Poissons Ratio (z) = 0.37327 0.25821
#
# Static dielectric constant tensor:
#      x y z
#    x 5.472760 -0.178820 0.378250 
#    y -0.178820 5.511460 -0.402410 
#    z 0.378250 -0.402410 4.944780 
# 
# 
# High freq. dielectric constant tensor:
#      x y z
#    x 2.073460 -0.006580 0.003650 
#    y -0.006580 2.088560 -0.011230 
#    z 0.003650 -0.011230 2.054860 
# 
# From -- ./inp_files/34414.got.cif
#   From: 2010.06.25/outbox.cif.g09.slc.cpg/sg2_18_cif.got.tgz:34414.got - 2010.06.27 13:26:56.
