data_PCOD8004514
_publ_section_title
;
Structure prediction by ZEFSAII (Michael W. Deem and Ramdas Pophale) SiO2 
 PCOD8004514
Probable space group: P -1
;
_chemical_formula_sum "Si O2"
_cell_formula_units_Z 14
_cell_length_a 21.680195
_cell_length_b 9.138714
_cell_length_c 12.654498
_cell_angle_alpha 53.785049
_cell_angle_beta 153.356702
_cell_angle_gamma 141.565792
_cell_volume 642.900459
_symmetry_space_group_name_H-M "P -1"
_symmetry_group_IT_number 2
_symmetry_cell_setting 'triclinic'
loop_
_space_group_symop_operation_xyz
x,y,z
-x,-y,-z
loop_
_atom_site_type_symbol
_atom_site_label
_atom_site_fract_x
_atom_site_fract_y
_atom_site_fract_z
Si Si1 0.242340 0.914265 0.238014
Si Si2 0.717728 0.642096 0.543880
Si Si3 0.326019 0.381589 0.156483
Si Si4 0.943458 0.354663 0.311091
Si Si5 0.058651 0.804299 0.409385
Si Si6 0.656301 0.335070 0.757074
Si Si7 0.924911 0.593878 0.720891
O O1 0.143758 0.679289 0.265652
O O2 0.216582 0.100401 0.154936
O O3 0.473255 0.084781 0.518690
O O4 0.139702 0.800834 0.014512
O O5 0.488825 0.466836 0.285480
O O6 0.791681 0.572709 0.779165
O O7 0.770294 0.588794 0.537687
O O8 0.820801 0.932216 0.580065
O O9 0.418524 0.584766 0.306598
O O10 0.168845 0.356301 0.864914
O O11 0.867671 0.154404 0.374790
O O12 0.082451 0.638979 0.452176
O O13 0.059318 0.343473 0.406256
O O14 0.765008 0.276149 0.007724
#
# Coordination Sequence:
#
# PCOD8004514 Si02
#       7
#     2   2   2   2   2   2   2
#     4  10  20  38  59  97 129 156 206 263 307 377
#     4  11  22  40  66  94 123 166 209 258 316 367
#     4  10  22  40  66  98 124 165 211 265 306 368
#     4  10  24  42  63  92 125 173 208 255 320 364
#     4  10  23  46  64  87 132 167 214 260 296 386
#     4  10  22  39  67  98 123 163 215 263 309 366
#     4  11  23  36  63  96 128 171 197 258 333 361
#
# _framework density 21.776309000000001
#
# number of rings (size 3 to 8) (size 9 to 14) (size 15 to 20)
#    0.000    1.714    1.429    3.429    4.000    6.857 
#    2.571    2.857    0.000    0.000    0.000    0.000 
#    0.000    0.000    0.000    0.000    0.000    0.000 
#
# Total GULP energy -173477.163886 kJ/mol
# GULP energy per Si atom -12391.225992 kJ/mol
# Density = 2.172675 g / cm^3
# Si number density = 21.776309 Si / 1000 Ang^3
#
#
#
# Elastic Constant Matrix: (Units=GPa)
#
#
# Indices 1 2 3 4 5 6 
#
# 1 126.2131 17.9141 39.8193 4.7290 -3.5960 -2.7204
# 2 17.9141 87.0973 38.5361 16.6991 -2.8265 4.6744
# 3 39.8193 38.5361 59.6743 6.7441 -6.9200 7.4597
# 4 4.7290 16.6991 6.7441 25.6764 -2.0537 -0.4123
# 5 -3.5960 -2.8265 -6.9200 -2.0537 26.5755 -7.0613
# 6 -2.7204 4.6744 7.4597 -0.4123 -7.0613 26.2570
#
#
#
# Elastic Compliance Matrix: (Units=1/GPa)
#
#
# Indices 1 2 3 4 5 6 
#
# 1 0.010394 0.001430 -0.008159 -0.000631 0.000234 0.003193
# 2 0.001430 0.018102 -0.011776 -0.009088 -0.001740 -0.000340
# 3 -0.008159 -0.011776 0.030941 0.001259 0.004092 -0.006419
# 4 -0.000631 -0.009088 0.001259 0.044968 0.003507 0.002844
# 5 0.000234 -0.001740 0.004092 0.003507 0.041577 0.010408
# 6 0.003193 -0.000340 -0.006419 0.002844 0.010408 0.043144
#
#
# Mechanical properties :
#
#
# Convention : Reuss Voigt Hill
#
# Bulk Modulus (GPa) = 44.59215 51.72485 48.15850
# Shear Modulus (GPa) = 21.40296 27.48277 24.44287
#
# Velocity S-wave (km/s) = 3.13845 3.55639 3.35394
# Velocity P-wave (km/s) = 5.80129 6.37716 6.09603
#
# Compressibility (1/GPa) = 0.02242547
#
# Stress axis : x y z
#
# Youngs Moduli (GPa) = 96.21355 55.24336 32.31909
#
# Poissons Ratio (x) = -0.07897 0.26370
# Poissons Ratio (y) = -0.13754 0.38058
# Poissons Ratio (z) = 0.78504 0.65054
#
# Static dielectric constant tensor:
#      x y z
#    x 3.884600 -0.138340 -0.065670 
#    y -0.138340 4.042710 -0.003980 
#    z -0.065670 -0.003980 3.802450 
# 
# 
# High freq. dielectric constant tensor:
#      x y z
#    x 1.849050 -0.014770 0.002510 
#    y -0.014770 1.855500 -0.001820 
#    z 0.002510 -0.001820 1.838850 
# 
# From -- ./inp_files/346048.got.cif
#   From: 2010.06.25/outbox.cif.g09.slc.cpg/sg2_174_cif.got.tgz:346048.got - 2010.06.27 13:26:56.
