data_PCOD8004780
_publ_section_title
;
Structure prediction by ZEFSAII (Michael W. Deem and Ramdas Pophale) SiO2 
 PCOD8004780
Probable space group: P -1
;
_chemical_formula_sum "Si O2"
_cell_formula_units_Z 14
_cell_length_a 9.641124
_cell_length_b 9.844174
_cell_length_c 11.631804
_cell_angle_alpha 73.651826
_cell_angle_beta 137.546297
_cell_angle_gamma 97.533108
_cell_volume 710.024715
_symmetry_space_group_name_H-M "P -1"
_symmetry_group_IT_number 2
_symmetry_cell_setting 'triclinic'
loop_
_space_group_symop_operation_xyz
x,y,z
-x,-y,-z
loop_
_atom_site_type_symbol
_atom_site_label
_atom_site_fract_x
_atom_site_fract_y
_atom_site_fract_z
Si Si1 0.581436 0.221810 0.784725
Si Si2 0.266934 0.645578 0.924534
Si Si3 0.478011 0.349120 0.138911
Si Si4 0.708707 0.922962 0.867423
Si Si5 0.858299 0.346700 0.517236
Si Si6 0.154404 0.847591 0.241795
Si Si7 0.886934 0.647933 0.541434
O O1 0.690831 0.278141 0.949426
O O2 0.722563 0.256363 0.753237
O O3 0.349427 0.289865 0.599404
O O4 0.586145 0.049615 0.839306
O O5 0.287249 0.473909 0.994183
O O6 0.442791 0.685109 0.933954
O O7 0.035195 0.696120 0.722544
O O8 0.427327 0.205000 0.204394
O O9 0.659208 0.409126 0.307341
O O10 0.773601 0.992978 0.768533
O O11 0.910252 0.854451 0.074082
O O12 0.802747 0.213352 0.590278
O O13 0.915562 0.475443 0.601074
O O14 0.042799 0.295877 0.553048
#
# Coordination Sequence:
#
# PCOD8004780 Si02
#       7
#     2   2   2   2   2   2   2
#     4  10  21  42  59  90 122 153 200 251 290 354
#     4  10  21  38  63  91 119 152 205 245 292 357
#     4  10  20  38  62  89 117 161 198 241 303 350
#     4   9  21  41  57  85 121 163 197 235 309 353
#     4  10  20  38  62  88 120 157 199 246 294 358
#     4   9  21  41  59  81 124 162 198 235 307 355
#     4  10  21  38  63  91 118 155 200 248 298 342
#
# _framework density 19.717621999999999
#
# number of rings (size 3 to 8) (size 9 to 14) (size 15 to 20)
#    0.857    1.429    1.429    0.857    4.000    1.714 
#    5.143    2.857    0.000    0.000    0.000    0.000 
#    0.000    0.000    0.000    0.000    0.000    0.000 
#
# Total GULP energy -173486.749940 kJ/mol
# GULP energy per Si atom -12391.910710 kJ/mol
# Density = 1.967274 g / cm^3
# Si number density = 19.717622 Si / 1000 Ang^3
#
#
#
# Elastic Constant Matrix: (Units=GPa)
#
#
# Indices 1 2 3 4 5 6 
#
# 1 44.5223 29.9724 33.2647 -12.4210 -0.6912 0.4708
# 2 29.9724 79.9647 25.6938 -5.7062 -1.5972 13.5015
# 3 33.2647 25.6938 88.8647 -8.7789 7.7802 -5.4323
# 4 -12.4210 -5.7062 -8.7789 24.6150 5.7263 2.3050
# 5 -0.6912 -1.5972 7.7802 5.7263 34.9955 -15.2205
# 6 0.4708 13.5015 -5.4323 2.3050 -15.2205 32.7304
#
#
#
# Elastic Compliance Matrix: (Units=1/GPa)
#
#
# Indices 1 2 3 4 5 6 
#
# 1 0.042682 -0.011684 -0.011174 0.014363 0.001287 0.001938
# 2 -0.011684 0.018790 -0.001408 -0.000496 -0.002963 -0.009159
# 3 -0.011174 -0.001408 0.016273 0.000377 -0.003107 0.001971
# 4 0.014363 -0.000496 0.000377 0.051629 -0.012317 -0.009303
# 5 0.001287 -0.002963 -0.003107 -0.012317 0.039922 0.020120
# 6 0.001938 -0.009159 0.001971 -0.009303 0.020120 0.044642
#
#
# Mechanical properties :
#
#
# Convention : Reuss Voigt Hill
#
# Bulk Modulus (GPa) = 34.23404 43.46818 38.85111
# Shear Modulus (GPa) = 18.36835 26.76290 22.56562
#
# Velocity S-wave (km/s) = 3.05547 3.68816 3.38663
# Velocity P-wave (km/s) = 5.46331 6.34271 5.91936
#
# Compressibility (1/GPa) = 0.02921070
#
# Stress axis : x y z
#
# Youngs Moduli (GPa) = 23.42933 53.22120 61.45234
#
# Poissons Ratio (x) = 0.62185 0.68666
# Poissons Ratio (y) = 0.27375 0.08655
# Poissons Ratio (z) = 0.26180 0.07496
#
# Static dielectric constant tensor:
#      x y z
#    x 3.502630 0.039690 0.076640 
#    y 0.039690 3.324380 -0.053730 
#    z 0.076640 -0.053730 3.439750 
# 
# 
# High freq. dielectric constant tensor:
#      x y z
#    x 1.760880 0.006780 0.010010 
#    y 0.006780 1.748070 -0.007890 
#    z 0.010010 -0.007890 1.769950 
# 
# From -- ./inp_files/178337.got.cif
#   From: 2010.06.25/outbox.cif.g09.slc.cpg/sg2_90_cif.got.tgz:178337.got - 2010.06.27 13:26:56.
