data_PCOD8004183
_publ_section_title
;
Structure prediction by ZEFSAII (Michael W. Deem and Ramdas Pophale) SiO2 
 PCOD8004183
Probable space group: P -1
;
_chemical_formula_sum "Si O2"
_cell_formula_units_Z 16
_cell_length_a 17.002782
_cell_length_b 10.701387
_cell_length_c 11.359613
_cell_angle_alpha 127.682444
_cell_angle_beta 132.803524
_cell_angle_gamma 29.365905
_cell_volume 742.607077
_symmetry_space_group_name_H-M "P -1"
_symmetry_group_IT_number 2
_symmetry_cell_setting 'triclinic'
loop_
_space_group_symop_operation_xyz
x,y,z
-x,-y,-z
loop_
_atom_site_type_symbol
_atom_site_label
_atom_site_fract_x
_atom_site_fract_y
_atom_site_fract_z
Si Si1 0.062658 0.182075 0.430309
Si Si2 0.231086 0.385935 0.976788
Si Si3 0.743380 0.032327 0.018885
Si Si4 0.936350 0.898075 0.360025
Si Si5 0.112384 0.394814 0.227328
Si Si6 0.478610 0.113700 0.857861
Si Si7 0.005544 0.055634 0.906985
Si Si8 0.249121 0.222606 0.511337
O O1 0.138066 0.081461 0.580842
O O2 0.204455 0.101276 0.446436
O O3 0.887994 0.484921 0.424017
O O4 0.022099 0.053107 0.273409
O O5 0.149092 0.640079 0.094375
O O6 0.367344 0.154255 0.072120
O O7 0.318032 0.324751 0.903893
O O8 0.075871 0.444259 0.823904
O O9 0.788367 0.058074 0.204160
O O10 0.806290 0.079154 0.006883
O O11 0.837186 0.753971 0.926967
O O12 0.541842 0.213804 0.930499
O O13 0.095882 0.601974 0.307226
O O14 0.000000 0.000000 0.500000
O O15 0.256829 0.197433 0.362828
O O16 0.428547 0.068857 0.665854
O O17 0.000000 0.000000 0.000000
#
# Coordination Sequence:
#
# PCOD8004183 Si02
#       8
#     2   2   2   2   2   2   2   2
#     4  10  20  37  65  87 123 163 218 251 297 368
#     4  10  22  38  64  94 122 168 205 257 307 376
#     4  11  23  38  65  91 125 162 206 261 309 368
#     4  11  20  34  59  93 121 154 211 262 300 351
#     4  10  21  40  65  88 120 168 221 247 294 372
#     4  11  22  38  63  94 132 158 203 254 325 371
#     4  11  22  40  65  91 120 165 218 256 301 368
#     4  10  21  38  63  93 121 168 205 257 304 372
#
# _framework density 21.545714
#
# number of rings (size 3 to 8) (size 9 to 14) (size 15 to 20)
#    0.000    1.500    2.500    4.875    3.500    0.500 
#    0.000    3.125    2.750    0.000    0.000    0.000 
#    0.000    0.000    0.000    0.000    0.000    0.000 
#
# Total GULP energy -198285.618060 kJ/mol
# GULP energy per Si atom -12392.851129 kJ/mol
# Density = 2.149668 g / cm^3
# Si number density = 21.545714 Si / 1000 Ang^3
#
#
#
# Elastic Constant Matrix: (Units=GPa)
#
#
# Indices 1 2 3 4 5 6 
#
# 1 103.8180 21.5995 27.6037 -2.3396 15.3271 -5.0595
# 2 21.5995 39.0587 29.2090 15.2600 4.1973 2.8354
# 3 27.6037 29.2090 127.8198 3.5579 16.3508 0.6879
# 4 -2.3396 15.2600 3.5579 42.9744 10.2577 4.9062
# 5 15.3271 4.1973 16.3508 10.2577 33.7499 2.0413
# 6 -5.0595 2.8354 0.6879 4.9062 2.0413 27.9687
#
#
#
# Elastic Compliance Matrix: (Units=1/GPa)
#
#
# Indices 1 2 3 4 5 6 
#
# 1 0.012543 -0.008190 -0.000191 0.004777 -0.006201 0.002719
# 2 -0.008190 0.042118 -0.008366 -0.016161 0.007644 -0.003269
# 3 -0.000191 -0.008366 0.010308 0.003229 -0.004869 0.000349
# 4 0.004777 -0.016161 0.003229 0.031967 -0.011297 -0.002360
# 5 -0.006201 0.007644 -0.004869 -0.011297 0.037440 -0.002528
# 6 0.002719 -0.003269 0.000349 -0.002360 -0.002528 0.037167
#
#
# Mechanical properties :
#
#
# Convention : Reuss Voigt Hill
#
# Bulk Modulus (GPa) = 31.77385 47.50231 39.63808
# Shear Modulus (GPa) = 23.19862 33.75756 28.47809
#
# Velocity S-wave (km/s) = 3.28490 3.96256 3.63953
# Velocity P-wave (km/s) = 5.40061 6.55980 6.00822
#
# Compressibility (1/GPa) = 0.03147242
#
# Stress axis : x y z
#
# Youngs Moduli (GPa) = 79.72717 23.74286 97.01411
#
# Poissons Ratio (x) = 0.19446 0.01857
# Poissons Ratio (y) = 0.65299 0.81165
# Poissons Ratio (z) = 0.01526 0.19864
#
# Static dielectric constant tensor:
#      x y z
#    x 4.263260 0.064920 0.026050 
#    y 0.064920 3.675740 0.199720 
#    z 0.026050 0.199720 4.145650 
# 
# 
# High freq. dielectric constant tensor:
#      x y z
#    x 1.860700 0.008800 -0.005390 
#    y 0.008800 1.801730 0.016310 
#    z -0.005390 0.016310 1.860410 
# 
# From -- ./inp_files/464830.got.cif
#   From: 2010.06.25/outbox.cif.g09.slc.cpg/sg2_233_cif.got.tgz:464830.got - 2010.06.27 13:26:56.
