data_PCOD8004289
_publ_section_title
;
Structure prediction by ZEFSAII (Michael W. Deem and Ramdas Pophale) SiO2 
 PCOD8004289
Probable space group: P -1
;
_chemical_formula_sum "Si O2"
_cell_formula_units_Z 14
_cell_length_a 21.734939
_cell_length_b 9.399600
_cell_length_c 20.133716
_cell_angle_alpha 28.229204
_cell_angle_beta 19.842691
_cell_angle_gamma 27.886629
_cell_volume 620.268707
_symmetry_space_group_name_H-M "P -1"
_symmetry_group_IT_number 2
_symmetry_cell_setting 'triclinic'
loop_
_space_group_symop_operation_xyz
x,y,z
-x,-y,-z
loop_
_atom_site_type_symbol
_atom_site_label
_atom_site_fract_x
_atom_site_fract_y
_atom_site_fract_z
Si Si1 0.030943 0.868924 0.398821
Si Si2 0.250652 0.252877 0.088081
Si Si3 0.672250 0.619361 0.301393
Si Si4 0.355710 0.772809 0.294472
Si Si5 0.940491 0.935964 0.847254
Si Si6 0.036871 0.280560 0.724994
Si Si7 0.569571 0.912728 0.540081
O O1 0.072414 0.550371 0.530551
O O2 0.816989 0.132918 0.515974
O O3 0.177459 0.045462 0.198303
O O4 0.078480 0.801497 0.299855
O O5 0.087514 0.585590 0.137550
O O6 0.313561 0.082741 0.164660
O O7 0.439122 0.306610 0.842664
O O8 0.500000 0.500000 0.500000
O O9 0.849054 0.326490 0.270729
O O10 0.600476 0.881869 0.324327
O O11 0.767187 0.787441 0.079904
O O12 0.369761 0.471796 0.357223
O O13 0.931061 0.093707 0.864301
O O14 0.236571 0.029596 0.654481
O O15 0.500000 0.000000 0.500000
#
# Coordination Sequence:
#
# PCOD8004289 Si02
#       7
#     2   2   2   2   2   2   2
#     4  11  21  40  67  96 128 167 207 259 319 378
#     4  10  20  37  67  91 125 166 206 263 317 362
#     4  11  25  46  65  87 132 168 211 267 306 377
#     4  10  20  39  63  93 129 159 211 264 310 369
#     4  11  25  43  65  92 126 173 212 251 326 378
#     4  11  21  43  63  94 136 161 208 274 310 373
#     4  12  23  40  67  90 124 171 211 262 316 370
#
# _framework density 22.570861000000001
#
# number of rings (size 3 to 8) (size 9 to 14) (size 15 to 20)
#    0.000    1.143    4.286    3.000    0.000    2.286 
#    0.000    2.143    0.000    0.000    0.000    0.000 
#    0.000    0.000    0.000    0.000    0.000    0.000 
#
# Total GULP energy -173470.814234 kJ/mol
# GULP energy per Si atom -12390.772445 kJ/mol
# Density = 2.251949 g / cm^3
# Si number density = 22.570861 Si / 1000 Ang^3
#
#
#
# Elastic Constant Matrix: (Units=GPa)
#
#
# Indices 1 2 3 4 5 6 
#
# 1 88.0756 13.6372 42.4243 11.0199 -7.1271 -3.7872
# 2 13.6372 75.3540 10.6892 7.9089 -1.5484 2.2659
# 3 42.4243 10.6892 128.8440 14.0487 -28.8227 -5.8413
# 4 11.0199 7.9089 14.0487 27.3061 -0.6515 -6.8507
# 5 -7.1271 -1.5484 -28.8227 -0.6515 25.4780 -3.4102
# 6 -3.7872 2.2659 -5.8413 -6.8507 -3.4102 25.1235
#
#
#
# Elastic Compliance Matrix: (Units=1/GPa)
#
#
# Indices 1 2 3 4 5 6 
#
# 1 0.014011 -0.001641 -0.004426 -0.002859 -0.001222 0.000285
# 2 -0.001641 0.014114 -0.000465 -0.003896 -0.000598 -0.002772
# 3 -0.004426 -0.000465 0.012831 -0.003544 0.013591 0.003236
# 4 -0.002859 -0.003896 -0.003544 0.043318 -0.002524 0.010566
# 5 -0.001222 -0.000598 0.013591 -0.002524 0.055504 0.009876
# 6 0.000285 -0.002772 0.003236 0.010566 0.009876 0.045070
#
#
# Mechanical properties :
#
#
# Convention : Reuss Voigt Hill
#
# Bulk Modulus (GPa) = 35.85433 47.30834 41.58134
# Shear Modulus (GPa) = 24.13004 30.61636 27.37320
#
# Velocity S-wave (km/s) = 3.27323 3.68700 3.48626
# Velocity P-wave (km/s) = 5.49591 6.25546 5.88795
#
# Compressibility (1/GPa) = 0.02789063
#
# Stress axis : x y z
#
# Youngs Moduli (GPa) = 71.37221 70.85313 77.93714
#
# Poissons Ratio (x) = 0.11630 0.34494
# Poissons Ratio (y) = 0.11715 0.03625
# Poissons Ratio (z) = 0.31589 0.03296
#
# Static dielectric constant tensor:
#      x y z
#    x 3.782430 -0.006210 -0.162360 
#    y -0.006210 4.358200 0.213980 
#    z -0.162360 0.213980 4.348710 
# 
# 
# High freq. dielectric constant tensor:
#      x y z
#    x 1.871770 0.004200 -0.015270 
#    y 0.004200 1.891410 0.009710 
#    z -0.015270 0.009710 1.896480 
# 
# From -- ./inp_files/282515.got.cif
#   From: 2010.06.25/outbox.cif.g09.slc.cpg/sg2_142_cif.got.tgz:282515.got - 2010.06.27 13:26:56.
