data_PCOD8004175
_publ_section_title
;
Structure prediction by ZEFSAII (Michael W. Deem and Ramdas Pophale) SiO2 
 PCOD8004175
Probable space group: P -1
;
_chemical_formula_sum "Si O2"
_cell_formula_units_Z 16
_cell_length_a 17.463943
_cell_length_b 11.610648
_cell_length_c 9.012501
_cell_angle_alpha 128.417089
_cell_angle_beta 51.120924
_cell_angle_gamma 150.446158
_cell_volume 688.042220
_symmetry_space_group_name_H-M "P -1"
_symmetry_group_IT_number 2
_symmetry_cell_setting 'triclinic'
loop_
_space_group_symop_operation_xyz
x,y,z
-x,-y,-z
loop_
_atom_site_type_symbol
_atom_site_label
_atom_site_fract_x
_atom_site_fract_y
_atom_site_fract_z
Si Si1 0.298726 0.349827 0.758374
Si Si2 0.929260 0.566734 0.711554
Si Si3 0.188517 0.750575 0.151022
Si Si4 0.435955 0.779494 0.478067
Si Si5 0.029290 0.892495 0.087218
Si Si6 0.429562 0.201783 0.395349
Si Si7 0.722408 0.575441 0.840574
Si Si8 0.890739 0.543020 0.241555
O O1 0.112896 0.164632 0.827483
O O2 0.322230 0.205216 0.593009
O O3 0.395290 0.545896 0.668142
O O4 0.357823 0.471775 0.944824
O O5 0.802402 0.367136 0.831384
O O6 0.837358 0.565859 0.709179
O O7 0.000000 0.500000 0.500000
O O8 0.058057 0.812315 0.850013
O O9 0.020360 0.639362 0.280607
O O10 0.339786 0.030442 0.224281
O O11 0.194212 0.691198 0.931307
O O12 0.552197 0.888731 0.562502
O O13 0.429495 0.642504 0.253234
O O14 0.251497 0.554069 0.572317
O O15 0.500000 0.000000 0.500000
O O16 0.986571 0.762826 0.189627
O O17 0.183811 0.175913 0.145650
#
# Coordination Sequence:
#
# PCOD8004175 Si02
#       8
#     2   2   2   2   2   2   2   2
#     4  10  23  44  66 100 137 179 235 275 345 414
#     4  10  20  37  65 103 135 170 225 284 341 399
#     4  10  23  40  70  99 132 185 226 285 338 409
#     4  12  27  46  66 103 138 183 227 285 347 409
#     4  10  22  43  70 100 137 178 231 288 341 404
#     4  11  25  43  70  96 138 188 226 279 346 412
#     4  11  25  43  71 101 139 183 228 290 342 403
#     4  10  23  46  67 102 136 175 236 280 343 409
#
# _framework density 23.254389
#
# number of rings (size 3 to 8) (size 9 to 14) (size 15 to 20)
#    0.000    1.500    1.250    3.000    7.000    3.500 
#    4.500    0.000    0.000    0.000    0.000    0.000 
#    0.000    0.000    0.000    0.000    0.000    0.000 
#
# Total GULP energy -198319.781732 kJ/mol
# GULP energy per Si atom -12394.986358 kJ/mol
# Density = 2.320146 g / cm^3
# Si number density = 23.254389 Si / 1000 Ang^3
#
#
#
# Elastic Constant Matrix: (Units=GPa)
#
#
# Indices 1 2 3 4 5 6 
#
# 1 93.0076 41.7543 21.1050 11.6345 13.8766 -15.0579
# 2 41.7543 94.0478 40.0018 24.3614 5.8698 -11.5626
# 3 21.1050 40.0018 78.8971 16.9109 1.4980 -7.3379
# 4 11.6345 24.3614 16.9109 35.5620 2.1954 8.2537
# 5 13.8766 5.8698 1.4980 2.1954 33.0043 7.2753
# 6 -15.0579 -11.5626 -7.3379 8.2537 7.2753 30.5205
#
#
#
# Elastic Compliance Matrix: (Units=1/GPa)
#
#
# Indices 1 2 3 4 5 6 
#
# 1 0.015801 -0.004415 -0.000248 -0.003612 -0.007556 0.008841
# 2 -0.004415 0.018423 -0.005338 -0.010073 -0.001988 0.006716
# 3 -0.000248 -0.005338 0.016831 -0.005022 -0.000100 0.003284
# 4 -0.003612 -0.010073 -0.005022 0.042826 0.005006 -0.019581
# 5 -0.007556 -0.001988 -0.000100 0.005006 0.036722 -0.014612
# 6 0.008841 0.006716 0.003284 -0.019581 -0.014612 0.049239
#
#
# Mechanical properties :
#
#
# Convention : Reuss Voigt Hill
#
# Bulk Modulus (GPa) = 32.20404 52.40830 42.30617
# Shear Modulus (GPa) = 23.78745 30.69012 27.23879
#
# Velocity S-wave (km/s) = 3.20179 3.63679 3.42620
# Velocity P-wave (km/s) = 5.24855 6.34199 5.82100
#
# Compressibility (1/GPa) = 0.03105200
#
# Stress axis : x y z
#
# Youngs Moduli (GPa) = 63.28783 54.28132 59.41334
#
# Poissons Ratio (x) = 0.23967 0.01474
# Poissons Ratio (y) = 0.27943 0.31714
# Poissons Ratio (z) = 0.01570 0.28975
#
# Static dielectric constant tensor:
#      x y z
#    x 4.145680 -0.138680 0.085210 
#    y -0.138680 3.909040 0.178830 
#    z 0.085210 0.178830 4.394910 
# 
# 
# High freq. dielectric constant tensor:
#      x y z
#    x 1.915300 -0.015530 0.010570 
#    y -0.015530 1.908070 0.008850 
#    z 0.010570 0.008850 1.928820 
# 
# From -- ./inp_files/332945.got.cif
#   From: 2010.06.25/outbox.cif.g09.slc.cpg/sg2_167_cif.got.tgz:332945.got - 2010.06.27 13:26:56.
