data_PCOD8004050
_publ_section_title
;
Structure prediction by ZEFSAII (Michael W. Deem and Ramdas Pophale) SiO2 
 PCOD8004050
Probable space group: P -1
;
_chemical_formula_sum "Si O2"
_cell_formula_units_Z 12
_cell_length_a 8.797994
_cell_length_b 17.221019
_cell_length_c 5.000667
_cell_angle_alpha 108.185528
_cell_angle_beta 106.603997
_cell_angle_gamma 50.787733
_cell_volume 553.673809
_symmetry_space_group_name_H-M "P -1"
_symmetry_group_IT_number 2
_symmetry_cell_setting 'triclinic'
loop_
_space_group_symop_operation_xyz
x,y,z
-x,-y,-z
loop_
_atom_site_type_symbol
_atom_site_label
_atom_site_fract_x
_atom_site_fract_y
_atom_site_fract_z
Si Si1 0.796571 0.521377 0.999488
Si Si2 0.503156 0.844868 0.699711
Si Si3 0.443520 0.358219 0.496030
Si Si4 0.646639 0.023141 0.706727
Si Si5 0.088065 0.198008 0.287652
Si Si6 0.152872 0.680919 0.195028
O O1 0.645787 0.570363 0.730236
O O2 0.830464 0.417915 0.992157
O O3 0.711745 0.596093 0.290779
O O4 0.000000 0.500000 0.000000
O O5 0.498802 0.751425 0.671143
O O6 0.430162 0.918698 0.992392
O O7 0.723640 0.805027 0.695613
O O8 0.350915 0.906942 0.442618
O O9 0.633421 0.350220 0.668367
O O10 0.856710 0.913673 0.739114
O O11 0.500000 0.000000 0.500000
O O12 0.989625 0.269747 0.570438
O O13 0.936288 0.241222 0.012884
#
# Coordination Sequence:
#
# PCOD8004050 Si02
#       6
#     2   2   2   2   2   2
#     4  12  24  43  66  90 117 159 206 249 293 357
#     4  11  21  39  63  90 120 159 205 252 295 349
#     4  12  25  42  61  91 126 158 195 249 307 358
#     4  10  20  37  63  92 119 156 205 255 294 342
#     4  11  21  39  62  89 118 159 206 247 293 358
#     4  12  24  40  61  90 125 161 196 246 306 360
#
# _framework density 21.673414000000001
#
# number of rings (size 3 to 8) (size 9 to 14) (size 15 to 20)
#    0.000    0.667    0.000   11.500    0.000    0.000 
#    0.000    5.000    0.000    0.000    0.000    0.000 
#    0.000    0.000    0.000    0.000    0.000    0.000 
#
# Total GULP energy -148871.708042 kJ/mol
# GULP energy per Si atom -12405.975670 kJ/mol
# Density = 2.162408 g / cm^3
# Si number density = 21.673414 Si / 1000 Ang^3
#
#
#
# Elastic Constant Matrix: (Units=GPa)
#
#
# Indices 1 2 3 4 5 6 
#
# 1 37.1448 23.4745 -4.0527 15.8120 -3.1398 7.2558
# 2 23.4745 142.8986 48.0036 -12.3131 4.3937 -6.8848
# 3 -4.0527 48.0036 104.6491 -6.7867 -25.4336 -2.8082
# 4 15.8120 -12.3131 -6.7867 49.8969 4.3106 1.2911
# 5 -3.1398 4.3937 -25.4336 4.3106 31.5872 -3.1530
# 6 7.2558 -6.8848 -2.8082 1.2911 -3.1530 11.6656
#
#
#
# Elastic Compliance Matrix: (Units=1/GPa)
#
#
# Indices 1 2 3 4 5 6 
#
# 1 0.056629 -0.017391 0.011978 -0.021155 0.017020 -0.035661
# 2 -0.017391 0.014636 -0.009139 0.008480 -0.010947 0.013357
# 3 0.011978 -0.009139 0.018008 -0.005013 0.017319 -0.003273
# 4 -0.021155 0.008480 -0.005013 0.028747 -0.010140 0.011034
# 5 0.017020 -0.010947 0.017319 -0.010140 0.050388 0.001863
# 6 -0.035661 0.013357 -0.003273 0.011034 0.001863 0.114281
#
#
# Mechanical properties :
#
#
# Convention : Reuss Voigt Hill
#
# Bulk Modulus (GPa) = 16.61991 46.61590 31.61791
# Shear Modulus (GPa) = 15.06711 33.11441 24.09076
#
# Velocity S-wave (km/s) = 2.63950 3.91305 3.33759
# Velocity P-wave (km/s) = 4.11999 6.47850 5.42887
#
# Compressibility (1/GPa) = 0.06016880
#
# Stress axis : x y z
#
# Youngs Moduli (GPa) = 17.65874 68.32595 55.53052
#
# Poissons Ratio (x) = 1.18824 -0.66514
# Poissons Ratio (y) = 0.30710 0.50751
# Poissons Ratio (z) = -0.21151 0.62445
#
# Static dielectric constant tensor:
#      x y z
#    x 3.565460 -0.125330 -0.116550 
#    y -0.125330 4.433930 -0.161490 
#    z -0.116550 -0.161490 4.064190 
# 
# 
# High freq. dielectric constant tensor:
#      x y z
#    x 1.829590 0.000090 -0.011720 
#    y 0.000090 1.877790 -0.003670 
#    z -0.011720 -0.003670 1.870090 
# 
# From -- ./inp_files/42695.got.cif
#   From: 2010.06.25/outbox.cif.g09.slc.cpg/sg2_22_cif.got.tgz:42695.got - 2010.06.27 13:26:56.
