data_PCOD8004788
_publ_section_title
;
Structure prediction by ZEFSAII (Michael W. Deem and Ramdas Pophale) SiO2 
 PCOD8004788
Probable space group: P -1
;
_chemical_formula_sum "Si O2"
_cell_formula_units_Z 16
_cell_length_a 14.156202
_cell_length_b 15.065034
_cell_length_c 14.071722
_cell_angle_alpha 152.267034
_cell_angle_beta 30.001886
_cell_angle_gamma 145.453709
_cell_volume 676.914052
_symmetry_space_group_name_H-M "P -1"
_symmetry_group_IT_number 2
_symmetry_cell_setting 'triclinic'
loop_
_space_group_symop_operation_xyz
x,y,z
-x,-y,-z
loop_
_atom_site_type_symbol
_atom_site_label
_atom_site_fract_x
_atom_site_fract_y
_atom_site_fract_z
Si Si1 0.558180 0.130057 0.813100
Si Si2 0.732650 0.503770 0.365246
Si Si3 0.602706 0.315519 0.663365
Si Si4 0.490928 0.789724 0.852315
Si Si5 0.907260 0.629110 0.772845
Si Si6 0.877038 0.498765 0.878442
Si Si7 0.271240 0.053395 0.822865
Si Si8 0.557653 0.689016 0.399264
O O1 0.743255 0.289661 0.760725
O O2 0.367875 0.115328 0.899999
O O3 0.616200 0.924495 0.573001
O O4 0.514852 0.206574 0.025934
O O5 0.682441 0.712718 0.583734
O O6 0.701125 0.365424 0.167972
O O7 0.577064 0.390856 0.470560
O O8 0.952254 0.541636 0.243750
O O9 0.677445 0.502649 0.845331
O O10 0.417802 0.150588 0.703058
O O11 0.556096 0.396675 0.679096
O O12 0.771658 0.187264 0.376672
O O13 0.500000 0.000000 0.000000
O O14 0.970467 0.625008 0.823731
O O15 0.000000 0.500000 0.500000
O O16 0.916402 0.852946 0.941567
O O17 0.757927 0.619393 0.160562
#
# Coordination Sequence:
#
# PCOD8004788 Si02
#       8
#     2   2   2   2   2   2   2   2
#     4  11  23  42  71  95 133 182 223 271 334 389
#     4  11  26  45  71 100 133 169 221 281 339 392
#     4  10  20  38  62  88 128 173 217 252 312 382
#     4  11  24  48  72  96 131 173 222 280 341 398
#     4  12  24  37  61  96 138 174 213 264 325 387
#     4  12  25  42  67 105 135 170 224 276 325 401
#     4  10  21  38  62  92 125 174 216 258 307 387
#     4  11  22  44  69  97 136 179 219 272 329 391
#
# _framework density 23.636679999999998
#
# number of rings (size 3 to 8) (size 9 to 14) (size 15 to 20)
#    0.000    1.000    5.000    1.875    1.750    2.000 
#    0.000    1.250    0.000    0.000    0.000    0.000 
#    0.000    0.000    0.000    0.000    0.000    0.000 
#
# Total GULP energy -198405.113741 kJ/mol
# GULP energy per Si atom -12400.319609 kJ/mol
# Density = 2.358288 g / cm^3
# Si number density = 23.636680 Si / 1000 Ang^3
#
#
#
# Elastic Constant Matrix: (Units=GPa)
#
#
# Indices 1 2 3 4 5 6 
#
# 1 100.2219 2.8828 13.1052 17.7038 0.0254 -8.8171
# 2 2.8828 60.0568 25.2824 29.4725 -1.9144 -10.2948
# 3 13.1052 25.2824 104.5591 27.4701 -19.5452 -0.5080
# 4 17.7038 29.4725 27.4701 44.7564 -4.1965 7.8696
# 5 0.0254 -1.9144 -19.5452 -4.1965 49.6698 2.0314
# 6 -8.8171 -10.2948 -0.5080 7.8696 2.0314 30.6833
#
#
#
# Elastic Compliance Matrix: (Units=1/GPa)
#
#
# Indices 1 2 3 4 5 6 
#
# 1 0.012360 0.005893 -0.000528 -0.009990 -0.001164 0.008159
# 2 0.005893 0.034023 -0.002231 -0.027173 -0.002692 0.020219
# 3 -0.000528 -0.002231 0.012464 -0.005649 0.004322 0.000469
# 4 -0.009990 -0.027173 -0.005649 0.052375 0.002209 -0.025661
# 5 -0.001164 -0.002692 0.004322 0.002209 0.022048 -0.003193
# 6 0.008159 0.020219 0.000469 -0.025661 -0.003193 0.048520
#
#
# Mechanical properties :
#
#
# Convention : Reuss Voigt Hill
#
# Bulk Modulus (GPa) = 15.35761 38.59763 26.97762
# Shear Modulus (GPa) = 25.35154 39.92640 32.63897
#
# Velocity S-wave (km/s) = 3.27854 4.11441 3.72003
# Velocity P-wave (km/s) = 4.56543 6.23989 5.46715
#
# Compressibility (1/GPa) = 0.06511430
#
# Stress axis : x y z
#
# Youngs Moduli (GPa) = 80.90556 29.39231 80.23072
#
# Poissons Ratio (x) = -0.17320 0.04233
# Poissons Ratio (y) = -0.47675 0.17901
# Poissons Ratio (z) = 0.04268 0.06558
#
# Static dielectric constant tensor:
#      x y z
#    x 4.537890 0.238530 -0.172820 
#    y 0.238530 4.857340 0.218430 
#    z -0.172820 0.218430 4.678380 
# 
# 
# High freq. dielectric constant tensor:
#      x y z
#    x 1.939050 -0.005080 -0.004540 
#    y -0.005080 1.939690 0.017700 
#    z -0.004540 0.017700 1.958250 
# 
# From -- ./inp_files/533894.got.cif
#   From: 2010.06.25/outbox.cif.g09.slc.cpg/sg2_267_cif.got.tgz:533894.got - 2010.06.27 13:26:56.
