data_PCOD8004468
_publ_section_title
;
Structure prediction by ZEFSAII (Michael W. Deem and Ramdas Pophale) SiO2 
 PCOD8004468
Probable space group: P -1
;
_chemical_formula_sum "Si O2"
_cell_formula_units_Z 16
_cell_length_a 21.200490
_cell_length_b 9.451085
_cell_length_c 11.019509
_cell_angle_alpha 89.918487
_cell_angle_beta 129.089328
_cell_angle_gamma 132.819441
_cell_volume 831.049937
_symmetry_space_group_name_H-M "P -1"
_symmetry_group_IT_number 2
_symmetry_cell_setting 'triclinic'
loop_
_space_group_symop_operation_xyz
x,y,z
-x,-y,-z
loop_
_atom_site_type_symbol
_atom_site_label
_atom_site_fract_x
_atom_site_fract_y
_atom_site_fract_z
Si Si1 0.397022 0.118754 0.091048
Si Si2 0.942301 0.074326 0.073332
Si Si3 0.178485 0.854348 0.617727
Si Si4 0.349412 0.177965 0.366628
Si Si5 0.066826 0.751483 0.728818
Si Si6 0.631067 0.096643 0.720846
Si Si7 0.077440 0.264943 0.987255
Si Si8 0.712794 0.794509 0.464555
O O1 0.575970 0.462952 0.291226
O O2 0.419091 0.010720 0.199316
O O3 0.315731 0.968717 0.859215
O O4 0.260615 0.007740 0.001506
O O5 0.999897 0.212286 0.278340
O O6 0.855484 0.787442 0.974612
O O7 0.089104 0.290574 0.149078
O O8 0.822489 0.017823 0.887729
O O9 0.066953 0.773486 0.581932
O O10 0.058026 0.569826 0.392914
O O11 0.274783 0.110765 0.649834
O O12 0.500000 0.500000 0.500000
O O13 0.346358 0.180107 0.509306
O O14 0.368531 0.044719 0.356326
O O15 0.500000 0.000000 0.500000
O O16 0.813255 0.446331 0.940829
O O17 0.887072 0.987313 0.711936
#
# Coordination Sequence:
#
# PCOD8004468 Si02
#       8
#     2   2   2   2   2   2   2   2
#     4  10  20  38  59  84 119 155 195 245 291 347
#     4  10  20  39  58  85 123 156 194 246 295 357
#     4   9  20  36  61  92 110 157 209 246 285 347
#     4  11  20  36  60  90 118 155 198 241 303 358
#     4   9  18  36  65  82 118 151 207 239 291 341
#     4  12  24  38  61  88 123 155 192 247 305 355
#     4  10  25  35  59  90 125 152 195 243 310 349
#     4  11  21  35  63  87 123 152 201 247 293 354
#
# _framework density 19.252752999999998
#
# number of rings (size 3 to 8) (size 9 to 14) (size 15 to 20)
#    0.750    1.000    2.500    1.875    5.250    1.000 
#    0.000    0.625    0.000    1.500    0.000    0.000 
#    0.000    0.000    0.000    0.000    0.000    0.000 
#
# Total GULP energy -198253.007467 kJ/mol
# GULP energy per Si atom -12390.812967 kJ/mol
# Density = 1.920893 g / cm^3
# Si number density = 19.252753 Si / 1000 Ang^3
#
#
#
# Elastic Constant Matrix: (Units=GPa)
#
#
# Indices 1 2 3 4 5 6 
#
# 1 110.5467 50.8486 29.2911 1.7221 -17.5927 -11.9771
# 2 50.8486 161.8608 48.3090 14.2179 -6.6683 5.8041
# 3 29.2911 48.3090 82.9989 15.2150 2.6234 -0.2553
# 4 1.7221 14.2179 15.2150 42.1603 -0.8110 -1.8442
# 5 -17.5927 -6.6683 2.6234 -0.8110 24.2028 -2.8403
# 6 -11.9771 5.8041 -0.2553 -1.8442 -2.8403 30.8873
#
#
#
# Elastic Compliance Matrix: (Units=1/GPa)
#
#
# Indices 1 2 3 4 5 6 
#
# 1 0.013980 -0.003299 -0.003769 0.002417 0.010579 0.007127
# 2 -0.003299 0.008504 -0.003498 -0.001604 -0.000083 -0.003010
# 3 -0.003769 -0.003498 0.016472 -0.004788 -0.005824 -0.001490
# 4 0.002417 -0.001604 -0.004788 0.026081 0.003064 0.003038
# 5 0.010579 -0.000083 -0.005824 0.003064 0.050765 0.008921
# 6 0.007127 -0.003010 -0.001490 0.003038 0.008921 0.036694
#
#
# Mechanical properties :
#
#
# Convention : Reuss Voigt Hill
#
# Bulk Modulus (GPa) = 56.10544 68.03377 62.06961
# Shear Modulus (GPa) = 27.84434 34.58061 31.21248
#
# Velocity S-wave (km/s) = 3.80709 4.24268 4.03078
# Velocity P-wave (km/s) = 6.96635 7.70807 7.34658
#
# Compressibility (1/GPa) = 0.01782358
#
# Stress axis : x y z
#
# Youngs Moduli (GPa) = 71.53000 117.59244 60.71006
#
# Poissons Ratio (x) = 0.38794 0.22882
# Poissons Ratio (y) = 0.23598 0.21237
# Poissons Ratio (z) = 0.26960 0.41134
#
# Static dielectric constant tensor:
#      x y z
#    x 3.632680 0.154200 -0.151790 
#    y 0.154200 3.629590 0.009870 
#    z -0.151790 0.009870 3.462770 
# 
# 
# High freq. dielectric constant tensor:
#      x y z
#    x 1.729950 0.014180 -0.010910 
#    y 0.014180 1.749990 0.008270 
#    z -0.010910 0.008270 1.743230 
# 
# From -- ./inp_files/469416.got.cif
#   From: 2010.06.25/outbox.cif.g09.slc.cpg/sg2_235_cif.got.tgz:469416.got - 2010.06.27 13:26:56.
