data_PCOD8004203
_publ_section_title
;
Structure prediction by ZEFSAII (Michael W. Deem and Ramdas Pophale) SiO2 
 PCOD8004203
Probable space group: P -1
;
_chemical_formula_sum "Si O2"
_cell_formula_units_Z 14
_cell_length_a 14.517458
_cell_length_b 14.253740
_cell_length_c 14.238788
_cell_angle_alpha 39.453748
_cell_angle_beta 38.698828
_cell_angle_gamma 19.861252
_cell_volume 615.706864
_symmetry_space_group_name_H-M "P -1"
_symmetry_group_IT_number 2
_symmetry_cell_setting 'triclinic'
loop_
_space_group_symop_operation_xyz
x,y,z
-x,-y,-z
loop_
_atom_site_type_symbol
_atom_site_label
_atom_site_fract_x
_atom_site_fract_y
_atom_site_fract_z
Si Si1 0.273366 0.854814 0.083523
Si Si2 0.014170 0.120867 0.822671
Si Si3 0.144192 0.719678 0.594265
Si Si4 0.014825 0.341326 0.392245
Si Si5 0.580836 0.201893 0.404060
Si Si6 0.569381 0.486648 0.300466
Si Si7 0.133934 0.575400 0.125642
O O1 0.534111 0.695010 0.940851
O O2 0.015191 0.186354 0.014383
O O3 0.202735 0.745896 0.190131
O O4 0.359859 0.773254 0.188157
O O5 0.930699 0.336901 0.780865
O O6 0.323380 0.884785 0.714657
O O7 0.000000 0.000000 0.000000
O O8 0.971841 0.741673 0.658833
O O9 0.419149 0.504608 0.478782
O O10 0.216594 0.603137 0.733852
O O11 0.000000 0.000000 0.500000
O O12 0.751755 0.521656 0.528634
O O13 0.027557 0.504197 0.241209
O O14 0.287305 0.051555 0.453152
O O15 0.715814 0.243462 0.301655
#
# Coordination Sequence:
#
# PCOD8004203 Si02
#       7
#     2   2   2   2   2   2   2
#     4  11  23  41  65  90 126 166 212 256 304 368
#     4  10  22  40  65  94 123 164 214 255 303 366
#     4  10  20  37  65  92 120 159 205 262 311 364
#     4  11  24  42  61  92 132 162 207 251 316 375
#     4  11  22  38  64  93 125 161 205 262 306 362
#     4  10  21  37  62  97 118 155 211 264 307 358
#     4  11  25  42  62  89 130 174 202 254 310 366
#
# _framework density 22.738092999999999
#
# number of rings (size 3 to 8) (size 9 to 14) (size 15 to 20)
#    0.000    1.429    1.429    4.714    2.000    4.571 
#    0.000    1.429    0.000    0.000    0.000    0.000 
#    0.000    0.000    0.000    0.000    0.000    0.000 
#
# Total GULP energy -173500.248622 kJ/mol
# GULP energy per Si atom -12392.874902 kJ/mol
# Density = 2.268634 g / cm^3
# Si number density = 22.738093 Si / 1000 Ang^3
#
#
#
# Elastic Constant Matrix: (Units=GPa)
#
#
# Indices 1 2 3 4 5 6 
#
# 1 115.8615 17.3653 35.6848 -11.7713 -10.1158 12.9890
# 2 17.3653 58.8021 8.2504 -6.3814 -7.2274 -0.9404
# 3 35.6848 8.2504 67.6601 -15.2343 -6.4175 4.6198
# 4 -11.7713 -6.3814 -15.2343 31.1907 0.0417 2.4509
# 5 -10.1158 -7.2274 -6.4175 0.0417 39.4948 -9.2007
# 6 12.9890 -0.9404 4.6198 2.4509 -9.2007 27.7464
#
#
#
# Elastic Compliance Matrix: (Units=1/GPa)
#
#
# Indices 1 2 3 4 5 6 
#
# 1 0.011227 -0.002445 -0.004877 0.001706 0.000590 -0.004482
# 2 -0.002445 0.018492 -0.000267 0.002513 0.003341 0.002702
# 3 -0.004877 -0.000267 0.019327 0.007628 0.001580 -0.001094
# 4 0.001706 0.002513 0.007628 0.037334 0.000939 -0.004970
# 5 0.000590 0.003341 0.001580 0.000939 0.028414 0.008913
# 6 -0.004482 0.002702 -0.001094 -0.004970 0.008913 0.041807
#
#
# Mechanical properties :
#
#
# Convention : Reuss Voigt Hill
#
# Bulk Modulus (GPa) = 29.52677 40.54718 35.03698
# Shear Modulus (GPa) = 27.31216 31.75461 29.53339
#
# Velocity S-wave (km/s) = 3.46954 3.74108 3.60787
# Velocity P-wave (km/s) = 5.39111 6.04416 5.72695
#
# Compressibility (1/GPa) = 0.03386757
#
# Stress axis : x y z
#
# Youngs Moduli (GPa) = 89.07257 54.07626 51.74232
#
# Poissons Ratio (x) = 0.13223 0.25234
# Poissons Ratio (y) = 0.21780 0.01381
# Poissons Ratio (z) = 0.43440 0.01444
#
# Static dielectric constant tensor:
#      x y z
#    x 5.051000 0.187150 0.528040 
#    y 0.187150 4.109160 0.168540 
#    z 0.528040 0.168540 3.945840 
# 
# 
# High freq. dielectric constant tensor:
#      x y z
#    x 1.895130 0.001860 0.025930 
#    y 0.001860 1.903040 0.002930 
#    z 0.025930 0.002930 1.873980 
# 
# From -- ./inp_files/485332.got.cif
#   From: 2010.06.25/outbox.cif.g09.slc.cpg/sg2_243_cif.got.tgz:485332.got - 2010.06.27 13:26:56.
