data_PCOD8004854
_publ_section_title
;
Structure prediction by ZEFSAII (Michael W. Deem and Ramdas Pophale) SiO2 
 PCOD8004854
Probable space group: P -1
;
_chemical_formula_sum "Si O2"
_cell_formula_units_Z 16
_cell_length_a 14.518080
_cell_length_b 8.046316
_cell_length_c 15.036768
_cell_angle_alpha 62.350798
_cell_angle_beta 40.071308
_cell_angle_gamma 41.749860
_cell_volume 729.180273
_symmetry_space_group_name_H-M "P -1"
_symmetry_group_IT_number 2
_symmetry_cell_setting 'triclinic'
loop_
_space_group_symop_operation_xyz
x,y,z
-x,-y,-z
loop_
_atom_site_type_symbol
_atom_site_label
_atom_site_fract_x
_atom_site_fract_y
_atom_site_fract_z
Si Si1 0.127216 0.117676 0.049748
Si Si2 0.083223 0.128567 0.883100
Si Si3 0.651738 0.123436 0.416029
Si Si4 0.039512 0.414336 0.592568
Si Si5 0.993953 0.838653 0.612674
Si Si6 0.788763 0.392780 0.894476
Si Si7 0.245634 0.584924 0.651592
Si Si8 0.607505 0.084972 0.936744
O O1 0.128154 0.889776 0.112460
O O2 0.307852 0.031418 0.997566
O O3 0.920339 0.379451 0.178239
O O4 0.140935 0.175233 0.922728
O O5 0.900520 0.385934 0.899912
O O6 0.275680 0.965646 0.717661
O O7 0.000000 0.000000 0.000000
O O8 0.419263 0.289009 0.562038
O O9 0.671695 0.325841 0.369949
O O10 0.770884 0.886991 0.455639
O O11 0.076071 0.572396 0.578965
O O12 0.000000 0.500000 0.500000
O O13 0.845338 0.476040 0.750265
O O14 0.137517 0.774707 0.600537
O O15 0.000000 0.000000 0.500000
O O16 0.773286 0.007191 0.767392
O O17 0.553675 0.602963 0.022692
O O18 0.500000 0.000000 0.000000
#
# Coordination Sequence:
#
# PCOD8004854 Si02
#       8
#     2   2   2   2   2   2   2   2
#     4  10  20  39  66  94 129 168 219 265 324 394
#     4   9  17  35  61  95 121 164 214 265 319 387
#     4  10  20  38  66  89 131 172 215 266 332 394
#     4  11  22  41  64  88 134 169 221 273 328 384
#     4  11  25  41  65  94 131 172 224 275 329 390
#     4  10  20  40  65  93 126 175 213 271 328 393
#     4  10  20  38  62  94 129 167 217 264 332 390
#     4  11  23  42  64  93 132 169 216 273 328 384
#
# _framework density 21.942446
#
# number of rings (size 3 to 8) (size 9 to 14) (size 15 to 20)
#    0.000    1.750    5.000    1.125    1.750    2.500 
#    4.500    0.625    0.000    0.000    0.000    0.000 
#    0.000    0.000    0.000    0.000    0.000    0.000 
#
# Total GULP energy -198291.838897 kJ/mol
# GULP energy per Si atom -12393.239931 kJ/mol
# Density = 2.189250 g / cm^3
# Si number density = 21.942446 Si / 1000 Ang^3
#
#
#
# Elastic Constant Matrix: (Units=GPa)
#
#
# Indices 1 2 3 4 5 6 
#
# 1 124.4382 22.4991 64.5263 5.5563 18.2318 -27.2077
# 2 22.4991 91.3248 74.0090 21.5992 3.5339 -21.9499
# 3 64.5263 74.0090 135.4634 20.9432 23.9736 -29.9631
# 4 5.5563 21.5992 20.9432 48.4809 -6.1035 -7.5688
# 5 18.2318 3.5339 23.9736 -6.1035 38.2402 -8.1719
# 6 -27.2077 -21.9499 -29.9631 -7.5688 -8.1719 31.3022
#
#
#
# Elastic Compliance Matrix: (Units=1/GPa)
#
#
# Indices 1 2 3 4 5 6 
#
# 1 0.012242 0.003602 -0.006198 0.000723 -0.000620 0.007246
# 2 0.003602 0.023015 -0.013143 -0.003153 0.005463 0.007353
# 3 -0.006198 -0.013143 0.019741 -0.002788 -0.008343 0.001441
# 4 0.000723 -0.003153 -0.002788 0.024464 0.006306 0.003311
# 5 -0.000620 0.005463 -0.008343 0.006306 0.033362 0.005541
# 6 0.007246 0.007353 0.001441 0.003311 0.005541 0.047027
#
#
# Mechanical properties :
#
#
# Convention : Reuss Voigt Hill
#
# Bulk Modulus (GPa) = 42.51832 74.81059 58.66446
# Shear Modulus (GPa) = 25.10432 36.28413 30.69423
#
# Velocity S-wave (km/s) = 3.38612 4.07087 3.74418
# Velocity P-wave (km/s) = 5.89127 7.50093 6.74429
#
# Compressibility (1/GPa) = 0.02351927
#
# Stress axis : x y z
#
# Youngs Moduli (GPa) = 81.68712 43.45033 50.65544
#
# Poissons Ratio (x) = -0.15650 0.31399
# Poissons Ratio (y) = -0.29421 0.66574
# Poissons Ratio (z) = 0.50633 0.57105
#
# Static dielectric constant tensor:
#      x y z
#    x 4.281620 -0.242370 0.103080 
#    y -0.242370 4.094760 0.392160 
#    z 0.103080 0.392160 4.335520 
# 
# 
# High freq. dielectric constant tensor:
#      x y z
#    x 1.866960 -0.005530 0.007440 
#    y -0.005530 1.858180 0.010950 
#    z 0.007440 0.010950 1.857870 
# 
# From -- ./inp_files/528248.got.cif
#   From: 2010.06.25/outbox.cif.g09.slc.cpg/sg2_265_cif.got.tgz:528248.got - 2010.06.27 13:26:56.
