data_PCOD8004875
_publ_section_title
;
Structure prediction by ZEFSAII (Michael W. Deem and Ramdas Pophale) SiO2 
 PCOD8004875
Probable space group: P -1
;
_chemical_formula_sum "Si O2"
_cell_formula_units_Z 12
_cell_length_a 9.215710
_cell_length_b 14.775612
_cell_length_c 5.685708
_cell_angle_alpha 118.940090
_cell_angle_beta 122.951593
_cell_angle_gamma 52.967800
_cell_volume 504.308437
_symmetry_space_group_name_H-M "P -1"
_symmetry_group_IT_number 2
_symmetry_cell_setting 'triclinic'
loop_
_space_group_symop_operation_xyz
x,y,z
-x,-y,-z
loop_
_atom_site_type_symbol
_atom_site_label
_atom_site_fract_x
_atom_site_fract_y
_atom_site_fract_z
Si Si1 0.027935 0.595687 0.404450
Si Si2 0.686738 0.555470 0.170436
Si Si3 0.995973 0.189408 0.090320
Si Si4 0.626691 0.237566 0.072012
Si Si5 0.749633 0.344853 0.693385
Si Si6 0.414405 0.983277 0.154509
O O1 0.214782 0.482686 0.535075
O O2 0.088952 0.630140 0.260401
O O3 0.849005 0.567521 0.163163
O O4 0.957672 0.705618 0.660761
O O5 0.495678 0.682462 0.158475
O O6 0.630235 0.456075 0.898167
O O7 0.857241 0.169908 0.133144
O O8 0.187235 0.070346 0.067622
O O9 0.873417 0.223883 0.785467
O O10 0.596072 0.329466 0.370022
O O11 0.548291 0.149342 0.976362
O O12 0.500000 0.000000 0.500000
O O13 0.500000 0.000000 0.000000
#
# Coordination Sequence:
#
# PCOD8004875 Si02
#       6
#     2   2   2   2   2   2
#     4   9  20  39  64  97 142 181 231 287 340 421
#     4  10  20  38  63 101 138 185 229 283 350 416
#     4  10  24  44  69  98 142 180 232 290 358 413
#     4  11  25  42  69 100 143 180 234 291 357 420
#     4  10  22  38  66 100 139 183 224 289 349 424
#     4  12  30  51  77 104 136 187 243 298 351 422
#
# _framework density 23.794958000000001
#
# number of rings (size 3 to 8) (size 9 to 14) (size 15 to 20)
#    0.000    1.667    0.000    2.500    9.333    8.000 
#    0.000    0.000    0.000    0.000    0.000    0.000 
#    0.000    0.000    0.000    0.000    0.000    0.000 
#
# Total GULP energy -148755.916107 kJ/mol
# GULP energy per Si atom -12396.326342 kJ/mol
# Density = 2.374080 g / cm^3
# Si number density = 23.794958 Si / 1000 Ang^3
#
#
#
# Elastic Constant Matrix: (Units=GPa)
#
#
# Indices 1 2 3 4 5 6 
#
# 1 85.6095 40.1102 34.0960 5.0961 -1.7490 6.3491
# 2 40.1102 138.3803 29.0090 -8.4502 5.2251 -4.1300
# 3 34.0960 29.0090 97.4424 1.3102 4.8178 4.6355
# 4 5.0961 -8.4502 1.3102 28.5523 6.2980 6.7419
# 5 -1.7490 5.2251 4.8178 6.2980 35.0361 1.9929
# 6 6.3491 -4.1300 4.6355 6.7419 1.9929 48.1414
#
#
#
# Elastic Compliance Matrix: (Units=1/GPa)
#
#
# Indices 1 2 3 4 5 6 
#
# 1 0.015705 -0.004050 -0.004299 -0.004055 0.002796 -0.001553
# 2 -0.004050 0.008996 -0.001255 0.003667 -0.002087 0.001000
# 3 -0.004299 -0.001255 0.012255 0.000384 -0.001742 -0.000702
# 4 -0.004055 0.003667 0.000384 0.039545 -0.007660 -0.004409
# 5 0.002796 -0.002087 -0.001742 -0.007660 0.030642 -0.000576
# 6 -0.001553 0.001000 -0.000702 -0.004409 -0.000576 0.021772
#
#
# Mechanical properties :
#
#
# Convention : Reuss Voigt Hill
#
# Bulk Modulus (GPa) = 56.34756 58.65141 57.49949
# Shear Modulus (GPa) = 32.45948 36.89376 34.67662
#
# Velocity S-wave (km/s) = 3.69742 3.94189 3.82161
# Velocity P-wave (km/s) = 6.47764 6.73945 6.60984
#
# Compressibility (1/GPa) = 0.01774700
#
# Stress axis : x y z
#
# Youngs Moduli (GPa) = 63.67587 111.15978 81.60151
#
# Poissons Ratio (x) = 0.45023 0.35083
# Poissons Ratio (y) = 0.25791 0.10238
# Poissons Ratio (z) = 0.27376 0.13946
#
# Static dielectric constant tensor:
#      x y z
#    x 4.248340 0.182730 0.035520 
#    y 0.182730 4.185810 -0.097580 
#    z 0.035520 -0.097580 4.316830 
# 
# 
# High freq. dielectric constant tensor:
#      x y z
#    x 1.951490 0.011640 0.003790 
#    y 0.011640 1.938750 -0.009500 
#    z 0.003790 -0.009500 1.938080 
# 
# From -- ./inp_files/28636.got.cif
#   From: 2010.06.25/outbox.cif.g09.slc.cpg/sg2_15_cif.got.tgz:28636.got - 2010.06.27 13:26:56.
