data_PCOD8004367
_publ_section_title
;
Structure prediction by ZEFSAII (Michael W. Deem and Ramdas Pophale) SiO2 
 PCOD8004367
Probable space group: P -1
;
_chemical_formula_sum "Si O2"
_cell_formula_units_Z 16
_cell_length_a 19.943238
_cell_length_b 4.991550
_cell_length_c 12.516740
_cell_angle_alpha 87.750223
_cell_angle_beta 136.878690
_cell_angle_gamma 87.576064
_cell_volume 846.445766
_symmetry_space_group_name_H-M "P -1"
_symmetry_group_IT_number 2
_symmetry_cell_setting 'triclinic'
loop_
_space_group_symop_operation_xyz
x,y,z
-x,-y,-z
loop_
_atom_site_type_symbol
_atom_site_label
_atom_site_fract_x
_atom_site_fract_y
_atom_site_fract_z
Si Si1 0.306504 0.221849 0.173980
Si Si2 0.434085 0.733041 0.984999
Si Si3 0.384944 0.729041 0.155657
Si Si4 0.567813 0.662276 0.503061
Si Si5 0.109770 0.183948 0.059854
Si Si6 0.106491 0.673261 0.197834
Si Si7 0.381080 0.042804 0.730302
Si Si8 0.305685 0.582081 0.525950
O O1 0.335499 0.514017 0.172430
O O2 0.378984 0.129002 0.362138
O O3 0.191817 0.246297 0.069599
O O4 0.321743 0.014507 0.097279
O O5 0.380400 0.627342 0.029039
O O6 0.502753 0.941195 0.116474
O O7 0.500000 0.500000 0.000000
O O8 0.352010 0.899992 0.810827
O O9 0.497061 0.780461 0.322176
O O10 0.500000 0.500000 0.500000
O O11 0.658671 0.490739 0.551701
O O12 0.111754 0.371541 0.163346
O O13 0.128745 0.875676 0.125068
O O14 0.001407 0.238651 0.878310
O O15 0.188782 0.674175 0.386175
O O16 0.363489 0.836649 0.618871
O O17 0.324538 0.337009 0.637022
#
# Coordination Sequence:
#
# PCOD8004367 Si02
#       8
#     2   2   2   2   2   2   2   2
#     4  11  23  36  53  82 116 155 185 223 267 343
#     4  11  23  41  59  80 113 150 192 248 281 324
#     4  11  24  35  55  80 112 153 191 219 280 336
#     4  10  22  33  50  77 120 156 182 216 254 336
#     4  10  20  38  56  82 114 151 192 230 276 322
#     4  10  21  35  60  82 111 152 190 236 275 326
#     4  11  24  35  59  79 111 144 188 243 281 326
#     4  12  22  37  55  86 112 151 190 227 286 331
#
# _framework density 18.902569
#
# number of rings (size 3 to 8) (size 9 to 14) (size 15 to 20)
#    0.000    1.250    3.750    1.875    8.750    0.000 
#    0.000    0.000    0.000    0.000    0.000    5.250 
#    0.000    0.000    0.000    0.000    0.000    0.000 
#
# Total GULP energy -198276.329971 kJ/mol
# GULP energy per Si atom -12392.270623 kJ/mol
# Density = 1.885955 g / cm^3
# Si number density = 18.902569 Si / 1000 Ang^3
#
#
#
# Elastic Constant Matrix: (Units=GPa)
#
#
# Indices 1 2 3 4 5 6 
#
# 1 89.4276 18.4512 47.4722 0.2017 8.0170 -7.0375
# 2 18.4512 85.1576 28.2933 5.7698 7.0275 -2.1771
# 3 47.4722 28.2933 85.7650 -8.1636 6.4204 -3.0512
# 4 0.2017 5.7698 -8.1636 29.9098 -3.0493 -1.7270
# 5 8.0170 7.0275 6.4204 -3.0493 27.2183 2.9336
# 6 -7.0375 -2.1771 -3.0512 -1.7270 2.9336 22.2382
#
#
#
# Elastic Compliance Matrix: (Units=1/GPa)
#
#
# Indices 1 2 3 4 5 6 
#
# 1 0.016649 -0.000018 -0.009049 -0.002691 -0.003528 0.004282
# 2 -0.000018 0.013868 -0.004714 -0.004225 -0.003020 0.000776
# 3 -0.009049 -0.004714 0.018781 0.006096 0.000167 -0.000297
# 4 -0.002691 -0.004225 0.006096 0.036479 0.004335 0.001832
# 5 -0.003528 -0.003020 0.000167 0.004335 0.039683 -0.006287
# 6 0.004282 0.000776 -0.000297 0.001832 -0.006287 0.047330
#
#
# Mechanical properties :
#
#
# Convention : Reuss Voigt Hill
#
# Bulk Modulus (GPa) = 46.00543 49.86483 47.93513
# Shear Modulus (GPa) = 24.08525 26.94882 25.51703
#
# Velocity S-wave (km/s) = 3.57344 3.77990 3.67812
# Velocity P-wave (km/s) = 6.43560 6.74443 6.59183
#
# Compressibility (1/GPa) = 0.02173656
#
# Stress axis : x y z
#
# Youngs Moduli (GPa) = 60.06379 72.10734 53.24565
#
# Poissons Ratio (x) = 0.00129 0.48184
# Poissons Ratio (y) = 0.00107 0.25098
# Poissons Ratio (z) = 0.54354 0.33988
#
# Static dielectric constant tensor:
#      x y z
#    x 3.427390 0.117380 -0.089360 
#    y 0.117380 3.498430 -0.023710 
#    z -0.089360 -0.023710 3.750540 
# 
# 
# High freq. dielectric constant tensor:
#      x y z
#    x 1.708860 0.010500 -0.002580 
#    y 0.010500 1.744980 0.005760 
#    z -0.002580 0.005760 1.716720 
# 
# From -- ./inp_files/82368.got.cif
#   From: 2010.06.25/outbox.cif.g09.slc.cpg/sg2_42_cif.got.tgz:82368.got - 2010.06.27 13:26:56.
