data_PCOD8004109
_publ_section_title
;
Structure prediction by ZEFSAII (Michael W. Deem and Ramdas Pophale) SiO2 
 PCOD8004109
Probable space group: P -1
;
_chemical_formula_sum "Si O2"
_cell_formula_units_Z 14
_cell_length_a 14.104197
_cell_length_b 11.744672
_cell_length_c 9.057009
_cell_angle_alpha 57.858948
_cell_angle_beta 150.036714
_cell_angle_gamma 129.731141
_cell_volume 575.334102
_symmetry_space_group_name_H-M "P -1"
_symmetry_group_IT_number 2
_symmetry_cell_setting 'triclinic'
loop_
_space_group_symop_operation_xyz
x,y,z
-x,-y,-z
loop_
_atom_site_type_symbol
_atom_site_label
_atom_site_fract_x
_atom_site_fract_y
_atom_site_fract_z
Si Si1 0.025564 0.684274 0.221961
Si Si2 0.616128 0.413568 0.798236
Si Si3 0.947424 0.135347 0.159951
Si Si4 0.457908 0.847196 0.324633
Si Si5 0.682163 0.659462 0.303716
Si Si6 0.564580 0.331005 0.306778
Si Si7 0.090192 0.951408 0.294034
O O1 0.245383 0.674300 0.525639
O O2 0.020728 0.775477 0.300645
O O3 0.995106 0.759610 0.978518
O O4 0.836293 0.523720 0.089192
O O5 0.500000 0.500000 0.500000
O O6 0.658569 0.301938 0.824018
O O7 0.471349 0.316305 0.802094
O O8 0.081931 0.227653 0.416471
O O9 0.703985 0.079115 0.913979
O O10 0.001532 0.994797 0.293913
O O11 0.525674 0.800520 0.604060
O O12 0.657167 0.965588 0.427315
O O13 0.651037 0.489924 0.394043
O O14 0.629021 0.693332 0.044306
O O15 0.000000 0.000000 0.000000
#
# Coordination Sequence:
#
# PCOD8004109 Si02
#       7
#     2   2   2   2   2   2   2
#     4  10  21  37  58  94 120 157 206 253 299 362
#     4  12  19  35  67  91 117 162 209 251 299 357
#     4  10  20  37  64  87 121 157 207 247 297 357
#     4  11  21  39  68  93 117 161 210 247 303 361
#     4  11  21  38  59  94 127 158 197 260 307 355
#     4  10  23  36  58  92 131 155 197 257 314 355
#     4  10  21  38  63  95 122 155 206 260 294 355
#
# _framework density 24.333689
#
# number of rings (size 3 to 8) (size 9 to 14) (size 15 to 20)
#    0.000    1.429    4.286    1.714    0.000    8.000 
#    0.000    0.714    0.000    6.000    3.714    0.000 
#    0.000    0.000    0.000    0.000    0.000    0.000 
#
# Total GULP energy -173634.553648 kJ/mol
# GULP energy per Si atom -12402.468118 kJ/mol
# Density = 2.427830 g / cm^3
# Si number density = 24.333689 Si / 1000 Ang^3
#
#
#
# Elastic Constant Matrix: (Units=GPa)
#
#
# Indices 1 2 3 4 5 6 
#
# 1 100.7685 35.7739 28.4955 0.2045 17.7397 -33.8601
# 2 35.7739 67.0065 41.6180 22.1970 4.4958 -22.1180
# 3 28.4955 41.6180 91.4186 19.0308 2.6193 -19.2764
# 4 0.2045 22.1970 19.0308 29.5943 -4.4994 -2.8466
# 5 17.7397 4.4958 2.6193 -4.4994 31.7430 1.3323
# 6 -33.8601 -22.1180 -19.2764 -2.8466 1.3323 37.1583
#
#
#
# Elastic Compliance Matrix: (Units=1/GPa)
#
#
# Indices 1 2 3 4 5 6 
#
# 1 0.018401 -0.005620 -0.001008 0.004627 -0.009319 0.013588
# 2 -0.005620 0.031588 -0.006666 -0.019098 -0.003864 0.008899
# 3 -0.001008 -0.006666 0.016011 -0.005097 -0.000664 0.003053
# 4 0.004627 -0.019098 -0.005097 0.052015 0.008169 -0.006104
# 5 -0.009319 -0.003864 -0.000664 0.008169 0.038971 -0.011908
# 6 0.013588 0.008899 0.003053 -0.006104 -0.011908 0.046134
#
#
# Mechanical properties :
#
#
# Convention : Reuss Voigt Hill
#
# Bulk Modulus (GPa) = 25.37278 52.32982 38.85130
# Shear Modulus (GPa) = 20.58930 29.91951 25.25440
#
# Velocity S-wave (km/s) = 2.91198 3.51030 3.22504
# Velocity P-wave (km/s) = 4.66431 6.16290 5.46522
#
# Compressibility (1/GPa) = 0.03941232
#
# Stress axis : x y z
#
# Youngs Moduli (GPa) = 54.34508 31.65798 62.45586
#
# Poissons Ratio (x) = 0.17792 0.06296
# Poissons Ratio (y) = 0.30542 0.41631
# Poissons Ratio (z) = 0.05479 0.21102
#
# Static dielectric constant tensor:
#      x y z
#    x 4.526270 -0.547390 0.084160 
#    y -0.547390 4.470930 0.160930 
#    z 0.084160 0.160930 4.212560 
# 
# 
# High freq. dielectric constant tensor:
#      x y z
#    x 1.967130 -0.023980 0.009890 
#    y -0.023980 1.952210 0.019220 
#    z 0.009890 0.019220 1.958610 
# 
# From -- ./inp_files/245695.got.cif
#   From: 2010.06.25/outbox.cif.g09.slc.cpg/sg2_123_cif.got.tgz:245695.got - 2010.06.27 13:26:56.
