data_PCOD8004224
_publ_section_title
;
Structure prediction by ZEFSAII (Michael W. Deem and Ramdas Pophale) SiO2 
 PCOD8004224
Probable space group: P -1
;
_chemical_formula_sum "Si O2"
_cell_formula_units_Z 14
_cell_length_a 10.710944
_cell_length_b 11.096192
_cell_length_c 11.987297
_cell_angle_alpha 87.237290
_cell_angle_beta 139.708795
_cell_angle_gamma 64.247997
_cell_volume 629.363870
_symmetry_space_group_name_H-M "P -1"
_symmetry_group_IT_number 2
_symmetry_cell_setting 'triclinic'
loop_
_space_group_symop_operation_xyz
x,y,z
-x,-y,-z
loop_
_atom_site_type_symbol
_atom_site_label
_atom_site_fract_x
_atom_site_fract_y
_atom_site_fract_z
Si Si1 0.143032 0.278684 0.890605
Si Si2 0.053345 0.905584 0.236580
Si Si3 0.645794 0.307123 0.919059
Si Si4 0.164348 0.453801 0.725943
Si Si5 0.542000 0.598723 0.453261
Si Si6 0.508340 0.134447 0.366017
Si Si7 0.141581 0.251272 0.314511
O O1 0.276449 0.279638 0.870890
O O2 0.066774 0.173486 0.817990
O O3 0.861094 0.489114 0.709425
O O4 0.345040 0.208843 0.135171
O O5 0.279768 0.806324 0.293097
O O6 0.243108 0.876443 0.468414
O O7 0.793643 0.109074 0.019270
O O8 0.444879 0.401411 0.886641
O O9 0.454640 0.421415 0.676105
O O10 0.871434 0.310282 0.075232
O O11 0.000000 0.500000 0.500000
O O12 0.952705 0.624493 0.652221
O O13 0.500000 0.500000 0.500000
O O14 0.296279 0.255302 0.320442
O O15 0.639794 0.942862 0.476511
#
# Coordination Sequence:
#
# PCOD8004224 Si02
#       7
#     2   2   2   2   2   2   2
#     4  11  24  42  66 101 132 176 225 278 327 392
#     4  10  23  41  68  97 133 173 219 281 329 393
#     4  11  23  43  66  95 133 181 221 268 338 394
#     4  12  26  43  64  96 136 184 220 263 337 405
#     4  10  20  37  65  99 127 167 219 272 333 380
#     4  10  23  44  72 102 128 172 223 284 338 379
#     4  10  23  45  69  98 133 171 226 277 331 401
#
# _framework density 22.244685
#
# number of rings (size 3 to 8) (size 9 to 14) (size 15 to 20)
#    0.000    1.429    1.429    3.429    2.000    6.286 
#    2.571    1.429    0.000    0.000    0.000    0.000 
#    0.000    0.000    0.000    0.000    0.000    0.000 
#
# Total GULP energy -173449.732185 kJ/mol
# GULP energy per Si atom -12389.266585 kJ/mol
# Density = 2.219406 g / cm^3
# Si number density = 22.244685 Si / 1000 Ang^3
#
#
#
# Elastic Constant Matrix: (Units=GPa)
#
#
# Indices 1 2 3 4 5 6 
#
# 1 124.3624 37.3858 50.4395 8.3859 -14.8380 3.8666
# 2 37.3858 106.6929 33.4940 7.1389 -11.2817 1.8134
# 3 50.4395 33.4940 144.9865 13.3776 -25.6962 -3.7064
# 4 8.3859 7.1389 13.3776 23.8920 -7.1856 3.9873
# 5 -14.8380 -11.2817 -25.6962 -7.1856 34.9636 1.6347
# 6 3.8666 1.8134 -3.7064 3.9873 1.6347 17.4051
#
#
#
# Elastic Compliance Matrix: (Units=1/GPa)
#
#
# Indices 1 2 3 4 5 6 
#
# 1 0.010186 -0.002477 -0.002725 -0.000399 0.001562 -0.002641
# 2 -0.002477 0.010885 -0.001341 -0.001125 0.001278 -0.000732
# 3 -0.002725 -0.001341 0.009305 -0.003001 0.004492 0.002992
# 4 -0.000399 -0.001125 -0.003001 0.048396 0.007781 -0.012251
# 5 0.001562 0.001278 0.004492 0.007781 0.034791 -0.004574
# 6 -0.002641 -0.000732 0.002992 -0.012251 -0.004574 0.061991
#
#
# Mechanical properties :
#
#
# Convention : Reuss Voigt Hill
#
# Bulk Modulus (GPa) = 57.84127 68.74229 63.29178
# Shear Modulus (GPa) = 25.71967 32.23364 28.97665
#
# Velocity S-wave (km/s) = 3.40401 3.81077 3.61312
# Velocity P-wave (km/s) = 6.44270 7.09454 6.77646
#
# Compressibility (1/GPa) = 0.01728869
#
# Stress axis : x y z
#
# Youngs Moduli (GPa) = 98.16994 91.87323 107.47252
#
# Poissons Ratio (x) = 0.22757 0.29290
# Poissons Ratio (y) = 0.24317 0.14413
# Poissons Ratio (z) = 0.26755 0.12321
#
# Static dielectric constant tensor:
#      x y z
#    x 4.939000 -0.063920 0.390320 
#    y -0.063920 4.178270 -0.248570 
#    z 0.390320 -0.248570 4.143000 
# 
# 
# High freq. dielectric constant tensor:
#      x y z
#    x 1.879420 0.012010 0.011660 
#    y 0.012010 1.872950 -0.003390 
#    z 0.011660 -0.003390 1.884560 
# 
# From -- ./inp_files/256148.got.cif
#   From: 2010.06.25/outbox.cif.g09.slc.cpg/sg2_129_cif.got.tgz:256148.got - 2010.06.27 13:26:56.
