data_PCOD8004287
_publ_section_title
;
Structure prediction by ZEFSAII (Michael W. Deem and Ramdas Pophale) SiO2 
 PCOD8004287
Probable space group: P -1
;
_chemical_formula_sum "Si O2"
_cell_formula_units_Z 16
_cell_length_a 11.589161
_cell_length_b 11.694171
_cell_length_c 10.147877
_cell_angle_alpha 52.722827
_cell_angle_beta 131.069652
_cell_angle_gamma 101.183806
_cell_volume 775.893077
_symmetry_space_group_name_H-M "P -1"
_symmetry_group_IT_number 2
_symmetry_cell_setting 'triclinic'
loop_
_space_group_symop_operation_xyz
x,y,z
-x,-y,-z
loop_
_atom_site_type_symbol
_atom_site_label
_atom_site_fract_x
_atom_site_fract_y
_atom_site_fract_z
Si Si1 0.650324 0.783373 0.658243
Si Si2 0.500223 0.111861 0.269087
Si Si3 0.149840 0.118185 0.921239
Si Si4 0.510012 0.416840 0.429079
Si Si5 0.472963 0.408171 0.916830
Si Si6 0.868121 0.595509 0.433545
Si Si7 0.002313 0.578317 0.085417
Si Si8 0.136843 0.795004 0.143236
O O1 0.511198 0.815401 0.644429
O O2 0.606435 0.685283 0.577676
O O3 0.644892 0.947900 0.481290
O O4 0.821620 0.683733 0.919002
O O5 0.325743 0.088670 0.138507
O O6 0.545692 0.225445 0.124127
O O7 0.141761 0.227886 0.713181
O O8 0.000409 0.192411 0.857827
O O9 0.137117 0.957271 0.975997
O O10 0.500000 0.500000 0.500000
O O11 0.437874 0.544360 0.172126
O O12 0.688190 0.304657 0.598913
O O13 0.289231 0.440612 0.708462
O O14 0.500000 0.500000 0.000000
O O15 0.000000 0.500000 0.500000
O O16 0.914582 0.547846 0.652744
O O17 0.102256 0.696000 0.065563
O O18 0.000000 0.500000 0.000000
#
# Coordination Sequence:
#
# PCOD8004287 Si02
#       8
#     2   2   2   2   2   2   2   2
#     4  11  22  38  61  90 127 162 200 254 311 361
#     4  10  20  38  63  93 123 152 205 264 311 352
#     4  10  20  37  67  90 120 154 208 265 304 356
#     4  12  24  40  60  91 129 165 204 248 307 376
#     4  11  22  39  63  94 121 158 208 259 304 360
#     4  11  21  41  62  92 122 160 209 254 306 357
#     4  12  24  41  62  90 127 170 206 245 304 378
#     4  11  21  40  62  93 118 165 209 248 308 366
#
# _framework density 20.621400000000001
#
# number of rings (size 3 to 8) (size 9 to 14) (size 15 to 20)
#    0.000    1.000    6.250    1.500    0.000    0.000 
#    2.250    2.500    0.000    0.000    0.000    0.000 
#    0.000    0.000    0.000    0.000    0.000    0.000 
#
# Total GULP energy -198255.685914 kJ/mol
# GULP energy per Si atom -12390.980370 kJ/mol
# Density = 2.057446 g / cm^3
# Si number density = 20.621400 Si / 1000 Ang^3
#
#
#
# Elastic Constant Matrix: (Units=GPa)
#
#
# Indices 1 2 3 4 5 6 
#
# 1 44.6387 36.2905 37.7084 -7.4534 -11.2554 7.7672
# 2 36.2905 146.0913 78.0507 -4.2185 -25.4115 22.1290
# 3 37.7084 78.0507 140.7269 -8.4943 -17.0249 5.0858
# 4 -7.4534 -4.2185 -8.4943 40.4568 0.9182 -3.0362
# 5 -11.2554 -25.4115 -17.0249 0.9182 34.5250 3.2748
# 6 7.7672 22.1290 5.0858 -3.0362 3.2748 25.5405
#
#
#
# Elastic Compliance Matrix: (Units=1/GPa)
#
#
# Indices 1 2 3 4 5 6 
#
# 1 0.033258 -0.002710 -0.006155 0.003891 0.006363 -0.006894
# 2 -0.002710 0.013265 -0.005444 -0.001223 0.007239 -0.010659
# 3 -0.006155 -0.005444 0.011586 0.001086 -0.000757 0.004508
# 4 0.003891 -0.001223 0.001086 0.025740 -0.000039 0.002725
# 5 0.006363 0.007239 -0.000757 -0.000039 0.037212 -0.012833
# 6 -0.006894 -0.010659 0.004508 0.002725 -0.012833 0.051557
#
#
# Mechanical properties :
#
#
# Convention : Reuss Voigt Hill
#
# Bulk Modulus (GPa) = 33.90814 70.61736 52.26275
# Shear Modulus (GPa) = 23.68926 32.06494 27.87710
#
# Velocity S-wave (km/s) = 3.39303 3.94754 3.68074
# Velocity P-wave (km/s) = 5.64173 7.42270 6.59263
#
# Compressibility (1/GPa) = 0.02949144
#
# Stress axis : x y z
#
# Youngs Moduli (GPa) = 30.06782 75.38629 86.31390
#
# Poissons Ratio (x) = 0.20429 0.53125
# Poissons Ratio (y) = 0.08148 0.46988
# Poissons Ratio (z) = 0.18506 0.41039
#
# Static dielectric constant tensor:
#      x y z
#    x 3.653630 0.513960 -0.124860 
#    y 0.513960 4.230130 -0.604560 
#    z -0.124860 -0.604560 4.320250 
# 
# 
# High freq. dielectric constant tensor:
#      x y z
#    x 1.771830 0.023700 0.012180 
#    y 0.023700 1.821030 -0.008650 
#    z 0.012180 -0.008650 1.813410 
# 
# From -- ./inp_files/262150.got.cif
#   From: 2010.06.25/outbox.cif.g09.slc.cpg/sg2_132_cif.got.tgz:262150.got - 2010.06.27 13:26:56.
