data_PCOD8004012
_publ_section_title
;
Structure prediction by ZEFSAII (Michael W. Deem and Ramdas Pophale) SiO2 
 PCOD8004012
Probable space group: P -1
;
_chemical_formula_sum "Si O2"
_cell_formula_units_Z 12
_cell_length_a 7.306237
_cell_length_b 20.832615
_cell_length_c 11.201441
_cell_angle_alpha 23.016190
_cell_angle_beta 115.323681
_cell_angle_gamma 127.276112
_cell_volume 482.147314
_symmetry_space_group_name_H-M "P -1"
_symmetry_group_IT_number 2
_symmetry_cell_setting 'triclinic'
loop_
_space_group_symop_operation_xyz
x,y,z
-x,-y,-z
loop_
_atom_site_type_symbol
_atom_site_label
_atom_site_fract_x
_atom_site_fract_y
_atom_site_fract_z
Si Si1 0.780088 0.745907 0.244800
Si Si2 0.438621 0.688382 0.047297
Si Si3 0.708633 0.973952 0.195915
Si Si4 0.722937 0.757374 0.792436
Si Si5 0.117713 0.734304 0.049317
Si Si6 0.392157 0.652361 0.484081
O O1 0.672258 0.711121 0.139667
O O2 0.780506 0.555231 0.610004
O O3 0.605611 0.771891 0.236828
O O4 0.070817 0.944058 0.981193
O O5 0.549600 0.789887 0.774443
O O6 0.325429 0.786836 0.918602
O O7 0.735291 0.837111 0.528851
O O8 0.444144 0.823125 0.305493
O O9 0.738240 0.160024 0.962276
O O10 0.002550 0.853677 0.765903
O O11 0.583785 0.512110 0.161584
O O12 0.888894 0.486646 0.418903
#
# Coordination Sequence:
#
# PCOD8004012 Si02
#       6
#     2   2   2   2   2   2
#     4  10  20  37  63  87 118 159 195 245 293 349
#     4  10  20  41  62  88 118 157 201 237 299 350
#     4  12  20  39  63  90 121 153 199 244 294 350
#     4   9  21  41  61  88 119 158 194 243 296 345
#     4  10  22  38  66  85 119 159 194 245 292 350
#     4   9  22  39  59  90 118 160 195 238 298 347
#
# _framework density 24.888660000000002
#
# number of rings (size 3 to 8) (size 9 to 14) (size 15 to 20)
#    1.000    1.000    1.667    2.500    0.000    3.333 
#    0.000    7.500    0.000    0.000    0.000    0.000 
#    0.000    0.000    0.000    0.000    0.000    0.000 
#
# Total GULP energy -148722.358348 kJ/mol
# GULP energy per Si atom -12393.529862 kJ/mol
# Density = 2.483201 g / cm^3
# Si number density = 24.888660 Si / 1000 Ang^3
#
#
#
# Elastic Constant Matrix: (Units=GPa)
#
#
# Indices 1 2 3 4 5 6 
#
# 1 111.4972 24.1357 29.8365 -8.5365 -5.2313 -15.7360
# 2 24.1357 126.8698 42.4333 -29.3015 11.1509 10.3468
# 3 29.8365 42.4333 82.5637 -4.8829 -3.9328 -1.9209
# 4 -8.5365 -29.3015 -4.8829 26.1854 -9.0047 -1.7107
# 5 -5.2313 11.1509 -3.9328 -9.0047 34.2747 -6.5019
# 6 -15.7360 10.3468 -1.9209 -1.7107 -6.5019 29.7647
#
#
#
# Elastic Compliance Matrix: (Units=1/GPa)
#
#
# Indices 1 2 3 4 5 6 
#
# 1 0.011590 -0.001394 -0.002875 0.003651 0.004289 0.007573
# 2 -0.001394 0.013845 -0.006177 0.012358 -0.003310 -0.005961
# 3 -0.002875 -0.006177 0.016293 -0.003688 0.002868 0.002093
# 4 0.003651 0.012358 -0.003688 0.056726 0.011623 0.003196
# 5 0.004289 -0.003310 0.002868 0.011623 0.036618 0.012270
# 6 0.007573 -0.005961 0.002093 0.003196 0.012270 0.042672
#
#
# Mechanical properties :
#
#
# Convention : Reuss Voigt Hill
#
# Bulk Modulus (GPa) = 47.99873 57.08241 52.54057
# Shear Modulus (GPa) = 24.32139 33.01332 28.66736
#
# Velocity S-wave (km/s) = 3.12942 3.64598 3.39754
# Velocity P-wave (km/s) = 5.69078 6.38037 6.04542
#
# Compressibility (1/GPa) = 0.02083388
#
# Stress axis : x y z
#
# Youngs Moduli (GPa) = 86.28389 72.23035 61.37723
#
# Poissons Ratio (x) = 0.10072 0.17647
# Poissons Ratio (y) = 0.12032 0.37912
# Poissons Ratio (z) = 0.24808 0.44616
#
# Static dielectric constant tensor:
#      x y z
#    x 4.112140 -0.020830 0.012290 
#    y -0.020830 4.296490 -0.163490 
#    z 0.012290 -0.163490 4.567690 
# 
# 
# High freq. dielectric constant tensor:
#      x y z
#    x 1.980410 -0.005850 0.009550 
#    y -0.005850 1.979690 -0.001330 
#    z 0.009550 -0.001330 2.017590 
# 
# From -- ./inp_files/263396.got.cif
#   From: 2010.06.25/outbox.cif.g09.slc.cpg/sg2_132_cif.got.tgz:263396.got - 2010.06.27 13:26:56.
