data_PCOD8004583
_publ_section_title
;
Structure prediction by ZEFSAII (Michael W. Deem and Ramdas Pophale) SiO2 
 PCOD8004583
Probable space group: P -1
;
_chemical_formula_sum "Si O2"
_cell_formula_units_Z 14
_cell_length_a 10.759770
_cell_length_b 9.443166
_cell_length_c 13.396389
_cell_angle_alpha 46.745122
_cell_angle_beta 133.193715
_cell_angle_gamma 124.232103
_cell_volume 711.437800
_symmetry_space_group_name_H-M "P -1"
_symmetry_group_IT_number 2
_symmetry_cell_setting 'triclinic'
loop_
_space_group_symop_operation_xyz
x,y,z
-x,-y,-z
loop_
_atom_site_type_symbol
_atom_site_label
_atom_site_fract_x
_atom_site_fract_y
_atom_site_fract_z
Si Si1 0.745181 0.416365 0.883620
Si Si2 0.235129 0.911726 0.690353
Si Si3 0.885081 0.195522 0.539437
Si Si4 0.537541 0.385637 0.975549
Si Si5 0.977242 0.800037 0.781044
Si Si6 0.247228 0.451852 0.643840
Si Si7 0.428585 0.337168 0.618198
O O1 0.686880 0.484823 0.929382
O O2 0.585782 0.291665 0.795804
O O3 0.825490 0.612213 0.770101
O O4 0.885304 0.270927 0.034503
O O5 0.140119 0.811964 0.589409
O O6 0.080665 0.889614 0.696462
O O7 0.319427 0.139182 0.606008
O O8 0.398483 0.813883 0.860162
O O9 0.735913 0.311622 0.441175
O O10 0.057497 0.329532 0.609546
O O11 0.884798 0.975711 0.689613
O O12 0.359787 0.348429 0.834008
O O13 0.500000 0.500000 0.000000
O O14 0.301888 0.437523 0.567596
O O15 0.500000 0.500000 0.500000
#
# Coordination Sequence:
#
# PCOD8004583 Si02
#       7
#     2   2   2   2   2   2   2
#     4   9  22  37  61  89 118 158 192 254 290 338
#     4  11  22  36  68  84 114 165 201 236 294 351
#     4  11  21  37  60  89 118 159 194 245 292 353
#     4  10  20  41  60  85 120 156 200 242 292 357
#     4  10  20  38  60  88 119 153 204 237 292 357
#     4  10  23  38  59  89 121 155 194 245 300 339
#     4  11  23  40  59  92 120 153 199 249 289 353
#
# _framework density 19.678460000000001
#
# number of rings (size 3 to 8) (size 9 to 14) (size 15 to 20)
#    0.000    1.714    2.857    1.286    4.000    1.714 
#    2.571    2.143    0.000    1.714    0.000    0.000 
#    0.000    0.000    0.000    0.000    0.000    0.000 
#
# Total GULP energy -173433.139994 kJ/mol
# GULP energy per Si atom -12388.081428 kJ/mol
# Density = 1.963367 g / cm^3
# Si number density = 19.678460 Si / 1000 Ang^3
#
#
#
# Elastic Constant Matrix: (Units=GPa)
#
#
# Indices 1 2 3 4 5 6 
#
# 1 49.3303 20.2080 25.2678 -8.6805 4.7416 -3.8737
# 2 20.2080 82.1888 31.9340 -10.2761 3.2122 -1.8908
# 3 25.2678 31.9340 88.5702 -15.4373 13.1834 -6.6936
# 4 -8.6805 -10.2761 -15.4373 34.5800 1.2479 2.1104
# 5 4.7416 3.2122 13.1834 1.2479 36.3196 -5.6832
# 6 -3.8737 -1.8908 -6.6936 2.1104 -5.6832 31.7046
#
#
#
# Elastic Compliance Matrix: (Units=1/GPa)
#
#
# Indices 1 2 3 4 5 6 
#
# 1 0.025119 -0.003784 -0.005046 0.002878 -0.000991 0.001409
# 2 -0.003784 0.014868 -0.004110 0.001642 0.000543 -0.000455
# 3 -0.005046 -0.004110 0.015821 0.004662 -0.004672 0.001331
# 4 0.002878 0.001642 0.004662 0.032421 -0.003540 -0.001359
# 5 -0.000991 0.000543 -0.004672 -0.003540 0.030147 0.004564
# 6 0.001409 -0.000455 0.001331 -0.001359 0.004564 0.032876
#
#
# Mechanical properties :
#
#
# Convention : Reuss Voigt Hill
#
# Bulk Modulus (GPa) = 33.41543 41.65654 37.53599
# Shear Modulus (GPa) = 26.72271 30.03281 28.37776
#
# Velocity S-wave (km/s) = 3.68906 3.91087 3.80158
# Velocity P-wave (km/s) = 5.92985 6.45041 6.19560
#
# Compressibility (1/GPa) = 0.02992629
#
# Stress axis : x y z
#
# Youngs Moduli (GPa) = 39.81095 67.25792 63.20909
#
# Poissons Ratio (x) = 0.25454 0.31894
# Poissons Ratio (y) = 0.15066 0.25980
# Poissons Ratio (z) = 0.20088 0.27644
#
# Static dielectric constant tensor:
#      x y z
#    x 4.094190 0.043140 0.306970 
#    y 0.043140 3.642510 -0.050270 
#    z 0.306970 -0.050270 3.873500 
# 
# 
# High freq. dielectric constant tensor:
#      x y z
#    x 1.760320 -0.001010 0.023400 
#    y -0.001010 1.753930 0.005570 
#    z 0.023400 0.005570 1.782970 
# 
# From -- ./inp_files/158839.got.cif
#   From: 2010.06.25/outbox.cif.g09.slc.cpg/sg2_80_cif.got.tgz:158839.got - 2010.06.27 13:26:56.
