data_PCOD8004512
_publ_section_title
;
Structure prediction by ZEFSAII (Michael W. Deem and Ramdas Pophale) SiO2 
 PCOD8004512
Probable space group: P -1
;
_chemical_formula_sum "Si O2"
_cell_formula_units_Z 16
_cell_length_a 14.345532
_cell_length_b 9.316282
_cell_length_c 16.331218
_cell_angle_alpha 47.827277
_cell_angle_beta 149.686596
_cell_angle_gamma 135.524133
_cell_volume 762.289489
_symmetry_space_group_name_H-M "P -1"
_symmetry_group_IT_number 2
_symmetry_cell_setting 'triclinic'
loop_
_space_group_symop_operation_xyz
x,y,z
-x,-y,-z
loop_
_atom_site_type_symbol
_atom_site_label
_atom_site_fract_x
_atom_site_fract_y
_atom_site_fract_z
Si Si1 0.964079 0.001083 0.717489
Si Si2 0.563725 0.622222 0.917140
Si Si3 0.388473 0.881711 0.587709
Si Si4 0.604593 0.801866 0.094145
Si Si5 0.152546 0.249665 0.431255
Si Si6 0.268913 0.947259 0.743002
Si Si7 0.997679 0.116325 0.871829
Si Si8 0.344726 0.715593 0.443738
O O1 0.893807 0.798973 0.682378
O O2 0.837829 0.150735 0.547420
O O3 0.195718 0.130190 0.833307
O O4 0.932574 0.949317 0.810976
O O5 0.481748 0.806839 0.765108
O O6 0.471126 0.442146 0.848551
O O7 0.500000 0.500000 0.000000
O O8 0.796793 0.706566 0.058476
O O9 0.416103 0.753582 0.577933
O O10 0.495415 0.128003 0.556180
O O11 0.645107 0.906707 0.171337
O O12 0.432883 0.842127 0.893137
O O13 0.251746 0.086383 0.600045
O O14 0.304883 0.481958 0.472245
O O15 0.949293 0.218115 0.338367
O O16 0.854620 0.240067 0.730237
O O17 0.000000 0.000000 0.000000
#
# Coordination Sequence:
#
# PCOD8004512 Si02
#       8
#     2   2   2   2   2   2   2   2
#     4  10  23  39  61  91 126 160 211 264 306 369
#     4  12  23  37  65  96 121 163 209 261 318 367
#     4  10  23  40  62  90 127 164 211 261 307 377
#     4  10  20  38  59  93 128 157 210 257 318 369
#     4  10  20  38  64  91 123 166 210 252 323 375
#     4   9  20  37  61  89 131 164 195 264 317 384
#     4  11  22  43  64  88 129 168 207 260 316 374
#     4  10  21  42  66  88 122 172 211 250 314 385
#
# _framework density 20.989401999999998
#
# number of rings (size 3 to 8) (size 9 to 14) (size 15 to 20)
#    0.000    1.750    2.500    1.500    1.750    1.000 
#    2.250    0.625    0.000    0.000    0.000    0.000 
#    0.000    0.000    0.000    0.000    0.000    0.000 
#
# Total GULP energy -198274.918461 kJ/mol
# GULP energy per Si atom -12392.182404 kJ/mol
# Density = 2.094163 g / cm^3
# Si number density = 20.989402 Si / 1000 Ang^3
#
#
#
# Elastic Constant Matrix: (Units=GPa)
#
#
# Indices 1 2 3 4 5 6 
#
# 1 81.5914 28.9453 37.8158 -5.9431 -6.9343 6.6737
# 2 28.9453 114.7378 17.1427 -1.9119 -10.0243 -1.9017
# 3 37.8158 17.1427 109.4695 4.0521 5.3610 17.6945
# 4 -5.9431 -1.9119 4.0521 24.2509 4.3490 1.0209
# 5 -6.9343 -10.0243 5.3610 4.3490 40.5780 4.1101
# 6 6.6737 -1.9017 17.6945 1.0209 4.1101 25.9196
#
#
#
# Elastic Compliance Matrix: (Units=1/GPa)
#
#
# Indices 1 2 3 4 5 6 
#
# 1 0.016415 -0.003101 -0.005229 0.004279 0.002417 -0.001436
# 2 -0.003101 0.009810 -0.000838 -0.000254 0.001848 0.001807
# 3 -0.005229 -0.000838 0.012355 -0.002814 -0.001747 -0.006762
# 4 0.004279 -0.000254 -0.002814 0.043390 -0.003576 -0.000341
# 5 0.002417 0.001848 -0.001747 -0.003576 0.026467 -0.003350
# 6 -0.001436 0.001807 -0.006762 -0.000341 -0.003350 0.044244
#
#
# Mechanical properties :
#
#
# Convention : Reuss Voigt Hill
#
# Bulk Modulus (GPa) = 49.40023 52.62290 51.01157
# Shear Modulus (GPa) = 28.12685 32.94269 30.53477
#
# Velocity S-wave (km/s) = 3.66464 3.96598 3.81828
# Velocity P-wave (km/s) = 6.44151 6.78952 6.61780
#
# Compressibility (1/GPa) = 0.02024282
#
# Stress axis : x y z
#
# Youngs Moduli (GPa) = 60.92174 101.93383 80.93625
#
# Poissons Ratio (x) = 0.31609 0.42325
# Poissons Ratio (y) = 0.18892 0.06785
# Poissons Ratio (z) = 0.31858 0.08545
#
# Static dielectric constant tensor:
#      x y z
#    x 3.992030 0.076730 0.052210 
#    y 0.076730 4.516790 -0.078010 
#    z 0.052210 -0.078010 4.186030 
# 
# 
# High freq. dielectric constant tensor:
#      x y z
#    x 1.821510 -0.007990 0.002820 
#    y -0.007990 1.810260 0.021420 
#    z 0.002820 0.021420 1.832110 
# 
# From -- ./inp_files/244386.got.cif
#   From: 2010.06.25/outbox.cif.g09.slc.cpg/sg2_123_cif.got.tgz:244386.got - 2010.06.27 13:26:56.
