data_PCOD8004792
_publ_section_title
;
Structure prediction by ZEFSAII (Michael W. Deem and Ramdas Pophale) SiO2 
 PCOD8004792
Probable space group: P -1
;
_chemical_formula_sum "Si O2"
_cell_formula_units_Z 16
_cell_length_a 8.991520
_cell_length_b 15.732440
_cell_length_c 9.815764
_cell_angle_alpha 37.689218
_cell_angle_beta 105.240362
_cell_angle_gamma 106.785075
_cell_volume 811.344655
_symmetry_space_group_name_H-M "P -1"
_symmetry_group_IT_number 2
_symmetry_cell_setting 'triclinic'
loop_
_space_group_symop_operation_xyz
x,y,z
-x,-y,-z
loop_
_atom_site_type_symbol
_atom_site_label
_atom_site_fract_x
_atom_site_fract_y
_atom_site_fract_z
Si Si1 0.298606 0.685900 0.358834
Si Si2 0.665830 0.728879 0.967681
Si Si3 0.649332 0.018523 0.920386
Si Si4 0.688953 0.320986 0.128871
Si Si5 0.191063 0.511548 0.804108
Si Si6 0.647884 0.030759 0.591356
Si Si7 0.835168 0.473818 0.718284
Si Si8 0.352230 0.287808 0.702087
O O1 0.297612 0.609643 0.600192
O O2 0.173727 0.599465 0.338766
O O3 0.469963 0.691940 0.329572
O O4 0.246529 0.840652 0.176346
O O5 0.785966 0.649387 0.013478
O O6 0.650007 0.672102 0.190429
O O7 0.497346 0.699365 0.894004
O O8 0.737215 0.894132 0.771275
O O9 0.727207 0.874675 0.133931
O O10 0.598871 0.043103 0.721480
O O11 0.500000 0.000000 0.000000
O O12 0.751327 0.448572 0.081102
O O13 0.747098 0.176443 0.380758
O O14 0.762471 0.354905 0.956327
O O15 0.012023 0.530707 0.722206
O O16 0.500000 0.000000 0.500000
O O17 0.743241 0.608324 0.534470
#
# Coordination Sequence:
#
# PCOD8004792 Si02
#       8
#     2   2   2   2   2   2   2   2
#     4  11  20  38  61  86 113 150 198 236 281 339
#     4  10  20  38  63  88 112 149 193 241 285 341
#     4   9  19  35  60  88 114 141 192 248 277 334
#     4  11  22  41  60  83 117 156 192 235 291 344
#     4  12  24  38  57  88 119 151 199 237 280 344
#     4   9  19  36  59  86 114 148 187 238 293 334
#     4  12  24  39  58  84 122 158 186 238 293 337
#     4  10  20  38  62  89 115 146 192 239 292 338
#
# _framework density 19.720348000000001
#
# number of rings (size 3 to 8) (size 9 to 14) (size 15 to 20)
#    0.000    1.500    3.750    2.250    1.750    0.000 
#    2.250    2.500    0.000    0.000    0.000    0.000 
#    0.000    0.000    0.000    0.000    0.000    0.000 
#
# Total GULP energy -198351.070235 kJ/mol
# GULP energy per Si atom -12396.941890 kJ/mol
# Density = 1.967546 g / cm^3
# Si number density = 19.720348 Si / 1000 Ang^3
#
#
#
# Elastic Constant Matrix: (Units=GPa)
#
#
# Indices 1 2 3 4 5 6 
#
# 1 50.4381 23.1273 30.3183 -6.4050 10.2750 -0.2965
# 2 23.1273 110.0474 41.8697 -13.9764 8.6820 -7.0352
# 3 30.3183 41.8697 116.6602 -14.9735 -8.7143 -5.6122
# 4 -6.4050 -13.9764 -14.9735 35.3298 -1.0940 0.7217
# 5 10.2750 8.6820 -8.7143 -1.0940 19.9954 3.9762
# 6 -0.2965 -7.0352 -5.6122 0.7217 3.9762 11.8832
#
#
#
# Elastic Compliance Matrix: (Units=1/GPa)
#
#
# Indices 1 2 3 4 5 6 
#
# 1 0.029310 -0.001301 -0.008347 0.000643 -0.018533 0.002181
# 2 -0.001301 0.012310 -0.003959 0.002553 -0.007823 0.007848
# 3 -0.008347 -0.003959 0.013430 0.002997 0.012114 -0.000445
# 4 0.000643 0.002553 0.002997 0.030733 0.001430 0.000598
# 5 -0.018533 -0.007823 0.012114 0.001430 0.073042 -0.023900
# 6 0.002181 0.007848 -0.000445 0.000598 -0.023900 0.096604
#
#
# Mechanical properties :
#
#
# Convention : Reuss Voigt Hill
#
# Bulk Modulus (GPa) = 35.92451 51.97515 43.94983
# Shear Modulus (GPa) = 17.12781 25.56372 21.34576
#
# Velocity S-wave (km/s) = 2.95029 3.60434 3.29359
# Velocity P-wave (km/s) = 5.46462 6.61324 6.06618
#
# Compressibility (1/GPa) = 0.02783615
#
# Stress axis : x y z
#
# Youngs Moduli (GPa) = 34.11775 81.23586 74.45810
#
# Poissons Ratio (x) = 0.10565 0.62154
# Poissons Ratio (y) = 0.04437 0.29479
# Poissons Ratio (z) = 0.28480 0.32162
#
# Static dielectric constant tensor:
#      x y z
#    x 3.133030 -0.067470 -0.162400 
#    y -0.067470 4.134490 -0.396630 
#    z -0.162400 -0.396630 4.045240 
# 
# 
# High freq. dielectric constant tensor:
#      x y z
#    x 1.722690 -0.009220 -0.015390 
#    y -0.009220 1.787320 -0.009520 
#    z -0.015390 -0.009520 1.781960 
# 
# From -- ./inp_files/175018.got.cif
#   From: 2010.06.25/outbox.cif.g09.slc.cpg/sg2_88_cif.got.tgz:175018.got - 2010.06.27 13:26:56.
