data_PCOD8004335
_publ_section_title
;
Structure prediction by ZEFSAII (Michael W. Deem and Ramdas Pophale) SiO2 
 PCOD8004335
Probable space group: P -1
;
_chemical_formula_sum "Si O2"
_cell_formula_units_Z 14
_cell_length_a 9.656957
_cell_length_b 15.183142
_cell_length_c 9.293648
_cell_angle_alpha 41.998399
_cell_angle_beta 62.019978
_cell_angle_gamma 47.331657
_cell_volume 668.762986
_symmetry_space_group_name_H-M "P -1"
_symmetry_group_IT_number 2
_symmetry_cell_setting 'triclinic'
loop_
_space_group_symop_operation_xyz
x,y,z
-x,-y,-z
loop_
_atom_site_type_symbol
_atom_site_label
_atom_site_fract_x
_atom_site_fract_y
_atom_site_fract_z
Si Si1 0.369068 0.193226 0.425348
Si Si2 0.786916 0.975462 0.417483
Si Si3 0.393948 0.366420 0.958251
Si Si4 0.256818 0.716025 0.946423
Si Si5 0.507483 0.349745 0.624716
Si Si6 0.816135 0.281689 0.352947
Si Si7 0.805446 0.528665 0.601828
O O1 0.251986 0.110512 0.589630
O O2 0.292519 0.337413 0.393687
O O3 0.593598 0.068673 0.494025
O O4 0.333884 0.262140 0.195435
O O5 0.962047 0.849981 0.582336
O O6 0.828089 0.102796 0.179335
O O7 0.494175 0.272373 0.873729
O O8 0.218979 0.548017 0.796818
O O9 0.530084 0.388883 0.969846
O O10 0.251430 0.719019 0.773408
O O11 0.151146 0.638852 0.157254
O O12 0.500000 0.500000 0.500000
O O13 0.698800 0.241780 0.569131
O O14 0.323329 0.406994 0.552895
O O15 0.000000 0.500000 0.500000
#
# Coordination Sequence:
#
# PCOD8004335 Si02
#       7
#     2   2   2   2   2   2   2
#     4  10  23  45  62  96 134 168 211 269 322 379
#     4  10  24  38  67  95 134 169 209 262 330 385
#     4  10  20  37  70  90 128 164 222 257 319 364
#     4  11  21  42  63  97 120 175 214 261 317 387
#     4  10  21  37  63 101 126 160 217 273 305 372
#     4  11  20  37  68  95 123 169 219 259 307 391
#     4  12  25  41  69  95 128 166 224 271 314 370
#
# _framework density 20.934172
#
# number of rings (size 3 to 8) (size 9 to 14) (size 15 to 20)
#    0.000    1.429    4.286    2.571    4.000    1.714 
#    0.000    7.857    0.000   10.286    0.000    0.000 
#    0.000    0.000    0.000    0.000    0.000    0.000 
#
# Total GULP energy -173473.530447 kJ/mol
# GULP energy per Si atom -12390.966461 kJ/mol
# Density = 2.088653 g / cm^3
# Si number density = 20.934172 Si / 1000 Ang^3
#
#
#
# Elastic Constant Matrix: (Units=GPa)
#
#
# Indices 1 2 3 4 5 6 
#
# 1 120.6677 60.1008 63.5050 5.4422 -2.8855 -0.9037
# 2 60.1008 79.5070 78.3688 0.8390 1.0520 -10.2693
# 3 63.5050 78.3688 99.6974 -1.3215 5.0615 6.4931
# 4 5.4422 0.8390 -1.3215 35.2785 8.7633 5.8686
# 5 -2.8855 1.0520 5.0615 8.7633 36.7836 -7.5208
# 6 -0.9037 -10.2693 6.4931 5.8686 -7.5208 34.8731
#
#
#
# Elastic Compliance Matrix: (Units=1/GPa)
#
#
# Indices 1 2 3 4 5 6 
#
# 1 0.013767 -0.007552 -0.002953 -0.002539 0.002223 -0.000411
# 2 -0.007552 0.121320 -0.096371 -0.022687 0.027531 0.063229
# 3 -0.002953 -0.096371 0.092918 0.022082 -0.026820 -0.055256
# 4 -0.002539 -0.022687 0.022082 0.037423 -0.015705 -0.020543
# 5 0.002223 0.027531 -0.026820 -0.015705 0.038953 0.024202
# 6 -0.000411 0.063229 -0.055256 -0.020543 0.024202 0.066249
#
#
# Mechanical properties :
#
#
# Convention : Reuss Voigt Hill
#
# Bulk Modulus (GPa) = 70.15986 78.20235 74.18110
# Shear Modulus (GPa) = 8.48704 27.91355 18.20029
#
# Velocity S-wave (km/s) = 2.01568 3.65553 2.95177
# Velocity P-wave (km/s) = 6.24536 7.43335 6.86510
#
# Compressibility (1/GPa) = 0.01425316
#
# Stress axis : x y z
#
# Youngs Moduli (GPa) = 72.63624 8.24266 10.76212
#
# Poissons Ratio (x) = 0.06225 0.03178
# Poissons Ratio (y) = 0.54857 1.03716
# Poissons Ratio (z) = 0.21447 0.79436
#
# Static dielectric constant tensor:
#      x y z
#    x 3.790230 0.093370 -0.118840 
#    y 0.093370 3.874720 -0.039700 
#    z -0.118840 -0.039700 3.942860 
# 
# 
# High freq. dielectric constant tensor:
#      x y z
#    x 1.822700 0.008460 0.001500 
#    y 0.008460 1.806690 -0.006720 
#    z 0.001500 -0.006720 1.810920 
# 
# From -- ./inp_files/199373.got.cif
#   From: 2010.06.25/outbox.cif.g09.slc.cpg/sg2_100_cif.got.tgz:199373.got - 2010.06.27 13:26:56.
