data_PCOD8004630
_publ_section_title
;
Structure prediction by ZEFSAII (Michael W. Deem and Ramdas Pophale) SiO2 
 PCOD8004630
Probable space group: P -1
;
_chemical_formula_sum "Si O2"
_cell_formula_units_Z 12
_cell_length_a 20.384473
_cell_length_b 5.215614
_cell_length_c 12.828085
_cell_angle_alpha 65.461622
_cell_angle_beta 153.863594
_cell_angle_gamma 127.489870
_cell_volume 441.908263
_symmetry_space_group_name_H-M "P -1"
_symmetry_group_IT_number 2
_symmetry_cell_setting 'triclinic'
loop_
_space_group_symop_operation_xyz
x,y,z
-x,-y,-z
loop_
_atom_site_type_symbol
_atom_site_label
_atom_site_fract_x
_atom_site_fract_y
_atom_site_fract_z
Si Si1 0.850411 0.168492 0.027204
Si Si2 0.516793 0.161156 0.343415
Si Si3 0.911974 0.730029 0.825828
Si Si4 0.477503 0.764529 0.148481
Si Si5 0.149205 0.819362 0.476188
Si Si6 0.914211 0.730282 0.329353
O O1 0.004096 0.479002 0.263964
O O2 0.929641 0.294103 0.999053
O O3 0.842211 0.836026 0.109985
O O4 0.647335 0.082363 0.765182
O O5 0.720495 0.371918 0.650959
O O6 0.481012 0.430206 0.200917
O O7 0.509934 0.915033 0.286227
O O8 0.852249 0.864225 0.622124
O O9 0.000000 0.000000 0.000000
O O10 0.642499 0.068383 0.259104
O O11 0.274806 0.635014 0.840167
O O12 0.074230 0.710966 0.508249
O O13 0.000000 0.000000 0.500000
#
# Coordination Sequence:
#
# PCOD8004630 Si02
#       6
#     2   2   2   2   2   2
#     4  10  20  38  61  81 119 158 192 240 301 348
#     4  10  20  38  61  85 119 159 194 240 300 353
#     4  10  22  38  59  88 117 153 200 245 290 351
#     4  10  20  38  61  85 119 159 194 240 300 353
#     4  10  20  38  61  81 119 158 192 240 301 348
#     4  10  22  38  59  88 117 153 200 245 290 351
#
# _framework density 27.154958000000001
#
# number of rings (size 3 to 8) (size 9 to 14) (size 15 to 20)
#    0.000    2.000    3.333    0.000    0.000    2.667 
#    0.000    1.667    0.000    0.000    0.000    0.000 
#    0.000    0.000    0.000    0.000    0.000    0.000 
#
# Total GULP energy -148707.535308 kJ/mol
# GULP energy per Si atom -12392.294609 kJ/mol
# Density = 2.709315 g / cm^3
# Si number density = 27.154958 Si / 1000 Ang^3
#
#
#
# Elastic Constant Matrix: (Units=GPa)
#
#
# Indices 1 2 3 4 5 6 
#
# 1 266.0987 33.9560 117.1936 27.8709 51.3442 -2.6225
# 2 33.9560 52.6228 41.3024 6.3713 15.3085 -3.4415
# 3 117.1936 41.3024 249.8397 42.6133 62.6536 -16.3344
# 4 27.8709 6.3713 42.6133 54.4955 -4.7264 -7.5090
# 5 51.3442 15.3085 62.6536 -4.7264 58.1992 15.4441
# 6 -2.6225 -3.4415 -16.3344 -7.5090 15.4441 58.7281
#
#
#
# Elastic Compliance Matrix: (Units=1/GPa)
#
#
# Indices 1 2 3 4 5 6 
#
# 1 0.005257 -0.001311 -0.000982 -0.001997 -0.003547 0.000562
# 2 -0.001311 0.022553 -0.002347 -0.000181 -0.002601 0.001271
# 3 -0.000982 -0.002347 0.008399 -0.006058 -0.009048 0.003760
# 4 -0.001997 -0.000181 -0.006058 0.024864 0.010729 -0.001427
# 5 -0.003547 -0.002601 -0.009048 0.010729 0.034394 -0.010500
# 6 0.000562 0.001271 0.003760 -0.001427 -0.010500 0.020752
#
#
# Mechanical properties :
#
#
# Convention : Reuss Voigt Hill
#
# Bulk Modulus (GPa) = 37.13488 105.94059 71.53773
# Shear Modulus (GPa) = 37.18149 59.35851 48.27000
#
# Velocity S-wave (km/s) = 3.70433 4.68045 4.22070
# Velocity P-wave (km/s) = 5.65694 8.26480 7.08194
#
# Compressibility (1/GPa) = 0.02692886
#
# Stress axis : x y z
#
# Youngs Moduli (GPa) = 190.22158 44.33999 119.05601
#
# Poissons Ratio (x) = 0.05812 0.11696
# Poissons Ratio (y) = 0.24933 0.27944
# Poissons Ratio (z) = 0.18687 0.10407
#
# Static dielectric constant tensor:
#      x y z
#    x 6.505730 0.684830 1.655940 
#    y 0.684830 5.588170 -0.037040 
#    z 1.655940 -0.037040 5.932520 
# 
# 
# High freq. dielectric constant tensor:
#      x y z
#    x 2.113570 0.017170 0.037430 
#    y 0.017170 2.109750 -0.014960 
#    z 0.037430 -0.014960 2.117570 
# 
# From -- ./inp_files/45703.got.cif
#   From: 2010.06.25/outbox.cif.g09.slc.cpg/sg2_23_cif.got.tgz:45703.got - 2010.06.27 13:26:56.
