data_PCOD8004718
_publ_section_title
;
Structure prediction by ZEFSAII (Michael W. Deem and Ramdas Pophale) SiO2 
 PCOD8004718
Probable space group: P -1
;
_chemical_formula_sum "Si O2"
_cell_formula_units_Z 16
_cell_length_a 9.529573
_cell_length_b 6.865266
_cell_length_c 17.849187
_cell_angle_alpha 43.578325
_cell_angle_beta 65.841580
_cell_angle_gamma 52.135058
_cell_volume 634.155283
_symmetry_space_group_name_H-M "P -1"
_symmetry_group_IT_number 2
_symmetry_cell_setting 'triclinic'
loop_
_space_group_symop_operation_xyz
x,y,z
-x,-y,-z
loop_
_atom_site_type_symbol
_atom_site_label
_atom_site_fract_x
_atom_site_fract_y
_atom_site_fract_z
Si Si1 0.239387 0.203333 0.849616
Si Si2 0.057472 0.139121 0.117269
Si Si3 0.149521 0.281724 0.209888
Si Si4 0.688326 0.347014 0.185815
Si Si5 0.719657 0.978504 0.594394
Si Si6 0.599893 0.581186 0.365843
Si Si7 0.649248 0.368291 0.917715
Si Si8 0.534286 0.721173 0.627735
O O1 0.296347 0.368820 0.855012
O O2 0.297667 0.252122 0.740778
O O3 0.026981 0.362889 0.853829
O O4 0.333388 0.818091 0.955773
O O5 0.152457 0.067971 0.198192
O O6 0.880531 0.104191 0.173185
O O7 0.196936 0.871640 0.105865
O O8 0.000000 0.500000 0.000000
O O9 0.322955 0.324253 0.157372
O O10 0.150494 0.115896 0.336241
O O11 0.542978 0.512330 0.106956
O O12 0.629716 0.164071 0.309670
O O13 0.747813 0.208501 0.464410
O O14 0.510492 0.202115 0.600644
O O15 0.716486 0.660267 0.647793
O O16 0.455399 0.579921 0.338243
O O17 0.500000 0.000000 0.500000
#
# Coordination Sequence:
#
# PCOD8004718 Si02
#       8
#     2   2   2   2   2   2   2   2
#     4  10  22  39  61  89 125 166 206 256 319 371
#     4  11  25  42  63  91 133 170 211 263 315 376
#     4  11  24  39  61  96 125 163 212 261 315 379
#     4  10  21  40  65  94 119 174 213 251 322 383
#     4  10  20  38  61  92 120 155 214 259 312 376
#     4   9  21  38  62  87 121 163 205 262 311 376
#     4  12  23  44  65  89 137 166 211 267 314 374
#     4   9  18  37  62  88 121 161 210 262 312 371
#
# _framework density 25.230414
#
# number of rings (size 3 to 8) (size 9 to 14) (size 15 to 20)
#    0.000    1.750    3.750    0.750    3.500    1.500 
#    0.000    1.250    0.000    0.750    0.000    0.000 
#    0.000    0.000    0.000    0.000    0.000    0.000 
#
# Total GULP energy -198312.713761 kJ/mol
# GULP energy per Si atom -12394.544610 kJ/mol
# Density = 2.517299 g / cm^3
# Si number density = 25.230414 Si / 1000 Ang^3
#
#
#
# Elastic Constant Matrix: (Units=GPa)
#
#
# Indices 1 2 3 4 5 6 
#
# 1 102.6114 15.2186 40.5093 0.3100 20.1242 -21.9865
# 2 15.2186 35.7272 6.0950 17.5138 -1.3331 3.3406
# 3 40.5093 6.0950 150.8330 18.9041 11.2327 -8.8989
# 4 0.3100 17.5138 18.9041 30.5716 -2.4650 -0.9396
# 5 20.1242 -1.3331 11.2327 -2.4650 41.0269 2.2124
# 6 -21.9865 3.3406 -8.8989 -0.9396 2.2124 25.2064
#
#
#
# Elastic Compliance Matrix: (Units=1/GPa)
#
#
# Indices 1 2 3 4 5 6 
#
# 1 0.019343 -0.014866 -0.004157 0.010721 -0.009191 0.018581
# 2 -0.014866 0.051411 0.004217 -0.031964 0.006971 -0.020095
# 3 -0.004157 0.004217 0.008499 -0.007716 -0.000537 -0.001425
# 4 0.010721 -0.031964 -0.007716 0.055963 -0.001528 0.013084
# 5 -0.009191 0.006971 -0.000537 -0.001528 0.029801 -0.011803
# 6 0.018581 -0.020095 -0.001425 0.013084 -0.011803 0.059564
#
#
# Mechanical properties :
#
#
# Convention : Reuss Voigt Hill
#
# Bulk Modulus (GPa) = 20.14515 45.86860 33.00687
# Shear Modulus (GPa) = 18.46783 34.51756 26.49269
#
# Velocity S-wave (km/s) = 2.70842 3.70279 3.24393
# Velocity P-wave (km/s) = 4.21694 6.04154 5.20974
#
# Compressibility (1/GPa) = 0.04963974
#
# Stress axis : x y z
#
# Youngs Moduli (GPa) = 51.69841 19.45095 117.66122
#
# Poissons Ratio (x) = 0.28916 0.48914
# Poissons Ratio (y) = 0.76855 -0.49612
# Poissons Ratio (z) = 0.21492 -0.08201
#
# Static dielectric constant tensor:
#      x y z
#    x 4.913590 0.234270 0.067310 
#    y 0.234270 4.403570 0.233090 
#    z 0.067310 0.233090 4.857670 
# 
# 
# High freq. dielectric constant tensor:
#      x y z
#    x 2.013770 0.021130 0.007330 
#    y 0.021130 1.981940 0.013250 
#    z 0.007330 0.013250 2.019870 
# 
# From -- ./inp_files/587136.got.cif
#   From: 2010.06.25/outbox.cif.g09.slc.cpg/sg2_294_cif.got.tgz:587136.got - 2010.06.27 13:26:56.
