data_PCOD8004981
_publ_section_title
;
Structure prediction by ZEFSAII (Michael W. Deem and Ramdas Pophale) SiO2 
 PCOD8004981
Probable space group: P -1
;
_chemical_formula_sum "Si O2"
_cell_formula_units_Z 14
_cell_length_a 12.643918
_cell_length_b 6.472951
_cell_length_c 19.657748
_cell_angle_alpha 87.115484
_cell_angle_beta 25.387263
_cell_angle_gamma 101.193273
_cell_volume 570.969723
_symmetry_space_group_name_H-M "P -1"
_symmetry_group_IT_number 2
_symmetry_cell_setting 'triclinic'
loop_
_space_group_symop_operation_xyz
x,y,z
-x,-y,-z
loop_
_atom_site_type_symbol
_atom_site_label
_atom_site_fract_x
_atom_site_fract_y
_atom_site_fract_z
Si Si1 0.226406 0.379186 0.907447
Si Si2 0.762033 0.815731 0.233827
Si Si3 0.633677 0.007319 0.532097
Si Si4 0.374974 0.646601 0.230743
Si Si5 0.765387 0.670215 0.893584
Si Si6 0.156035 0.880138 0.446114
Si Si7 0.927059 0.490140 0.182159
O O1 0.283031 0.381850 0.794872
O O2 0.541604 0.478978 0.757005
O O3 0.099453 0.537484 0.007479
O O4 0.000136 0.097846 0.071267
O O5 0.883825 0.714325 0.222547
O O6 0.453961 0.789336 0.430244
O O7 0.398040 0.766505 0.629780
O O8 0.636839 0.954104 0.612586
O O9 0.955214 0.105463 0.312639
O O10 0.349734 0.863793 0.273954
O O11 0.064232 0.400134 0.389565
O O12 0.629557 0.775385 0.022909
O O13 0.873288 0.518545 0.874731
O O14 0.500000 0.500000 0.000000
O O15 0.000000 0.000000 0.500000
#
# Coordination Sequence:
#
# PCOD8004981 Si02
#       7
#     2   2   2   2   2   2   2
#     4   9  19  36  60  94 128 159 206 275 314 375
#     4  10  20  38  63  95 128 164 216 260 326 378
#     4  11  23  43  66  95 134 170 212 274 316 384
#     4  10  22  42  65  89 131 171 206 274 323 369
#     4  11  23  46  65  92 136 174 215 268 325 381
#     4  11  24  40  67  99 126 170 220 263 325 394
#     4  10  23  38  69  92 125 177 215 262 324 388
#
# _framework density 24.519687999999999
#
# number of rings (size 3 to 8) (size 9 to 14) (size 15 to 20)
#    0.000    1.714    2.857    0.857    2.000    2.857 
#    0.000    2.143    0.000    0.000    0.000    0.000 
#    0.000    0.000    0.000    0.000    0.000    0.000 
#
# Total GULP energy -173473.355032 kJ/mol
# GULP energy per Si atom -12390.953931 kJ/mol
# Density = 2.446388 g / cm^3
# Si number density = 24.519688 Si / 1000 Ang^3
#
#
#
# Elastic Constant Matrix: (Units=GPa)
#
#
# Indices 1 2 3 4 5 6 
#
# 1 106.9178 29.5139 35.9048 13.8871 -12.9410 0.2912
# 2 29.5139 99.6292 35.2862 37.9974 -1.2108 -12.2176
# 3 35.9048 35.2862 125.3966 34.6840 0.3108 -0.6546
# 4 13.8871 37.9974 34.6840 34.8415 3.4582 -8.2753
# 5 -12.9410 -1.2108 0.3108 3.4582 38.6091 1.5824
# 6 0.2912 -12.2176 -0.6546 -8.2753 1.5824 25.6131
#
#
#
# Elastic Compliance Matrix: (Units=1/GPa)
#
#
# Indices 1 2 3 4 5 6 
#
# 1 0.011403 -0.002693 -0.002577 0.000185 0.003810 -0.001655
# 2 -0.002693 0.018136 0.001005 -0.019262 0.001285 0.002405
# 3 -0.002577 0.001005 0.011950 -0.012794 0.000354 -0.003341
# 4 0.000185 -0.019262 -0.012794 0.065950 -0.006847 0.012214
# 5 0.003810 0.001285 0.000354 -0.006847 0.027966 -0.003361
# 6 -0.001655 0.002405 -0.003341 0.012214 -0.003361 0.044277
#
#
# Mechanical properties :
#
#
# Convention : Reuss Voigt Hill
#
# Bulk Modulus (GPa) = 30.34031 59.26149 44.80090
# Shear Modulus (GPa) = 25.10065 35.22864 30.16465
#
# Velocity S-wave (km/s) = 3.20299 3.79456 3.51126
# Velocity P-wave (km/s) = 5.10682 6.58936 5.89488
#
# Compressibility (1/GPa) = 0.03295945
#
# Stress axis : x y z
#
# Youngs Moduli (GPa) = 87.69504 55.13958 83.68161
#
# Poissons Ratio (x) = 0.14848 0.21562
# Poissons Ratio (y) = 0.23615 -0.08408
# Poissons Ratio (z) = 0.22596 -0.05540
#
# Static dielectric constant tensor:
#      x y z
#    x 4.652670 0.175650 -0.185810 
#    y 0.175650 4.237790 0.447170 
#    z -0.185810 0.447170 4.548360 
# 
# 
# High freq. dielectric constant tensor:
#      x y z
#    x 1.973250 0.004200 -0.019940 
#    y 0.004200 1.961830 0.022100 
#    z -0.019940 0.022100 1.977260 
# 
# From -- ./inp_files/611245.got.cif
#   From: 2010.06.25/outbox.cif.g09.slc.cpg/sg2_306_cif.got.tgz:611245.got - 2010.06.27 13:26:56.
