data_PCOD8004486
_publ_section_title
;
Structure prediction by ZEFSAII (Michael W. Deem and Ramdas Pophale) SiO2 
 PCOD8004486
Probable space group: P -1
;
_chemical_formula_sum "Si O2"
_cell_formula_units_Z 16
_cell_length_a 17.337797
_cell_length_b 7.988531
_cell_length_c 8.912635
_cell_angle_alpha 129.156776
_cell_angle_beta 59.167211
_cell_angle_gamma 127.345944
_cell_volume 743.988916
_symmetry_space_group_name_H-M "P -1"
_symmetry_group_IT_number 2
_symmetry_cell_setting 'triclinic'
loop_
_space_group_symop_operation_xyz
x,y,z
-x,-y,-z
loop_
_atom_site_type_symbol
_atom_site_label
_atom_site_fract_x
_atom_site_fract_y
_atom_site_fract_z
Si Si1 0.911730 0.600444 0.051141
Si Si2 0.377943 0.158842 0.461544
Si Si3 0.529661 0.537963 0.743825
Si Si4 0.026269 0.109026 0.319943
Si Si5 0.591662 0.321405 0.828939
Si Si6 0.803627 0.576130 0.872223
Si Si7 0.916926 0.490494 0.289944
Si Si8 0.834319 0.173410 0.462320
O O1 0.863561 0.427698 0.143629
O O2 0.987722 0.827092 0.200459
O O3 0.827073 0.636828 0.061021
O O4 0.976718 0.521100 0.829459
O O5 0.438855 0.350077 0.633450
O O6 0.394636 0.272954 0.342264
O O7 0.407659 0.936995 0.315710
O O8 0.262258 0.077556 0.572773
O O9 0.579501 0.396705 0.712734
O O10 0.495737 0.687153 0.979715
O O11 0.937909 0.161669 0.370864
O O12 0.119364 0.198152 0.165696
O O13 0.062046 0.243477 0.518948
O O14 0.692623 0.526910 0.911467
O O15 0.821364 0.340717 0.696502
O O16 0.838314 0.293924 0.365009
#
# Coordination Sequence:
#
# PCOD8004486 Si02
#       8
#     2   2   2   2   2   2   2   2
#     4  11  21  34  58  81 117 159 203 236 284 342
#     4  10  22  41  66  91 119 158 201 248 306 361
#     4  10  22  43  65  92 117 155 204 256 304 364
#     4  11  20  37  57  81 122 160 190 233 293 347
#     4  10  22  41  66  89 125 154 199 253 311 349
#     4  10  20  38  59  87 118 162 191 240 293 359
#     4  10  21  38  52  84 121 158 195 245 283 343
#     4  10  20  39  59  82 123 157 191 237 299 349
#
# _framework density 21.505694999999999
#
# number of rings (size 3 to 8) (size 9 to 14) (size 15 to 20)
#    0.000    1.750    2.500    2.250    1.750    0.000 
#    9.000    6.250    0.000    0.000    0.000    0.000 
#    0.000    0.000    0.000    0.000    0.000    0.000 
#
# Total GULP energy -198286.138922 kJ/mol
# GULP energy per Si atom -12392.883683 kJ/mol
# Density = 2.145675 g / cm^3
# Si number density = 21.505695 Si / 1000 Ang^3
#
#
#
# Elastic Constant Matrix: (Units=GPa)
#
#
# Indices 1 2 3 4 5 6 
#
# 1 60.2917 15.7233 17.1773 -19.1860 25.6439 -4.7890
# 2 15.7233 82.9245 28.3704 -15.2347 17.3769 3.5034
# 3 17.1773 28.3704 72.5455 -15.6655 17.2899 -10.7211
# 4 -19.1860 -15.2347 -15.6655 26.2102 -10.6972 -0.7523
# 5 25.6439 17.3769 17.2899 -10.6972 36.1445 -0.6494
# 6 -4.7890 3.5034 -10.7211 -0.7523 -0.6494 30.8847
#
#
#
# Elastic Compliance Matrix: (Units=1/GPa)
#
#
# Indices 1 2 3 4 5 6 
#
# 1 0.028224 0.000231 0.000990 0.014951 -0.016099 0.004720
# 2 0.000231 0.015434 -0.004606 0.004632 -0.004068 -0.003287
# 3 0.000990 -0.004606 0.019389 0.007663 -0.005360 0.007481
# 4 0.014951 0.004632 0.007663 0.056694 0.000384 0.005842
# 5 -0.016099 -0.004068 -0.005360 0.000384 0.043669 -0.002968
# 6 0.004720 -0.003287 0.007481 0.005842 -0.002968 0.036160
#
#
# Mechanical properties :
#
#
# Convention : Reuss Voigt Hill
#
# Bulk Modulus (GPa) = 17.76976 37.58930 27.67953
# Shear Modulus (GPa) = 22.21243 28.94726 25.57985
#
# Velocity S-wave (km/s) = 3.21730 3.67280 3.45257
# Velocity P-wave (km/s) = 4.69917 5.95841 5.36586
#
# Compressibility (1/GPa) = 0.05627539
#
# Stress axis : x y z
#
# Youngs Moduli (GPa) = 35.43115 64.79358 51.57511
#
# Poissons Ratio (x) = -0.01495 -0.05105
# Poissons Ratio (y) = -0.00818 0.23756
# Poissons Ratio (z) = -0.03507 0.29845
#
# Static dielectric constant tensor:
#      x y z
#    x 3.727340 -0.021700 0.094190 
#    y -0.021700 3.915270 0.019520 
#    z 0.094190 0.019520 3.977640 
# 
# 
# High freq. dielectric constant tensor:
#      x y z
#    x 1.829890 -0.010630 0.010550 
#    y -0.010630 1.839140 -0.003650 
#    z 0.010550 -0.003650 1.856200 
# 
# From -- ./inp_files/205819.got.cif
#   From: 2010.06.25/outbox.cif.g09.slc.cpg/sg2_103_cif.got.tgz:205819.got - 2010.06.27 13:26:56.
