data_PCOD8004890
_publ_section_title
;
Structure prediction by ZEFSAII (Michael W. Deem and Ramdas Pophale) SiO2 
 PCOD8004890
Probable space group: P -1
;
_chemical_formula_sum "Si O2"
_cell_formula_units_Z 16
_cell_length_a 15.921654
_cell_length_b 14.198466
_cell_length_c 8.819909
_cell_angle_alpha 82.094422
_cell_angle_beta 115.706758
_cell_angle_gamma 151.547806
_cell_volume 704.426726
_symmetry_space_group_name_H-M "P -1"
_symmetry_group_IT_number 2
_symmetry_cell_setting 'triclinic'
loop_
_space_group_symop_operation_xyz
x,y,z
-x,-y,-z
loop_
_atom_site_type_symbol
_atom_site_label
_atom_site_fract_x
_atom_site_fract_y
_atom_site_fract_z
Si Si1 0.570017 0.334648 0.078197
Si Si2 0.214864 0.630006 0.625292
Si Si3 0.250739 0.585182 0.329507
Si Si4 0.644768 0.122574 0.737916
Si Si5 0.721477 0.627349 0.356660
Si Si6 0.857645 0.130636 0.950057
Si Si7 0.645381 0.817779 0.617692
Si Si8 0.745616 0.865573 0.351976
O O1 0.768391 0.435641 0.213233
O O2 0.675681 0.530565 0.184571
O O3 0.373793 0.112074 0.086154
O O4 0.452354 0.246394 0.842189
O O5 0.185448 0.546397 0.461302
O O6 0.000000 0.500000 0.500000
O O7 0.451722 0.915989 0.760814
O O8 0.225127 0.654370 0.185817
O O9 0.516702 0.796659 0.483941
O O10 0.086933 0.346849 0.188299
O O11 0.832722 0.214314 0.847534
O O12 0.500000 0.000000 0.500000
O O13 0.540986 0.425595 0.390928
O O14 0.682729 0.702193 0.278277
O O15 0.994278 0.863084 0.565321
O O16 0.871165 0.062056 0.843906
O O17 0.742502 0.859995 0.533345
#
# Coordination Sequence:
#
# PCOD8004890 Si02
#       8
#     2   2   2   2   2   2   2   2
#     4  10  21  42  63  94 132 167 215 267 321 382
#     4  10  21  40  64  90 130 171 214 268 315 375
#     4  11  20  39  62  87 126 171 210 261 321 376
#     4   9  17  37  55  84 118 159 213 257 305 369
#     4  10  22  45  67  95 135 165 211 271 325 389
#     4  10  20  38  63  85 125 177 205 262 324 371
#     4  11  22  42  64  96 133 163 214 266 316 391
#     4  11  24  40  71  99 124 172 215 263 333 386
#
# _framework density 22.713502999999999
#
# number of rings (size 3 to 8) (size 9 to 14) (size 15 to 20)
#    0.000    1.750    5.000    1.875    0.000    2.000 
#    6.750    1.250    0.000    8.250    0.000    0.875 
#    0.000    0.000    0.000    0.000    0.000    0.000 
#
# Total GULP energy -198242.300577 kJ/mol
# GULP energy per Si atom -12390.143786 kJ/mol
# Density = 2.266181 g / cm^3
# Si number density = 22.713503 Si / 1000 Ang^3
#
#
#
# Elastic Constant Matrix: (Units=GPa)
#
#
# Indices 1 2 3 4 5 6 
#
# 1 72.7229 23.6592 34.8863 8.2237 1.6033 -1.1508
# 2 23.6592 81.6015 39.4801 8.0766 -9.0419 -19.7410
# 3 34.8863 39.4801 108.2256 9.8540 -2.4400 -11.9069
# 4 8.2237 8.0766 9.8540 28.2150 -9.8603 -6.1471
# 5 1.6033 -9.0419 -2.4400 -9.8603 32.6606 0.4884
# 6 -1.1508 -19.7410 -11.9069 -6.1471 0.4884 25.8893
#
#
#
# Elastic Compliance Matrix: (Units=1/GPa)
#
#
# Indices 1 2 3 4 5 6 
#
# 1 0.017841 -0.004330 -0.004426 -0.004984 -0.003825 -0.005656
# 2 -0.004330 0.019057 -0.004208 0.002014 0.005591 0.012776
# 3 -0.004426 -0.004208 0.012558 -0.001645 -0.000536 0.001990
# 4 -0.004984 0.002014 -0.001645 0.044068 0.013822 0.010760
# 5 -0.003825 0.005591 -0.000536 0.013822 0.036390 0.006442
# 6 -0.005656 0.012776 0.001990 0.010760 0.006442 0.051465
#
#
# Mechanical properties :
#
#
# Convention : Reuss Voigt Hill
#
# Bulk Modulus (GPa) = 42.50183 50.95570 46.72876
# Shear Modulus (GPa) = 23.23956 28.32128 25.78042
#
# Velocity S-wave (km/s) = 3.20216 3.53497 3.37267
# Velocity P-wave (km/s) = 5.69425 6.25653 5.98200
#
# Compressibility (1/GPa) = 0.02352840
#
# Stress axis : x y z
#
# Youngs Moduli (GPa) = 56.04982 52.47447 79.62833
#
# Poissons Ratio (x) = 0.22722 0.35245
# Poissons Ratio (y) = 0.24270 0.33506
# Poissons Ratio (z) = 0.24809 0.22080
#
# Static dielectric constant tensor:
#      x y z
#    x 4.022250 -0.498920 -0.009690 
#    y -0.498920 4.556610 0.196870 
#    z -0.009690 0.196870 4.254480 
# 
# 
# High freq. dielectric constant tensor:
#      x y z
#    x 1.872810 -0.024430 0.004410 
#    y -0.024430 1.896850 0.010940 
#    z 0.004410 0.010940 1.893350 
# 
# From -- ./inp_files/335706.got.cif
#   From: 2010.06.25/outbox.cif.g09.slc.cpg/sg2_168_cif.got.tgz:335706.got - 2010.06.27 13:26:56.
