data_PCOD8004192
_publ_section_title
;
Structure prediction by ZEFSAII (Michael W. Deem and Ramdas Pophale) SiO2 
 PCOD8004192
Probable space group: P -1
;
_chemical_formula_sum "Si O2"
_cell_formula_units_Z 14
_cell_length_a 8.837205
_cell_length_b 6.576514
_cell_length_c 21.505711
_cell_angle_alpha 69.244748
_cell_angle_beta 142.185443
_cell_angle_gamma 120.904208
_cell_volume 654.367622
_symmetry_space_group_name_H-M "P -1"
_symmetry_group_IT_number 2
_symmetry_cell_setting 'triclinic'
loop_
_space_group_symop_operation_xyz
x,y,z
-x,-y,-z
loop_
_atom_site_type_symbol
_atom_site_label
_atom_site_fract_x
_atom_site_fract_y
_atom_site_fract_z
Si Si1 0.405683 0.504191 0.176426
Si Si2 0.045891 0.953787 0.948147
Si Si3 0.610074 0.003962 0.135262
Si Si4 0.963608 0.735287 0.533493
Si Si5 0.135426 0.596832 0.729365
Si Si6 0.564104 0.358569 0.365720
Si Si7 0.061990 0.910284 0.227883
O O1 0.455908 0.774126 0.152656
O O2 0.588666 0.408375 0.205100
O O3 0.472284 0.502077 0.270296
O O4 0.095998 0.330496 0.079435
O O5 0.364005 0.058915 0.022221
O O6 0.908190 0.072145 0.840166
O O7 0.000000 0.000000 0.000000
O O8 0.786104 0.944822 0.147299
O O9 0.809569 0.224186 0.215437
O O10 0.668715 0.535291 0.439546
O O11 0.988658 0.689450 0.619451
O O12 0.193805 0.701296 0.573112
O O13 0.000000 0.000000 0.500000
O O14 0.944280 0.336431 0.721524
O O15 0.309789 0.110510 0.323875
#
# Coordination Sequence:
#
# PCOD8004192 Si02
#       7
#     2   2   2   2   2   2   2
#     4   9  19  38  59  85 119 154 201 243 289 343
#     4  11  21  40  62  88 115 159 206 246 283 344
#     4  11  21  38  60  87 120 161 194 241 296 349
#     4  10  20  37  65  91 113 152 204 240 289 355
#     4  10  21  38  58  87 123 157 191 245 296 349
#     4   9  20  39  59  87 120 154 191 247 292 346
#     4  10  24  41  57  86 127 157 190 243 305 348
#
# _framework density 21.394703
#
# number of rings (size 3 to 8) (size 9 to 14) (size 15 to 20)
#    0.000    2.000    1.429    1.714    0.000    3.429 
#    7.714    1.429    0.000    0.000    0.000    0.000 
#    0.000    0.000    0.000    0.000    0.000    0.000 
#
# Total GULP energy -173529.877811 kJ/mol
# GULP energy per Si atom -12394.991272 kJ/mol
# Density = 2.134601 g / cm^3
# Si number density = 21.394703 Si / 1000 Ang^3
#
#
#
# Elastic Constant Matrix: (Units=GPa)
#
#
# Indices 1 2 3 4 5 6 
#
# 1 38.9955 25.0694 25.8223 5.5366 -4.8256 12.6816
# 2 25.0694 155.0806 71.2104 9.7625 -19.6315 20.9224
# 3 25.8223 71.2104 126.6605 19.4292 -12.3632 6.9817
# 4 5.5366 9.7625 19.4292 34.9617 7.1087 0.1845
# 5 -4.8256 -19.6315 -12.3632 7.1087 24.9538 1.1844
# 6 12.6816 20.9224 6.9817 0.1845 1.1844 29.9156
#
#
#
# Elastic Compliance Matrix: (Units=1/GPa)
#
#
# Indices 1 2 3 4 5 6 
#
# 1 0.034857 -0.000656 -0.004907 -0.003651 0.005468 -0.013366
# 2 -0.000656 0.010375 -0.004469 -0.001614 0.006574 -0.006185
# 3 -0.004907 -0.004469 0.012448 -0.005551 0.003179 0.002209
# 4 -0.003651 -0.001614 -0.005551 0.035768 -0.015121 0.004350
# 5 0.005468 0.006574 0.003179 -0.015121 0.052644 -0.009649
# 6 -0.013366 -0.006185 0.002209 0.004350 -0.009649 0.043259
#
#
# Mechanical properties :
#
#
# Convention : Reuss Voigt Hill
#
# Bulk Modulus (GPa) = 26.58478 62.77119 44.67799
# Shear Modulus (GPa) = 22.52736 31.20852 26.86794
#
# Velocity S-wave (km/s) = 3.24843 3.82344 3.54760
# Velocity P-wave (km/s) = 5.15000 6.99249 6.14074
#
# Compressibility (1/GPa) = 0.03761550
#
# Stress axis : x y z
#
# Youngs Moduli (GPa) = 28.68878 96.38941 80.33469
#
# Poissons Ratio (x) = 0.06327 0.39418
# Poissons Ratio (y) = 0.01883 0.35900
# Poissons Ratio (z) = 0.14077 0.43074
#
# Static dielectric constant tensor:
#      x y z
#    x 3.616740 0.165790 0.025590 
#    y 0.165790 3.861530 0.136550 
#    z 0.025590 0.136550 4.084050 
# 
# 
# High freq. dielectric constant tensor:
#      x y z
#    x 1.817880 0.010060 -0.001600 
#    y 0.010060 1.843230 0.009900 
#    z -0.001600 0.009900 1.849140 
# 
# From -- ./inp_files/34080.got.cif
#   From: 2010.06.25/outbox.cif.g09.slc.cpg/sg2_18_cif.got.tgz:34080.got - 2010.06.27 13:26:56.
