data_PCOD8004894
_publ_section_title
;
Structure prediction by ZEFSAII (Michael W. Deem and Ramdas Pophale) SiO2 
 PCOD8004894
Probable space group: P -1
;
_chemical_formula_sum "Si O2"
_cell_formula_units_Z 16
_cell_length_a 8.695915
_cell_length_b 14.801050
_cell_length_c 15.123430
_cell_angle_alpha 150.887897
_cell_angle_beta 93.910535
_cell_angle_gamma 106.725515
_cell_volume 659.908449
_symmetry_space_group_name_H-M "P -1"
_symmetry_group_IT_number 2
_symmetry_cell_setting 'triclinic'
loop_
_space_group_symop_operation_xyz
x,y,z
-x,-y,-z
loop_
_atom_site_type_symbol
_atom_site_label
_atom_site_fract_x
_atom_site_fract_y
_atom_site_fract_z
Si Si1 0.729187 0.240397 0.170550
Si Si2 0.716853 0.767252 0.284442
Si Si3 0.938605 0.735168 0.693880
Si Si4 0.561194 0.986798 0.395269
Si Si5 0.094574 0.449122 0.883695
Si Si6 0.096706 0.706388 0.953546
Si Si7 0.220691 0.308880 0.170007
Si Si8 0.415538 0.218976 0.516329
O O1 0.792224 0.508245 0.420545
O O2 0.908864 0.268180 0.247218
O O3 0.718191 0.202182 0.031692
O O4 0.500000 0.000000 0.000000
O O5 0.763191 0.011251 0.444810
O O6 0.921308 0.790995 0.302822
O O7 0.661027 0.748778 0.369298
O O8 0.500000 0.500000 0.000000
O O9 0.774210 0.686830 0.718693
O O10 0.088655 0.010486 0.881272
O O11 0.500000 0.000000 0.500000
O O12 0.595257 0.205875 0.528433
O O13 0.357760 0.702369 0.100013
O O14 0.998281 0.447528 0.785676
O O15 0.000000 0.500000 0.000000
O O16 0.199517 0.949840 0.230525
O O17 0.899597 0.617489 0.812609
O O18 0.467738 0.527813 0.326313
#
# Coordination Sequence:
#
# PCOD8004894 Si02
#       8
#     2   2   2   2   2   2   2   2
#     4  10  20  39  65  87 128 160 198 261 320 368
#     4   9  19  36  60  86 116 165 219 259 309 389
#     4   9  21  39  59  94 121 157 212 249 304 399
#     4   8  17  35  57  80 112 158 208 253 302 377
#     4  10  21  36  59  82 125 162 203 267 317 361
#     4  10  23  37  58  94 120 163 212 258 313 386
#     4  10  21  38  63  87 126 165 202 258 319 371
#     4  10  20  38  63  86 126 167 207 264 320 368
#
# _framework density 24.245785999999999
#
# number of rings (size 3 to 8) (size 9 to 14) (size 15 to 20)
#    0.000    2.500    0.000    0.750    5.250    3.000 
#    0.000   15.625    0.000    0.000    0.000    0.000 
#    0.000    0.000    0.000    0.000    0.000    0.000 
#
# Total GULP energy -198231.788236 kJ/mol
# GULP energy per Si atom -12389.486765 kJ/mol
# Density = 2.419060 g / cm^3
# Si number density = 24.245786 Si / 1000 Ang^3
#
#
#
# Elastic Constant Matrix: (Units=GPa)
#
#
# Indices 1 2 3 4 5 6 
#
# 1 100.4982 15.1119 19.1381 0.0630 -19.2562 -5.3753
# 2 15.1119 118.1062 41.5733 10.6943 -22.6847 10.9736
# 3 19.1381 41.5733 88.3473 4.3284 -33.3265 10.4994
# 4 0.0630 10.6943 4.3284 51.5288 -6.7440 -5.3687
# 5 -19.2562 -22.6847 -33.3265 -6.7440 36.2555 -3.0853
# 6 -5.3753 10.9736 10.4994 -5.3687 -3.0853 34.7812
#
#
#
# Elastic Compliance Matrix: (Units=1/GPa)
#
#
# Indices 1 2 3 4 5 6 
#
# 1 0.011363 -0.000567 -0.000407 0.001178 0.005760 0.002751
# 2 -0.000567 0.010676 -0.003554 -0.001835 0.002562 -0.002439
# 3 -0.000407 -0.003554 0.019070 0.000754 0.014953 -0.003255
# 4 0.001178 -0.001835 0.000754 0.020725 0.004377 0.004121
# 5 0.005760 0.002562 0.014953 0.004377 0.046837 0.000398
# 6 0.002751 -0.002439 -0.003255 0.004121 0.000398 0.031600
#
#
# Mechanical properties :
#
#
# Convention : Reuss Voigt Hill
#
# Bulk Modulus (GPa) = 31.19814 50.95536 41.07675
# Shear Modulus (GPa) = 31.24793 39.92167 35.58480
#
# Velocity S-wave (km/s) = 3.59388 4.06216 3.83517
# Velocity P-wave (km/s) = 5.48787 6.56227 6.04897
#
# Compressibility (1/GPa) = 0.03205319
#
# Stress axis : x y z
#
# Youngs Moduli (GPa) = 88.00391 93.67201 52.43821
#
# Poissons Ratio (x) = 0.05308 0.02132
# Poissons Ratio (y) = 0.04987 0.18639
# Poissons Ratio (z) = 0.03578 0.33295
#
# Static dielectric constant tensor:
#      x y z
#    x 4.583870 -0.258560 -0.272530 
#    y -0.258560 4.776460 0.189600 
#    z -0.272530 0.189600 4.710890 
# 
# 
# High freq. dielectric constant tensor:
#      x y z
#    x 1.959230 -0.015910 0.000850 
#    y -0.015910 1.956970 0.012970 
#    z 0.000850 0.012970 1.985880 
# 
# From -- ./inp_files/505850.got.cif
#   From: 2010.06.25/outbox.cif.g09.slc.cpg/sg2_253_cif.got.tgz:505850.got - 2010.06.27 13:26:56.
