data_PCOD8004648
_publ_section_title
;
Structure prediction by ZEFSAII (Michael W. Deem and Ramdas Pophale) SiO2 
 PCOD8004648
Probable space group: P -1
;
_chemical_formula_sum "Si O2"
_cell_formula_units_Z 16
_cell_length_a 12.378367
_cell_length_b 11.721944
_cell_length_c 9.287949
_cell_angle_alpha 134.676762
_cell_angle_beta 62.901190
_cell_angle_gamma 98.551637
_cell_volume 821.168770
_symmetry_space_group_name_H-M "P -1"
_symmetry_group_IT_number 2
_symmetry_cell_setting 'triclinic'
loop_
_space_group_symop_operation_xyz
x,y,z
-x,-y,-z
loop_
_atom_site_type_symbol
_atom_site_label
_atom_site_fract_x
_atom_site_fract_y
_atom_site_fract_z
Si Si1 0.615442 0.145521 0.462574
Si Si2 0.170575 0.487909 0.979110
Si Si3 0.230774 0.310889 0.238109
Si Si4 0.352290 0.132309 0.597751
Si Si5 0.085922 0.547143 0.776362
Si Si6 0.996860 0.812042 0.825325
Si Si7 0.777960 0.376737 0.659143
Si Si8 0.464724 0.023702 0.878683
O O1 0.695712 0.979557 0.353296
O O2 0.469885 0.191016 0.647869
O O3 0.612340 0.102380 0.254501
O O4 0.328858 0.699637 0.409236
O O5 0.161273 0.565046 0.892817
O O6 0.242816 0.291527 0.756883
O O7 0.235518 0.601999 0.140320
O O8 0.035428 0.509184 0.152718
O O9 0.175143 0.401713 0.499118
O O10 0.239290 0.437609 0.220603
O O11 0.143215 0.198366 0.133298
O O12 0.374296 0.208572 0.084604
O O13 0.404379 0.010112 0.320756
O O14 0.049357 0.718060 0.859308
O O15 0.084876 0.732709 0.567912
O O16 0.000000 0.000000 0.000000
O O17 0.500000 0.000000 0.000000
#
# Coordination Sequence:
#
# PCOD8004648 Si02
#       8
#     2   2   2   2   2   2   2   2
#     4   9  21  38  58  89 110 151 204 231 287 347
#     4  11  20  38  61  84 125 150 190 243 293 347
#     4  11  20  40  61  84 117 155 195 236 289 352
#     4   9  21  39  59  83 115 159 190 236 288 344
#     4  10  22  37  59  92 114 156 190 241 301 337
#     4  11  22  38  63  87 116 155 199 238 286 351
#     4  11  21  37  62  89 112 157 196 236 291 351
#     4  10  20  38  61  85 113 154 193 239 291 337
#
# _framework density 19.484423
#
# number of rings (size 3 to 8) (size 9 to 14) (size 15 to 20)
#    0.750    1.000    2.500    3.000    1.750    0.500 
#    0.000    6.250    0.000    0.000    0.000    0.000 
#    0.000    0.000    0.000    0.000    0.000    0.000 
#
# Total GULP energy -198260.517204 kJ/mol
# GULP energy per Si atom -12391.282325 kJ/mol
# Density = 1.944008 g / cm^3
# Si number density = 19.484423 Si / 1000 Ang^3
#
#
#
# Elastic Constant Matrix: (Units=GPa)
#
#
# Indices 1 2 3 4 5 6 
#
# 1 71.7291 38.8605 49.9181 -3.5097 22.6881 -13.9536
# 2 38.8605 79.6052 50.0397 -0.7086 25.5393 -10.0775
# 3 49.9181 50.0397 112.8779 -9.0504 13.3212 -26.0807
# 4 -3.5097 -0.7086 -9.0504 32.2616 -4.4877 5.8408
# 5 22.6881 25.5393 13.3212 -4.4877 42.1100 -0.3917
# 6 -13.9536 -10.0775 -26.0807 5.8408 -0.3917 36.8478
#
#
#
# Elastic Compliance Matrix: (Units=1/GPa)
#
#
# Indices 1 2 3 4 5 6 
#
# 1 0.024592 -0.004299 -0.007377 -0.001204 -0.008409 0.003017
# 2 -0.004299 0.021974 -0.007070 -0.003198 -0.009117 -0.000212
# 3 -0.007377 -0.007070 0.016620 0.002980 0.003383 0.006600
# 4 -0.001204 -0.003198 0.002980 0.033146 0.005137 -0.004421
# 5 -0.008409 -0.009117 0.003383 0.005137 0.033250 -0.003744
# 6 0.003017 -0.000212 0.006600 -0.004421 -0.003744 0.033556
#
#
# Mechanical properties :
#
#
# Convention : Reuss Voigt Hill
#
# Bulk Modulus (GPa) = 38.91696 60.20542 49.56119
# Shear Modulus (GPa) = 23.90130 30.60348 27.25239
#
# Velocity S-wave (km/s) = 3.50621 3.96746 3.74394
# Velocity P-wave (km/s) = 6.03391 7.20791 6.64688
#
# Compressibility (1/GPa) = 0.02569574
#
# Stress axis : x y z
#
# Youngs Moduli (GPa) = 40.66425 45.50752 60.16838
#
# Poissons Ratio (x) = 0.19563 0.44383
# Poissons Ratio (y) = 0.17481 0.42538
# Poissons Ratio (z) = 0.29996 0.32173
#
# Static dielectric constant tensor:
#      x y z
#    x 3.544390 -0.152980 0.011480 
#    y -0.152980 3.321790 -0.229140 
#    z 0.011480 -0.229140 3.593170 
# 
# 
# High freq. dielectric constant tensor:
#      x y z
#    x 1.747150 -0.015950 -0.007610 
#    y -0.015950 1.734030 -0.009380 
#    z -0.007610 -0.009380 1.774810 
# 
# From -- ./inp_files/305965.got.cif
#   From: 2010.06.25/outbox.cif.g09.slc.cpg/sg2_153_cif.got.tgz:305965.got - 2010.06.27 13:26:56.
