data_PCOD8004828
_publ_section_title
;
Structure prediction by ZEFSAII (Michael W. Deem and Ramdas Pophale) SiO2 
 PCOD8004828
Probable space group: P -1
;
_chemical_formula_sum "Si O2"
_cell_formula_units_Z 16
_cell_length_a 13.515218
_cell_length_b 14.205476
_cell_length_c 13.056175
_cell_angle_alpha 46.097789
_cell_angle_beta 145.331887
_cell_angle_gamma 149.598620
_cell_volume 720.445632
_symmetry_space_group_name_H-M "P -1"
_symmetry_group_IT_number 2
_symmetry_cell_setting 'triclinic'
loop_
_space_group_symop_operation_xyz
x,y,z
-x,-y,-z
loop_
_atom_site_type_symbol
_atom_site_label
_atom_site_fract_x
_atom_site_fract_y
_atom_site_fract_z
Si Si1 0.810982 0.878262 0.734786
Si Si2 0.382385 0.824348 0.464142
Si Si3 0.297678 0.494912 0.400140
Si Si4 0.762172 0.739200 0.107839
Si Si5 0.277035 0.567911 0.736391
Si Si6 0.826165 0.824448 0.559929
Si Si7 0.566457 0.493198 0.810985
Si Si8 0.975169 0.543330 0.192263
O O1 0.598302 0.872532 0.546893
O O2 0.917407 0.903971 0.692639
O O3 0.690764 0.684887 0.828076
O O4 0.014591 0.039019 0.865707
O O5 0.232680 0.643039 0.547889
O O6 0.181622 0.754243 0.257904
O O7 0.500000 0.000000 0.500000
O O8 0.527445 0.696862 0.390047
O O9 0.142837 0.315603 0.329035
O O10 0.439147 0.469485 0.615951
O O11 0.105524 0.487089 0.297227
O O12 0.862377 0.646568 0.236961
O O13 0.641475 0.675721 0.165453
O O14 0.570255 0.690330 0.897250
O O15 0.197696 0.593158 0.756405
O O16 0.000000 0.000000 0.500000
O O17 0.797724 0.515383 0.977094
#
# Coordination Sequence:
#
# PCOD8004828 Si02
#       8
#     2   2   2   2   2   2   2   2
#     4  11  22  40  64  90 125 164 206 261 311 371
#     4  12  24  37  57  94 128 167 209 253 309 368
#     4  10  21  43  65  91 127 156 209 262 309 383
#     4  10  20  38  62  91 127 169 212 255 299 370
#     4  10  22  38  59  92 129 171 210 250 309 364
#     4  10  21  39  68  93 116 165 207 256 326 371
#     4  10  21  40  65  91 128 165 207 253 316 369
#     4  11  22  41  64  91 128 168 206 257 312 368
#
# _framework density 22.208476000000001
#
# number of rings (size 3 to 8) (size 9 to 14) (size 15 to 20)
#    0.000    1.500    3.750    1.875    1.750    2.500 
#    0.000    5.625    0.000    6.750    0.000    0.000 
#    0.000    0.000    0.000    0.000    0.000    0.000 
#
# Total GULP energy -198241.751287 kJ/mol
# GULP energy per Si atom -12390.109455 kJ/mol
# Density = 2.215793 g / cm^3
# Si number density = 22.208476 Si / 1000 Ang^3
#
#
#
# Elastic Constant Matrix: (Units=GPa)
#
#
# Indices 1 2 3 4 5 6 
#
# 1 122.1444 17.0244 27.2860 -1.0186 26.7643 -10.8359
# 2 17.0244 77.2285 -7.1775 1.8611 5.1925 -10.8841
# 3 27.2860 -7.1775 90.0561 0.8383 17.6402 -6.3496
# 4 -1.0186 1.8611 0.8383 15.9331 -0.8032 1.5251
# 5 26.7643 5.1925 17.6402 -0.8032 30.6271 -5.6253
# 6 -10.8359 -10.8841 -6.3496 1.5251 -5.6253 36.7964
#
#
#
# Elastic Compliance Matrix: (Units=1/GPa)
#
#
# Indices 1 2 3 4 5 6 
#
# 1 0.010640 -0.001851 -0.001783 0.000497 -0.007747 0.001073
# 2 -0.001851 0.014280 0.002284 -0.002358 -0.001456 0.003948
# 3 -0.001783 0.002284 0.013157 -0.001531 -0.006164 0.001542
# 4 0.000497 -0.002358 -0.001531 0.063549 0.001935 -0.003153
# 5 -0.007747 -0.001456 -0.006164 0.001935 0.043790 0.002839
# 6 0.001073 0.003948 0.001542 -0.003153 0.002839 0.029491
#
#
# Mechanical properties :
#
#
# Convention : Reuss Voigt Hill
#
# Bulk Modulus (GPa) = 28.26579 40.41051 34.33815
# Shear Modulus (GPa) = 26.39918 33.49108 29.94513
#
# Velocity S-wave (km/s) = 3.45149 3.88755 3.67599
# Velocity P-wave (km/s) = 5.35153 6.19566 5.78900
#
# Compressibility (1/GPa) = 0.03537845
#
# Stress axis : x y z
#
# Youngs Moduli (GPa) = 93.98260 70.02750 76.00593
#
# Poissons Ratio (x) = 0.12963 0.13550
# Poissons Ratio (y) = 0.17397 -0.17363
# Poissons Ratio (z) = 0.16755 -0.15998
#
# Static dielectric constant tensor:
#      x y z
#    x 4.105210 -0.037530 0.153720 
#    y -0.037530 4.036950 0.123050 
#    z 0.153720 0.123050 3.875240 
# 
# 
# High freq. dielectric constant tensor:
#      x y z
#    x 1.889740 0.000960 0.008370 
#    y 0.000960 1.866070 0.016640 
#    z 0.008370 0.016640 1.852230 
# 
# From -- ./inp_files/399097.got.cif
#   From: 2010.06.25/outbox.cif.g09.slc.cpg/sg2_200_cif.got.tgz:399097.got - 2010.06.27 13:26:56.
