data_PCOD8004627
_publ_section_title
;
Structure prediction by ZEFSAII (Michael W. Deem and Ramdas Pophale) SiO2 
 PCOD8004627
Probable space group: P -1
;
_chemical_formula_sum "Si O2"
_cell_formula_units_Z 12
_cell_length_a 12.485546
_cell_length_b 8.842941
_cell_length_c 7.530363
_cell_angle_alpha 125.275201
_cell_angle_beta 44.533342
_cell_angle_gamma 131.686954
_cell_volume 426.874897
_symmetry_space_group_name_H-M "P -1"
_symmetry_group_IT_number 2
_symmetry_cell_setting 'triclinic'
loop_
_space_group_symop_operation_xyz
x,y,z
-x,-y,-z
loop_
_atom_site_type_symbol
_atom_site_label
_atom_site_fract_x
_atom_site_fract_y
_atom_site_fract_z
Si Si1 0.780423 0.271221 0.649705
Si Si2 0.588369 0.913182 0.978083
Si Si3 0.941089 0.998290 0.367946
Si Si4 0.321636 0.816410 0.643317
Si Si5 0.447882 0.493683 0.357551
Si Si6 0.825970 0.689547 0.984006
O O1 0.587573 0.236473 0.813231
O O2 0.800928 0.093235 0.621847
O O3 0.828737 0.236980 0.363608
O O4 0.880028 0.499912 0.770786
O O5 0.727395 0.093883 0.059530
O O6 0.663140 0.753819 0.719973
O O7 0.500000 0.000000 0.000000
O O8 0.864796 0.781339 0.202330
O O9 0.000000 0.000000 0.500000
O O10 0.088061 0.155996 0.174401
O O11 0.328159 0.603966 0.542491
O O12 0.500000 0.000000 0.500000
O O13 0.500000 0.500000 0.500000
O O14 0.626148 0.610061 0.120569
#
# Coordination Sequence:
#
# PCOD8004627 Si02
#       6
#     2   2   2   2   2   2
#     4  10  23  43  64  93 134 169 221 275 331 392
#     4  10  20  38  61 100 134 171 214 262 331 402
#     4  11  25  48  70  93 128 179 230 282 325 388
#     4  10  21  38  62  96 137 175 209 269 333 393
#     4  11  22  39  68 101 139 175 216 269 333 406
#     4  10  24  46  67  98 132 171 227 272 333 395
#
# _framework density 28.111279
#
# number of rings (size 3 to 8) (size 9 to 14) (size 15 to 20)
#    0.000    1.667    1.667    2.500    0.000    9.333 
#   12.000    0.000    0.000    0.000    0.000    0.000 
#    0.000    0.000    0.000    0.000    0.000    0.000 
#
# Total GULP energy -148669.454896 kJ/mol
# GULP energy per Si atom -12389.121241 kJ/mol
# Density = 2.804730 g / cm^3
# Si number density = 28.111279 Si / 1000 Ang^3
#
#
#
# Elastic Constant Matrix: (Units=GPa)
#
#
# Indices 1 2 3 4 5 6 
#
# 1 144.8017 56.4650 62.7735 45.1142 43.1238 -19.8135
# 2 56.4650 125.7079 56.3147 70.0081 22.8311 -11.0808
# 3 62.7735 56.3147 169.0307 66.1257 36.9160 -4.3473
# 4 45.1142 70.0081 66.1257 69.6922 14.5767 -3.0088
# 5 43.1238 22.8311 36.9160 14.5767 45.5894 1.3164
# 6 -19.8135 -11.0808 -4.3473 -3.0088 1.3164 45.3250
#
#
#
# Elastic Compliance Matrix: (Units=1/GPa)
#
#
# Indices 1 2 3 4 5 6 
#
# 1 0.012416 -0.000281 -0.000123 -0.005328 -0.009953 0.005282
# 2 -0.000281 0.020080 0.003226 -0.021720 -0.005567 0.003815
# 3 -0.000123 0.003226 0.011200 -0.012345 -0.006655 0.001183
# 4 -0.005328 -0.021720 -0.012345 0.048889 0.010451 -0.005881
# 5 -0.009953 -0.005567 -0.006655 0.010451 0.036379 -0.006713
# 6 0.005282 0.003815 0.001183 -0.005881 -0.006713 0.025223
#
#
# Mechanical properties :
#
#
# Convention : Reuss Voigt Hill
#
# Bulk Modulus (GPa) = 20.26826 87.84963 54.05895
# Shear Modulus (GPa) = 30.30460 49.72047 40.01254
#
# Velocity S-wave (km/s) = 3.28689 4.21016 3.77684
# Velocity P-wave (km/s) = 4.65086 7.41299 6.18801
#
# Compressibility (1/GPa) = 0.04933822
#
# Stress axis : x y z
#
# Youngs Moduli (GPa) = 80.54152 49.80083 89.28232
#
# Poissons Ratio (x) = 0.01401 0.01102
# Poissons Ratio (y) = 0.02265 -0.28800
# Poissons Ratio (z) = 0.00994 -0.16064
#
# Static dielectric constant tensor:
#      x y z
#    x 4.463510 0.392520 -0.127210 
#    y 0.392520 5.785350 -0.700240 
#    z -0.127210 -0.700240 8.732470 
# 
# 
# High freq. dielectric constant tensor:
#      x y z
#    x 2.124470 0.003260 0.015340 
#    y 0.003260 2.149980 -0.000100 
#    z 0.015340 -0.000100 2.165760 
# 
# From -- ./inp_files/293347.got.cif
#   From: 2010.06.25/outbox.cif.g09.slc.cpg/sg2_147_cif.got.tgz:293347.got - 2010.06.27 13:26:56.
