data_PCOD8004349
_publ_section_title
;
Structure prediction by ZEFSAII (Michael W. Deem and Ramdas Pophale) SiO2 
 PCOD8004349
Probable space group: P -1
;
_chemical_formula_sum "Si O2"
_cell_formula_units_Z 14
_cell_length_a 9.966172
_cell_length_b 8.718934
_cell_length_c 17.734521
_cell_angle_alpha 30.678925
_cell_angle_beta 55.510527
_cell_angle_gamma 56.265579
_cell_volume 639.456626
_symmetry_space_group_name_H-M "P -1"
_symmetry_group_IT_number 2
_symmetry_cell_setting 'triclinic'
loop_
_space_group_symop_operation_xyz
x,y,z
-x,-y,-z
loop_
_atom_site_type_symbol
_atom_site_label
_atom_site_fract_x
_atom_site_fract_y
_atom_site_fract_z
Si Si1 0.503456 0.060374 0.849997
Si Si2 0.566985 0.507614 0.177980
Si Si3 0.887180 0.255156 0.117950
Si Si4 0.688694 0.337873 0.993620
Si Si5 0.666965 0.298767 0.559067
Si Si6 0.254080 0.268633 0.323271
Si Si7 0.974971 0.569715 0.391748
O O1 0.459802 0.367693 0.781677
O O2 0.638559 0.102192 0.725737
O O3 0.575658 0.779616 0.000347
O O4 0.335071 0.993680 0.891294
O O5 0.741000 0.280822 0.215507
O O6 0.426892 0.309346 0.288235
O O7 0.995910 0.920703 0.224404
O O8 0.803564 0.316013 0.037944
O O9 0.000000 0.500000 0.000000
O O10 0.783129 0.506681 0.830624
O O11 0.500000 0.500000 0.000000
O O12 0.500000 0.500000 0.500000
O O13 0.794646 0.523205 0.442162
O O14 0.736885 0.075739 0.562886
O O15 0.110327 0.343923 0.397893
O O16 0.000000 0.500000 0.500000
#
# Coordination Sequence:
#
# PCOD8004349 Si02
#       7
#     2   2   2   2   2   2   2
#     4  10  20  37  73  98 128 176 227 280 340 399
#     4  10  21  41  71 100 130 175 236 281 344 401
#     4  12  27  45  68 106 140 178 236 291 342 407
#     4  11  20  43  76  97 135 175 238 285 344 401
#     4  12  24  44  70  96 140 182 232 276 344 419
#     4  11  23  44  75  98 138 185 233 281 350 407
#     4  12  30  46  66 102 148 186 227 282 348 414
#
# _framework density 21.893588000000001
#
# number of rings (size 3 to 8) (size 9 to 14) (size 15 to 20)
#    0.000    0.857    4.286    3.000   10.000    1.714 
#    2.571    2.857    0.000    0.000    0.000    0.000 
#    0.000    0.000    0.000    0.000    0.000    0.000 
#
# Total GULP energy -173623.117070 kJ/mol
# GULP energy per Si atom -12401.651219 kJ/mol
# Density = 2.184376 g / cm^3
# Si number density = 21.893588 Si / 1000 Ang^3
#
#
#
# Elastic Constant Matrix: (Units=GPa)
#
#
# Indices 1 2 3 4 5 6 
#
# 1 147.6876 55.6024 45.2683 -7.7054 -14.2438 18.4485
# 2 55.6024 159.9404 37.9723 1.1369 4.8631 15.5314
# 3 45.2683 37.9723 79.7182 -1.8382 -11.0411 8.4702
# 4 -7.7054 1.1369 -1.8382 38.3776 8.5205 -8.8296
# 5 -14.2438 4.8631 -11.0411 8.5205 32.3716 -2.0494
# 6 18.4485 15.5314 8.4702 -8.8296 -2.0494 42.7455
#
#
#
# Elastic Compliance Matrix: (Units=1/GPa)
#
#
# Indices 1 2 3 4 5 6 
#
# 1 0.009304 -0.002270 -0.003547 0.000605 0.002925 -0.002223
# 2 -0.002270 0.007954 -0.002770 -0.000506 -0.003108 -0.001615
# 3 -0.003547 -0.002770 0.016590 -0.001060 0.004746 -0.000741
# 4 0.000605 -0.000506 -0.001060 0.029099 -0.007312 0.005793
# 5 0.002925 -0.003108 0.004746 -0.007312 0.036135 -0.000852
# 6 -0.002223 -0.001615 -0.000741 0.005793 -0.000852 0.026243
#
#
# Mechanical properties :
#
#
# Convention : Reuss Voigt Hill
#
# Bulk Modulus (GPa) = 59.97514 73.89245 66.93380
# Shear Modulus (GPa) = 33.77104 39.26581 36.51842
#
# Velocity S-wave (km/s) = 3.93174 4.23955 4.08854
# Velocity P-wave (km/s) = 6.93288 7.60191 7.27509
#
# Compressibility (1/GPa) = 0.01667357
#
# Stress axis : x y z
#
# Youngs Moduli (GPa) = 107.47910 125.72225 60.27906
#
# Poissons Ratio (x) = 0.28537 0.21380
# Poissons Ratio (y) = 0.24396 0.16699
# Poissons Ratio (z) = 0.38122 0.34829
#
# Static dielectric constant tensor:
#      x y z
#    x 4.143670 0.332660 -0.099180 
#    y 0.332660 4.385490 -0.123040 
#    z -0.099180 -0.123040 3.995630 
# 
# 
# High freq. dielectric constant tensor:
#      x y z
#    x 1.862880 0.024210 -0.013030 
#    y 0.024210 1.874470 -0.000930 
#    z -0.013030 -0.000930 1.848590 
# 
# From -- ./inp_files/354978.got.cif
#   From: 2010.06.25/outbox.cif.g09.slc.cpg/sg2_178_cif.got.tgz:354978.got - 2010.06.27 13:26:56.
