data_PCOD8004829
_publ_section_title
;
Structure prediction by ZEFSAII (Michael W. Deem and Ramdas Pophale) SiO2 
 PCOD8004829
Probable space group: P -1
;
_chemical_formula_sum "Si O2"
_cell_formula_units_Z 16
_cell_length_a 13.388074
_cell_length_b 14.184230
_cell_length_c 11.398895
_cell_angle_alpha 73.839106
_cell_angle_beta 53.937374
_cell_angle_gamma 30.799192
_cell_volume 748.769249
_symmetry_space_group_name_H-M "P -1"
_symmetry_group_IT_number 2
_symmetry_cell_setting 'triclinic'
loop_
_space_group_symop_operation_xyz
x,y,z
-x,-y,-z
loop_
_atom_site_type_symbol
_atom_site_label
_atom_site_fract_x
_atom_site_fract_y
_atom_site_fract_z
Si Si1 0.184501 0.235498 0.176575
Si Si2 0.419676 0.700687 0.043964
Si Si3 0.295323 0.837356 0.333204
Si Si4 0.296207 0.041377 0.390464
Si Si5 0.957252 0.211696 0.777479
Si Si6 0.864880 0.362842 0.142411
Si Si7 0.859480 0.000908 0.055371
Si Si8 0.070106 0.398090 0.866904
O O1 0.001934 0.298351 0.193138
O O2 0.074120 0.427500 0.190001
O O3 0.167284 0.212465 0.331150
O O4 0.500000 0.000000 0.000000
O O5 0.361127 0.808123 0.160923
O O6 0.175510 0.792689 0.181695
O O7 0.719232 0.438990 0.932801
O O8 0.414317 0.773247 0.905835
O O9 0.316425 0.925391 0.350109
O O10 0.531866 0.598591 0.307892
O O11 0.000000 0.000000 0.500000
O O12 0.601554 0.850384 0.293345
O O13 0.091666 0.181349 0.593930
O O14 0.192503 0.022386 0.780178
O O15 0.938990 0.383314 0.974740
O O16 0.953115 0.191387 0.101947
O O17 0.000000 0.000000 0.000000
O O18 0.000000 0.500000 0.000000
#
# Coordination Sequence:
#
# PCOD8004829 Si02
#       8
#     2   2   2   2   2   2   2   2
#     4  11  20  38  68  99 130 170 222 269 338 389
#     4  10  21  41  62  86 128 182 213 254 332 389
#     4  12  22  38  65  99 134 168 216 268 329 395
#     4  12  22  39  65 100 131 167 219 280 321 387
#     4  10  22  40  61  89 132 173 215 266 321 387
#     4  11  21  42  65  96 133 172 215 275 327 387
#     4  10  22  40  67  89 123 182 222 254 321 405
#     4  10  20  38  62  91 128 169 211 268 331 374
#
# _framework density 21.368399
#
# number of rings (size 3 to 8) (size 9 to 14) (size 15 to 20)
#    0.000    1.250    7.500    0.750    0.000    1.000 
#    0.000    5.625    0.000    1.500    0.000    0.000 
#    0.000    0.000    0.000    0.000    0.000    0.000 
#
# Total GULP energy -198273.307111 kJ/mol
# GULP energy per Si atom -12392.081694 kJ/mol
# Density = 2.131976 g / cm^3
# Si number density = 21.368399 Si / 1000 Ang^3
#
#
#
# Elastic Constant Matrix: (Units=GPa)
#
#
# Indices 1 2 3 4 5 6 
#
# 1 57.0711 23.3970 18.4732 11.2201 -2.1686 -5.7028
# 2 23.3970 127.6411 29.2399 -17.5197 -7.5172 -18.0756
# 3 18.4732 29.2399 98.0446 -11.8794 -7.0016 -18.3987
# 4 11.2201 -17.5197 -11.8794 36.0906 -11.2310 5.2143
# 5 -2.1686 -7.5172 -7.0016 -11.2310 27.5119 2.1221
# 6 -5.7028 -18.0756 -18.3987 5.2143 2.1221 39.4893
#
#
#
# Elastic Compliance Matrix: (Units=1/GPa)
#
#
# Indices 1 2 3 4 5 6 
#
# 1 0.023871 -0.005420 -0.004857 -0.013814 -0.006542 0.000879
# 2 -0.005420 0.010709 -0.000302 0.008131 0.005540 0.002607
# 3 -0.004857 -0.000302 0.013179 0.006765 0.005332 0.004120
# 4 -0.013814 0.008131 0.006765 0.045182 0.021472 -0.002241
# 5 -0.006542 0.005540 0.005332 0.021472 0.047570 -0.001316
# 6 0.000879 0.002607 0.004120 -0.002241 -0.001316 0.028930
#
#
# Mechanical properties :
#
#
# Convention : Reuss Voigt Hill
#
# Bulk Modulus (GPa) = 37.59529 47.21967 42.40748
# Shear Modulus (GPa) = 25.06692 34.72815 29.89753
#
# Velocity S-wave (km/s) = 3.42875 4.03576 3.74458
# Velocity P-wave (km/s) = 5.77123 6.62287 6.21166
#
# Compressibility (1/GPa) = 0.02659908
#
# Stress axis : x y z
#
# Youngs Moduli (GPa) = 41.89130 93.38178 75.88100
#
# Poissons Ratio (x) = 0.50612 0.36858
# Poissons Ratio (y) = 0.22705 0.02295
# Poissons Ratio (z) = 0.20348 0.02825
#
# Static dielectric constant tensor:
#      x y z
#    x 4.130730 -0.000580 -0.264990 
#    y -0.000580 5.092660 -0.304240 
#    z -0.264990 -0.304240 3.924820 
# 
# 
# High freq. dielectric constant tensor:
#      x y z
#    x 1.838310 -0.009130 0.005050 
#    y -0.009130 1.855760 -0.000620 
#    z 0.005050 -0.000620 1.804170 
# 
# From -- ./inp_files/454732.got.cif
#   From: 2010.06.25/outbox.cif.g09.slc.cpg/sg2_228_cif.got.tgz:454732.got - 2010.06.27 13:26:56.
