data_PCOD8004425
_publ_section_title
;
Structure prediction by ZEFSAII (Michael W. Deem and Ramdas Pophale) SiO2 
 PCOD8004425
Probable space group: P -1
;
_chemical_formula_sum "Si O2"
_cell_formula_units_Z 14
_cell_length_a 12.170705
_cell_length_b 17.967320
_cell_length_c 22.333125
_cell_angle_alpha 17.487078
_cell_angle_beta 28.995780
_cell_angle_gamma 28.263181
_cell_volume 674.064143
_symmetry_space_group_name_H-M "P -1"
_symmetry_group_IT_number 2
_symmetry_cell_setting 'triclinic'
loop_
_space_group_symop_operation_xyz
x,y,z
-x,-y,-z
loop_
_atom_site_type_symbol
_atom_site_label
_atom_site_fract_x
_atom_site_fract_y
_atom_site_fract_z
Si Si1 0.843972 0.293861 0.051678
Si Si2 0.306435 0.159878 0.141049
Si Si3 0.461416 0.173898 0.179023
Si Si4 0.409148 0.097087 0.560241
Si Si5 0.839831 0.909098 0.057027
Si Si6 0.855979 0.355595 0.783854
Si Si7 0.864553 0.241382 0.215739
O O1 0.959987 0.254631 0.092759
O O2 0.645158 0.147591 0.255992
O O3 0.713691 0.602770 0.866611
O O4 0.045855 0.190898 0.984559
O O5 0.316636 0.079829 0.267990
O O6 0.091332 0.089181 0.265535
O O7 0.555161 0.995896 0.117017
O O8 0.265815 0.470290 0.916204
O O9 0.600301 0.930371 0.341637
O O10 0.632872 0.308813 0.960246
O O11 0.209418 0.358243 0.432577
O O12 0.676991 0.082690 0.426200
O O13 0.927494 0.689738 0.236460
O O14 0.928061 0.149810 0.852439
#
# Coordination Sequence:
#
# PCOD8004425 Si02
#       7
#     2   2   2   2   2   2   2
#     4  11  22  35  60  96 120 150 191 253 303 338
#     4   9  20  43  58  81 122 161 198 237 287 350
#     4  10  21  39  61  90 118 154 199 241 295 345
#     4  12  21  36  66  91 115 152 206 240 292 352
#     4  10  20  38  58  86 128 152 185 250 301 343
#     4  10  21  39  56  89 121 157 189 240 301 344
#     4  10  21  38  63  83 116 163 202 236 281 357
#
# _framework density 20.769537
#
# number of rings (size 3 to 8) (size 9 to 14) (size 15 to 20)
#    0.000    1.714    5.714    0.857    0.000    1.714 
#    0.000    0.000    0.000    3.429    0.000    0.000 
#    0.000    0.000    0.000    0.000    0.000    0.000 
#
# Total GULP energy -173535.270464 kJ/mol
# GULP energy per Si atom -12395.376462 kJ/mol
# Density = 2.072226 g / cm^3
# Si number density = 20.769537 Si / 1000 Ang^3
#
#
#
# Elastic Constant Matrix: (Units=GPa)
#
#
# Indices 1 2 3 4 5 6 
#
# 1 126.2959 60.2602 34.7315 -7.8110 17.4362 -21.8937
# 2 60.2602 137.5791 33.1781 5.7865 6.8494 0.1462
# 3 34.7315 33.1781 65.6541 -8.5188 22.5079 -7.4668
# 4 -7.8110 5.7865 -8.5188 14.1043 -9.1174 3.7063
# 5 17.4362 6.8494 22.5079 -9.1174 30.7169 0.6080
# 6 -21.8937 0.1462 -7.4668 3.7063 0.6080 42.8144
#
#
#
# Elastic Compliance Matrix: (Units=1/GPa)
#
#
# Indices 1 2 3 4 5 6 
#
# 1 0.012590 -0.005129 -0.001584 0.004173 -0.003720 0.005871
# 2 -0.005129 0.010947 -0.004744 -0.008516 0.001474 -0.002771
# 3 -0.001584 -0.004744 0.024493 0.005752 -0.014346 0.003184
# 4 0.004173 -0.008516 0.005752 0.097381 0.024331 -0.005610
# 5 -0.003720 0.001474 -0.014346 0.024331 0.052216 -0.007257
# 6 0.005871 -0.002771 0.003184 -0.005610 -0.007257 0.027512
#
#
# Mechanical properties :
#
#
# Convention : Reuss Voigt Hill
#
# Bulk Modulus (GPa) = 39.81475 65.09651 52.45563
# Shear Modulus (GPa) = 19.49877 30.95109 25.22493
#
# Velocity S-wave (km/s) = 3.06733 3.86452 3.48877
# Velocity P-wave (km/s) = 5.63526 7.16401 6.44512
#
# Compressibility (1/GPa) = 0.02511632
#
# Stress axis : x y z
#
# Youngs Moduli (GPa) = 79.42716 91.34978 40.82745
#
# Poissons Ratio (x) = 0.46854 0.06466
# Poissons Ratio (y) = 0.40739 0.19369
# Poissons Ratio (z) = 0.12580 0.43337
#
# Static dielectric constant tensor:
#      x y z
#    x 4.122440 -0.138870 0.241950 
#    y -0.138870 3.730000 -0.130790 
#    z 0.241950 -0.130790 3.439700 
# 
# 
# High freq. dielectric constant tensor:
#      x y z
#    x 1.820970 -0.003800 0.024130 
#    y -0.003800 1.810610 -0.005370 
#    z 0.024130 -0.005370 1.774400 
# 
# From -- ./inp_files/595906.got.cif
#   From: 2010.06.25/outbox.cif.g09.slc.cpg/sg2_298_cif.got.tgz:595906.got - 2010.06.27 13:26:56.
