data_PCOD8004199
_publ_section_title
;
Structure prediction by ZEFSAII (Michael W. Deem and Ramdas Pophale) SiO2 
 PCOD8004199
Probable space group: P -1
;
_chemical_formula_sum "Si O2"
_cell_formula_units_Z 16
_cell_length_a 16.814672
_cell_length_b 11.886759
_cell_length_c 8.875840
_cell_angle_alpha 106.020245
_cell_angle_beta 124.303163
_cell_angle_gamma 119.972448
_cell_volume 795.820271
_symmetry_space_group_name_H-M "P -1"
_symmetry_group_IT_number 2
_symmetry_cell_setting 'triclinic'
loop_
_space_group_symop_operation_xyz
x,y,z
-x,-y,-z
loop_
_atom_site_type_symbol
_atom_site_label
_atom_site_fract_x
_atom_site_fract_y
_atom_site_fract_z
Si Si1 0.527557 0.603557 0.218062
Si Si2 0.898632 0.371130 0.696782
Si Si3 0.821768 0.754015 0.734333
Si Si4 0.887830 0.052492 0.363277
Si Si5 0.048737 0.429504 0.599843
Si Si6 0.197461 0.276623 0.953318
Si Si7 0.625816 0.898279 0.227792
Si Si8 0.261150 0.570272 0.623388
O O1 0.680492 0.704075 0.513988
O O2 0.570224 0.779631 0.279453
O O3 0.500000 0.500000 0.000000
O O4 0.367779 0.452359 0.102635
O O5 0.821435 0.412281 0.560745
O O6 0.044579 0.454191 0.782192
O O7 0.742631 0.126906 0.472638
O O8 0.000000 0.500000 0.000000
O O9 0.816940 0.633548 0.580880
O O10 0.778357 0.666679 0.825087
O O11 0.000000 0.000000 0.000000
O O12 0.902776 0.183895 0.324536
O O13 0.058667 0.222703 0.711197
O O14 0.877581 0.930027 0.201582
O O15 0.723050 0.895879 0.235209
O O16 0.220710 0.554125 0.752151
O O17 0.000000 0.500000 0.500000
O O18 0.465350 0.776403 0.908719
#
# Coordination Sequence:
#
# PCOD8004199 Si02
#       8
#     2   2   2   2   2   2   2   2
#     4  12  23  42  62  92 133 170 212 257 319 385
#     4  10  24  42  67  93 123 160 215 270 316 370
#     4  12  26  38  64  99 132 165 216 268 315 372
#     4  10  20  37  65  91 124 169 212 250 327 382
#     4   9  20  38  61  87 121 163 205 251 311 382
#     4  11  23  38  63  93 131 167 211 264 314 378
#     4  11  22  41  66  91 124 171 211 256 315 388
#     4  11  22  42  65  91 127 167 214 254 317 384
#
# _framework density 20.105041
#
# number of rings (size 3 to 8) (size 9 to 14) (size 15 to 20)
#    0.000    1.250    2.500    3.000    7.000    0.000 
#    0.000    0.625    2.750    0.000    0.000    0.000 
#    0.000    0.000    0.000    0.000    0.000    0.000 
#
# Total GULP energy -198299.537974 kJ/mol
# GULP energy per Si atom -12393.721123 kJ/mol
# Density = 2.005928 g / cm^3
# Si number density = 20.105041 Si / 1000 Ang^3
#
#
#
# Elastic Constant Matrix: (Units=GPa)
#
#
# Indices 1 2 3 4 5 6 
#
# 1 123.1612 48.6597 63.1739 2.9951 8.7467 6.9460
# 2 48.6597 120.7662 45.3233 8.4094 0.9897 -3.6614
# 3 63.1739 45.3233 130.7025 1.2165 10.2848 6.9863
# 4 2.9951 8.4094 1.2165 27.7771 -3.6083 -0.5188
# 5 8.7467 0.9897 10.2848 -3.6083 36.6384 5.3652
# 6 6.9460 -3.6614 6.9863 -0.5188 5.3652 42.4067
#
#
#
# Elastic Compliance Matrix: (Units=1/GPa)
#
#
# Indices 1 2 3 4 5 6 
#
# 1 0.011801 -0.003087 -0.004456 -0.000339 -0.001326 -0.001302
# 2 -0.003087 0.010621 -0.002303 -0.002674 0.000585 0.001695
# 3 -0.004456 -0.002303 0.010788 0.000464 -0.001707 -0.001025
# 4 -0.000339 -0.002674 0.000464 0.037307 0.003736 -0.000268
# 5 -0.001326 0.000585 -0.001707 0.003736 0.028890 -0.003061
# 6 -0.001302 0.001695 -0.001025 -0.000268 -0.003061 0.024494
#
#
# Mechanical properties :
#
#
# Convention : Reuss Voigt Hill
#
# Bulk Modulus (GPa) = 73.97635 76.54928 75.26282
# Shear Modulus (GPa) = 33.76123 35.86263 34.81193
#
# Velocity S-wave (km/s) = 4.10230 4.22804 4.16565
# Velocity P-wave (km/s) = 7.70151 7.87353 7.78800
#
# Compressibility (1/GPa) = 0.01351783
#
# Stress axis : x y z
#
# Youngs Moduli (GPa) = 84.74014 94.14900 92.69560
#
# Poissons Ratio (x) = 0.29068 0.41306
# Poissons Ratio (y) = 0.26163 0.21344
# Poissons Ratio (z) = 0.37761 0.21679
#
# Static dielectric constant tensor:
#      x y z
#    x 4.107680 0.051580 0.076780 
#    y 0.051580 3.970230 0.011950 
#    z 0.076780 0.011950 3.365540 
# 
# 
# High freq. dielectric constant tensor:
#      x y z
#    x 1.798640 -0.006700 0.012080 
#    y -0.006700 1.803910 0.008140 
#    z 0.012080 0.008140 1.763630 
# 
# From -- ./inp_files/179492.got.cif
#   From: 2010.06.25/outbox.cif.g09.slc.cpg/sg2_90_cif.got.tgz:179492.got - 2010.06.27 13:26:56.
