data_PCOD8004647
_publ_section_title
;
Structure prediction by ZEFSAII (Michael W. Deem and Ramdas Pophale) SiO2 
 PCOD8004647
Probable space group: P -1
;
_chemical_formula_sum "Si O2"
_cell_formula_units_Z 16
_cell_length_a 12.569966
_cell_length_b 17.755442
_cell_length_c 9.283571
_cell_angle_alpha 141.454092
_cell_angle_beta 42.391832
_cell_angle_gamma 137.605888
_cell_volume 804.103903
_symmetry_space_group_name_H-M "P -1"
_symmetry_group_IT_number 2
_symmetry_cell_setting 'triclinic'
loop_
_space_group_symop_operation_xyz
x,y,z
-x,-y,-z
loop_
_atom_site_type_symbol
_atom_site_label
_atom_site_fract_x
_atom_site_fract_y
_atom_site_fract_z
Si Si1 0.743001 0.854536 0.187075
Si Si2 0.124951 0.624361 0.645421
Si Si3 0.124499 0.621085 0.968821
Si Si4 0.248486 0.867488 0.392431
Si Si5 0.500592 0.375640 0.729036
Si Si6 0.111534 0.854536 0.818542
Si Si7 0.503414 0.378915 0.403265
Si Si8 0.380997 0.132512 0.978086
O O1 0.640165 0.755690 0.264841
O O2 0.779083 0.000917 0.423526
O O3 0.632517 0.822446 0.103725
O O4 0.919654 0.839309 0.955815
O O5 0.060837 0.612925 0.856657
O O6 0.315925 0.631851 0.453874
O O7 0.115524 0.755690 0.789482
O O8 0.000000 0.500000 0.500000
O O9 0.308155 0.616310 0.785875
O O10 0.131269 0.755754 0.234509
O O11 0.000000 0.500000 0.000000
O O12 0.189928 0.822446 0.546314
O O13 0.447110 0.894219 0.217480
O O14 0.447912 0.387074 0.634594
O O15 0.500000 0.500000 0.000000
O O16 0.221833 0.000917 0.980777
O O17 0.500000 0.500000 0.500000
O O18 0.375516 0.244247 0.258706
#
# Coordination Sequence:
#
# PCOD8004647 Si02
#       8
#     2   2   2   2   2   2   2   2
#     4  11  22  37  58  87 117 150 188 232 280 335
#     4  11  23  40  59  84 115 150 189 234 282 336
#     4  10  23  39  59  84 113 147 188 234 283 334
#     4  10  20  38  61  85 113 151 190 232 282 335
#     4  11  23  40  59  84 115 150 189 234 282 336
#     4  11  22  37  58  87 117 150 188 232 280 335
#     4  10  23  39  59  84 113 147 188 234 283 334
#     4  10  20  38  61  85 113 151 190 232 282 335
#
# _framework density 19.897925999999998
#
# number of rings (size 3 to 8) (size 9 to 14) (size 15 to 20)
#    0.000    1.500    0.000    6.750    0.000    9.000 
#    0.000    5.000    0.000    0.000    0.000    0.000 
#    0.000    0.000    0.000    0.000    0.000    0.000 
#
# Total GULP energy -198477.690203 kJ/mol
# GULP energy per Si atom -12404.855638 kJ/mol
# Density = 1.985264 g / cm^3
# Si number density = 19.897926 Si / 1000 Ang^3
#
#
#
# Elastic Constant Matrix: (Units=GPa)
#
#
# Indices 1 2 3 4 5 6 
#
# 1 94.9748 60.1401 46.0717 20.6125 20.7638 -14.1304
# 2 60.1401 140.8786 53.0299 6.7640 29.4657 -17.2922
# 3 46.0717 53.0299 108.2576 23.5928 26.0438 -6.1755
# 4 20.6125 6.7640 23.5928 32.8089 7.8675 -1.6661
# 5 20.7638 29.4657 26.0438 7.8675 42.1641 2.0187
# 6 -14.1304 -17.2922 -6.1755 -1.6661 2.0187 41.9187
#
#
#
# Elastic Compliance Matrix: (Units=1/GPa)
#
#
# Indices 1 2 3 4 5 6 
#
# 1 0.017788 -0.005428 -0.002578 -0.007533 -0.002121 0.003180
# 2 -0.005428 0.011688 -0.003136 0.004492 -0.004536 0.002927
# 3 -0.002578 -0.003136 0.014400 -0.007112 -0.004100 -0.000127
# 4 -0.007533 0.004492 -0.007112 0.039998 -0.002499 -0.000024
# 5 -0.002121 -0.004536 -0.004100 -0.002499 0.031160 -0.004790
# 6 0.003180 0.002927 -0.000127 -0.000024 -0.004790 0.026346
#
#
# Mechanical properties :
#
#
# Convention : Reuss Voigt Hill
#
# Bulk Modulus (GPa) = 46.31320 73.62161 59.96741
# Shear Modulus (GPa) = 29.26337 35.70296 32.48317
#
# Velocity S-wave (km/s) = 3.83910 4.24052 4.04479
# Velocity P-wave (km/s) = 6.55572 7.81383 7.21226
#
# Compressibility (1/GPa) = 0.02159212
#
# Stress axis : x y z
#
# Youngs Moduli (GPa) = 56.21653 85.55558 69.44550
#
# Poissons Ratio (x) = 0.46435 0.17905
# Poissons Ratio (y) = 0.30512 0.21780
# Poissons Ratio (z) = 0.14494 0.26833
#
# Static dielectric constant tensor:
#      x y z
#    x 3.744870 0.029500 0.095930 
#    y 0.029500 3.714560 0.057820 
#    z 0.095930 0.057820 3.794010 
# 
# 
# High freq. dielectric constant tensor:
#      x y z
#    x 1.779850 0.000940 -0.001250 
#    y 0.000940 1.789220 0.005320 
#    z -0.001250 0.005320 1.783520 
# 
# From -- ./inp_files/280046.got.cif
#   From: 2010.06.25/outbox.cif.g09.slc.cpg/sg2_141_cif.got.tgz:280046.got - 2010.06.27 13:26:56.
