data_PCOD8004732
_publ_section_title
;
Structure prediction by ZEFSAII (Michael W. Deem and Ramdas Pophale) SiO2 
 PCOD8004732
Probable space group: P -1
;
_chemical_formula_sum "Si O2"
_cell_formula_units_Z 14
_cell_length_a 9.773361
_cell_length_b 8.126974
_cell_length_c 12.137996
_cell_angle_alpha 53.108285
_cell_angle_beta 55.106080
_cell_angle_gamma 70.057314
_cell_volume 632.425539
_symmetry_space_group_name_H-M "P -1"
_symmetry_group_IT_number 2
_symmetry_cell_setting 'triclinic'
loop_
_space_group_symop_operation_xyz
x,y,z
-x,-y,-z
loop_
_atom_site_type_symbol
_atom_site_label
_atom_site_fract_x
_atom_site_fract_y
_atom_site_fract_z
Si Si1 0.225642 0.210621 0.683029
Si Si2 0.199627 0.512313 0.391585
Si Si3 0.976667 0.554176 0.143937
Si Si4 0.308880 0.544479 0.093660
Si Si5 0.951736 0.166388 0.196268
Si Si6 0.276645 0.981952 0.176720
Si Si7 0.397981 0.993686 0.881793
O O1 0.292451 0.364296 0.496480
O O2 0.077824 0.340276 0.758621
O O3 0.174051 0.001727 0.727377
O O4 0.362439 0.155267 0.734758
O O5 0.255658 0.437912 0.275149
O O6 0.276749 0.736414 0.280886
O O7 0.000000 0.500000 0.500000
O O8 0.872004 0.347961 0.237363
O O9 0.170658 0.475062 0.095114
O O10 0.955462 0.726131 0.991940
O O11 0.500000 0.500000 0.000000
O O12 0.286544 0.791062 0.000193
O O13 0.088242 0.052650 0.254784
O O14 0.402401 0.056275 0.186523
O O15 0.346921 0.080802 0.990366
#
# Coordination Sequence:
#
# PCOD8004732 Si02
#       7
#     2   2   2   2   2   2   2
#     4  12  21  42  66  95 135 173 215 278 331 390
#     4  11  22  39  68  97 131 178 221 263 341 396
#     4  11  22  36  66 100 126 174 225 273 322 389
#     4  11  22  41  64  96 134 173 218 278 327 387
#     4  11  21  36  64  98 127 167 230 271 318 397
#     4  10  20  38  61  96 126 171 225 267 317 404
#     4  10  21  37  65  90 129 178 215 268 334 379
#
# _framework density 22.136994000000001
#
# number of rings (size 3 to 8) (size 9 to 14) (size 15 to 20)
#    0.000    1.143    5.714    2.143    0.000    0.571 
#    0.000    5.000    0.000    0.000    0.000    0.000 
#    0.000    0.000    0.000    0.000    0.000    0.000 
#
# Total GULP energy -173452.572803 kJ/mol
# GULP energy per Si atom -12389.469486 kJ/mol
# Density = 2.208661 g / cm^3
# Si number density = 22.136994 Si / 1000 Ang^3
#
#
#
# Elastic Constant Matrix: (Units=GPa)
#
#
# Indices 1 2 3 4 5 6 
#
# 1 126.6821 23.0401 42.9835 -5.4489 21.5980 -6.1011
# 2 23.0401 69.4190 26.6701 -5.2420 6.9136 15.1782
# 3 42.9835 26.6701 114.1324 -11.4709 28.2208 -4.0398
# 4 -5.4489 -5.2420 -11.4709 32.3000 -10.5759 -4.3027
# 5 21.5980 6.9136 28.2208 -10.5759 34.3691 -9.7389
# 6 -6.1011 15.1782 -4.0398 -4.3027 -9.7389 38.8061
#
#
#
# Elastic Compliance Matrix: (Units=1/GPa)
#
#
# Indices 1 2 3 4 5 6 
#
# 1 0.009729 -0.002319 -0.002236 -0.000555 -0.003634 0.001231
# 2 -0.002319 0.018466 -0.003260 -0.000372 -0.002102 -0.008496
# 3 -0.002236 -0.003260 0.012381 0.001031 -0.007674 0.000401
# 4 -0.000555 -0.000372 0.001031 0.036378 0.012877 0.007431
# 5 -0.003634 -0.002102 -0.007674 0.012877 0.045555 0.012312
# 6 0.001231 -0.008496 0.000401 0.007431 0.012312 0.033241
#
#
# Mechanical properties :
#
#
# Convention : Reuss Voigt Hill
#
# Bulk Modulus (GPa) = 40.08621 55.06899 47.57760
# Shear Modulus (GPa) = 27.82478 35.59768 31.71123
#
# Velocity S-wave (km/s) = 3.54918 4.01442 3.78894
# Velocity P-wave (km/s) = 5.91127 6.81306 6.37812
#
# Compressibility (1/GPa) = 0.02494623
#
# Stress axis : x y z
#
# Youngs Moduli (GPa) = 102.78443 54.15280 80.76851
#
# Poissons Ratio (x) = 0.12559 0.18059
# Poissons Ratio (y) = 0.23837 0.26331
# Poissons Ratio (z) = 0.22982 0.17654
#
# Static dielectric constant tensor:
#      x y z
#    x 4.064660 0.156810 0.232810 
#    y 0.156810 3.963860 -0.234120 
#    z 0.232810 -0.234120 3.876560 
# 
# 
# High freq. dielectric constant tensor:
#      x y z
#    x 1.878180 0.008900 0.021470 
#    y 0.008900 1.861500 -0.024330 
#    z 0.021470 -0.024330 1.844030 
# 
# From -- ./inp_files/221818.got.cif
#   From: 2010.06.25/outbox.cif.g09.slc.cpg/sg2_111_cif.got.tgz:221818.got - 2010.06.27 13:26:56.
