data_PCOD8004047
_publ_section_title
;
Structure prediction by ZEFSAII (Michael W. Deem and Ramdas Pophale) SiO2 
 PCOD8004047
Probable space group: P -1
;
_chemical_formula_sum "Si O2"
_cell_formula_units_Z 16
_cell_length_a 8.357849
_cell_length_b 8.738558
_cell_length_c 18.539053
_cell_angle_alpha 50.301192
_cell_angle_beta 57.961950
_cell_angle_gamma 91.590922
_cell_volume 730.411287
_symmetry_space_group_name_H-M "P -1"
_symmetry_group_IT_number 2
_symmetry_cell_setting 'triclinic'
loop_
_space_group_symop_operation_xyz
x,y,z
-x,-y,-z
loop_
_atom_site_type_symbol
_atom_site_label
_atom_site_fract_x
_atom_site_fract_y
_atom_site_fract_z
Si Si1 0.158794 0.849386 0.024018
Si Si2 0.210647 0.765884 0.877007
Si Si3 0.609980 0.755052 0.728194
Si Si4 0.640847 0.520406 0.530616
Si Si5 0.235290 0.756487 0.506779
Si Si6 0.261531 0.002520 0.648300
Si Si7 0.907524 0.581359 0.761517
Si Si8 0.354706 0.351546 0.793844
O O1 0.236773 0.690410 0.090635
O O2 0.895209 0.721220 0.148001
O O3 0.191794 0.867862 0.925135
O O4 0.318825 0.133998 0.919491
O O5 0.433814 0.760529 0.821391
O O6 0.211255 0.937151 0.764474
O O7 0.000000 0.500000 0.000000
O O8 0.734303 0.660488 0.772844
O O9 0.483030 0.592723 0.737333
O O10 0.789064 0.028819 0.577027
O O11 0.500000 0.500000 0.500000
O O12 0.773708 0.397120 0.514094
O O13 0.803416 0.810167 0.417232
O O14 0.494889 0.388789 0.676385
O O15 0.465707 0.869729 0.465873
O O16 0.011249 0.578803 0.660738
O O17 0.116436 0.760274 0.710241
#
# Coordination Sequence:
#
# PCOD8004047 Si02
#       8
#     2   2   2   2   2   2   2   2
#     4  11  22  38  63  87 118 155 204 241 293 352
#     4  11  20  41  61  88 116 154 197 241 298 344
#     4  11  24  40  60  85 123 159 196 242 297 355
#     4  10  20  37  63  92 114 144 202 253 290 335
#     4  10  21  40  62  86 121 152 199 244 295 347
#     4  10  20  37  65  89 116 152 200 247 287 351
#     4  12  23  38  59  91 120 159 197 240 297 351
#     4  11  22  39  61  88 118 159 196 248 294 346
#
# _framework density 21.905465
#
# number of rings (size 3 to 8) (size 9 to 14) (size 15 to 20)
#    0.000    1.250    2.500    6.000    0.000    2.000 
#    0.000    3.750    0.000    0.000    0.000    0.000 
#    0.000    0.000    0.000    0.000    0.000    0.000 
#
# Total GULP energy -198346.195232 kJ/mol
# GULP energy per Si atom -12396.637202 kJ/mol
# Density = 2.185561 g / cm^3
# Si number density = 21.905465 Si / 1000 Ang^3
#
#
#
# Elastic Constant Matrix: (Units=GPa)
#
#
# Indices 1 2 3 4 5 6 
#
# 1 57.7117 14.0142 28.5262 -5.1204 17.4365 -21.5387
# 2 14.0142 93.0619 45.3998 -0.8202 11.9339 -28.8728
# 3 28.5262 45.3998 140.3240 -7.3793 20.3708 -22.8996
# 4 -5.1204 -0.8202 -7.3793 48.7958 -14.3839 9.8505
# 5 17.4365 11.9339 20.3708 -14.3839 26.0613 -9.5433
# 6 -21.5387 -28.8728 -22.8996 9.8505 -9.5433 22.7907
#
#
#
# Elastic Compliance Matrix: (Units=1/GPa)
#
#
# Indices 1 2 3 4 5 6 
#
# 1 0.036164 0.011098 -0.001836 -0.010254 -0.017588 0.043460
# 2 0.011098 0.022912 -0.003080 -0.008353 -0.006451 0.037330
# 3 -0.001836 -0.003080 0.009458 -0.000520 -0.004184 0.002338
# 4 -0.010254 -0.008353 -0.000520 0.029767 0.017947 -0.026146
# 5 -0.017588 -0.006451 -0.004184 0.017947 0.062373 -0.010637
# 6 0.043460 0.037330 0.002338 -0.026146 -0.010637 0.141437
#
#
# Mechanical properties :
#
#
# Convention : Reuss Voigt Hill
#
# Bulk Modulus (GPa) = 12.36125 51.88643 32.12384
# Shear Modulus (GPa) = 15.78720 33.07340 24.43030
#
# Velocity S-wave (km/s) = 2.68749 3.88986 3.34317
# Velocity P-wave (km/s) = 3.90965 6.62666 5.44050
#
# Compressibility (1/GPa) = 0.08089794
#
# Stress axis : x y z
#
# Youngs Moduli (GPa) = 27.65198 43.64515 105.73263
#
# Poissons Ratio (x) = -0.48439 0.19415
# Poissons Ratio (y) = -0.30689 0.32566
# Poissons Ratio (z) = 0.05077 0.13443
#
# Static dielectric constant tensor:
#      x y z
#    x 3.495260 -0.280280 0.121920 
#    y -0.280280 4.211770 -0.359250 
#    z 0.121920 -0.359250 4.180160 
# 
# 
# High freq. dielectric constant tensor:
#      x y z
#    x 1.814730 -0.017500 0.011620 
#    y -0.017500 1.878040 -0.012560 
#    z 0.011620 -0.012560 1.877120 
# 
# From -- ./inp_files/239152.got.cif
#   From: 2010.06.25/outbox.cif.g09.slc.cpg/sg2_120_cif.got.tgz:239152.got - 2010.06.27 13:26:56.
