data_PCOD8004279
_publ_section_title
;
Structure prediction by ZEFSAII (Michael W. Deem and Ramdas Pophale) SiO2 
 PCOD8004279
Probable space group: P -1
;
_chemical_formula_sum "Si O2"
_cell_formula_units_Z 16
_cell_length_a 8.444347
_cell_length_b 10.007165
_cell_length_c 11.891112
_cell_angle_alpha 111.656256
_cell_angle_beta 57.764216
_cell_angle_gamma 126.007302
_cell_volume 685.306167
_symmetry_space_group_name_H-M "P -1"
_symmetry_group_IT_number 2
_symmetry_cell_setting 'triclinic'
loop_
_space_group_symop_operation_xyz
x,y,z
-x,-y,-z
loop_
_atom_site_type_symbol
_atom_site_label
_atom_site_fract_x
_atom_site_fract_y
_atom_site_fract_z
Si Si1 0.682726 0.274433 0.558870
Si Si2 0.344643 0.351805 0.788913
Si Si3 0.746082 0.893157 0.055511
Si Si4 0.026673 0.306385 0.717476
Si Si5 0.588425 0.027683 0.701863
Si Si6 0.006383 0.432740 0.306757
Si Si7 0.200656 0.170817 0.436770
Si Si8 0.301000 0.295937 0.193354
O O1 0.479413 0.303420 0.636421
O O2 0.616360 0.097409 0.585691
O O3 0.782456 0.289149 0.401711
O O4 0.867571 0.413455 0.609406
O O5 0.333345 0.266650 0.885122
O O6 0.110749 0.292156 0.804595
O O7 0.464559 0.549568 0.821186
O O8 0.634773 0.000328 0.168446
O O9 0.673587 0.832585 0.936161
O O10 0.000000 0.000000 0.000000
O O11 0.037409 0.484948 0.760521
O O12 0.197429 0.310152 0.560240
O O13 0.785086 0.154686 0.747098
O O14 0.588705 0.853258 0.640319
O O15 0.155066 0.353680 0.196212
O O16 0.176225 0.210495 0.329136
O O17 0.000000 0.000000 0.500000
#
# Coordination Sequence:
#
# PCOD8004279 Si02
#       8
#     2   2   2   2   2   2   2   2
#     4   8  15  32  57  85 124 166 200 252 311 373
#     4  10  22  41  64  96 128 162 214 267 317 375
#     4  11  26  47  67  87 124 176 224 266 305 373
#     4  10  20  37  66  98 133 159 201 267 325 384
#     4   9  20  41  62  88 128 173 211 257 317 375
#     4   9  16  32  59  90 124 163 206 248 316 376
#     4  10  21  37  67  98 134 165 203 257 332 384
#     4  11  23  42  67  92 130 175 213 262 314 375
#
# _framework density 23.347227
#
# number of rings (size 3 to 8) (size 9 to 14) (size 15 to 20)
#    0.000    2.250    0.000    4.875    3.500    2.500 
#    4.500    2.500    0.000    0.000    0.000    0.000 
#    0.000    0.000    0.000    0.000    0.000    0.000 
#
# Total GULP energy -198361.263631 kJ/mol
# GULP energy per Si atom -12397.578977 kJ/mol
# Density = 2.329409 g / cm^3
# Si number density = 23.347227 Si / 1000 Ang^3
#
#
#
# Elastic Constant Matrix: (Units=GPa)
#
#
# Indices 1 2 3 4 5 6 
#
# 1 110.2540 19.6514 16.4387 1.8840 -15.9911 -3.1452
# 2 19.6514 42.1070 12.8222 -8.3793 -10.8286 -6.7079
# 3 16.4387 12.8222 79.5022 -1.4646 -14.1729 1.6820
# 4 1.8840 -8.3793 -1.4646 25.8743 -0.6690 -7.4046
# 5 -15.9911 -10.8286 -14.1729 -0.6690 36.7471 0.1332
# 6 -3.1452 -6.7079 1.6820 -7.4046 0.1332 37.9800
#
#
#
# Elastic Compliance Matrix: (Units=1/GPa)
#
#
# Indices 1 2 3 4 5 6 
#
# 1 0.010430 -0.004328 -0.000986 -0.002230 0.002844 -0.000302
# 2 -0.004328 0.032285 -0.003053 0.013060 0.006662 0.008002
# 3 -0.000986 -0.003053 0.014022 -0.000400 0.004077 -0.001334
# 4 -0.002230 0.013060 -0.000400 0.046301 0.003527 0.011154
# 5 0.002844 0.006662 0.004077 0.003527 0.032044 0.001807
# 6 -0.000302 0.008002 -0.001334 0.011154 0.001807 0.029945
#
#
# Mechanical properties :
#
#
# Convention : Reuss Voigt Hill
#
# Bulk Modulus (GPa) = 24.99823 36.63199 30.81511
# Shear Modulus (GPa) = 25.62824 32.31700 28.97262
#
# Velocity S-wave (km/s) = 3.31675 3.72451 3.52653
# Velocity P-wave (km/s) = 5.03966 5.84979 5.45977
#
# Compressibility (1/GPa) = 0.04000283
#
# Stress axis : x y z
#
# Youngs Moduli (GPa) = 95.87381 30.97371 71.31489
#
# Poissons Ratio (x) = 0.13405 0.07035
# Poissons Ratio (y) = 0.41494 0.21774
# Poissons Ratio (z) = 0.09457 0.09457
#
# Static dielectric constant tensor:
#      x y z
#    x 4.408340 -0.345070 -0.254220 
#    y -0.345070 4.107330 -0.108620 
#    z -0.254220 -0.108620 4.187090 
# 
# 
# High freq. dielectric constant tensor:
#      x y z
#    x 1.926410 -0.012060 -0.010430 
#    y -0.012060 1.906980 -0.008330 
#    z -0.010430 -0.008330 1.898170 
# 
# From -- ./inp_files/390665.got.cif
#   From: 2010.06.25/outbox.cif.g09.slc.cpg/sg2_196_cif.got.tgz:390665.got - 2010.06.27 13:26:56.
