data_PCOD8004932
_publ_section_title
;
Structure prediction by ZEFSAII (Michael W. Deem and Ramdas Pophale) SiO2 
 PCOD8004932
Probable space group: P -1
;
_chemical_formula_sum "Si O2"
_cell_formula_units_Z 16
_cell_length_a 14.141099
_cell_length_b 8.691597
_cell_length_c 11.382552
_cell_angle_alpha 141.320074
_cell_angle_beta 98.299610
_cell_angle_gamma 65.737497
_cell_volume 757.932994
_symmetry_space_group_name_H-M "P -1"
_symmetry_group_IT_number 2
_symmetry_cell_setting 'triclinic'
loop_
_space_group_symop_operation_xyz
x,y,z
-x,-y,-z
loop_
_atom_site_type_symbol
_atom_site_label
_atom_site_fract_x
_atom_site_fract_y
_atom_site_fract_z
Si Si1 0.138249 0.188149 0.387104
Si Si2 0.704494 0.940893 0.866498
Si Si3 0.270552 0.721127 0.726772
Si Si4 0.422638 0.098085 0.373303
Si Si5 0.957495 0.176880 0.216861
Si Si6 0.612116 0.728169 0.900295
Si Si7 0.332727 0.881504 0.408842
Si Si8 0.357185 0.986723 0.715197
O O1 0.186741 0.200791 0.275919
O O2 0.083721 0.493080 0.620734
O O3 0.049828 0.084058 0.279865
O O4 0.231066 0.957317 0.349986
O O5 0.595561 0.062246 0.837164
O O6 0.705510 0.702030 0.810732
O O7 0.696498 0.196773 0.094976
O O8 0.310697 0.391185 0.540220
O O9 0.139666 0.874531 0.780832
O O10 0.328626 0.785039 0.666832
O O11 0.427906 0.924232 0.388013
O O12 0.519948 0.167536 0.409287
O O13 0.000000 0.000000 0.000000
O O14 0.607122 0.441278 0.728607
O O15 0.651796 0.758152 0.055915
O O16 0.500000 0.000000 0.000000
O O17 0.286831 0.074510 0.634247
#
# Coordination Sequence:
#
# PCOD8004932 Si02
#       8
#     2   2   2   2   2   2   2   2
#     4  10  23  42  65  96 123 163 210 270 326 373
#     4  10  20  38  63  91 128 164 213 258 313 381
#     4  11  22  37  68  94 123 169 216 265 312 385
#     4  11  22  40  60  94 131 171 212 258 316 375
#     4  11  21  40  71  98 120 160 219 267 323 381
#     4  11  24  40  62  93 127 174 217 258 309 381
#     4  11  25  40  61  93 136 167 210 267 319 374
#     4  11  25  39  63  91 134 175 210 256 318 386
#
# _framework density 21.110043999999998
#
# number of rings (size 3 to 8) (size 9 to 14) (size 15 to 20)
#    0.000    1.250    5.000    1.500    3.500    3.500 
#    0.000    0.625    0.000    2.250    0.000    0.000 
#    0.000    0.000    0.000    0.000    0.000    0.000 
#
# Total GULP energy -198279.111346 kJ/mol
# GULP energy per Si atom -12392.444459 kJ/mol
# Density = 2.106200 g / cm^3
# Si number density = 21.110044 Si / 1000 Ang^3
#
#
#
# Elastic Constant Matrix: (Units=GPa)
#
#
# Indices 1 2 3 4 5 6 
#
# 1 125.4181 52.3500 42.9564 -4.0231 4.6913 4.4913
# 2 52.3500 98.5061 58.6580 -20.7537 0.8542 9.2056
# 3 42.9564 58.6580 95.0990 -27.4774 6.0811 5.7239
# 4 -4.0231 -20.7537 -27.4774 34.5803 -3.6085 -1.9822
# 5 4.6913 0.8542 6.0811 -3.6085 32.7160 -4.1894
# 6 4.4913 9.2056 5.7239 -1.9822 -4.1894 29.7245
#
#
#
# Elastic Compliance Matrix: (Units=1/GPa)
#
#
# Indices 1 2 3 4 5 6 
#
# 1 0.010983 -0.004875 -0.003094 -0.004248 -0.001345 -0.000027
# 2 -0.004875 0.018683 -0.008018 0.004292 0.001795 -0.002966
# 3 -0.003094 -0.008018 0.020057 0.010531 -0.001976 -0.000488
# 4 -0.004248 0.004292 0.010531 0.039697 0.002963 0.000350
# 5 -0.001345 0.001795 -0.001976 0.002963 0.032013 0.004737
# 6 -0.000027 -0.002966 -0.000488 0.000350 0.004737 0.035350
#
#
# Mechanical properties :
#
#
# Convention : Reuss Voigt Hill
#
# Bulk Modulus (GPa) = 56.34188 69.66134 63.00161
# Shear Modulus (GPa) = 25.68423 30.40808 28.04616
#
# Velocity S-wave (km/s) = 3.49188 3.79945 3.64891
# Velocity P-wave (km/s) = 6.55784 7.23316 6.90376
#
# Compressibility (1/GPa) = 0.01774879
#
# Stress axis : x y z
#
# Youngs Moduli (GPa) = 91.05023 53.52494 49.85872
#
# Poissons Ratio (x) = 0.26096 0.15425
# Poissons Ratio (y) = 0.44391 0.39975
# Poissons Ratio (z) = 0.28168 0.42915
#
# Static dielectric constant tensor:
#      x y z
#    x 4.083760 0.029790 0.120870 
#    y 0.029790 3.590320 -0.458940 
#    z 0.120870 -0.458940 3.872940 
# 
# 
# High freq. dielectric constant tensor:
#      x y z
#    x 1.839260 0.006630 0.017550 
#    y 0.006630 1.796300 -0.037080 
#    z 0.017550 -0.037080 1.832570 
# 
# From -- ./inp_files/448346.got.cif
#   From: 2010.06.25/outbox.cif.g09.slc.cpg/sg2_225_cif.got.tgz:448346.got - 2010.06.27 13:26:56.
