data_PCOD8004511
_publ_section_title
;
Structure prediction by ZEFSAII (Michael W. Deem and Ramdas Pophale) SiO2 
 PCOD8004511
Probable space group: P -1
;
_chemical_formula_sum "Si O2"
_cell_formula_units_Z 16
_cell_length_a 11.714229
_cell_length_b 7.363615
_cell_length_c 8.434887
_cell_angle_alpha 81.874008
_cell_angle_beta 106.522865
_cell_angle_gamma 86.079507
_cell_volume 686.003988
_symmetry_space_group_name_H-M "P -1"
_symmetry_group_IT_number 2
_symmetry_cell_setting 'triclinic'
loop_
_space_group_symop_operation_xyz
x,y,z
-x,-y,-z
loop_
_atom_site_type_symbol
_atom_site_label
_atom_site_fract_x
_atom_site_fract_y
_atom_site_fract_z
Si Si1 0.565048 0.635862 0.318778
Si Si2 0.173907 0.483271 0.050677
Si Si3 0.357328 0.967320 0.165701
Si Si4 0.747261 0.782985 0.155630
Si Si5 0.097329 0.951700 0.181105
Si Si6 0.597118 0.662583 0.684991
Si Si7 0.989086 0.675900 0.765375
Si Si8 0.976910 0.816121 0.424588
O O1 0.662871 0.644051 0.218865
O O2 0.623476 0.672543 0.507278
O O3 0.526282 0.427952 0.324052
O O4 0.455164 0.792863 0.228008
O O5 0.305199 0.486844 0.173223
O O6 0.082078 0.478363 0.162334
O O7 0.177803 0.309051 0.953291
O O8 0.121276 0.663717 0.904646
O O9 0.403061 0.132750 0.268667
O O10 0.232903 0.898125 0.185313
O O11 0.335790 0.038479 0.967557
O O12 0.838200 0.840665 0.315493
O O13 0.060007 0.788943 0.302940
O O14 0.093732 0.133771 0.264298
O O15 0.000000 0.000000 0.000000
O O16 0.005192 0.647847 0.584384
O O17 0.000000 0.000000 0.500000
#
# Coordination Sequence:
#
# PCOD8004511 Si02
#       8
#     2   2   2   2   2   2   2   2
#     4  11  25  42  69  95 128 173 220 271 325 383
#     4  10  21  38  66  84 131 175 203 270 330 382
#     4  11  23  43  69  95 130 177 212 267 328 388
#     4  11  22  42  62  95 130 167 221 268 318 392
#     4  11  20  39  63  96 132 163 217 262 324 398
#     4  10  23  46  63  95 128 170 221 272 320 380
#     4  10  20  38  59  93 124 171 210 259 328 381
#     4  10  22  36  61  93 127 165 208 270 315 382
#
# _framework density 23.323478000000001
#
# number of rings (size 3 to 8) (size 9 to 14) (size 15 to 20)
#    0.000    1.500    3.750    1.500    3.500    2.500 
#    4.500    1.250    0.000    0.000    0.000    0.000 
#    0.000    0.000    0.000    0.000    0.000    0.000 
#
# Total GULP energy -198247.262931 kJ/mol
# GULP energy per Si atom -12390.453933 kJ/mol
# Density = 2.327039 g / cm^3
# Si number density = 23.323478 Si / 1000 Ang^3
#
#
#
# Elastic Constant Matrix: (Units=GPa)
#
#
# Indices 1 2 3 4 5 6 
#
# 1 98.0027 24.6733 46.1580 5.2319 -13.8064 17.7258
# 2 24.6733 46.4238 15.2902 9.7512 1.8527 0.2914
# 3 46.1580 15.2902 175.3204 -10.1779 -12.3300 18.2610
# 4 5.2319 9.7512 -10.1779 18.3296 6.4201 9.3025
# 5 -13.8064 1.8527 -12.3300 6.4201 46.2381 -7.8434
# 6 17.7258 0.2914 18.2610 9.3025 -7.8434 29.5605
#
#
#
# Elastic Compliance Matrix: (Units=1/GPa)
#
#
# Indices 1 2 3 4 5 6 
#
# 1 0.014708 -0.007355 -0.002255 0.001015 0.002767 -0.006940
# 2 -0.007355 0.031690 -0.003669 -0.024665 0.001442 0.014509
# 3 -0.002255 -0.003669 0.007947 0.011161 -0.001204 -0.007353
# 4 0.001015 -0.024665 0.011161 0.101967 -0.017346 -0.043952
# 5 0.002767 0.001442 -0.001204 -0.017346 0.026441 0.011545
# 6 -0.006940 0.014509 -0.007353 -0.043952 0.011545 0.059284
#
#
# Mechanical properties :
#
#
# Convention : Reuss Voigt Hill
#
# Bulk Modulus (GPa) = 35.98655 54.66553 45.32604
# Shear Modulus (GPa) = 17.99486 34.40068 26.19777
#
# Velocity S-wave (km/s) = 2.78066 3.84466 3.35511
# Velocity P-wave (km/s) = 5.07664 6.57247 5.87238
#
# Compressibility (1/GPa) = 0.02778816
#
# Stress axis : x y z
#
# Youngs Moduli (GPa) = 67.98998 31.55540 125.84093
#
# Poissons Ratio (x) = 0.23208 0.28371
# Poissons Ratio (y) = 0.50004 0.46174
# Poissons Ratio (z) = 0.15329 0.11578
#
# Static dielectric constant tensor:
#      x y z
#    x 4.342590 0.226450 -0.523640 
#    y 0.226450 3.973830 -0.439660 
#    z -0.523640 -0.439660 5.879460 
# 
# 
# High freq. dielectric constant tensor:
#      x y z
#    x 1.910310 0.012910 -0.001400 
#    y 0.012910 1.902480 -0.001980 
#    z -0.001400 -0.001980 1.949280 
# 
# From -- ./inp_files/243130.got.cif
#   From: 2010.06.25/outbox.cif.g09.slc.cpg/sg2_122_cif.got.tgz:243130.got - 2010.06.27 13:26:56.
