data_PCOD8004337
_publ_section_title
;
Structure prediction by ZEFSAII (Michael W. Deem and Ramdas Pophale) SiO2 
 PCOD8004337
Probable space group: P -1
;
_chemical_formula_sum "Si O2"
_cell_formula_units_Z 16
_cell_length_a 14.733901
_cell_length_b 9.384044
_cell_length_c 9.858845
_cell_angle_alpha 68.957184
_cell_angle_beta 62.413034
_cell_angle_gamma 114.684614
_cell_volume 798.700261
_symmetry_space_group_name_H-M "P -1"
_symmetry_group_IT_number 2
_symmetry_cell_setting 'triclinic'
loop_
_space_group_symop_operation_xyz
x,y,z
-x,-y,-z
loop_
_atom_site_type_symbol
_atom_site_label
_atom_site_fract_x
_atom_site_fract_y
_atom_site_fract_z
Si Si1 0.220168 0.004625 0.065758
Si Si2 0.017786 0.620722 0.142091
Si Si3 0.331320 0.350095 0.660982
Si Si4 0.298036 0.666912 0.600345
Si Si5 0.760616 0.406703 0.024582
Si Si6 0.901393 0.876684 0.737337
Si Si7 0.554550 0.017191 0.106398
Si Si8 0.925491 0.020926 0.161562
O O1 0.180643 0.044036 0.222053
O O2 0.083913 0.765029 0.184256
O O3 0.250924 0.189936 0.897200
O O4 0.365224 0.058815 0.945986
O O5 0.846167 0.409275 0.338581
O O6 0.092806 0.537790 0.091747
O O7 0.044037 0.766301 0.950187
O O8 0.500000 0.500000 0.500000
O O9 0.289730 0.480672 0.641908
O O10 0.250315 0.187977 0.643414
O O11 0.316512 0.706663 0.737220
O O12 0.429097 0.874620 0.353575
O O13 0.662719 0.253823 0.016518
O O14 0.792698 0.618074 0.901138
O O15 0.000000 0.000000 0.500000
O O16 0.018147 0.979419 0.737496
O O17 0.500000 0.000000 0.000000
O O18 0.000000 0.000000 0.000000
#
# Coordination Sequence:
#
# PCOD8004337 Si02
#       8
#     2   2   2   2   2   2   2   2
#     4  10  20  43  63  89 125 165 207 253 303 378
#     4  10  20  37  70  93 120 161 213 256 303 362
#     4  11  19  34  66  97 116 161 217 252 295 361
#     4  12  20  38  68  93 122 161 210 257 305 360
#     4  11  24  43  63  94 128 159 208 268 307 361
#     4  12  24  40  66  97 127 158 206 267 318 356
#     4  11  27  44  61  88 131 171 204 244 317 388
#     4  11  18  38  65  92 125 161 212 256 295 373
#
# _framework density 20.032547000000001
#
# number of rings (size 3 to 8) (size 9 to 14) (size 15 to 20)
#    0.000    1.000    7.500    0.750    0.000    3.000 
#    0.000    3.125    0.000    0.000    0.000    0.000 
#    0.000    0.000    0.000    0.000    0.000    0.000 
#
# Total GULP energy -198235.933353 kJ/mol
# GULP energy per Si atom -12389.745835 kJ/mol
# Density = 1.998695 g / cm^3
# Si number density = 20.032547 Si / 1000 Ang^3
#
#
#
# Elastic Constant Matrix: (Units=GPa)
#
#
# Indices 1 2 3 4 5 6 
#
# 1 91.4382 39.8525 46.8231 3.4419 -13.3820 12.8558
# 2 39.8525 92.2598 59.5320 5.4829 -7.8075 4.3767
# 3 46.8231 59.5320 106.3808 11.8360 -8.3766 11.9349
# 4 3.4419 5.4829 11.8360 26.0794 4.6420 -5.5226
# 5 -13.3820 -7.8075 -8.3766 4.6420 34.4535 -1.2368
# 6 12.8558 4.3767 11.9349 -5.5226 -1.2368 36.9816
#
#
#
# Elastic Compliance Matrix: (Units=1/GPa)
#
#
# Indices 1 2 3 4 5 6 
#
# 1 0.015782 -0.003593 -0.004054 -0.001057 0.004337 -0.003765
# 2 -0.003593 0.017925 -0.008769 0.001053 0.000469 0.002130
# 3 -0.004054 -0.008769 0.017404 -0.006644 0.001417 -0.004114
# 4 -0.001057 0.001053 -0.006644 0.044465 -0.007463 0.008777
# 5 0.004337 0.000469 0.001417 -0.007463 0.032092 -0.002062
# 6 -0.003765 0.002130 -0.004114 0.008777 -0.002062 0.030667
#
#
# Mechanical properties :
#
#
# Convention : Reuss Voigt Hill
#
# Bulk Modulus (GPa) = 54.70609 64.72156 59.71383
# Shear Modulus (GPa) = 25.34713 29.09432 27.22073
#
# Velocity S-wave (km/s) = 3.56096 3.81511 3.69022
# Velocity P-wave (km/s) = 6.65396 7.19619 6.93038
#
# Compressibility (1/GPa) = 0.01827950
#
# Stress axis : x y z
#
# Youngs Moduli (GPa) = 63.36212 55.78699 57.45668
#
# Poissons Ratio (x) = 0.20042 0.23296
# Poissons Ratio (y) = 0.22764 0.50385
# Poissons Ratio (z) = 0.25690 0.48921
#
# Static dielectric constant tensor:
#      x y z
#    x 5.992060 0.346740 -2.929900 
#    y 0.346740 3.373130 -1.069820 
#    z -2.929900 -1.069820 6.257280 
# 
# 
# High freq. dielectric constant tensor:
#      x y z
#    x 1.786060 -0.003240 -0.016800 
#    y -0.003240 1.792530 -0.005520 
#    z -0.016800 -0.005520 1.760540 
# 
# From -- ./inp_files/262200.got.cif
#   From: 2010.06.25/outbox.cif.g09.slc.cpg/sg2_132_cif.got.tgz:262200.got - 2010.06.27 13:26:56.
