data_PCOD8004319
_publ_section_title
;
Structure prediction by ZEFSAII (Michael W. Deem and Ramdas Pophale) SiO2 
 PCOD8004319
Probable space group: P -1
;
_chemical_formula_sum "Si O2"
_cell_formula_units_Z 16
_cell_length_a 8.297442
_cell_length_b 15.628336
_cell_length_c 11.566437
_cell_angle_alpha 146.656342
_cell_angle_beta 66.636680
_cell_angle_gamma 112.104562
_cell_volume 753.810081
_symmetry_space_group_name_H-M "P -1"
_symmetry_group_IT_number 2
_symmetry_cell_setting 'triclinic'
loop_
_space_group_symop_operation_xyz
x,y,z
-x,-y,-z
loop_
_atom_site_type_symbol
_atom_site_label
_atom_site_fract_x
_atom_site_fract_y
_atom_site_fract_z
Si Si1 0.291190 0.322642 0.305351
Si Si2 0.063517 0.838149 0.757995
Si Si3 0.879828 0.364119 0.943456
Si Si4 0.427517 0.462868 0.662917
Si Si5 0.549723 0.799297 0.461200
Si Si6 0.584846 0.009009 0.108260
Si Si7 0.891830 0.869992 0.310087
Si Si8 0.206770 0.862052 0.499896
O O1 0.336046 0.360249 0.469041
O O2 0.390645 0.447484 0.333078
O O3 0.077490 0.306868 0.328030
O O4 0.348912 0.154979 0.063054
O O5 0.261263 0.843901 0.761534
O O6 0.072013 0.822663 0.598865
O O7 0.000000 0.000000 0.000000
O O8 0.831920 0.240332 0.717072
O O9 0.986246 0.273320 0.909700
O O10 0.709133 0.420281 0.118380
O O11 0.000000 0.500000 0.000000
O O12 0.489719 0.358298 0.631280
O O13 0.563889 0.950493 0.712454
O O14 0.733447 0.785987 0.333674
O O15 0.402578 0.827621 0.440596
O O16 0.500000 0.000000 0.000000
O O17 0.814401 0.953878 0.314701
O O18 0.000000 0.000000 0.500000
#
# Coordination Sequence:
#
# PCOD8004319 Si02
#       8
#     2   2   2   2   2   2   2   2
#     4  10  22  41  64  93 131 170 220 267 315 394
#     4   9  20  40  63  93 125 162 210 272 322 369
#     4  11  22  42  64  91 128 173 212 259 321 384
#     4  11  23  40  66  94 134 176 215 259 330 393
#     4  11  22  42  64  93 130 167 211 268 331 379
#     4  10  20  37  68  93 122 167 216 272 321 378
#     4  10  23  39  64  92 122 164 214 268 313 378
#     4  10  23  41  64  95 127 161 215 269 321 379
#
# _framework density 21.225507
#
# number of rings (size 3 to 8) (size 9 to 14) (size 15 to 20)
#    0.000    1.750    2.500    1.125    5.250    0.500 
#    2.250    2.500    0.000    0.000    0.000    0.000 
#    0.000    0.000    0.000    0.000    0.000    0.000 
#
# Total GULP energy -198225.482391 kJ/mol
# GULP energy per Si atom -12389.092649 kJ/mol
# Density = 2.117720 g / cm^3
# Si number density = 21.225507 Si / 1000 Ang^3
#
#
#
# Elastic Constant Matrix: (Units=GPa)
#
#
# Indices 1 2 3 4 5 6 
#
# 1 105.1296 60.9619 35.3311 12.1133 -3.5585 -8.3866
# 2 60.9619 116.1708 32.6880 12.0938 -0.7096 3.8112
# 3 35.3311 32.6880 97.7949 -4.9941 -15.3458 -2.5379
# 4 12.1133 12.0938 -4.9941 39.1045 1.5292 -5.9835
# 5 -3.5585 -0.7096 -15.3458 1.5292 36.5091 6.5380
# 6 -8.3866 3.8112 -2.5379 -5.9835 6.5380 38.2588
#
#
#
# Elastic Compliance Matrix: (Units=1/GPa)
#
#
# Indices 1 2 3 4 5 6 
#
# 1 0.015156 -0.006893 -0.003293 -0.002425 -0.000568 0.003508
# 2 -0.006893 0.013252 -0.002268 -0.002731 -0.000663 -0.003295
# 3 -0.003293 -0.002268 0.013124 0.003205 0.005014 0.000019
# 4 -0.002425 -0.002731 0.003205 0.028309 -0.000941 0.004541
# 5 -0.000568 -0.000663 0.005014 -0.000941 0.030376 -0.005064
# 6 0.003508 -0.003295 0.000019 0.004541 -0.005064 0.028812
#
#
# Mechanical properties :
#
#
# Convention : Reuss Voigt Hill
#
# Bulk Modulus (GPa) = 60.15707 64.11747 62.13727
# Shear Modulus (GPa) = 31.35216 35.44876 33.40046
#
# Velocity S-wave (km/s) = 3.84747 4.09112 3.97117
# Velocity P-wave (km/s) = 6.93836 7.25187 7.09685
#
# Compressibility (1/GPa) = 0.01662315
#
# Stress axis : x y z
#
# Youngs Moduli (GPa) = 65.98146 75.46257 76.19380
#
# Poissons Ratio (x) = 0.52013 0.25094
# Poissons Ratio (y) = 0.45478 0.17283
# Poissons Ratio (z) = 0.21731 0.17117
#
# Static dielectric constant tensor:
#      x y z
#    x 4.266470 0.121040 -0.273940 
#    y 0.121040 3.925240 0.044250 
#    z -0.273940 0.044250 4.043340 
# 
# 
# High freq. dielectric constant tensor:
#      x y z
#    x 1.838250 0.008960 -0.010610 
#    y 0.008960 1.824680 -0.003640 
#    z -0.010610 -0.003640 1.834790 
# 
# From -- ./inp_files/277963.got.cif
#   From: 2010.06.25/outbox.cif.g09.slc.cpg/sg2_139_cif.got.tgz:277963.got - 2010.06.27 13:26:56.
