data_PCOD8004235
_publ_section_title
;
Structure prediction by ZEFSAII (Michael W. Deem and Ramdas Pophale) SiO2 
 PCOD8004235
Probable space group: P -1
;
_chemical_formula_sum "Si O2"
_cell_formula_units_Z 16
_cell_length_a 12.201143
_cell_length_b 13.146506
_cell_length_c 9.497899
_cell_angle_alpha 77.753623
_cell_angle_beta 134.695670
_cell_angle_gamma 128.453435
_cell_volume 775.544640
_symmetry_space_group_name_H-M "P -1"
_symmetry_group_IT_number 2
_symmetry_cell_setting 'triclinic'
loop_
_space_group_symop_operation_xyz
x,y,z
-x,-y,-z
loop_
_atom_site_type_symbol
_atom_site_label
_atom_site_fract_x
_atom_site_fract_y
_atom_site_fract_z
Si Si1 0.482392 0.587262 0.352734
Si Si2 0.172418 0.570655 0.517384
Si Si3 0.858852 0.680871 0.500676
Si Si4 0.244370 0.146216 0.321700
Si Si5 0.905309 0.167392 0.056144
Si Si6 0.034100 0.086155 0.644752
Si Si7 0.368373 0.141333 0.122337
Si Si8 0.013378 0.414140 0.927915
O O1 0.500000 0.500000 0.500000
O O2 0.652595 0.652014 0.364422
O O3 0.533397 0.714393 0.452378
O O4 0.255639 0.491605 0.105117
O O5 0.214499 0.469044 0.555104
O O6 0.386415 0.724139 0.713994
O O7 0.000000 0.500000 0.500000
O O8 0.084710 0.593566 0.301541
O O9 0.959409 0.788723 0.427590
O O10 0.031247 0.756792 0.757601
O O11 0.281634 0.123933 0.205305
O O12 0.083877 0.169308 0.164840
O O13 0.152344 0.014813 0.380227
O O14 0.880923 0.252603 0.903654
O O15 0.683369 0.004170 0.912688
O O16 0.252561 0.157667 0.896293
O O17 0.000000 0.000000 0.500000
O O18 0.000000 0.500000 0.000000
#
# Coordination Sequence:
#
# PCOD8004235 Si02
#       8
#     2   2   2   2   2   2   2   2
#     4  11  19  37  71  98 126 173 229 266 319 391
#     4  12  30  46  60  98 144 173 215 279 336 388
#     4  11  22  44  67  99 129 172 225 274 324 398
#     4  10  20  37  66 108 132 159 217 286 327 374
#     4  10  20  39  72  96 129 168 224 267 317 402
#     4  11  20  38  70 101 131 167 218 280 329 378
#     4  11  24  43  65  98 138 169 216 278 332 389
#     4  12  23  42  69  95 134 182 220 264 324 400
#
# _framework density 20.630663999999999
#
# number of rings (size 3 to 8) (size 9 to 14) (size 15 to 20)
#    0.000    1.000    7.500    3.000    1.750    3.000 
#    0.000    1.875    0.000    0.000    0.000    0.000 
#    0.000    0.000    0.000    0.000    0.000    0.000 
#
# Total GULP energy -198397.677073 kJ/mol
# GULP energy per Si atom -12399.854817 kJ/mol
# Density = 2.058371 g / cm^3
# Si number density = 20.630664 Si / 1000 Ang^3
#
#
#
# Elastic Constant Matrix: (Units=GPa)
#
#
# Indices 1 2 3 4 5 6 
#
# 1 59.4856 26.8188 25.3894 6.0397 -9.3941 11.7165
# 2 26.8188 174.2438 69.4516 0.5308 3.1201 3.2789
# 3 25.3894 69.4516 133.7377 10.0646 -2.3999 11.4015
# 4 6.0397 0.5308 10.0646 50.3452 1.8147 -4.3126
# 5 -9.3941 3.1201 -2.3999 1.8147 21.8766 -2.8474
# 6 11.7165 3.2789 11.4015 -4.3126 -2.8474 32.9548
#
#
#
# Elastic Compliance Matrix: (Units=1/GPa)
#
#
# Indices 1 2 3 4 5 6 
#
# 1 0.021789 -0.002662 -0.001807 -0.003103 0.008951 -0.006490
# 2 -0.002662 0.007648 -0.003722 0.001196 -0.002558 0.001409
# 3 -0.001807 -0.003722 0.010149 -0.002029 0.000685 -0.002705
# 4 -0.003103 0.001196 -0.002029 0.021093 -0.002930 0.004194
# 5 0.008951 -0.002558 0.000685 -0.002930 0.050342 0.000802
# 6 -0.006490 0.001409 -0.002705 0.004194 0.000802 0.034066
#
#
# Mechanical properties :
#
#
# Convention : Reuss Voigt Hill
#
# Bulk Modulus (GPa) = 43.09664 67.86520 55.48092
# Shear Modulus (GPa) = 29.55019 37.42248 33.48633
#
# Velocity S-wave (km/s) = 3.78874 4.26364 4.03318
# Velocity P-wave (km/s) = 6.33043 7.56339 6.97421
#
# Compressibility (1/GPa) = 0.02320366
#
# Stress axis : x y z
#
# Youngs Moduli (GPa) = 45.89488 130.74951 98.53194
#
# Poissons Ratio (x) = 0.34809 0.17800
# Poissons Ratio (y) = 0.12219 0.36677
# Poissons Ratio (z) = 0.08291 0.48670
#
# Static dielectric constant tensor:
#      x y z
#    x 2.935560 0.271000 -0.060860 
#    y 0.271000 4.213480 0.274520 
#    z -0.060860 0.274520 4.028530 
# 
# 
# High freq. dielectric constant tensor:
#      x y z
#    x 1.778550 0.003460 -0.014740 
#    y 0.003460 1.831200 0.005430 
#    z -0.014740 0.005430 1.807790 
# 
# From -- ./inp_files/273008.got.cif
#   From: 2010.06.25/outbox.cif.g09.slc.cpg/sg2_137_cif.got.tgz:273008.got - 2010.06.27 13:26:56.
