data_PCOD8004601
_publ_section_title
;
Structure prediction by ZEFSAII (Michael W. Deem and Ramdas Pophale) SiO2 
 PCOD8004601
Probable space group: P -1
;
_chemical_formula_sum "Si O2"
_cell_formula_units_Z 16
_cell_length_a 11.346337
_cell_length_b 20.199978
_cell_length_c 9.393980
_cell_angle_alpha 50.491415
_cell_angle_beta 79.852307
_cell_angle_gamma 38.489246
_cell_volume 767.367336
_symmetry_space_group_name_H-M "P -1"
_symmetry_group_IT_number 2
_symmetry_cell_setting 'triclinic'
loop_
_space_group_symop_operation_xyz
x,y,z
-x,-y,-z
loop_
_atom_site_type_symbol
_atom_site_label
_atom_site_fract_x
_atom_site_fract_y
_atom_site_fract_z
Si Si1 0.067282 0.096537 0.829143
Si Si2 0.826625 0.541136 0.058143
Si Si3 0.058695 0.671057 0.264412
Si Si4 0.617457 0.256950 0.636239
Si Si5 0.727250 0.916342 0.744000
Si Si6 0.039788 0.431780 0.434475
Si Si7 0.202408 0.151656 0.504854
Si Si8 0.503177 0.769925 0.557733
O O1 0.179002 0.081013 0.698176
O O2 0.981895 0.208307 0.829251
O O3 0.817852 0.205915 0.677976
O O4 0.288625 0.889798 0.107243
O O5 0.792882 0.596099 0.154176
O O6 0.961095 0.364896 0.288915
O O7 0.575410 0.691892 0.809038
O O8 0.000000 0.500000 0.000000
O O9 0.353579 0.455925 0.489164
O O10 0.908713 0.701326 0.361119
O O11 0.942053 0.734861 0.043121
O O12 0.592618 0.251703 0.480289
O O13 0.808672 0.866895 0.631758
O O14 0.458582 0.038477 0.649665
O O15 0.714032 0.021991 0.659091
O O16 0.274192 0.326092 0.448966
O O17 0.000000 0.500000 0.500000
#
# Coordination Sequence:
#
# PCOD8004601 Si02
#       8
#     2   2   2   2   2   2   2   2
#     4  11  25  47  68  91 132 172 231 263 320 384
#     4  10  20  38  60  89 133 171 202 258 329 387
#     4  12  23  41  69  97 130 168 218 270 331 389
#     4  11  25  44  69  93 129 178 218 279 313 380
#     4  11  24  37  65  97 133 164 206 273 334 390
#     4  11  22  34  64 100 129 166 211 263 333 389
#     4  11  23  42  63  96 133 170 212 268 326 395
#     4  11  21  41  60  94 135 169 211 266 330 382
#
# _framework density 20.850508999999999
#
# number of rings (size 3 to 8) (size 9 to 14) (size 15 to 20)
#    0.000    1.000    6.250    1.125    3.500    2.000 
#    0.000    3.125    0.000    0.000    0.000    0.000 
#    0.000    0.000    0.000    0.000    0.000    0.000 
#
# Total GULP energy -198311.624397 kJ/mol
# GULP energy per Si atom -12394.476525 kJ/mol
# Density = 2.080305 g / cm^3
# Si number density = 20.850509 Si / 1000 Ang^3
#
#
#
# Elastic Constant Matrix: (Units=GPa)
#
#
# Indices 1 2 3 4 5 6 
#
# 1 90.8624 33.3851 43.3260 12.4848 7.8165 23.2659
# 2 33.3851 89.4378 51.4897 12.2810 7.7916 19.5841
# 3 43.3260 51.4897 142.5659 15.8661 13.8408 7.7652
# 4 12.4848 12.2810 15.8661 42.0753 7.8952 6.3450
# 5 7.8165 7.7916 13.8408 7.8952 33.2897 5.1431
# 6 23.2659 19.5841 7.7652 6.3450 5.1431 24.7219
#
#
#
# Elastic Compliance Matrix: (Units=1/GPa)
#
#
# Indices 1 2 3 4 5 6 
#
# 1 0.016859 -0.000880 -0.003951 -0.001251 0.000299 -0.013670
# 2 -0.000880 0.016982 -0.005180 -0.001181 0.000329 -0.010763
# 3 -0.003951 -0.005180 0.010205 -0.001512 -0.002601 0.005546
# 4 -0.001251 -0.001181 -0.001512 0.026397 -0.004562 -0.003239
# 5 0.000299 0.000329 -0.002601 -0.004562 0.032889 -0.005396
# 6 -0.013670 -0.010763 0.005546 -0.003239 -0.005396 0.062052
#
#
# Mechanical properties :
#
#
# Convention : Reuss Voigt Hill
#
# Bulk Modulus (GPa) = 41.62514 64.36307 52.99411
# Shear Modulus (GPa) = 25.85128 32.99507 29.42318
#
# Velocity S-wave (km/s) = 3.52496 3.98233 3.76060
# Velocity P-wave (km/s) = 6.04765 7.21672 6.65789
#
# Compressibility (1/GPa) = 0.02402394
#
# Stress axis : x y z
#
# Youngs Moduli (GPa) = 59.31492 58.88660 97.99473
#
# Poissons Ratio (x) = 0.05179 0.38719
# Poissons Ratio (y) = 0.05217 0.50763
# Poissons Ratio (z) = 0.23436 0.30504
#
# Static dielectric constant tensor:
#      x y z
#    x 3.834250 0.375810 0.066550 
#    y 0.375810 3.969510 0.343230 
#    z 0.066550 0.343230 4.148260 
# 
# 
# High freq. dielectric constant tensor:
#      x y z
#    x 1.803440 0.033870 0.001210 
#    y 0.033870 1.807700 0.014610 
#    z 0.001210 0.014610 1.835350 
# 
# From -- ./inp_files/282887.got.cif
#   From: 2010.06.25/outbox.cif.g09.slc.cpg/sg2_142_cif.got.tgz:282887.got - 2010.06.27 13:26:56.
