data_PCOD8004135
_publ_section_title
;
Structure prediction by ZEFSAII (Michael W. Deem and Ramdas Pophale) SiO2 
 PCOD8004135
Probable space group: P -1
;
_chemical_formula_sum "Si O2"
_cell_formula_units_Z 16
_cell_length_a 11.734350
_cell_length_b 9.581921
_cell_length_c 11.843316
_cell_angle_alpha 50.076355
_cell_angle_beta 126.730688
_cell_angle_gamma 104.612441
_cell_volume 799.510128
_symmetry_space_group_name_H-M "P -1"
_symmetry_group_IT_number 2
_symmetry_cell_setting 'triclinic'
loop_
_space_group_symop_operation_xyz
x,y,z
-x,-y,-z
loop_
_atom_site_type_symbol
_atom_site_label
_atom_site_fract_x
_atom_site_fract_y
_atom_site_fract_z
Si Si1 0.171819 0.876879 0.040642
Si Si2 0.644401 0.840762 0.690303
Si Si3 0.606658 0.638104 0.002403
Si Si4 0.666299 0.496984 0.729341
Si Si5 0.861534 0.101238 0.727877
Si Si6 0.621362 0.616880 0.398372
Si Si7 0.458484 0.002607 0.102335
Si Si8 0.168131 0.513253 0.598982
O O1 0.208626 0.690832 0.078756
O O2 0.157760 0.832939 0.188075
O O3 0.291691 0.999718 0.030207
O O4 0.025827 0.008137 0.841683
O O5 0.688675 0.690433 0.693882
O O6 0.500000 0.000000 0.500000
O O7 0.772182 0.947282 0.725472
O O8 0.640241 0.711171 0.862757
O O9 0.758051 0.545789 0.204695
O O10 0.500000 0.500000 0.000000
O O11 0.510493 0.810668 0.923427
O O12 0.679575 0.492269 0.604048
O O13 0.510283 0.462015 0.696503
O O14 0.812192 0.279537 0.525768
O O15 0.561774 0.820816 0.311599
O O16 0.743472 0.623042 0.373443
O O17 0.500000 0.000000 0.000000
O O18 0.000000 0.500000 0.500000
#
# Coordination Sequence:
#
# PCOD8004135 Si02
#       8
#     2   2   2   2   2   2   2   2
#     4  10  22  40  67  95 120 176 225 271 316 390
#     4  12  25  41  67  99 133 172 218 273 336 395
#     4  12  25  42  64 101 135 171 215 270 344 391
#     4  10  21  38  66  95 123 161 222 277 321 378
#     4  11  23  42  66  92 133 168 224 270 324 393
#     4  10  20  37  64  92 124 163 219 270 316 385
#     4  11  21  37  64  94 127 168 219 270 323 394
#     4  12  25  42  66  98 135 175 217 272 333 399
#
# _framework density 20.012253999999999
#
# number of rings (size 3 to 8) (size 9 to 14) (size 15 to 20)
#    0.000    1.000    3.750    3.750    5.250    0.500 
#    0.000    0.000    0.000    2.250    0.000    0.000 
#    0.000    0.000    0.000    0.000    0.000    0.000 
#
# Total GULP energy -198324.913749 kJ/mol
# GULP energy per Si atom -12395.307109 kJ/mol
# Density = 1.996671 g / cm^3
# Si number density = 20.012254 Si / 1000 Ang^3
#
#
#
# Elastic Constant Matrix: (Units=GPa)
#
#
# Indices 1 2 3 4 5 6 
#
# 1 120.4248 34.6359 41.3922 -1.0170 12.1588 6.3062
# 2 34.6359 124.6441 33.1600 -29.7344 20.6896 2.3251
# 3 41.3922 33.1600 113.4252 -5.3325 4.9821 5.5571
# 4 -1.0170 -29.7344 -5.3325 29.2870 0.9715 -2.7438
# 5 12.1588 20.6896 4.9821 0.9715 34.7586 -5.7164
# 6 6.3062 2.3251 5.5571 -2.7438 -5.7164 30.3315
#
#
#
# Elastic Compliance Matrix: (Units=1/GPa)
#
#
# Indices 1 2 3 4 5 6 
#
# 1 0.010298 -0.002317 -0.003016 -0.002667 -0.002052 -0.002039
# 2 -0.002317 0.013778 -0.002190 0.013726 -0.007518 -0.000348
# 3 -0.003016 -0.002190 0.010554 -0.000528 0.000687 -0.001057
# 4 -0.002667 0.013726 -0.000528 0.048390 -0.008112 0.002448
# 5 -0.002052 -0.007518 0.000687 -0.008112 0.035205 0.006778
# 6 -0.002039 -0.000348 -0.001057 0.002448 0.006778 0.035112
#
#
# Mechanical properties :
#
#
# Convention : Reuss Voigt Hill
#
# Bulk Modulus (GPa) = 51.06065 64.09671 57.57868
# Shear Modulus (GPa) = 28.58569 35.49582 32.04076
#
# Velocity S-wave (km/s) = 3.78353 4.21611 4.00566
# Velocity P-wave (km/s) = 6.68258 7.46987 7.08717
#
# Compressibility (1/GPa) = 0.01958455
#
# Stress axis : x y z
#
# Youngs Moduli (GPa) = 97.10211 72.57925 94.74976
#
# Poissons Ratio (x) = 0.16815 0.28579
# Poissons Ratio (y) = 0.22497 0.20750
# Poissons Ratio (z) = 0.29288 0.15895
#
# Static dielectric constant tensor:
#      x y z
#    x 3.699380 -0.317800 0.266190 
#    y -0.317800 4.125240 -0.839200 
#    z 0.266190 -0.839200 4.419750 
# 
# 
# High freq. dielectric constant tensor:
#      x y z
#    x 1.780420 -0.005390 -0.004410 
#    y -0.005390 1.773420 -0.026980 
#    z -0.004410 -0.026980 1.793550 
# 
# From -- ./inp_files/416366.got.cif
#   From: 2010.06.25/outbox.cif.g09.slc.cpg/sg2_209_cif.got.tgz:416366.got - 2010.06.27 13:26:56.
