data_PCOD8004401
_publ_section_title
;
Structure prediction by ZEFSAII (Michael W. Deem and Ramdas Pophale) SiO2 
 PCOD8004401
Probable space group: P -1
;
_chemical_formula_sum "Si O2"
_cell_formula_units_Z 12
_cell_length_a 12.173976
_cell_length_b 18.127917
_cell_length_c 26.657528
_cell_angle_alpha 18.618204
_cell_angle_beta 21.772290
_cell_angle_gamma 21.736815
_cell_volume 634.682521
_symmetry_space_group_name_H-M "P -1"
_symmetry_group_IT_number 2
_symmetry_cell_setting 'triclinic'
loop_
_space_group_symop_operation_xyz
x,y,z
-x,-y,-z
loop_
_atom_site_type_symbol
_atom_site_label
_atom_site_fract_x
_atom_site_fract_y
_atom_site_fract_z
Si Si1 0.743413 0.168412 0.433646
Si Si2 0.926518 0.530665 0.859084
Si Si3 0.266417 0.041846 0.964994
Si Si4 0.787805 0.574396 0.091823
Si Si5 0.338423 0.019331 0.772909
Si Si6 0.581109 0.217084 0.632966
O O1 0.644834 0.364952 0.301680
O O2 0.451036 0.102345 0.619285
O O3 0.866113 0.296163 0.345266
O O4 0.038459 0.910115 0.458357
O O5 0.041091 0.308773 0.913274
O O6 0.979252 0.415478 0.967644
O O7 0.551510 0.720981 0.886618
O O8 0.515892 0.068646 0.802643
O O9 0.481780 0.843431 0.043231
O O10 0.034305 0.934173 0.104733
O O11 0.000000 0.500000 0.000000
O O12 0.360980 0.199956 0.691180
O O13 0.500000 0.500000 0.500000
#
# Coordination Sequence:
#
# PCOD8004401 Si02
#       6
#     2   2   2   2   2   2
#     4   9  20  37  58  76 116 147 188 221 276 330
#     4   9  20  36  59  81 112 150 189 219 278 337
#     4  12  21  35  60  88 113 143 186 236 279 325
#     4  10  20  38  58  79 115 152 188 219 276 341
#     4  11  21  37  57  89 114 141 184 243 280 308
#     4  11  21  36  60  83 110 150 195 221 271 340
#
# _framework density 18.907091000000001
#
# number of rings (size 3 to 8) (size 9 to 14) (size 15 to 20)
#    1.000    0.667    1.667    5.500    0.000    0.667 
#    0.000    0.000    0.000    2.000    0.000    0.000 
#    0.000    0.000    0.000    0.000    0.000    0.000 
#
# Total GULP energy -148740.764894 kJ/mol
# GULP energy per Si atom -12395.063741 kJ/mol
# Density = 1.886406 g / cm^3
# Si number density = 18.907091 Si / 1000 Ang^3
#
#
#
# Elastic Constant Matrix: (Units=GPa)
#
#
# Indices 1 2 3 4 5 6 
#
# 1 74.9573 30.1180 35.6952 -4.5618 14.0868 3.6733
# 2 30.1180 82.7243 39.5526 -23.9526 -2.3645 1.8497
# 3 35.6952 39.5526 77.4571 -9.9641 10.6473 -6.8346
# 4 -4.5618 -23.9526 -9.9641 24.8312 1.9576 -2.2034
# 5 14.0868 -2.3645 10.6473 1.9576 28.8790 -7.3487
# 6 3.6733 1.8497 -6.8346 -2.2034 -7.3487 35.7624
#
#
#
# Elastic Compliance Matrix: (Units=1/GPa)
#
#
# Indices 1 2 3 4 5 6 
#
# 1 0.020296 -0.005782 -0.006111 -0.004032 -0.009140 -0.005080
# 2 -0.005782 0.023224 -0.007772 0.017740 0.006469 0.000330
# 3 -0.006111 -0.007772 0.020695 0.000387 -0.004260 0.004133
# 4 -0.004032 0.017740 0.000387 0.057061 0.000204 0.003128
# 5 -0.009140 0.006469 -0.004260 0.000204 0.043391 0.008719
# 6 -0.005080 0.000330 0.004133 0.003128 0.008719 0.031241
#
#
# Mechanical properties :
#
#
# Convention : Reuss Voigt Hill
#
# Bulk Modulus (GPa) = 40.18653 49.54116 44.86385
# Shear Modulus (GPa) = 20.53108 26.54604 23.53856
#
# Velocity S-wave (km/s) = 3.29886 3.75110 3.53223
# Velocity P-wave (km/s) = 5.98422 6.70972 6.35733
#
# Compressibility (1/GPa) = 0.02488396
#
# Stress axis : x y z
#
# Youngs Moduli (GPa) = 49.27195 43.05894 48.31994
#
# Poissons Ratio (x) = 0.24899 0.29527
# Poissons Ratio (y) = 0.28491 0.37556
# Poissons Ratio (z) = 0.30109 0.33467
#
# Static dielectric constant tensor:
#      x y z
#    x 3.395840 0.005220 0.220460 
#    y 0.005220 3.376970 -0.119090 
#    z 0.220460 -0.119090 3.334230 
# 
# 
# High freq. dielectric constant tensor:
#      x y z
#    x 1.724600 0.006630 0.022110 
#    y 0.006630 1.734890 -0.010020 
#    z 0.022110 -0.010020 1.722930 
# 
# From -- ./inp_files/194744.got.cif
#   From: 2010.06.25/outbox.cif.g09.slc.cpg/sg2_98_cif.got.tgz:194744.got - 2010.06.27 13:26:56.
