data_PCOD8004351
_publ_section_title
;
Structure prediction by ZEFSAII (Michael W. Deem and Ramdas Pophale) SiO2 
 PCOD8004351
Probable space group: P -1
;
_chemical_formula_sum "Si O2"
_cell_formula_units_Z 14
_cell_length_a 12.435250
_cell_length_b 14.189458
_cell_length_c 12.323734
_cell_angle_alpha 89.455169
_cell_angle_beta 156.886538
_cell_angle_gamma 90.561120
_cell_volume 853.571704
_symmetry_space_group_name_H-M "P -1"
_symmetry_group_IT_number 2
_symmetry_cell_setting 'triclinic'
loop_
_space_group_symop_operation_xyz
x,y,z
-x,-y,-z
loop_
_atom_site_type_symbol
_atom_site_label
_atom_site_fract_x
_atom_site_fract_y
_atom_site_fract_z
Si Si1 0.827465 0.296148 0.456372
Si Si2 0.715169 0.499080 0.794037
Si Si3 0.771918 0.097870 0.347525
Si Si4 0.716554 0.601304 0.003112
Si Si5 0.335995 0.101737 0.764499
Si Si6 0.310014 0.606200 0.021823
Si Si7 0.141758 0.294334 0.521245
O O1 0.735148 0.187224 0.392768
O O2 0.554308 0.357070 0.194079
O O3 0.996782 0.304317 0.502312
O O4 0.020978 0.332947 0.731861
O O5 0.500000 0.500000 0.500000
O O6 0.681977 0.591122 0.840310
O O7 0.680446 0.405180 0.837868
O O8 0.000000 0.500000 0.000000
O O9 0.096568 0.087349 0.631175
O O10 0.649179 0.999629 0.284007
O O11 0.618337 0.122074 0.090380
O O12 0.766250 0.496239 0.099963
O O13 0.261323 0.188558 0.615258
O O14 0.605651 0.634324 0.250484
O O15 0.078283 0.682272 0.776202
#
# Coordination Sequence:
#
# PCOD8004351 Si02
#       7
#     2   2   2   2   2   2   2
#     4  11  19  31  46  69 105 133 155 187 226 272
#     4  10  20  38  53  64  89 120 156 212 248 264
#     4   9  17  29  45  64  90 131 170 193 218 255
#     4  10  22  32  47  72  92 127 162 196 222 296
#     4   9  17  29  45  64  90 131 170 193 218 255
#     4  10  22  32  47  72  92 127 162 196 222 296
#     4  11  19  31  46  69 105 133 155 187 226 272
#
# _framework density 16.401668999999998
#
# number of rings (size 3 to 8) (size 9 to 14) (size 15 to 20)
#    0.857    1.143    0.000    6.857    0.000    3.429 
#    0.000    0.000    0.000    0.000    0.000    0.000 
#    0.000   22.857    0.000    0.000    0.000    0.000 
#
# Total GULP energy -173456.922831 kJ/mol
# GULP energy per Si atom -12389.780202 kJ/mol
# Density = 1.636434 g / cm^3
# Si number density = 16.401669 Si / 1000 Ang^3
#
#
#
# Elastic Constant Matrix: (Units=GPa)
#
#
# Indices 1 2 3 4 5 6 
#
# 1 47.2561 36.3741 17.8762 -3.6079 -1.3526 0.6484
# 2 36.3741 105.6266 33.0735 -5.5903 -8.0540 -6.1847
# 3 17.8762 33.0735 99.1436 -7.3130 -4.5768 -0.6305
# 4 -3.6079 -5.5903 -7.3130 30.0929 0.3467 -0.3429
# 5 -1.3526 -8.0540 -4.5768 0.3467 30.2431 0.0693
# 6 0.6484 -6.1847 -0.6305 -0.3429 0.0693 2.4857
#
#
#
# Elastic Compliance Matrix: (Units=1/GPa)
#
#
# Indices 1 2 3 4 5 6 
#
# 1 0.032588 -0.013253 -0.001783 0.000562 -0.002252 -0.041786
# 2 -0.013253 0.018166 -0.003083 0.001541 0.003651 0.047984
# 3 -0.001783 -0.003083 0.011595 0.001976 0.000841 -0.004015
# 4 0.000562 0.001541 0.001976 0.034162 0.000323 0.008894
# 5 -0.002252 0.003651 0.000841 0.000323 0.034040 0.008980
# 6 -0.041786 0.047984 -0.004015 0.008894 0.008980 0.532544
#
#
# Mechanical properties :
#
#
# Convention : Reuss Voigt Hill
#
# Bulk Modulus (GPa) = 38.29676 47.40823 42.85250
# Shear Modulus (GPa) = 7.06178 23.54450 15.30314
#
# Velocity S-wave (km/s) = 2.07723 3.79290 3.05786
# Velocity P-wave (km/s) = 5.39937 6.93893 6.21699
#
# Compressibility (1/GPa) = 0.02611187
#
# Stress axis : x y z
#
# Youngs Moduli (GPa) = 30.68572 55.04810 86.24106
#
# Poissons Ratio (x) = 0.72953 0.15379
# Poissons Ratio (y) = 0.40667 0.26589
# Poissons Ratio (z) = 0.05472 0.16972
#
# Static dielectric constant tensor:
#      x y z
#    x 2.738870 -0.090730 0.072680 
#    y -0.090730 3.494050 0.003210 
#    z 0.072680 0.003210 3.214590 
# 
# 
# High freq. dielectric constant tensor:
#      x y z
#    x 1.570100 -0.007120 0.015640 
#    y -0.007120 1.635490 0.002380 
#    z 0.015640 0.002380 1.655970 
# 
# From -- ./inp_files/433970.got.cif
#   From: 2010.06.25/outbox.cif.g09.slc.cpg/sg2_217_cif.got.tgz:433970.got - 2010.06.27 13:26:56.
