data_PCOD8004275
_publ_section_title
;
Structure prediction by ZEFSAII (Michael W. Deem and Ramdas Pophale) SiO2 
 PCOD8004275
Probable space group: P -1
;
_chemical_formula_sum "Si O2"
_cell_formula_units_Z 16
_cell_length_a 12.270281
_cell_length_b 8.472246
_cell_length_c 18.146889
_cell_angle_alpha 52.769604
_cell_angle_beta 30.016470
_cell_angle_gamma 61.226060
_cell_volume 747.101183
_symmetry_space_group_name_H-M "P -1"
_symmetry_group_IT_number 2
_symmetry_cell_setting 'triclinic'
loop_
_space_group_symop_operation_xyz
x,y,z
-x,-y,-z
loop_
_atom_site_type_symbol
_atom_site_label
_atom_site_fract_x
_atom_site_fract_y
_atom_site_fract_z
Si Si1 0.457376 0.237942 0.040590
Si Si2 0.686194 0.881866 0.033567
Si Si3 0.133540 0.229697 0.490916
Si Si4 0.257889 0.506108 0.608373
Si Si5 0.015903 0.184066 0.251178
Si Si6 0.258740 0.614080 0.405861
Si Si7 0.925385 0.148410 0.943109
Si Si8 0.473872 0.651890 0.865681
O O1 0.542400 0.309298 0.049427
O O2 0.194908 0.196064 0.208596
O O3 0.573495 0.044080 0.003619
O O4 0.514381 0.418413 0.896443
O O5 0.503455 0.711477 0.217663
O O6 0.860541 0.782448 0.909109
O O7 0.805382 0.999516 0.996845
O O8 0.203686 0.403358 0.458370
O O9 0.333030 0.207652 0.324582
O O10 0.920145 0.249646 0.559889
O O11 0.112528 0.034662 0.608632
O O12 0.500000 0.500000 0.500000
O O13 0.147443 0.650452 0.688333
O O14 0.245645 0.588325 0.509112
O O15 0.128753 0.285287 0.749393
O O16 0.762402 0.290889 0.038920
O O17 0.000000 0.000000 0.000000
#
# Coordination Sequence:
#
# PCOD8004275 Si02
#       8
#     2   2   2   2   2   2   2   2
#     4  10  20  37  66  97 138 170 216 264 342 402
#     4  11  24  43  70 101 138 178 219 271 337 407
#     4  11  25  38  68 105 142 170 220 276 343 392
#     4  12  28  49  70  96 134 179 232 282 330 394
#     4  12  24  42  68 102 134 177 221 273 337 403
#     4  11  25  44  67 102 144 174 216 280 337 397
#     4  11  25  47  70  94 131 181 230 277 331 392
#     4  10  22  38  64 100 132 180 217 274 328 409
#
# _framework density 21.416108999999999
#
# number of rings (size 3 to 8) (size 9 to 14) (size 15 to 20)
#    0.000    1.000    2.500    3.375   12.250    1.000 
#    2.250    2.500    0.000    0.000    0.000    0.000 
#    0.000    0.000    0.000    0.000    0.000    0.000 
#
# Total GULP energy -198328.282509 kJ/mol
# GULP energy per Si atom -12395.517657 kJ/mol
# Density = 2.136736 g / cm^3
# Si number density = 21.416109 Si / 1000 Ang^3
#
#
#
# Elastic Constant Matrix: (Units=GPa)
#
#
# Indices 1 2 3 4 5 6 
#
# 1 90.9135 41.2184 44.0181 3.9465 -6.4555 -6.4036
# 2 41.2184 90.2636 45.2320 6.8464 3.0468 -9.7520
# 3 44.0181 45.2320 166.1486 -4.9115 -0.7222 -0.9808
# 4 3.9465 6.8464 -4.9115 42.1448 1.3407 -7.1698
# 5 -6.4555 3.0468 -0.7222 1.3407 37.5518 0.5618
# 6 -6.4036 -9.7520 -0.9808 -7.1698 0.5618 23.2096
#
#
#
# Elastic Compliance Matrix: (Units=1/GPa)
#
#
# Indices 1 2 3 4 5 6 
#
# 1 0.015047 -0.005523 -0.002481 -0.000649 0.002989 0.001453
# 2 -0.005523 0.015708 -0.002841 -0.001520 -0.002292 0.004542
# 3 -0.002481 -0.002841 0.007483 0.001375 -0.000084 -0.001135
# 4 -0.000649 -0.001520 0.001375 0.025438 -0.000976 0.007122
# 5 0.002989 -0.002292 -0.000084 -0.000976 0.027379 -0.001107
# 6 0.001453 0.004542 -0.001135 0.007122 -0.001107 0.047574
#
#
# Mechanical properties :
#
#
# Convention : Reuss Voigt Hill
#
# Bulk Modulus (GPa) = 60.42737 67.58474 64.00606
# Shear Modulus (GPa) = 30.15043 35.03840 32.59441
#
# Velocity S-wave (km/s) = 3.75619 4.04923 3.90546
# Velocity P-wave (km/s) = 6.86215 7.31356 7.09144
#
# Compressibility (1/GPa) = 0.01654879
#
# Stress axis : x y z
#
# Youngs Moduli (GPa) = 66.45766 63.66293 133.63695
#
# Poissons Ratio (x) = 0.35160 0.33150
# Poissons Ratio (y) = 0.36703 0.37968
# Poissons Ratio (z) = 0.16485 0.18088
#
# Static dielectric constant tensor:
#      x y z
#    x 3.537370 0.080710 0.004030 
#    y 0.080710 4.130220 -0.199590 
#    z 0.004030 -0.199590 3.923900 
# 
# 
# High freq. dielectric constant tensor:
#      x y z
#    x 1.829920 0.010270 -0.008510 
#    y 0.010270 1.845220 -0.009280 
#    z -0.008510 -0.009280 1.852950 
# 
# From -- ./inp_files/182367.got.cif
#   From: 2010.06.25/outbox.cif.g09.slc.cpg/sg2_92_cif.got.tgz:182367.got - 2010.06.27 13:26:56.
