data_PCOD8004242
_publ_section_title
;
Structure prediction by ZEFSAII (Michael W. Deem and Ramdas Pophale) SiO2 
 PCOD8004242
Probable space group: P -1
;
_chemical_formula_sum "Si O2"
_cell_formula_units_Z 16
_cell_length_a 9.721323
_cell_length_b 9.029069
_cell_length_c 16.089300
_cell_angle_alpha 79.925583
_cell_angle_beta 139.259765
_cell_angle_gamma 76.769636
_cell_volume 750.318434
_symmetry_space_group_name_H-M "P -1"
_symmetry_group_IT_number 2
_symmetry_cell_setting 'triclinic'
loop_
_space_group_symop_operation_xyz
x,y,z
-x,-y,-z
loop_
_atom_site_type_symbol
_atom_site_label
_atom_site_fract_x
_atom_site_fract_y
_atom_site_fract_z
Si Si1 0.609287 0.790608 0.174583
Si Si2 0.586976 0.480822 0.258697
Si Si3 0.859336 0.859601 0.424240
Si Si4 0.328316 0.606451 0.296136
Si Si5 0.642892 0.214493 0.193011
Si Si6 0.771627 0.822345 0.079181
Si Si7 0.496680 0.752804 0.498447
Si Si8 0.150445 0.129892 0.391005
O O1 0.611855 0.610335 0.194260
O O2 0.676659 0.819568 0.294714
O O3 0.814805 0.769976 0.202143
O O4 0.332313 0.966799 0.003286
O O5 0.389612 0.605126 0.227764
O O6 0.480412 0.385059 0.164337
O O7 0.859005 0.322894 0.436095
O O8 0.760146 0.911673 0.467917
O O9 0.834960 0.032364 0.352799
O O10 0.416008 0.719513 0.374979
O O11 0.473669 0.398991 0.411813
O O12 0.027983 0.699043 0.157936
O O13 0.842960 0.238580 0.230457
O O14 0.448446 0.204152 0.048116
O O15 0.757742 0.744404 0.613400
O O16 0.272970 0.947050 0.411706
#
# Coordination Sequence:
#
# PCOD8004242 Si02
#       8
#     2   2   2   2   2   2   2   2
#     4  10  23  40  62  89 120 163 214 244 294 366
#     4  11  22  38  63  95 118 157 208 256 303 348
#     4  10  20  37  66  89 123 156 204 257 300 354
#     4  11  24  39  61  89 126 162 196 255 304 360
#     4  10  22  40  64  88 127 161 204 243 304 368
#     4  10  25  42  60  87 126 171 199 242 305 366
#     4  10  23  37  61  91 128 153 202 251 311 356
#     4  10  20  39  61  95 118 159 200 256 304 352
#
# _framework density 21.324280999999999
#
# number of rings (size 3 to 8) (size 9 to 14) (size 15 to 20)
#    0.000    1.750    0.000    4.125   12.250    1.500 
#    0.000    0.000    0.000    0.000    0.000    0.000 
#    0.000    0.000    0.000    0.000    0.000    0.000 
#
# Total GULP energy -198385.869766 kJ/mol
# GULP energy per Si atom -12399.116860 kJ/mol
# Density = 2.127575 g / cm^3
# Si number density = 21.324281 Si / 1000 Ang^3
#
#
#
# Elastic Constant Matrix: (Units=GPa)
#
#
# Indices 1 2 3 4 5 6 
#
# 1 90.1355 47.0226 21.7527 -8.2515 10.4049 -9.3930
# 2 47.0226 137.1555 35.4111 -0.8780 0.3280 -2.4134
# 3 21.7527 35.4111 50.2058 -1.2379 6.1451 5.3195
# 4 -8.2515 -0.8780 -1.2379 19.7400 0.9674 2.6915
# 5 10.4049 0.3280 6.1451 0.9674 29.6334 -1.4106
# 6 -9.3930 -2.4134 5.3195 2.6915 -1.4106 36.0838
#
#
#
# Elastic Compliance Matrix: (Units=1/GPa)
#
#
# Indices 1 2 3 4 5 6 
#
# 1 0.015664 -0.004393 -0.003345 0.005878 -0.004775 0.003652
# 2 -0.004393 0.010288 -0.005805 -0.001966 0.002728 0.000653
# 3 -0.003345 -0.005805 0.026621 0.000978 -0.004572 -0.005435
# 4 0.005878 -0.001966 0.000978 0.053689 -0.004136 -0.002912
# 5 -0.004775 0.002728 -0.004572 -0.004136 0.036540 0.001350
# 6 0.003652 0.000653 -0.005435 -0.002912 0.001350 0.029779
#
#
# Mechanical properties :
#
#
# Convention : Reuss Voigt Hill
#
# Bulk Modulus (GPa) = 39.23625 53.98549 46.61087
# Shear Modulus (GPa) = 24.01968 28.64547 26.33257
#
# Velocity S-wave (km/s) = 3.35983 3.66912 3.51787
# Velocity P-wave (km/s) = 5.78714 6.58189 6.19727
#
# Compressibility (1/GPa) = 0.02548663
#
# Stress axis : x y z
#
# Youngs Moduli (GPa) = 63.84253 97.19916 37.56399
#
# Poissons Ratio (x) = 0.42700 0.12567
# Poissons Ratio (y) = 0.28046 0.21804
# Poissons Ratio (z) = 0.21359 0.56420
#
# Static dielectric constant tensor:
#      x y z
#    x 3.768930 0.015890 -0.107510 
#    y 0.015890 4.094560 0.026540 
#    z -0.107510 0.026540 3.554820 
# 
# 
# High freq. dielectric constant tensor:
#      x y z
#    x 1.830640 -0.001500 -0.006150 
#    y -0.001500 1.861550 0.003410 
#    z -0.006150 0.003410 1.809390 
# 
# From -- ./inp_files/226151.got.cif
#   From: 2010.06.25/outbox.cif.g09.slc.cpg/sg2_114_cif.got.tgz:226151.got - 2010.06.27 13:26:56.
