data_PCOD8004204
_publ_section_title
;
Structure prediction by ZEFSAII (Michael W. Deem and Ramdas Pophale) SiO2 
 PCOD8004204
Probable space group: P -1
;
_chemical_formula_sum "Si O2"
_cell_formula_units_Z 16
_cell_length_a 26.306518
_cell_length_b 11.863328
_cell_length_c 8.545349
_cell_angle_alpha 119.689225
_cell_angle_beta 118.441874
_cell_angle_gamma 18.710499
_cell_volume 742.942393
_symmetry_space_group_name_H-M "P -1"
_symmetry_group_IT_number 2
_symmetry_cell_setting 'triclinic'
loop_
_space_group_symop_operation_xyz
x,y,z
-x,-y,-z
loop_
_atom_site_type_symbol
_atom_site_label
_atom_site_fract_x
_atom_site_fract_y
_atom_site_fract_z
Si Si1 0.459587 0.451847 0.493090
Si Si2 0.533720 0.864147 0.295779
Si Si3 0.991548 0.312588 0.555074
Si Si4 0.690323 0.280877 0.221788
Si Si5 0.168840 0.930605 0.239583
Si Si6 0.267316 0.323360 0.661752
Si Si7 0.136285 0.193519 0.111544
Si Si8 0.325944 0.333753 0.042090
O O1 0.500000 0.500000 0.500000
O O2 0.385827 0.632856 0.681763
O O3 0.339008 0.631982 0.327111
O O4 0.608325 0.047408 0.455813
O O5 0.578795 0.622422 0.221425
O O6 0.677220 0.647362 0.281831
O O7 0.500000 0.000000 0.500000
O O8 0.366220 0.212705 0.196618
O O9 0.898101 0.369974 0.454337
O O10 0.863045 0.689770 0.682660
O O11 0.144419 0.994093 0.672603
O O12 0.041692 0.233902 0.394994
O O13 0.711457 0.136239 0.007702
O O14 0.197033 0.718672 0.113857
O O15 0.111639 0.111993 0.116654
O O16 0.249495 0.372762 0.859585
O O17 0.000000 0.500000 0.000000
O O18 0.500000 0.000000 0.000000
#
# Coordination Sequence:
#
# PCOD8004204 Si02
#       8
#     2   2   2   2   2   2   2   2
#     4  11  22  39  64  92 123 167 218 257 309 384
#     4  11  19  39  66  91 127 164 209 266 314 372
#     4  10  23  40  60  92 131 169 211 254 317 384
#     4  10  22  41  66  92 124 176 208 258 331 367
#     4  11  20  41  65  88 124 176 211 250 321 379
#     4  11  22  39  60  95 128 161 215 260 309 370
#     4  10  21  38  62  88 127 169 213 257 312 380
#     4  10  20  37  65  92 121 163 213 259 302 378
#
# _framework density 21.535988
#
# number of rings (size 3 to 8) (size 9 to 14) (size 15 to 20)
#    0.000    1.500    3.750    3.375    0.000    3.000 
#    0.000    6.250    0.000    0.000    0.000    0.000 
#    0.000    0.000    0.000    0.000    0.000    0.000 
#
# Total GULP energy -198239.694334 kJ/mol
# GULP energy per Si atom -12389.980896 kJ/mol
# Density = 2.148697 g / cm^3
# Si number density = 21.535988 Si / 1000 Ang^3
#
#
#
# Elastic Constant Matrix: (Units=GPa)
#
#
# Indices 1 2 3 4 5 6 
#
# 1 86.1122 34.6190 30.3714 1.2395 -10.7111 9.0465
# 2 34.6190 73.8178 51.1374 8.3093 -5.4798 18.0529
# 3 30.3714 51.1374 143.4123 22.9317 -17.0440 -2.4481
# 4 1.2395 8.3093 22.9317 42.6163 -1.5747 2.1273
# 5 -10.7111 -5.4798 -17.0440 -1.5747 35.2093 -9.2110
# 6 9.0465 18.0529 -2.4481 2.1273 -9.2110 33.0090
#
#
#
# Elastic Compliance Matrix: (Units=1/GPa)
#
#
# Indices 1 2 3 4 5 6 
#
# 1 0.014802 -0.006468 -0.000634 0.001281 0.003319 0.000278
# 2 -0.006468 0.025846 -0.008893 0.000445 -0.006089 -0.014750
# 3 -0.000634 -0.008893 0.011902 -0.004824 0.006040 0.007916
# 4 0.001281 0.000445 -0.004824 0.026034 -0.001510 -0.003051
# 5 0.003319 -0.006089 0.006040 -0.001510 0.034623 0.012627
# 6 0.000278 -0.014750 0.007916 -0.003051 0.012627 0.042593
#
#
# Mechanical properties :
#
#
# Convention : Reuss Voigt Hill
#
# Bulk Modulus (GPa) = 48.63694 59.51090 54.07392
# Shear Modulus (GPa) = 25.68790 34.64789 30.16790
#
# Velocity S-wave (km/s) = 3.45743 4.01538 3.74680
# Velocity P-wave (km/s) = 6.21059 7.01363 6.62429
#
# Compressibility (1/GPa) = 0.02056050
#
# Stress axis : x y z
#
# Youngs Moduli (GPa) = 67.55834 38.69053 84.01602
#
# Poissons Ratio (x) = 0.25027 0.05324
# Poissons Ratio (y) = 0.43700 0.74714
# Poissons Ratio (z) = 0.04281 0.34407
#
# Static dielectric constant tensor:
#      x y z
#    x 3.695910 0.028920 -0.281460 
#    y 0.028920 3.922120 0.298410 
#    z -0.281460 0.298410 5.128380 
# 
# 
# High freq. dielectric constant tensor:
#      x y z
#    x 1.810710 0.011280 -0.013450 
#    y 0.011280 1.840960 0.009470 
#    z -0.013450 0.009470 1.870860 
# 
# From -- ./inp_files/356989.got.cif
#   From: 2010.06.25/outbox.cif.g09.slc.cpg/sg2_179_cif.got.tgz:356989.got - 2010.06.27 13:26:56.
