data_PCOD8004117
_publ_section_title
;
Structure prediction by ZEFSAII (Michael W. Deem and Ramdas Pophale) SiO2 
 PCOD8004117
Probable space group: P -1
;
_chemical_formula_sum "Si O2"
_cell_formula_units_Z 16
_cell_length_a 9.716041
_cell_length_b 8.720940
_cell_length_c 15.552526
_cell_angle_alpha 144.449405
_cell_angle_beta 83.956496
_cell_angle_gamma 90.788606
_cell_volume 756.032706
_symmetry_space_group_name_H-M "P -1"
_symmetry_group_IT_number 2
_symmetry_cell_setting 'triclinic'
loop_
_space_group_symop_operation_xyz
x,y,z
-x,-y,-z
loop_
_atom_site_type_symbol
_atom_site_label
_atom_site_fract_x
_atom_site_fract_y
_atom_site_fract_z
Si Si1 0.438900 0.167385 0.451882
Si Si2 0.218393 0.005452 0.126950
Si Si3 0.938682 0.928697 0.060431
Si Si4 0.664306 0.247534 0.608278
Si Si5 0.316961 0.229365 0.056218
Si Si6 0.821749 0.437017 0.393302
Si Si7 0.103069 0.610388 0.445221
Si Si8 0.523787 0.189603 0.875644
O O1 0.563218 0.280825 0.546826
O O2 0.334084 0.411389 0.532841
O O3 0.353865 0.009978 0.453011
O O4 0.503862 0.978822 0.284234
O O5 0.299828 0.006949 0.030019
O O6 0.166135 0.307277 0.289322
O O7 0.316209 0.876916 0.136956
O O8 0.080648 0.846214 0.068189
O O9 0.837374 0.187697 0.215680
O O10 0.835561 0.702635 0.950343
O O11 0.000000 0.000000 0.000000
O O12 0.631686 0.505962 0.788318
O O13 0.824149 0.213697 0.548419
O O14 0.427137 0.107866 0.922152
O O15 0.855060 0.307370 0.425176
O O16 0.935816 0.640427 0.457325
O O17 0.500000 0.500000 0.000000
#
# Coordination Sequence:
#
# PCOD8004117 Si02
#       8
#     2   2   2   2   2   2   2   2
#     4  11  24  41  59  87 124 165 202 240 297 357
#     4   9  19  39  63  89 117 154 195 251 297 356
#     4   9  20  38  63  93 118 147 200 250 303 352
#     4  10  23  42  59  83 126 164 201 242 293 363
#     4  10  21  40  63  89 120 157 201 248 298 352
#     4  10  20  37  64  90 116 153 194 252 297 353
#     4   9  19  37  62  87 115 149 199 244 299 348
#     4  12  23  39  60  89 123 162 202 245 296 352
#
# _framework density 21.163105000000002
#
# number of rings (size 3 to 8) (size 9 to 14) (size 15 to 20)
#    0.000    2.000    2.500    1.125    1.750    5.000 
#    0.000    0.625    0.000    0.000    0.000    0.000 
#    0.000    0.000    0.000    0.000    0.000    0.000 
#
# Total GULP energy -198290.395805 kJ/mol
# GULP energy per Si atom -12393.149738 kJ/mol
# Density = 2.111494 g / cm^3
# Si number density = 21.163105 Si / 1000 Ang^3
#
#
#
# Elastic Constant Matrix: (Units=GPa)
#
#
# Indices 1 2 3 4 5 6 
#
# 1 96.2167 9.0066 32.9206 -6.7124 18.1397 -5.9897
# 2 9.0066 30.3556 18.6760 -7.1666 4.4472 -2.0655
# 3 32.9206 18.6760 114.7148 -25.8603 5.9108 -2.6341
# 4 -6.7124 -7.1666 -25.8603 27.8672 1.2167 -4.4904
# 5 18.1397 4.4472 5.9108 1.2167 36.6359 -9.6871
# 6 -5.9897 -2.0655 -2.6341 -4.4904 -9.6871 30.6043
#
#
#
# Elastic Compliance Matrix: (Units=1/GPa)
#
#
# Indices 1 2 3 4 5 6 
#
# 1 0.012636 -0.000934 -0.003133 0.000205 -0.005534 0.000419
# 2 -0.000934 0.037886 -0.004364 0.005907 -0.003133 0.001874
# 3 -0.003133 -0.004364 0.012640 0.010122 0.000159 0.001716
# 4 0.000205 0.005907 0.010122 0.048182 -0.002004 0.007745
# 5 -0.005534 -0.003133 0.000159 -0.002004 0.032784 0.008802
# 6 0.000419 0.001874 0.001716 0.007745 0.008802 0.036954
#
#
# Mechanical properties :
#
#
# Convention : Reuss Voigt Hill
#
# Bulk Modulus (GPa) = 21.59822 40.27706 30.93764
# Shear Modulus (GPa) = 23.43261 31.06705 27.24983
#
# Velocity S-wave (km/s) = 3.33113 3.83558 3.59222
# Velocity P-wave (km/s) = 5.00230 6.22002 5.64410
#
# Compressibility (1/GPa) = 0.04630011
#
# Stress axis : x y z
#
# Youngs Moduli (GPa) = 79.13660 26.39506 79.11398
#
# Poissons Ratio (x) = 0.02465 0.24789
# Poissons Ratio (y) = 0.07390 0.34524
# Poissons Ratio (z) = 0.24796 0.11518
#
# Static dielectric constant tensor:
#      x y z
#    x 4.659180 0.140140 0.041980 
#    y 0.140140 3.484210 -0.405860 
#    z 0.041980 -0.405860 3.785080 
# 
# 
# High freq. dielectric constant tensor:
#      x y z
#    x 1.849130 0.005430 0.006610 
#    y 0.005430 1.791420 -0.037820 
#    z 0.006610 -0.037820 1.831230 
# 
# From -- ./inp_files/327633.got.cif
#   From: 2010.06.25/outbox.cif.g09.slc.cpg/sg2_164_cif.got.tgz:327633.got - 2010.06.27 13:26:56.
