data_PCOD8004721
_publ_section_title
;
Structure prediction by ZEFSAII (Michael W. Deem and Ramdas Pophale) SiO2 
 PCOD8004721
Probable space group: P -1
;
_chemical_formula_sum "Si O2"
_cell_formula_units_Z 14
_cell_length_a 16.095775
_cell_length_b 6.841324
_cell_length_c 7.036696
_cell_angle_alpha 63.136489
_cell_angle_beta 125.085577
_cell_angle_gamma 110.926067
_cell_volume 560.575131
_symmetry_space_group_name_H-M "P -1"
_symmetry_group_IT_number 2
_symmetry_cell_setting 'triclinic'
loop_
_space_group_symop_operation_xyz
x,y,z
-x,-y,-z
loop_
_atom_site_type_symbol
_atom_site_label
_atom_site_fract_x
_atom_site_fract_y
_atom_site_fract_z
Si Si1 0.771172 0.859227 0.099538
Si Si2 0.706255 0.614067 0.607448
Si Si3 0.933171 0.152077 0.961351
Si Si4 0.382221 0.842926 0.207120
Si Si5 0.605450 0.019095 0.398957
Si Si6 0.619599 0.490216 0.136394
Si Si7 0.098465 0.375233 0.337689
O O1 0.683626 0.659238 0.994514
O O2 0.858918 0.763733 0.376657
O O3 0.826004 0.001896 0.936099
O O4 0.703827 0.021094 0.056801
O O5 0.649658 0.418615 0.750556
O O6 0.686160 0.850556 0.552109
O O7 0.672580 0.578593 0.361444
O O8 0.828734 0.611900 0.760836
O O9 0.989533 0.243687 0.189874
O O10 0.911062 0.371869 0.718748
O O11 0.000000 0.000000 0.000000
O O12 0.493183 0.907806 0.230926
O O13 0.392549 0.898515 0.419492
O O14 0.636010 0.239834 0.213693
O O15 0.500000 0.500000 0.000000
#
# Coordination Sequence:
#
# PCOD8004721 Si02
#       7
#     2   2   2   2   2   2   2
#     4  11  22  43  68  95 135 169 210 269 325 378
#     4  10  21  38  63  90 127 172 219 259 318 382
#     4  11  25  46  71  92 126 168 217 272 331 387
#     4  10  20  38  61  92 134 170 211 264 312 376
#     4  10  21  37  61  91 133 177 216 255 313 382
#     4  10  21  39  58  89 134 172 207 263 315 373
#     4  10  24  44  66  96 128 165 213 276 327 380
#
# _framework density 24.974349
#
# number of rings (size 3 to 8) (size 9 to 14) (size 15 to 20)
#    0.000    1.714    2.857    0.857    2.000    1.143 
#    0.000    7.143    0.000    0.000    0.000    0.000 
#    0.000    0.000    0.000    0.000    0.000    0.000 
#
# Total GULP energy -173518.713574 kJ/mol
# GULP energy per Si atom -12394.193827 kJ/mol
# Density = 2.491751 g / cm^3
# Si number density = 24.974349 Si / 1000 Ang^3
#
#
#
# Elastic Constant Matrix: (Units=GPa)
#
#
# Indices 1 2 3 4 5 6 
#
# 1 79.3607 54.8655 2.6553 -15.9044 24.5552 24.3480
# 2 54.8655 160.4324 32.7409 -50.2293 6.1789 11.4061
# 3 2.6553 32.7409 92.1064 -31.0602 22.3956 -0.2740
# 4 -15.9044 -50.2293 -31.0602 52.6194 -0.5346 8.3407
# 5 24.5552 6.1789 22.3956 -0.5346 33.8769 -12.2121
# 6 24.3480 11.4061 -0.2740 8.3407 -12.2121 47.2602
#
#
#
# Elastic Compliance Matrix: (Units=1/GPa)
#
#
# Indices 1 2 3 4 5 6 
#
# 1 0.210083 -0.027509 0.122657 0.138729 -0.299221 -0.202685
# 2 -0.027509 0.013639 -0.014786 -0.006998 0.034683 0.020992
# 3 0.122657 -0.014786 0.089764 0.093755 -0.188941 -0.124472
# 4 0.138729 -0.006998 0.093755 0.130768 -0.212245 -0.147162
# 5 -0.299221 0.034683 -0.188941 -0.212245 0.471188 0.303903
# 6 -0.202685 0.020992 -0.124472 -0.147162 0.303903 0.224294
#
#
# Mechanical properties :
#
#
# Convention : Reuss Voigt Hill
#
# Bulk Modulus (GPa) = 2.10877 56.93584 29.52231
# Shear Modulus (GPa) = 4.39722 42.86049 23.62886
#
# Velocity S-wave (km/s) = 1.32835 4.14718 3.07925
# Velocity P-wave (km/s) = 1.78855 6.76604 4.94865
#
# Compressibility (1/GPa) = 0.47421078
#
# Stress axis : x y z
#
# Youngs Moduli (GPa) = 4.76001 73.31930 11.14037
#
# Poissons Ratio (x) = 2.01691 -1.36644
# Poissons Ratio (y) = 0.13094 0.16472
# Poissons Ratio (z) = -0.58385 1.08407
#
# Static dielectric constant tensor:
#      x y z
#    x 5.215180 0.934940 0.238670 
#    y 0.934940 5.065900 -0.340010 
#    z 0.238670 -0.340010 4.542710 
# 
# 
# High freq. dielectric constant tensor:
#      x y z
#    x 1.979130 0.022240 0.019000 
#    y 0.022240 2.010640 -0.020210 
#    z 0.019000 -0.020210 1.994560 
# 
# From -- ./inp_files/134889.got.cif
#   From: 2010.06.25/outbox.cif.g09.slc.cpg/sg2_68_cif.got.tgz:134889.got - 2010.06.27 13:26:56.
