data_PCOD8004655
_publ_section_title
;
Structure prediction by ZEFSAII (Michael W. Deem and Ramdas Pophale) SiO2 
 PCOD8004655
Probable space group: P -1
;
_chemical_formula_sum "Si O2"
_cell_formula_units_Z 16
_cell_length_a 13.654206
_cell_length_b 9.960075
_cell_length_c 7.379248
_cell_angle_alpha 85.365727
_cell_angle_beta 90.613070
_cell_angle_gamma 130.272601
_cell_volume 762.047896
_symmetry_space_group_name_H-M "P -1"
_symmetry_group_IT_number 2
_symmetry_cell_setting 'triclinic'
loop_
_space_group_symop_operation_xyz
x,y,z
-x,-y,-z
loop_
_atom_site_type_symbol
_atom_site_label
_atom_site_fract_x
_atom_site_fract_y
_atom_site_fract_z
Si Si1 0.652179 0.749645 0.105613
Si Si2 0.903268 0.324718 0.797488
Si Si3 0.619162 0.018032 0.164811
Si Si4 0.890292 0.276412 0.219935
Si Si5 0.963803 0.160069 0.536734
Si Si6 0.344752 0.736626 0.163550
Si Si7 0.795206 0.778165 0.450620
Si Si8 0.364824 0.446608 0.201455
O O1 0.752749 0.810281 0.261007
O O2 0.517569 0.567202 0.187006
O O3 0.642572 0.902315 0.057880
O O4 0.696722 0.713298 0.926963
O O5 0.895739 0.198757 0.670220
O O6 0.784185 0.317410 0.745875
O O7 0.039529 0.521247 0.753163
O O8 0.892726 0.254956 0.006299
O O9 0.739004 0.140725 0.294385
O O10 0.477151 0.874828 0.271479
O O11 0.622630 0.157170 0.032909
O O12 0.965060 0.223810 0.327636
O O13 0.110440 0.262764 0.589236
O O14 0.878419 0.950777 0.559648
O O15 0.319844 0.557956 0.138669
O O16 0.676356 0.623499 0.586657
#
# Coordination Sequence:
#
# PCOD8004655 Si02
#       8
#     2   2   2   2   2   2   2   2
#     4  10  21  41  65  91 122 162 201 251 312 363
#     4  10  22  38  64  85 120 163 204 250 313 361
#     4   9  18  36  63  88 122 154 197 255 304 358
#     4  10  20  38  61  85 120 159 200 256 302 358
#     4  11  24  39  57  89 121 165 205 249 300 362
#     4   9  19  37  61  92 121 153 202 255 302 361
#     4  11  24  38  60  88 127 160 206 254 296 364
#     4  10  22  39  66  92 122 161 201 251 310 367
#
# _framework density 20.996055999999999
#
# number of rings (size 3 to 8) (size 9 to 14) (size 15 to 20)
#    0.000    2.000    1.250    1.500    3.500    4.000 
#    0.000    3.125    2.750    0.000    0.000    0.000 
#    0.000    0.000    0.000    0.000    0.000    0.000 
#
# Total GULP energy -198297.259351 kJ/mol
# GULP energy per Si atom -12393.578709 kJ/mol
# Density = 2.094827 g / cm^3
# Si number density = 20.996056 Si / 1000 Ang^3
#
#
#
# Elastic Constant Matrix: (Units=GPa)
#
#
# Indices 1 2 3 4 5 6 
#
# 1 115.1243 22.3287 34.3911 15.1060 -0.2579 -1.0606
# 2 22.3287 69.6305 15.3274 6.7220 -3.0400 0.6843
# 3 34.3911 15.3274 55.1439 2.5992 5.8622 -5.3879
# 4 15.1060 6.7220 2.5992 27.3637 -5.9625 6.5600
# 5 -0.2579 -3.0400 5.8622 -5.9625 28.1798 -1.6993
# 6 -1.0606 0.6843 -5.3879 6.5600 -1.6993 39.9377
#
#
#
# Elastic Compliance Matrix: (Units=1/GPa)
#
#
# Indices 1 2 3 4 5 6 
#
# 1 0.011701 -0.001787 -0.006523 -0.005458 0.000138 0.000364
# 2 -0.001787 0.015992 -0.003476 -0.002096 0.001966 -0.000362
# 3 -0.006523 -0.003476 0.023979 0.000369 -0.005174 0.002841
# 4 -0.005458 -0.002096 0.000369 0.043519 0.008442 -0.006848
# 5 0.000138 0.001966 -0.005174 0.008442 0.038534 -0.000475
# 6 0.000364 -0.000362 0.002841 -0.006848 -0.000475 0.026543
#
#
# Mechanical properties :
#
#
# Convention : Reuss Voigt Hill
#
# Bulk Modulus (GPa) = 35.58753 42.66589 39.12671
# Shear Modulus (GPa) = 25.87919 30.28634 28.08276
#
# Velocity S-wave (km/s) = 3.51461 3.80212 3.66119
# Velocity P-wave (km/s) = 5.78415 6.29602 6.04550
#
# Compressibility (1/GPa) = 0.02809973
#
# Stress axis : x y z
#
# Youngs Moduli (GPa) = 85.46077 62.53305 41.70372
#
# Poissons Ratio (x) = 0.11175 0.27202
# Poissons Ratio (y) = 0.15273 0.14496
# Poissons Ratio (z) = 0.55744 0.21737
#
# Static dielectric constant tensor:
#      x y z
#    x 4.143640 0.251860 0.138860 
#    y 0.251860 4.040110 -0.019590 
#    z 0.138860 -0.019590 3.362400 
# 
# 
# High freq. dielectric constant tensor:
#      x y z
#    x 1.831560 0.007880 0.014130 
#    y 0.007880 1.839370 -0.008110 
#    z 0.014130 -0.008110 1.779920 
# 
# From -- ./inp_files/239118.got.cif
#   From: 2010.06.25/outbox.cif.g09.slc.cpg/sg2_120_cif.got.tgz:239118.got - 2010.06.27 13:26:56.
