data_PCOD8004124
_publ_section_title
;
Structure prediction by ZEFSAII (Michael W. Deem and Ramdas Pophale) SiO2 
 PCOD8004124
Probable space group: P -1
;
_chemical_formula_sum "Si O2"
_cell_formula_units_Z 16
_cell_length_a 12.956399
_cell_length_b 11.091153
_cell_length_c 14.224872
_cell_angle_alpha 52.920572
_cell_angle_beta 70.298537
_cell_angle_gamma 31.871627
_cell_volume 783.368531
_symmetry_space_group_name_H-M "P -1"
_symmetry_group_IT_number 2
_symmetry_cell_setting 'triclinic'
loop_
_space_group_symop_operation_xyz
x,y,z
-x,-y,-z
loop_
_atom_site_type_symbol
_atom_site_label
_atom_site_fract_x
_atom_site_fract_y
_atom_site_fract_z
Si Si1 0.239286 0.894078 0.475754
Si Si2 0.043678 0.771755 0.073591
Si Si3 0.170399 0.528338 0.752695
Si Si4 0.010249 0.306238 0.077747
Si Si5 0.253256 0.145229 0.474576
Si Si6 0.154907 0.265379 0.759784
Si Si7 0.547636 0.257095 0.701936
Si Si8 0.479683 0.121563 0.304943
O O1 0.371560 0.595216 0.610455
O O2 0.369779 0.838866 0.384668
O O3 0.211964 0.022883 0.516934
O O4 0.999722 0.146067 0.390140
O O5 0.271563 0.472463 0.193336
O O6 0.857677 0.891617 0.124124
O O7 0.058488 0.694317 0.997622
O O8 0.000000 0.000000 0.000000
O O9 0.097486 0.447690 0.777572
O O10 0.413412 0.266188 0.765222
O O11 0.155952 0.556508 0.856672
O O12 0.253059 0.962886 0.185059
O O13 0.000000 0.500000 0.000000
O O14 0.412808 0.034582 0.401433
O O15 0.024385 0.503592 0.376113
O O16 0.356872 0.005873 0.609531
O O17 0.390837 0.029422 0.761618
#
# Coordination Sequence:
#
# PCOD8004124 Si02
#       8
#     2   2   2   2   2   2   2   2
#     4   9  19  36  56  89 126 146 188 248 302 354
#     4  11  26  44  59  85 124 159 200 252 295 342
#     4  10  20  37  64  91 116 152 200 245 297 357
#     4  11  24  42  61  87 119 156 209 248 284 354
#     4   9  19  36  58  89 119 151 194 243 295 360
#     4  10  20  38  64  90 116 152 201 248 292 358
#     4  10  21  35  61  87 121 155 193 244 307 338
#     4  10  21  37  63  83 118 159 201 235 302 349
#
# _framework density 20.424612
#
# number of rings (size 3 to 8) (size 9 to 14) (size 15 to 20)
#    0.000    2.000    1.250    1.500    5.250    2.000 
#    2.250    0.000    0.000    0.000    0.000    0.000 
#    0.000    0.000    0.000    0.000    0.000    0.000 
#
# Total GULP energy -198248.172995 kJ/mol
# GULP energy per Si atom -12390.510812 kJ/mol
# Density = 2.037812 g / cm^3
# Si number density = 20.424612 Si / 1000 Ang^3
#
#
#
# Elastic Constant Matrix: (Units=GPa)
#
#
# Indices 1 2 3 4 5 6 
#
# 1 63.0280 27.2919 25.1426 5.2963 3.4970 1.8147
# 2 27.2919 73.1546 24.5745 -0.0608 -3.9867 -5.9899
# 3 25.1426 24.5745 77.0359 -0.6224 3.8373 13.0819
# 4 5.2963 -0.0608 -0.6224 21.6774 0.5773 -2.3420
# 5 3.4970 -3.9867 3.8373 0.5773 21.8233 0.3934
# 6 1.8147 -5.9899 13.0819 -2.3420 0.3934 46.1616
#
#
#
# Elastic Compliance Matrix: (Units=1/GPa)
#
#
# Indices 1 2 3 4 5 6 
#
# 1 0.021230 -0.006645 -0.004561 -0.005309 -0.003662 -0.000643
# 2 -0.006645 0.018293 -0.004582 0.001838 0.005092 0.003983
# 3 -0.004561 -0.004582 0.016964 0.001114 -0.003026 -0.005140
# 4 -0.005309 0.001838 0.001114 0.047750 -0.000319 0.002557
# 5 -0.003662 0.005092 -0.003026 -0.000319 0.047858 0.001238
# 6 -0.000643 0.003983 -0.005140 0.002557 0.001238 0.023781
#
#
# Mechanical properties :
#
#
# Convention : Reuss Voigt Hill
#
# Bulk Modulus (GPa) = 40.14133 40.80404 40.47268
# Shear Modulus (GPa) = 23.17441 27.01310 25.09375
#
# Velocity S-wave (km/s) = 3.37208 3.64067 3.50895
# Velocity P-wave (km/s) = 5.90401 6.13953 6.02292
#
# Compressibility (1/GPa) = 0.02491198
#
# Stress axis : x y z
#
# Youngs Moduli (GPa) = 47.10223 54.66540 58.94924
#
# Poissons Ratio (x) = 0.36325 0.26885
# Poissons Ratio (y) = 0.31299 0.27010
# Poissons Ratio (z) = 0.21482 0.25047
#
# Static dielectric constant tensor:
#      x y z
#    x 3.561730 -0.138720 0.080630 
#    y -0.138720 3.545800 -0.005600 
#    z 0.080630 -0.005600 3.738590 
# 
# 
# High freq. dielectric constant tensor:
#      x y z
#    x 1.791030 -0.013620 0.006930 
#    y -0.013620 1.793010 -0.000290 
#    z 0.006930 -0.000290 1.796650 
# 
# From -- ./inp_files/514097.got.cif
#   From: 2010.06.25/outbox.cif.g09.slc.cpg/sg2_258_cif.got.tgz:514097.got - 2010.06.27 13:26:56.
