data_PCOD8004634
_publ_section_title
;
Structure prediction by ZEFSAII (Michael W. Deem and Ramdas Pophale) SiO2 
 PCOD8004634
Probable space group: P -1
;
_chemical_formula_sum "Si O2"
_cell_formula_units_Z 16
_cell_length_a 11.915654
_cell_length_b 23.901467
_cell_length_c 18.280121
_cell_angle_alpha 160.141945
_cell_angle_beta 137.290171
_cell_angle_gamma 32.063729
_cell_volume 881.086036
_symmetry_space_group_name_H-M "P -1"
_symmetry_group_IT_number 2
_symmetry_cell_setting 'triclinic'
loop_
_space_group_symop_operation_xyz
x,y,z
-x,-y,-z
loop_
_atom_site_type_symbol
_atom_site_label
_atom_site_fract_x
_atom_site_fract_y
_atom_site_fract_z
Si Si1 0.324692 0.855213 0.947700
Si Si2 0.018113 0.318847 0.899258
Si Si3 0.396677 0.840061 0.539482
Si Si4 0.140958 0.313266 0.399311
Si Si5 0.096458 0.825707 0.467286
Si Si6 0.720421 0.300216 0.821043
Si Si7 0.988863 0.220532 0.339092
Si Si8 0.152904 0.570818 0.315397
O O1 0.591814 0.658053 0.830251
O O2 0.224670 0.753449 0.743474
O O3 0.247551 0.064887 0.118360
O O4 0.220458 0.961974 0.111277
O O5 0.919476 0.315497 0.771641
O O6 0.869500 0.358416 0.945167
O O7 0.272230 0.087022 0.753519
O O8 0.016463 0.517379 0.143723
O O9 0.659029 0.697677 0.498045
O O10 0.288603 0.833080 0.552155
O O11 0.354011 0.725375 0.321644
O O12 0.982844 0.382589 0.480020
O O13 0.000000 0.500000 0.500000
O O14 0.149464 0.728275 0.453867
O O15 0.856494 0.079344 0.664316
O O16 0.500000 0.500000 0.000000
O O17 0.979190 0.292156 0.505208
#
# Coordination Sequence:
#
# PCOD8004634 Si02
#       8
#     2   2   2   2   2   2   2   2
#     4   9  21  41  56  78 121 154 175 246 301 316
#     4   9  18  37  57  82 114 152 188 229 286 335
#     4   9  18  37  58  78 113 155 184 228 301 324
#     4  10  20  38  61  83 111 148 196 237 276 347
#     4   9  21  35  57  88 113 150 193 227 277 359
#     4   9  19  36  55  80 119 145 182 239 285 331
#     4   9  22  39  57  85 112 153 195 232 294 334
#     4  12  20  37  64  82 117 150 197 228 285 348
#
# _framework density 18.159407999999999
#
# number of rings (size 3 to 8) (size 9 to 14) (size 15 to 20)
#    0.750    1.750    1.250    2.250    3.500    0.000 
#    6.750    1.250    0.000    0.000    0.000    0.000 
#    0.000    0.000    0.000    0.000    0.000    0.000 
#
# Total GULP energy -198218.913333 kJ/mol
# GULP energy per Si atom -12388.682083 kJ/mol
# Density = 1.811808 g / cm^3
# Si number density = 18.159408 Si / 1000 Ang^3
#
#
#
# Elastic Constant Matrix: (Units=GPa)
#
#
# Indices 1 2 3 4 5 6 
#
# 1 91.5306 35.9514 37.2955 5.2908 10.9600 14.9556
# 2 35.9514 71.9626 15.5395 11.0959 14.3874 0.1290
# 3 37.2955 15.5395 61.5537 4.1937 2.3036 0.0225
# 4 5.2908 11.0959 4.1937 22.2558 -7.2470 4.6776
# 5 10.9600 14.3874 2.3036 -7.2470 32.4370 -0.7359
# 6 14.9556 0.1290 0.0225 4.6776 -0.7359 33.7241
#
#
#
# Elastic Compliance Matrix: (Units=1/GPa)
#
#
# Indices 1 2 3 4 5 6 
#
# 1 0.019560 -0.007445 -0.010023 0.002077 -0.002335 -0.008978
# 2 -0.007445 0.021572 0.000342 -0.013305 -0.009939 0.004847
# 3 -0.010023 0.000342 0.022367 -0.002635 0.001167 0.004820
# 4 0.002077 -0.013305 -0.002635 0.059409 0.018462 -0.008706
# 5 -0.002335 -0.009939 0.001167 0.018462 0.040054 -0.000614
# 6 -0.008978 0.004847 0.004820 -0.008706 -0.000614 0.034806
#
#
# Mechanical properties :
#
#
# Convention : Reuss Voigt Hill
#
# Bulk Modulus (GPa) = 34.19251 44.73552 39.46401
# Shear Modulus (GPa) = 20.68090 26.76742 23.72416
#
# Velocity S-wave (km/s) = 3.37835 3.84347 3.61839
# Velocity P-wave (km/s) = 5.83846 6.66219 6.26388
#
# Compressibility (1/GPa) = 0.02924617
#
# Stress axis : x y z
#
# Youngs Moduli (GPa) = 51.12496 46.35719 44.70949
#
# Poissons Ratio (x) = 0.34513 0.44811
# Poissons Ratio (y) = 0.38063 -0.01528
# Poissons Ratio (z) = 0.51241 -0.01584
#
# Static dielectric constant tensor:
#      x y z
#    x 3.307370 -0.195940 0.169590 
#    y -0.195940 3.110710 -0.034280 
#    z 0.169590 -0.034280 3.220950 
# 
# 
# High freq. dielectric constant tensor:
#      x y z
#    x 1.706250 -0.018290 0.013230 
#    y -0.018290 1.685680 -0.003150 
#    z 0.013230 -0.003150 1.693540 
# 
# From -- ./inp_files/570985.got.cif
#   From: 2010.06.25/outbox.cif.g09.slc.cpg/sg2_286_cif.got.tgz:570985.got - 2010.06.27 13:26:56.
