data_PCOD8004112
_publ_section_title
;
Structure prediction by ZEFSAII (Michael W. Deem and Ramdas Pophale) SiO2 
 PCOD8004112
Probable space group: P -1
;
_chemical_formula_sum "Si O2"
_cell_formula_units_Z 12
_cell_length_a 14.614070
_cell_length_b 8.413411
_cell_length_c 11.413542
_cell_angle_alpha 122.160724
_cell_angle_beta 146.427579
_cell_angle_gamma 45.509090
_cell_volume 548.837696
_symmetry_space_group_name_H-M "P -1"
_symmetry_group_IT_number 2
_symmetry_cell_setting 'triclinic'
loop_
_space_group_symop_operation_xyz
x,y,z
-x,-y,-z
loop_
_atom_site_type_symbol
_atom_site_label
_atom_site_fract_x
_atom_site_fract_y
_atom_site_fract_z
Si Si1 0.430810 0.366442 0.300265
Si Si2 0.306942 0.880434 0.736396
Si Si3 0.996436 0.407883 0.085769
Si Si4 0.924700 0.350173 0.531440
Si Si5 0.625127 0.960075 0.728938
Si Si6 0.438776 0.327393 0.859625
O O1 0.500000 0.500000 0.500000
O O2 0.592505 0.214644 0.317483
O O3 0.395176 0.208006 0.277734
O O4 0.215232 0.547509 0.085055
O O5 0.195774 0.760289 0.605802
O O6 0.477327 0.829598 0.995266
O O7 0.149043 0.149591 0.658470
O O8 0.069949 0.511726 0.300427
O O9 0.155294 0.141871 0.130810
O O10 0.000000 0.500000 0.000000
O O11 0.801205 0.530111 0.363438
O O12 0.500000 0.000000 0.500000
O O13 0.554048 0.184107 0.811818
O O14 0.500000 0.500000 0.000000
#
# Coordination Sequence:
#
# PCOD8004112 Si02
#       6
#     2   2   2   2   2   2
#     4  11  25  41  65  96 132 170 218 281 325 386
#     4  10  21  40  63  94 132 168 219 268 335 383
#     4  10  20  37  64  88 123 174 217 254 327 391
#     4  10  20  39  66  92 126 177 217 266 325 403
#     4  11  22  42  68  92 131 172 219 264 328 394
#     4  10  22  38  67  97 125 171 218 271 317 394
#
# _framework density 21.864388999999999
#
# number of rings (size 3 to 8) (size 9 to 14) (size 15 to 20)
#    0.000    1.667    1.667    4.000    2.333    5.333 
#    3.000    2.500    0.000    0.000    0.000    0.000 
#    0.000    0.000    0.000    0.000    0.000    0.000 
#
# Total GULP energy -148661.218296 kJ/mol
# GULP energy per Si atom -12388.434858 kJ/mol
# Density = 2.181462 g / cm^3
# Si number density = 21.864389 Si / 1000 Ang^3
#
#
#
# Elastic Constant Matrix: (Units=GPa)
#
#
# Indices 1 2 3 4 5 6 
#
# 1 70.0571 44.4627 36.4962 -16.6937 -11.6989 -34.6537
# 2 44.4627 156.8622 73.6038 -20.9399 -11.9629 -44.7102
# 3 36.4962 73.6038 152.0981 -23.2069 -27.8708 -20.6557
# 4 -16.6937 -20.9399 -23.2069 54.9723 -6.1862 -0.5262
# 5 -11.6989 -11.9629 -27.8708 -6.1862 35.9661 3.0505
# 6 -34.6537 -44.7102 -20.6557 -0.5262 3.0505 38.1902
#
#
#
# Elastic Compliance Matrix: (Units=1/GPa)
#
#
# Indices 1 2 3 4 5 6 
#
# 1 0.034079 0.002699 -0.001260 0.012323 0.010349 0.032745
# 2 0.002699 0.012178 -0.003597 0.004264 0.001629 0.014689
# 3 -0.001260 -0.003597 0.010403 0.003432 0.007066 -0.000245
# 4 0.012323 0.004264 0.003432 0.026428 0.011147 0.017504
# 5 0.010349 0.001629 0.007066 0.011147 0.038067 0.012232
# 6 0.032745 0.014689 -0.000245 0.017504 0.012232 0.072226
#
#
# Mechanical properties :
#
#
# Convention : Reuss Voigt Hill
#
# Bulk Modulus (GPa) = 19.10428 76.46032 47.78230
# Shear Modulus (GPa) = 23.24000 40.78934 32.01467
#
# Velocity S-wave (km/s) = 3.26378 4.32390 3.83069
# Velocity P-wave (km/s) = 4.79161 7.74431 6.43948
#
# Compressibility (1/GPa) = 0.05234430
#
# Stress axis : x y z
#
# Youngs Moduli (GPa) = 29.34326 82.11458 96.12749
#
# Poissons Ratio (x) = -0.22162 0.12112
# Poissons Ratio (y) = -0.07919 0.34577
# Poissons Ratio (z) = 0.03697 0.29536
#
# Static dielectric constant tensor:
#      x y z
#    x 3.928080 -0.198860 -0.036670 
#    y -0.198860 4.473190 -0.780890 
#    z -0.036670 -0.780890 4.859000 
# 
# 
# High freq. dielectric constant tensor:
#      x y z
#    x 1.833140 -0.024460 -0.012770 
#    y -0.024460 1.875040 -0.013800 
#    z -0.012770 -0.013800 1.881540 
# 
# From -- ./inp_files/153065.got.cif
#   From: 2010.06.25/outbox.cif.g09.slc.cpg/sg2_77_cif.got.tgz:153065.got - 2010.06.27 13:26:56.
