data_PCOD8004489
_publ_section_title
;
Structure prediction by ZEFSAII (Michael W. Deem and Ramdas Pophale) SiO2 
 PCOD8004489
Probable space group: P -1
;
_chemical_formula_sum "Si O2"
_cell_formula_units_Z 16
_cell_length_a 14.210150
_cell_length_b 17.040793
_cell_length_c 8.428284
_cell_angle_alpha 113.740311
_cell_angle_beta 77.019388
_cell_angle_gamma 153.268308
_cell_volume 793.940040
_symmetry_space_group_name_H-M "P -1"
_symmetry_group_IT_number 2
_symmetry_cell_setting 'triclinic'
loop_
_space_group_symop_operation_xyz
x,y,z
-x,-y,-z
loop_
_atom_site_type_symbol
_atom_site_label
_atom_site_fract_x
_atom_site_fract_y
_atom_site_fract_z
Si Si1 0.460616 0.801979 0.299041
Si Si2 0.122735 0.663807 0.200806
Si Si3 0.991001 0.141941 0.893664
Si Si4 0.297261 0.510824 0.279699
Si Si5 0.310753 0.987563 0.297700
Si Si6 0.593400 0.792333 0.978145
Si Si7 0.285468 0.592962 0.671079
Si Si8 0.351094 0.302426 0.855521
O O1 0.325967 0.781602 0.310537
O O2 0.288205 0.589678 0.241634
O O3 0.646982 0.962009 0.492173
O O4 0.584897 0.873751 0.148825
O O5 0.950526 0.555253 0.313996
O O6 0.230843 0.825178 0.182559
O O7 0.000000 0.500000 0.000000
O O8 0.111271 0.152021 0.789554
O O9 0.898986 0.123047 0.765870
O O10 0.132762 0.312223 0.100500
O O11 0.790610 0.946221 0.908167
O O12 0.240960 0.488016 0.463784
O O13 0.548371 0.671318 0.309255
O O14 0.533571 0.189616 0.276334
O O15 0.629675 0.740102 0.031140
O O16 0.369766 0.609547 0.808409
O O17 0.500000 0.500000 0.000000
#
# Coordination Sequence:
#
# PCOD8004489 Si02
#       8
#     2   2   2   2   2   2   2   2
#     4  10  21  41  57  87 121 156 195 249 291 349
#     4  12  23  39  65  88 117 162 199 240 303 350
#     4  10  20  38  60  89 115 160 195 241 300 349
#     4   9  20  39  60  86 120 155 195 247 293 347
#     4  10  24  40  59  89 124 154 200 247 293 349
#     4  10  20  38  59  87 123 148 198 247 294 349
#     4  10  23  41  60  89 122 156 197 246 295 353
#     4   9  19  36  62  84 118 156 195 240 294 354
#
# _framework density 20.152654999999999
#
# number of rings (size 3 to 8) (size 9 to 14) (size 15 to 20)
#    0.000    2.000    1.250    1.500    5.250    2.500 
#    2.250   13.750    0.000    0.000    0.000    0.000 
#    0.000    0.000    0.000    0.000    0.000    0.000 
#
# Total GULP energy -198275.854711 kJ/mol
# GULP energy per Si atom -12392.240919 kJ/mol
# Density = 2.010679 g / cm^3
# Si number density = 20.152655 Si / 1000 Ang^3
#
#
#
# Elastic Constant Matrix: (Units=GPa)
#
#
# Indices 1 2 3 4 5 6 
#
# 1 172.4815 49.8368 50.0152 -8.2953 10.6779 19.9350
# 2 49.8368 55.5814 18.6252 -5.0627 -3.7980 14.6118
# 3 50.0152 18.6252 111.0871 -7.7585 7.7676 16.1351
# 4 -8.2953 -5.0627 -7.7585 28.1935 3.3296 -9.3852
# 5 10.6779 -3.7980 7.7676 3.3296 27.4750 1.3916
# 6 19.9350 14.6118 16.1351 -9.3852 1.3916 36.4599
#
#
#
# Elastic Compliance Matrix: (Units=1/GPa)
#
#
# Indices 1 2 3 4 5 6 
#
# 1 0.008933 -0.007248 -0.002392 0.000952 -0.003886 -0.000528
# 2 -0.007248 0.027022 -0.000808 -0.000670 0.007214 -0.006957
# 3 -0.002392 -0.000808 0.010874 0.001516 -0.002303 -0.002702
# 4 0.000952 -0.000670 0.001516 0.039978 -0.006222 0.009606
# 5 -0.003886 0.007214 -0.002303 -0.006222 0.040456 -0.002893
# 6 -0.000528 -0.006957 -0.002702 0.009606 -0.002893 0.034283
#
#
# Mechanical properties :
#
#
# Convention : Reuss Voigt Hill
#
# Bulk Modulus (GPa) = 38.56141 64.01160 51.28650
# Shear Modulus (GPa) = 26.16610 33.13721 29.65165
#
# Velocity S-wave (km/s) = 3.60723 4.05941 3.83998
# Velocity P-wave (km/s) = 6.04365 7.33512 6.72048
#
# Compressibility (1/GPa) = 0.02593266
#
# Stress axis : x y z
#
# Youngs Moduli (GPa) = 111.94506 37.00637 91.96482
#
# Poissons Ratio (x) = 0.26824 0.21996
# Poissons Ratio (y) = 0.81142 0.07431
# Poissons Ratio (z) = 0.26775 0.02990
#
# Static dielectric constant tensor:
#      x y z
#    x 4.386090 0.257780 -0.148240 
#    y 0.257780 3.797840 -0.073650 
#    z -0.148240 -0.073650 3.597990 
# 
# 
# High freq. dielectric constant tensor:
#      x y z
#    x 1.795980 0.004100 0.002180 
#    y 0.004100 1.785280 -0.002700 
#    z 0.002180 -0.002700 1.779830 
# 
# From -- ./inp_files/177384.got.cif
#   From: 2010.06.25/outbox.cif.g09.slc.cpg/sg2_89_cif.got.tgz:177384.got - 2010.06.27 13:26:56.
