data_PCOD8004607
_publ_section_title
;
Structure prediction by ZEFSAII (Michael W. Deem and Ramdas Pophale) SiO2 
 PCOD8004607
Probable space group: P -1
;
_chemical_formula_sum "Si O2"
_cell_formula_units_Z 16
_cell_length_a 13.277347
_cell_length_b 16.438649
_cell_length_c 11.196193
_cell_angle_alpha 157.150865
_cell_angle_beta 52.727513
_cell_angle_gamma 126.501847
_cell_volume 749.739850
_symmetry_space_group_name_H-M "P -1"
_symmetry_group_IT_number 2
_symmetry_cell_setting 'triclinic'
loop_
_space_group_symop_operation_xyz
x,y,z
-x,-y,-z
loop_
_atom_site_type_symbol
_atom_site_label
_atom_site_fract_x
_atom_site_fract_y
_atom_site_fract_z
Si Si1 0.226790 0.287693 0.423794
Si Si2 0.497668 0.783603 0.777796
Si Si3 0.036885 0.035821 0.357281
Si Si4 0.871070 0.698490 0.135498
Si Si5 0.422931 0.863544 0.196882
Si Si6 0.159120 0.642474 0.122581
Si Si7 0.377237 0.332920 0.879808
Si Si8 0.643044 0.622921 0.783471
O O1 0.363207 0.272218 0.364013
O O2 0.239746 0.325047 0.322815
O O3 0.132582 0.069548 0.220425
O O4 0.160634 0.474137 0.786286
O O5 0.432467 0.604354 0.495915
O O6 0.414292 0.787269 0.962185
O O7 0.500000 0.000000 0.000000
O O8 0.921156 0.175415 0.614455
O O9 0.122488 0.113248 0.516271
O O10 0.976177 0.789802 0.083253
O O11 0.728179 0.655857 0.130832
O O12 0.900747 0.481510 0.884078
O O13 0.299782 0.750026 0.199444
O O14 0.431758 0.111995 0.535744
O O15 0.549313 0.802496 0.085510
O O16 0.500000 0.500000 0.000000
O O17 0.308097 0.371749 0.108392
#
# Coordination Sequence:
#
# PCOD8004607 Si02
#       8
#     2   2   2   2   2   2   2   2
#     4  10  20  38  60  90 124 164 216 263 312 379
#     4  11  22  35  61  93 129 164 211 269 322 367
#     4  10  22  39  66  94 122 165 221 272 308 357
#     4  10  22  37  59  94 122 158 216 259 310 370
#     4  11  21  39  64  92 124 171 216 263 318 379
#     4  11  19  39  69  92 122 161 220 272 313 356
#     4  12  25  39  63  93 136 166 209 261 325 394
#     4  11  22  41  58  93 129 174 202 259 334 385
#
# _framework density 21.340736
#
# number of rings (size 3 to 8) (size 9 to 14) (size 15 to 20)
#    0.000    1.250    3.750    4.125    5.250    0.000 
#    2.250    0.625    0.000    3.000    0.000    0.000 
#    0.000    0.000    0.000    0.000    0.000    0.000 
#
# Total GULP energy -198357.972013 kJ/mol
# GULP energy per Si atom -12397.373251 kJ/mol
# Density = 2.129216 g / cm^3
# Si number density = 21.340736 Si / 1000 Ang^3
#
#
#
# Elastic Constant Matrix: (Units=GPa)
#
#
# Indices 1 2 3 4 5 6 
#
# 1 69.5071 46.9684 20.7570 3.1320 12.0039 -8.3618
# 2 46.9684 142.1396 22.0456 10.0146 -8.7264 6.2590
# 3 20.7570 22.0456 69.2299 7.5202 -3.4101 -8.0972
# 4 3.1320 10.0146 7.5202 33.4189 -1.5881 3.7843
# 5 12.0039 -8.7264 -3.4101 -1.5881 14.2021 8.0329
# 6 -8.3618 6.2590 -8.0972 3.7843 8.0329 33.9589
#
#
#
# Elastic Compliance Matrix: (Units=1/GPa)
#
#
# Indices 1 2 3 4 5 6 
#
# 1 0.044630 -0.018890 -0.006905 -0.003513 -0.067945 0.029288
# 2 -0.018890 0.016031 0.000394 0.000325 0.034883 -0.015800
# 3 -0.006905 0.000394 0.017228 -0.002930 0.009677 0.000372
# 4 -0.003513 0.000325 -0.002930 0.032177 0.010402 -0.007670
# 5 -0.067945 0.034883 0.009677 0.010402 0.190729 -0.067128
# 6 0.029288 -0.015800 0.000372 -0.007670 -0.067128 0.056394
#
#
# Mechanical properties :
#
#
# Convention : Reuss Voigt Hill
#
# Bulk Modulus (GPa) = 36.91991 51.15762 44.03877
# Shear Modulus (GPa) = 11.98983 29.05636 20.52310
#
# Velocity S-wave (km/s) = 2.37286 3.69391 3.10447
# Velocity P-wave (km/s) = 4.98448 6.49748 5.79061
#
# Compressibility (1/GPa) = 0.02708566
#
# Stress axis : x y z
#
# Youngs Moduli (GPa) = 22.40662 62.38063 58.04459
#
# Poissons Ratio (x) = 1.17836 0.40083
# Poissons Ratio (y) = 0.42326 -0.02287
# Poissons Ratio (z) = 0.15473 -0.02457
#
# Static dielectric constant tensor:
#      x y z
#    x 3.719020 -0.060440 0.013550 
#    y -0.060440 4.514280 0.136820 
#    z 0.013550 0.136820 3.645390 
# 
# 
# High freq. dielectric constant tensor:
#      x y z
#    x 1.824310 -0.000810 -0.007200 
#    y -0.000810 1.861420 0.021280 
#    z -0.007200 0.021280 1.804200 
# 
# From -- ./inp_files/456874.got.cif
#   From: 2010.06.25/outbox.cif.g09.slc.cpg/sg2_229_cif.got.tgz:456874.got - 2010.06.27 13:26:56.
