data_PCOD8004432
_publ_section_title
;
Structure prediction by ZEFSAII (Michael W. Deem and Ramdas Pophale) SiO2 
 PCOD8004432
Probable space group: P -1
;
_chemical_formula_sum "Si O2"
_cell_formula_units_Z 16
_cell_length_a 18.241917
_cell_length_b 19.906436
_cell_length_c 11.428771
_cell_angle_alpha 149.561877
_cell_angle_beta 30.299618
_cell_angle_gamma 157.355608
_cell_volume 759.180716
_symmetry_space_group_name_H-M "P -1"
_symmetry_group_IT_number 2
_symmetry_cell_setting 'triclinic'
loop_
_space_group_symop_operation_xyz
x,y,z
-x,-y,-z
loop_
_atom_site_type_symbol
_atom_site_label
_atom_site_fract_x
_atom_site_fract_y
_atom_site_fract_z
Si Si1 0.841030 0.956070 0.333675
Si Si2 0.419136 0.092336 0.581448
Si Si3 0.215476 0.616450 0.649494
Si Si4 0.261798 0.844218 0.116776
Si Si5 0.299098 0.198805 0.101727
Si Si6 0.484011 0.333923 0.280307
Si Si7 0.226052 0.707095 0.212559
Si Si8 0.493986 0.607107 0.403255
O O1 0.824677 0.062741 0.612242
O O2 0.070914 0.056868 0.156237
O O3 0.758943 0.954823 0.320948
O O4 0.701690 0.743002 0.245998
O O5 0.640637 0.257244 0.467923
O O6 0.374277 0.906906 0.372362
O O7 0.414691 0.153875 0.808225
O O8 0.318914 0.575417 0.530270
O O9 0.996955 0.425462 0.619328
O O10 0.161859 0.713283 0.944585
O O11 0.207195 0.726915 0.131135
O O12 0.500000 0.000000 0.000000
O O13 0.303835 0.175610 0.200890
O O14 0.420415 0.410768 0.224591
O O15 0.500000 0.500000 0.500000
O O16 0.451624 0.281566 0.382953
O O17 0.683417 0.383062 0.033431
#
# Coordination Sequence:
#
# PCOD8004432 Si02
#       8
#     2   2   2   2   2   2   2   2
#     4  10  21  35  62  90 113 150 190 241 293 340
#     4  10  23  40  58  89 116 148 198 239 279 348
#     4  11  21  34  64  93 111 150 185 246 303 326
#     4  11  17  34  59  93 121 135 189 250 293 336
#     4  11  24  40  56  81 125 161 189 227 283 347
#     4  10  23  39  57  86 118 154 194 233 281 349
#     4  11  21  37  62  86 116 150 193 240 290 338
#     4  10  20  38  58  88 119 144 190 246 285 334
#
# _framework density 21.075351999999999
#
# number of rings (size 3 to 8) (size 9 to 14) (size 15 to 20)
#    0.000    1.500    5.000    2.250    3.500    4.000 
#    0.000    3.125    0.000    0.000    0.000    0.000 
#    0.000    0.000    0.000    0.000    0.000    0.000 
#
# Total GULP energy -198324.596889 kJ/mol
# GULP energy per Si atom -12395.287306 kJ/mol
# Density = 2.102738 g / cm^3
# Si number density = 21.075352 Si / 1000 Ang^3
#
#
#
# Elastic Constant Matrix: (Units=GPa)
#
#
# Indices 1 2 3 4 5 6 
#
# 1 41.7123 27.0718 29.7117 2.4422 -2.8360 4.4745
# 2 27.0718 118.5409 42.2151 -7.9281 -9.5296 -5.4942
# 3 29.7117 42.2151 108.7932 -1.1779 6.4813 -7.4206
# 4 2.4422 -7.9281 -1.1779 23.4901 2.7956 -1.6228
# 5 -2.8360 -9.5296 6.4813 2.7956 29.3071 2.3969
# 6 4.4745 -5.4942 -7.4206 -1.6228 2.3969 13.4714
#
#
#
# Elastic Compliance Matrix: (Units=1/GPa)
#
#
# Indices 1 2 3 4 5 6 
#
# 1 0.038951 -0.006401 -0.010258 -0.009151 0.006752 -0.023502
# 2 -0.006401 0.011563 -0.002481 0.004490 0.002810 0.005516
# 3 -0.010258 -0.002481 0.014135 0.002464 -0.006106 0.011565
# 4 -0.009151 0.004490 0.002464 0.046699 -0.005474 0.012828
# 5 0.006752 0.002810 -0.006106 -0.005474 0.038541 -0.011977
# 6 -0.023502 0.005516 0.011565 0.012828 -0.011977 0.094334
#
#
# Mechanical properties :
#
#
# Convention : Reuss Voigt Hill
#
# Bulk Modulus (GPa) = 37.92370 51.89372 44.90871
# Shear Modulus (GPa) = 17.16483 24.59026 20.87754
#
# Velocity S-wave (km/s) = 2.85695 3.41952 3.15082
# Velocity P-wave (km/s) = 5.37739 6.34565 5.88148
#
# Compressibility (1/GPa) = 0.02636873
#
# Stress axis : x y z
#
# Youngs Moduli (GPa) = 25.67344 86.48113 70.74436
#
# Poissons Ratio (x) = 0.55355 0.72571
# Poissons Ratio (y) = 0.16433 0.17554
# Poissons Ratio (z) = 0.26336 0.21459
#
# Static dielectric constant tensor:
#      x y z
#    x 3.841850 -0.016300 0.152340 
#    y -0.016300 3.815370 0.152970 
#    z 0.152340 0.152970 4.039820 
# 
# 
# High freq. dielectric constant tensor:
#      x y z
#    x 1.802660 -0.001950 0.002970 
#    y -0.001950 1.818150 0.004790 
#    z 0.002970 0.004790 1.828510 
# 
# From -- ./inp_files/423999.got.cif
#   From: 2010.06.25/outbox.cif.g09.slc.cpg/sg2_212_cif.got.tgz:423999.got - 2010.06.27 13:26:56.
