data_PCOD8004171
_publ_section_title
;
Structure prediction by ZEFSAII (Michael W. Deem and Ramdas Pophale) SiO2 
 PCOD8004171
Probable space group: P -1
;
_chemical_formula_sum "Si O2"
_cell_formula_units_Z 16
_cell_length_a 20.529644
_cell_length_b 11.781146
_cell_length_c 11.327182
_cell_angle_alpha 44.599799
_cell_angle_beta 146.877425
_cell_angle_gamma 149.622418
_cell_volume 756.490009
_symmetry_space_group_name_H-M "P -1"
_symmetry_group_IT_number 2
_symmetry_cell_setting 'triclinic'
loop_
_space_group_symop_operation_xyz
x,y,z
-x,-y,-z
loop_
_atom_site_type_symbol
_atom_site_label
_atom_site_fract_x
_atom_site_fract_y
_atom_site_fract_z
Si Si1 0.549525 0.191887 0.016704
Si Si2 0.331762 0.408479 0.258613
Si Si3 0.604226 0.757781 0.943858
Si Si4 0.761997 0.654839 0.587097
Si Si5 0.360095 0.812233 0.595582
Si Si6 0.608762 0.787760 0.672633
Si Si7 0.076388 0.459420 0.246805
Si Si8 0.793828 0.004051 0.263344
O O1 0.673584 0.267979 0.258662
O O2 0.641554 0.413940 0.916433
O O3 0.375733 0.077324 0.892458
O O4 0.500000 0.000000 0.000000
O O5 0.500000 0.500000 0.500000
O O6 0.211196 0.349010 0.227882
O O7 0.268637 0.193086 0.246068
O O8 0.497968 0.822884 0.743999
O O9 0.688411 0.838886 0.883667
O O10 0.500000 0.500000 0.000000
O O11 0.761828 0.900315 0.162185
O O12 0.566852 0.471224 0.398415
O O13 0.843571 0.606244 0.658950
O O14 0.842497 0.905840 0.498096
O O15 0.205704 0.666755 0.378445
O O16 0.423851 0.056345 0.523171
O O17 0.939740 0.270429 0.273281
O O18 0.000000 0.500000 0.000000
#
# Coordination Sequence:
#
# PCOD8004171 Si02
#       8
#     2   2   2   2   2   2   2   2
#     4  11  22  40  71 102 126 164 218 279 324 382
#     4  10  20  37  64  99 125 162 210 272 328 380
#     4  11  19  36  63  97 124 158 222 279 323 370
#     4  11  22  40  65  92 128 169 214 267 327 388
#     4  11  24  38  64  98 129 173 214 272 327 377
#     4  11  19  36  63  93 130 154 219 273 320 380
#     4  12  27  43  62  93 138 176 214 263 327 394
#     4  11  23  40  65  95 126 172 211 259 337 390
#
# _framework density 21.150312
#
# number of rings (size 3 to 8) (size 9 to 14) (size 15 to 20)
#    0.000    1.000    5.000    3.750    5.250    0.000 
#    0.000    1.875    0.000    3.750    0.000    0.000 
#    0.000    0.000    0.000    0.000    0.000    0.000 
#
# Total GULP energy -198233.900894 kJ/mol
# GULP energy per Si atom -12389.618806 kJ/mol
# Density = 2.110217 g / cm^3
# Si number density = 21.150312 Si / 1000 Ang^3
#
#
#
# Elastic Constant Matrix: (Units=GPa)
#
#
# Indices 1 2 3 4 5 6 
#
# 1 124.0219 36.0389 46.6512 -12.8793 -31.5095 -10.4889
# 2 36.0389 86.2022 31.3975 -23.4897 -7.0402 -2.9119
# 3 46.6512 31.3975 85.5640 -17.0729 -29.0091 -3.0329
# 4 -12.8793 -23.4897 -17.0729 38.4230 -0.0424 -1.6723
# 5 -31.5095 -7.0402 -29.0091 -0.0424 38.0561 -6.2857
# 6 -10.4889 -2.9119 -3.0329 -1.6723 -6.2857 37.1559
#
#
#
# Elastic Compliance Matrix: (Units=1/GPa)
#
#
# Indices 1 2 3 4 5 6 
#
# 1 0.012664 -0.003174 -0.002217 0.001535 0.008992 0.004736
# 2 -0.003174 0.015953 -0.003489 0.007135 -0.002329 -0.000004
# 3 -0.002217 -0.003489 0.020056 0.006193 0.013355 0.003276
# 4 0.001535 0.007135 0.006193 0.033854 0.008074 0.004388
# 5 0.008992 -0.002329 0.013355 0.008074 0.045377 0.011486
# 6 0.004736 -0.000004 0.003276 0.004388 0.011486 0.030658
#
#
# Mechanical properties :
#
#
# Convention : Reuss Voigt Hill
#
# Bulk Modulus (GPa) = 32.35069 58.21812 45.28441
# Shear Modulus (GPa) = 26.79143 34.84037 30.81590
#
# Velocity S-wave (km/s) = 3.56296 4.06307 3.82120
# Velocity P-wave (km/s) = 5.67935 7.04251 6.39734
#
# Compressibility (1/GPa) = 0.03091124
#
# Stress axis : x y z
#
# Youngs Moduli (GPa) = 78.96455 62.68577 49.86099
#
# Poissons Ratio (x) = 0.19898 0.11054
# Poissons Ratio (y) = 0.25065 0.17398
# Poissons Ratio (z) = 0.17507 0.21873
#
# Static dielectric constant tensor:
#      x y z
#    x 4.683860 -0.215090 -0.459060 
#    y -0.215090 3.786930 -0.187230 
#    z -0.459060 -0.187230 3.998460 
# 
# 
# High freq. dielectric constant tensor:
#      x y z
#    x 1.847930 -0.017460 -0.023090 
#    y -0.017460 1.811520 -0.030910 
#    z -0.023090 -0.030910 1.818550 
# 
# From -- ./inp_files/283294.got.cif
#   From: 2010.06.25/outbox.cif.g09.slc.cpg/sg2_142_cif.got.tgz:283294.got - 2010.06.27 13:26:56.
