data_PCOD8004680
_publ_section_title
;
Structure prediction by ZEFSAII (Michael W. Deem and Ramdas Pophale) SiO2 
 PCOD8004680
Probable space group: P -1
;
_chemical_formula_sum "Si O2"
_cell_formula_units_Z 12
_cell_length_a 9.018522
_cell_length_b 11.933215
_cell_length_c 17.439819
_cell_angle_alpha 21.850805
_cell_angle_beta 56.725578
_cell_angle_gamma 57.196054
_cell_volume 580.827833
_symmetry_space_group_name_H-M "P -1"
_symmetry_group_IT_number 2
_symmetry_cell_setting 'triclinic'
loop_
_space_group_symop_operation_xyz
x,y,z
-x,-y,-z
loop_
_atom_site_type_symbol
_atom_site_label
_atom_site_fract_x
_atom_site_fract_y
_atom_site_fract_z
Si Si1 0.761548 0.282856 0.748193
Si Si2 0.870623 0.614970 0.365662
Si Si3 0.233827 0.704757 0.991350
Si Si4 0.438543 0.681412 0.801912
Si Si5 0.581662 0.302447 0.375743
Si Si6 0.849138 0.605955 0.200209
O O1 0.791863 0.355618 0.603346
O O2 0.570242 0.423999 0.740925
O O3 0.913763 0.420492 0.668597
O O4 0.770349 0.924437 0.984132
O O5 0.807415 0.592002 0.311152
O O6 0.798895 0.936817 0.217111
O O7 0.281158 0.615956 0.946160
O O8 0.398409 0.583267 0.075989
O O9 0.060194 0.544859 0.165243
O O10 0.356894 0.708509 0.723303
O O11 0.511475 0.987174 0.617908
O O12 0.753206 0.344150 0.352459
#
# Coordination Sequence:
#
# PCOD8004680 Si02
#       6
#     2   2   2   2   2   2
#     4  10  20  38  61  89 116 152 189 237 296 343
#     4  10  20  38  64  87 115 152 192 238 290 347
#     4  10  20  41  59  85 111 157 199 228 286 347
#     4  10  22  39  62  76 118 163 192 229 282 355
#     4  11  22  39  57  89 116 151 194 239 289 339
#     4  11  23  37  61  92 117 145 192 251 288 331
#
# _framework density 20.660167000000001
#
# number of rings (size 3 to 8) (size 9 to 14) (size 15 to 20)
#    0.000    1.667    1.667    4.500    0.000    2.000 
#    6.000    0.000    0.000    0.000    0.000    0.000 
#    0.000    0.000    0.000    0.000    0.000    0.000 
#
# Total GULP energy -148844.045186 kJ/mol
# GULP energy per Si atom -12403.670432 kJ/mol
# Density = 2.061314 g / cm^3
# Si number density = 20.660167 Si / 1000 Ang^3
#
#
#
# Elastic Constant Matrix: (Units=GPa)
#
#
# Indices 1 2 3 4 5 6 
#
# 1 89.4176 53.9049 27.6008 5.6117 1.0782 19.7408
# 2 53.9049 94.3609 25.0520 14.7908 -0.5106 4.7513
# 3 27.6008 25.0520 64.1435 13.2058 8.5287 15.9700
# 4 5.6117 14.7908 13.2058 21.4889 1.7371 7.1949
# 5 1.0782 -0.5106 8.5287 1.7371 25.7250 -5.7905
# 6 19.7408 4.7513 15.9700 7.1949 -5.7905 29.4591
#
#
#
# Elastic Compliance Matrix: (Units=1/GPa)
#
#
# Indices 1 2 3 4 5 6 
#
# 1 0.022538 -0.013093 -0.002278 0.009937 -0.004512 -0.015070
# 2 -0.013093 0.020423 -0.003275 -0.012917 0.005499 0.011491
# 3 -0.002278 -0.003275 0.023251 -0.007076 -0.009611 -0.010711
# 4 0.009937 -0.012917 -0.007076 0.063592 -0.006574 -0.017563
# 5 -0.004512 0.005499 -0.009611 -0.006574 0.046891 0.018170
# 6 -0.015070 0.011491 -0.010711 -0.017563 0.018170 0.055858
#
#
# Mechanical properties :
#
#
# Convention : Reuss Voigt Hill
#
# Bulk Modulus (GPa) = 34.58005 51.22640 42.90323
# Shear Modulus (GPa) = 17.89005 24.75886 21.32445
#
# Velocity S-wave (km/s) = 2.94584 3.46553 3.21620
# Velocity P-wave (km/s) = 5.32396 6.39232 5.88244
#
# Compressibility (1/GPa) = 0.02891841
#
# Stress axis : x y z
#
# Youngs Moduli (GPa) = 44.37011 48.96496 43.00921
#
# Poissons Ratio (x) = 0.64112 0.09797
# Poissons Ratio (y) = 0.58096 0.14086
# Poissons Ratio (z) = 0.10107 0.16037
#
# Static dielectric constant tensor:
#      x y z
#    x 3.647210 -0.094220 0.184990 
#    y -0.094220 3.693600 0.126540 
#    z 0.184990 0.126540 3.713260 
# 
# 
# High freq. dielectric constant tensor:
#      x y z
#    x 1.794820 -0.007680 0.018810 
#    y -0.007680 1.813310 0.013170 
#    z 0.018810 0.013170 1.805810 
# 
# From -- ./inp_files/146295.got.cif
#   From: 2010.06.25/outbox.cif.g09.slc.cpg/sg2_74_cif.got.tgz:146295.got - 2010.06.27 13:26:56.
