data_PCOD8004294
_publ_section_title
;
Structure prediction by ZEFSAII (Michael W. Deem and Ramdas Pophale) SiO2 
 PCOD8004294
Probable space group: P -1
;
_chemical_formula_sum "Si O2"
_cell_formula_units_Z 16
_cell_length_a 11.251229
_cell_length_b 12.269715
_cell_length_c 9.283394
_cell_angle_alpha 127.847038
_cell_angle_beta 82.776298
_cell_angle_gamma 131.449425
_cell_volume 668.002434
_symmetry_space_group_name_H-M "P -1"
_symmetry_group_IT_number 2
_symmetry_cell_setting 'triclinic'
loop_
_space_group_symop_operation_xyz
x,y,z
-x,-y,-z
loop_
_atom_site_type_symbol
_atom_site_label
_atom_site_fract_x
_atom_site_fract_y
_atom_site_fract_z
Si Si1 0.850572 0.199727 0.364821
Si Si2 0.186709 0.996108 0.522018
Si Si3 0.693501 0.667437 0.035229
Si Si4 0.100334 0.401085 0.953479
Si Si5 0.766156 0.259929 0.993572
Si Si6 0.242008 0.606011 0.606082
Si Si7 0.805487 0.905913 0.944382
Si Si8 0.605277 0.832696 0.642837
O O1 0.760977 0.078812 0.432301
O O2 0.797617 0.312752 0.442513
O O3 0.066484 0.366879 0.477570
O O4 0.795568 0.054997 0.123005
O O5 0.011095 0.792363 0.297543
O O6 0.163900 0.113308 0.719131
O O7 0.347982 0.174357 0.531851
O O8 0.776190 0.586084 0.953473
O O9 0.674488 0.703511 0.902917
O O10 0.500000 0.500000 0.000000
O O11 0.969185 0.372157 0.057743
O O12 0.234264 0.621205 0.030752
O O13 0.630840 0.020237 0.785847
O O14 0.695182 0.262774 0.153555
O O15 0.395427 0.630788 0.549727
O O16 0.730980 0.853507 0.750580
O O17 0.000000 0.000000 0.000000
#
# Coordination Sequence:
#
# PCOD8004294 Si02
#       8
#     2   2   2   2   2   2   2   2
#     4  10  23  40  64  92 130 165 214 255 322 375
#     4  10  22  44  62  92 124 174 210 254 312 385
#     4  11  26  42  65  94 128 166 208 268 314 369
#     4  10  21  40  67  92 124 171 215 247 316 386
#     4  10  20  37  67  94 122 164 210 260 306 378
#     4  11  22  40  64  96 130 165 210 267 314 374
#     4  11  24  44  66  92 128 170 214 262 313 378
#     4  11  24  41  67  97 128 166 212 263 321 367
#
# _framework density 23.952006999999998
#
# number of rings (size 3 to 8) (size 9 to 14) (size 15 to 20)
#    0.000    1.500    2.500    2.250    1.750    3.500 
#    2.250    1.250    0.000    0.000    0.000    0.000 
#    0.000    0.000    0.000    0.000    0.000    0.000 
#
# Total GULP energy -198340.882311 kJ/mol
# GULP energy per Si atom -12396.305144 kJ/mol
# Density = 2.389749 g / cm^3
# Si number density = 23.952007 Si / 1000 Ang^3
#
#
#
# Elastic Constant Matrix: (Units=GPa)
#
#
# Indices 1 2 3 4 5 6 
#
# 1 100.5179 42.8520 8.4745 -8.7476 8.8429 -3.5996
# 2 42.8520 137.7504 17.0330 -25.8144 5.4584 0.7655
# 3 8.4745 17.0330 31.4485 -17.7165 4.0139 -7.1404
# 4 -8.7476 -25.8144 -17.7165 37.9229 0.6566 -2.9079
# 5 8.8429 5.4584 4.0139 0.6566 19.6647 7.9208
# 6 -3.5996 0.7655 -7.1404 -2.9079 7.9208 34.1676
#
#
#
# Elastic Compliance Matrix: (Units=1/GPa)
#
#
# Indices 1 2 3 4 5 6 
#
# 1 0.012060 -0.003413 0.000598 0.001061 -0.005805 0.002908
# 2 -0.003413 0.009465 -0.001286 0.005056 -0.000920 -0.000197
# 3 0.000598 -0.001286 0.053367 0.025887 -0.018846 0.017817
# 4 0.001061 0.005056 0.025887 0.043322 -0.013539 0.012234
# 5 -0.005805 -0.000920 -0.018846 -0.013539 0.066516 -0.021101
# 6 0.002908 -0.000197 0.017817 0.012234 -0.021101 0.039235
#
#
# Mechanical properties :
#
#
# Convention : Reuss Voigt Hill
#
# Bulk Modulus (GPa) = 14.99465 45.15954 30.07710
# Shear Modulus (GPa) = 19.65426 31.77488 25.71457
#
# Velocity S-wave (km/s) = 2.86766 3.64621 3.28012
# Velocity P-wave (km/s) = 4.15193 6.05158 5.18942
#
# Compressibility (1/GPa) = 0.06669043
#
# Stress axis : x y z
#
# Youngs Moduli (GPa) = 82.91744 105.65013 18.73803
#
# Poissons Ratio (x) = 0.36057 -0.01120
# Poissons Ratio (y) = 0.28299 0.02410
# Poissons Ratio (z) = -0.04956 0.13586
#
# Static dielectric constant tensor:
#      x y z
#    x 4.082380 -0.075600 -0.171880 
#    y -0.075600 4.661960 -0.043220 
#    z -0.171880 -0.043220 4.109160 
# 
# 
# High freq. dielectric constant tensor:
#      x y z
#    x 1.929930 -0.009250 -0.011930 
#    y -0.009250 1.971090 -0.006570 
#    z -0.011930 -0.006570 1.931810 
# 
# From -- ./inp_files/263072.got.cif
#   From: 2010.06.25/outbox.cif.g09.slc.cpg/sg2_132_cif.got.tgz:263072.got - 2010.06.27 13:26:56.
