data_PCOD8004256
_publ_section_title
;
Structure prediction by ZEFSAII (Michael W. Deem and Ramdas Pophale) SiO2 
 PCOD8004256
Probable space group: P -1
;
_chemical_formula_sum "Si O2"
_cell_formula_units_Z 16
_cell_length_a 26.073406
_cell_length_b 20.068286
_cell_length_c 9.260524
_cell_angle_alpha 147.956412
_cell_angle_beta 135.502710
_cell_angle_gamma 21.019126
_cell_volume 841.194469
_symmetry_space_group_name_H-M "P -1"
_symmetry_group_IT_number 2
_symmetry_cell_setting 'triclinic'
loop_
_space_group_symop_operation_xyz
x,y,z
-x,-y,-z
loop_
_atom_site_type_symbol
_atom_site_label
_atom_site_fract_x
_atom_site_fract_y
_atom_site_fract_z
Si Si1 0.635349 0.141021 0.172604
Si Si2 0.062293 0.769423 0.531076
Si Si3 0.660424 0.295823 0.272152
Si Si4 0.772940 0.356173 0.118685
Si Si5 0.682605 0.245230 0.898902
Si Si6 0.420343 0.254478 0.813924
Si Si7 0.827553 0.295624 0.653588
Si Si8 0.889753 0.778371 0.242151
O O1 0.705084 0.110144 0.119541
O O2 0.527833 0.396303 0.526296
O O3 0.782690 0.881620 0.090851
O O4 0.544431 0.157785 0.962718
O O5 0.160721 0.632306 0.625935
O O6 0.177912 0.628859 0.374100
O O7 0.998408 0.725821 0.304816
O O8 0.916207 0.087894 0.816577
O O9 0.735315 0.306905 0.504463
O O10 0.731112 0.164586 0.015347
O O11 0.630022 0.620217 0.216517
O O12 0.713360 0.336241 0.065911
O O13 0.781696 0.989680 0.545236
O O14 0.500000 0.500000 0.000000
O O15 0.500000 0.000000 0.500000
O O16 0.261255 0.477723 0.997166
O O17 0.000000 0.000000 0.500000
O O18 0.000000 0.500000 0.000000
#
# Coordination Sequence:
#
# PCOD8004256 Si02
#       8
#     2   2   2   2   2   2   2   2
#     4  10  22  41  61  89 125 156 207 250 306 362
#     4  10  21  39  63  92 120 159 205 252 296 361
#     4  10  20  37  66  94 113 156 205 260 290 347
#     4  10  21  39  63  93 119 157 207 251 301 354
#     4  11  20  38  66  92 117 152 210 250 295 360
#     4  11  25  41  62  88 128 166 194 253 312 357
#     4  11  20  38  65  92 119 154 208 246 296 365
#     4  11  25  41  61  89 129 165 192 253 314 359
#
# _framework density 19.020572000000001
#
# number of rings (size 3 to 8) (size 9 to 14) (size 15 to 20)
#    0.000    1.500    3.750    1.500    8.750    0.000 
#    4.500    1.250    0.000    0.000    0.000    0.000 
#    0.000    0.000    0.000    0.000    0.000    0.000 
#
# Total GULP energy -198384.295829 kJ/mol
# GULP energy per Si atom -12399.018489 kJ/mol
# Density = 1.897728 g / cm^3
# Si number density = 19.020572 Si / 1000 Ang^3
#
#
#
# Elastic Constant Matrix: (Units=GPa)
#
#
# Indices 1 2 3 4 5 6 
#
# 1 122.4850 47.0696 59.2833 7.3563 -11.3845 6.1387
# 2 47.0696 130.8773 55.0354 -2.4229 8.1963 16.5060
# 3 59.2833 55.0354 103.9927 6.8472 1.6809 11.1263
# 4 7.3563 -2.4229 6.8472 27.9250 -0.1419 0.7451
# 5 -11.3845 8.1963 1.6809 -0.1419 25.3691 0.9098
# 6 6.1387 16.5060 11.1263 0.7451 0.9098 37.7949
#
#
#
# Elastic Compliance Matrix: (Units=1/GPa)
#
#
# Indices 1 2 3 4 5 6 
#
# 1 0.012803 -0.002676 -0.005930 -0.002134 0.006966 0.000709
# 2 -0.002676 0.011043 -0.004093 0.002728 -0.004370 -0.003132
# 3 -0.005930 -0.004093 0.015554 -0.002573 -0.002322 -0.001722
# 4 -0.002134 0.002728 -0.002573 0.037254 -0.001432 -0.000787
# 5 0.006966 -0.004370 -0.002322 -0.001432 0.044086 0.000428
# 6 0.000709 -0.003132 -0.001722 -0.000787 0.000428 0.028223
#
#
# Mechanical properties :
#
#
# Convention : Reuss Voigt Hill
#
# Bulk Modulus (GPa) = 71.41856 75.57020 73.49438
# Shear Modulus (GPa) = 27.92840 31.28224 29.60532
#
# Velocity S-wave (km/s) = 3.83603 4.05983 3.94952
# Velocity P-wave (km/s) = 7.56636 7.86087 7.71502
#
# Compressibility (1/GPa) = 0.01400196
#
# Stress axis : x y z
#
# Youngs Moduli (GPa) = 78.10668 90.55173 64.29228
#
# Poissons Ratio (x) = 0.24231 0.38128
# Poissons Ratio (y) = 0.20901 0.26314
# Poissons Ratio (z) = 0.46321 0.37061
#
# Static dielectric constant tensor:
#      x y z
#    x 3.118160 0.413070 0.059290 
#    y 0.413070 3.086120 -0.497960 
#    z 0.059290 -0.497960 3.289950 
# 
# 
# High freq. dielectric constant tensor:
#      x y z
#    x 1.747790 -0.006940 -0.012670 
#    y -0.006940 1.745110 -0.017030 
#    z -0.012670 -0.017030 1.719500 
# 
# From -- ./inp_files/332365.got.cif
#   From: 2010.06.25/outbox.cif.g09.slc.cpg/sg2_167_cif.got.tgz:332365.got - 2010.06.27 13:26:56.
