data_PCOD8004803
_publ_section_title
;
Structure prediction by ZEFSAII (Michael W. Deem and Ramdas Pophale) SiO2 
 PCOD8004803
Probable space group: P -1
;
_chemical_formula_sum "Si O2"
_cell_formula_units_Z 14
_cell_length_a 25.210765
_cell_length_b 10.085522
_cell_length_c 9.869630
_cell_angle_alpha 149.990312
_cell_angle_beta 147.026006
_cell_angle_gamma 41.644788
_cell_volume 681.102957
_symmetry_space_group_name_H-M "P -1"
_symmetry_group_IT_number 2
_symmetry_cell_setting 'triclinic'
loop_
_space_group_symop_operation_xyz
x,y,z
-x,-y,-z
loop_
_atom_site_type_symbol
_atom_site_label
_atom_site_fract_x
_atom_site_fract_y
_atom_site_fract_z
Si Si1 0.209885 0.085828 0.947404
Si Si2 0.187539 0.953917 0.078891
Si Si3 0.410883 0.823299 0.497139
Si Si4 0.712306 0.394338 0.480250
Si Si5 0.115709 0.444692 0.856097
Si Si6 0.531582 0.314905 0.205052
Si Si7 0.103234 0.413616 0.494276
O O1 0.124756 0.188398 0.749126
O O2 0.268494 0.819769 0.785766
O O3 0.158772 0.034856 0.935552
O O4 0.287099 0.313401 0.328168
O O5 0.165475 0.208098 0.351820
O O6 0.301279 0.864559 0.247626
O O7 0.125100 0.715717 0.779792
O O8 0.461836 0.579705 0.307660
O O9 0.410216 0.762554 0.601559
O O10 0.467066 0.081482 0.813261
O O11 0.608309 0.359572 0.292001
O O12 0.798421 0.363871 0.752096
O O13 0.130989 0.341334 0.644294
O O14 0.011749 0.610450 0.798403
#
# Coordination Sequence:
#
# PCOD8004803 Si02
#       7
#     2   2   2   2   2   2   2
#     4  10  24  40  63  87 134 160 209 239 314 366
#     4  12  25  43  60  95 128 165 197 263 303 364
#     4  10  22  36  60  90 124 149 207 254 297 373
#     4  10  21  40  64  87 121 168 199 255 297 373
#     4   9  25  41  65  94 123 159 213 255 293 382
#     4  10  20  38  62  90 114 162 200 251 313 349
#     4  11  25  39  68  92 123 162 211 250 314 346
#
# _framework density 20.554897
#
# number of rings (size 3 to 8) (size 9 to 14) (size 15 to 20)
#    0.857    0.857    0.000    3.429    6.000    3.429 
#    0.000    4.286    0.000    0.000    0.000    0.000 
#    0.000    0.000    0.000    0.000    0.000    0.000 
#
# Total GULP energy -173609.847131 kJ/mol
# GULP energy per Si atom -12400.703367 kJ/mol
# Density = 2.050811 g / cm^3
# Si number density = 20.554897 Si / 1000 Ang^3
#
#
#
# Elastic Constant Matrix: (Units=GPa)
#
#
# Indices 1 2 3 4 5 6 
#
# 1 102.1346 47.7765 40.0258 -11.2622 -9.9652 4.8486
# 2 47.7765 64.9887 32.0405 3.8475 -9.7301 10.8460
# 3 40.0258 32.0405 96.6353 29.2149 -6.9981 -5.9355
# 4 -11.2622 3.8475 29.2149 26.9673 -3.1980 -4.5078
# 5 -9.9652 -9.7301 -6.9981 -3.1980 30.1792 -2.4541
# 6 4.8486 10.8460 -5.9355 -4.5078 -2.4541 31.9567
#
#
#
# Elastic Compliance Matrix: (Units=1/GPa)
#
#
# Indices 1 2 3 4 5 6 
#
# 1 0.024595 -0.012557 -0.014130 0.028207 0.003963 0.002189
# 2 -0.012557 0.027948 -0.001886 -0.008340 0.002820 -0.008890
# 3 -0.014130 -0.001886 0.027466 -0.035216 -0.002415 0.002732
# 4 0.028207 -0.008340 -0.035216 0.090101 0.008443 0.005368
# 5 0.003963 0.002820 -0.002415 0.008443 0.035846 0.001937
# 6 0.002189 -0.008890 0.002732 0.005368 0.001937 0.035391
#
#
# Mechanical properties :
#
#
# Convention : Reuss Voigt Hill
#
# Bulk Modulus (GPa) = 43.73767 55.93826 49.83796
# Shear Modulus (GPa) = 16.33380 27.41504 21.87442
#
# Velocity S-wave (km/s) = 2.82200 3.65601 3.26574
# Velocity P-wave (km/s) = 5.65180 6.71529 6.20637
#
# Compressibility (1/GPa) = 0.02286359
#
# Stress axis : x y z
#
# Youngs Moduli (GPa) = 40.65815 35.78074 36.40918
#
# Poissons Ratio (x) = 0.44929 0.51446
# Poissons Ratio (y) = 0.51054 0.06867
# Poissons Ratio (z) = 0.57449 0.06748
#
# Static dielectric constant tensor:
#      x y z
#    x 3.635320 0.083200 0.018240 
#    y 0.083200 3.605070 0.078090 
#    z 0.018240 0.078090 3.650180 
# 
# 
# High freq. dielectric constant tensor:
#      x y z
#    x 1.806890 -0.000200 -0.001150 
#    y -0.000200 1.799350 0.008920 
#    z -0.001150 0.008920 1.807200 
# 
# From -- ./inp_files/351941.got.cif
#   From: 2010.06.25/outbox.cif.g09.slc.cpg/sg2_176_cif.got.tgz:351941.got - 2010.06.27 13:26:56.
