data_PCOD8004293
_publ_section_title
;
Structure prediction by ZEFSAII (Michael W. Deem and Ramdas Pophale) SiO2 
 PCOD8004293
Probable space group: P -1
;
_chemical_formula_sum "Si O2"
_cell_formula_units_Z 14
_cell_length_a 11.325186
_cell_length_b 19.121802
_cell_length_c 12.137342
_cell_angle_alpha 139.375767
_cell_angle_beta 125.832970
_cell_angle_gamma 23.944859
_cell_volume 633.616950
_symmetry_space_group_name_H-M "P -1"
_symmetry_group_IT_number 2
_symmetry_cell_setting 'triclinic'
loop_
_space_group_symop_operation_xyz
x,y,z
-x,-y,-z
loop_
_atom_site_type_symbol
_atom_site_label
_atom_site_fract_x
_atom_site_fract_y
_atom_site_fract_z
Si Si1 0.512617 0.330153 0.090269
Si Si2 0.513237 0.098795 0.057320
Si Si3 0.857378 0.458711 0.077735
Si Si4 0.888130 0.940038 0.250227
Si Si5 0.240662 0.931077 0.418600
Si Si6 0.182760 0.647285 0.470984
Si Si7 0.025118 0.160552 0.191932
O O1 0.302838 0.464441 0.249542
O O2 0.684539 0.334524 0.173239
O O3 0.269102 0.466730 0.024805
O O4 0.778919 0.065910 0.920631
O O5 0.164560 0.336688 0.096505
O O6 0.599983 0.137185 0.237845
O O7 0.500000 0.000000 0.000000
O O8 0.787521 0.906305 0.884211
O O9 0.607915 0.681537 0.287112
O O10 0.927838 0.290866 0.956236
O O11 0.763301 0.016525 0.398613
O O12 0.108856 0.897117 0.302011
O O13 0.045152 0.133526 0.470548
O O14 0.500000 0.500000 0.500000
O O15 0.014343 0.730659 0.596091
#
# Coordination Sequence:
#
# PCOD8004293 Si02
#       7
#     2   2   2   2   2   2   2
#     4  10  20  37  67  94 119 154 206 266 307 356
#     4  10  24  43  61  87 130 171 203 245 307 381
#     4  11  21  40  62  89 127 164 205 248 310 367
#     4  10  23  40  61  90 127 161 213 253 304 362
#     4  11  21  39  66  94 120 161 209 265 301 357
#     4  10  21  37  62  97 121 148 205 264 313 353
#     4  10  21  40  64  89 123 160 205 259 310 357
#
# _framework density 22.095368000000001
#
# number of rings (size 3 to 8) (size 9 to 14) (size 15 to 20)
#    0.000    1.714    2.857    1.286    4.000    2.286 
#    5.143    3.571    0.000    0.000    0.000    0.000 
#    0.000    0.000    0.000    0.000    0.000    0.000 
#
# Total GULP energy -173491.878128 kJ/mol
# GULP energy per Si atom -12392.277009 kJ/mol
# Density = 2.204508 g / cm^3
# Si number density = 22.095368 Si / 1000 Ang^3
#
#
#
# Elastic Constant Matrix: (Units=GPa)
#
#
# Indices 1 2 3 4 5 6 
#
# 1 52.4708 27.8002 5.8442 -14.5817 -37.8266 -22.9458
# 2 27.8002 147.9919 57.5385 -18.8075 -25.6331 -3.4572
# 3 5.8442 57.5385 87.7099 -3.0500 -43.5838 -26.2548
# 4 -14.5817 -18.8075 -3.0500 28.0878 9.0228 -9.0796
# 5 -37.8266 -25.6331 -43.5838 9.0228 43.0555 1.5774
# 6 -22.9458 -3.4572 -26.2548 -9.0796 1.5774 11.6564
#
#
#
# Elastic Compliance Matrix: (Units=1/GPa)
#
#
# Indices 1 2 3 4 5 6 
#
# 1 0.002748 0.001954 -0.012259 -0.003992 -0.007126 -0.023770
# 2 0.001954 0.009059 -0.002895 0.007924 0.002303 0.005873
# 3 -0.012259 -0.002895 0.007232 -0.012938 -0.001783 -0.018539
# 4 -0.003992 0.007924 -0.012938 0.045584 -0.021577 0.003779
# 5 -0.007126 0.002303 -0.001783 -0.021577 0.022417 -0.037200
# 6 -0.023770 0.005873 -0.018539 0.003779 -0.037200 0.006961
#
#
# Mechanical properties :
#
#
# Convention : Reuss Voigt Hill
#
# Bulk Modulus (GPa) = -135.80828 52.28203 -41.76312
# Shear Modulus (GPa) = 42.39157 29.69258 36.04208
#
# Velocity S-wave (km/s) = 4.38490 3.66982 4.04320
# Velocity P-wave (km/s) = 5.99679 6.45524 1.68946
#
# Compressibility (1/GPa) = -0.00736332
#
# Stress axis : x y z
#
# Youngs Moduli (GPa) = 363.95581 110.38936 138.27422
#
# Poissons Ratio (x) = -0.21565 1.69517
# Poissons Ratio (y) = -0.71100 0.40029
# Poissons Ratio (z) = 4.46191 0.31957
#
# Static dielectric constant tensor:
#      x y z
#    x 3.760760 -0.085620 -0.457250 
#    y -0.085620 4.803470 -0.124040 
#    z -0.457250 -0.124040 4.828130 
# 
# 
# High freq. dielectric constant tensor:
#      x y z
#    x 1.841320 0.009020 -0.020590 
#    y 0.009020 1.883270 -0.007790 
#    z -0.020590 -0.007790 1.877190 
# 
# From -- ./inp_files/246513.got.cif
#   From: 2010.06.25/outbox.cif.g09.slc.cpg/sg2_124_cif.got.tgz:246513.got - 2010.06.27 13:26:56.
