data_PCOD8004560
_publ_section_title
;
Structure prediction by ZEFSAII (Michael W. Deem and Ramdas Pophale) SiO2 
 PCOD8004560
Probable space group: P -1
;
_chemical_formula_sum "Si O2"
_cell_formula_units_Z 16
_cell_length_a 7.070485
_cell_length_b 22.290898
_cell_length_c 14.867768
_cell_angle_alpha 30.710784
_cell_angle_beta 55.157462
_cell_angle_gamma 76.217731
_cell_volume 783.135429
_symmetry_space_group_name_H-M "P -1"
_symmetry_group_IT_number 2
_symmetry_cell_setting 'triclinic'
loop_
_space_group_symop_operation_xyz
x,y,z
-x,-y,-z
loop_
_atom_site_type_symbol
_atom_site_label
_atom_site_fract_x
_atom_site_fract_y
_atom_site_fract_z
Si Si1 0.352925 0.704112 0.080395
Si Si2 0.792829 0.018782 0.587145
Si Si3 0.282332 0.538740 0.490721
Si Si4 0.723316 0.405008 0.384966
Si Si5 0.720540 0.921377 0.115194
Si Si6 0.206253 0.338720 0.051081
Si Si7 0.785789 0.061662 0.735716
Si Si8 0.815908 0.603879 0.816934
O O1 0.383478 0.654109 0.234487
O O2 0.549142 0.687692 0.979748
O O3 0.028342 0.613066 0.251559
O O4 0.469266 0.875306 0.834752
O O5 0.841716 0.016848 0.683113
O O6 0.000000 0.000000 0.500000
O O7 0.885847 0.181060 0.325841
O O8 0.500000 0.500000 0.500000
O O9 0.261261 0.614595 0.487135
O O10 0.449255 0.254712 0.608805
O O11 0.705268 0.540484 0.204565
O O12 0.013945 0.454949 0.192194
O O13 0.523351 0.967334 0.145566
O O14 0.805444 0.970391 0.925495
O O15 0.000000 0.000000 0.000000
O O16 0.196060 0.406112 0.059714
O O17 0.035335 0.231873 0.470427
O O18 0.500000 0.500000 0.000000
#
# Coordination Sequence:
#
# PCOD8004560 Si02
#       8
#     2   2   2   2   2   2   2   2
#     4  10  21  39  64  85 117 158 195 235 297 343
#     4   9  19  38  64  82 117 160 191 239 291 342
#     4  11  22  38  60  89 117 151 196 245 285 343
#     4  11  22  38  59  88 120 147 199 245 287 348
#     4  10  22  38  61  88 115 153 192 244 295 342
#     4  10  20  38  60  86 117 153 194 241 289 347
#     4   9  20  40  58  87 117 147 199 239 287 350
#     4  10  21  36  60  82 115 158 190 237 294 343
#
# _framework density 20.430693000000002
#
# number of rings (size 3 to 8) (size 9 to 14) (size 15 to 20)
#    0.000    2.000    1.250    1.875    1.750    1.000 
#    2.250    0.625    2.750    0.000    0.000    0.000 
#    0.000    0.000    0.000    0.000    0.000    0.000 
#
# Total GULP energy -198352.908888 kJ/mol
# GULP energy per Si atom -12397.056806 kJ/mol
# Density = 2.038419 g / cm^3
# Si number density = 20.430693 Si / 1000 Ang^3
#
#
#
# Elastic Constant Matrix: (Units=GPa)
#
#
# Indices 1 2 3 4 5 6 
#
# 1 100.8180 39.6840 58.1721 -8.1283 -16.4253 5.6799
# 2 39.6840 118.3430 32.7661 9.1708 -2.6744 13.6089
# 3 58.1721 32.7661 124.5596 -14.2519 -13.4102 3.9021
# 4 -8.1283 9.1708 -14.2519 41.2522 6.3059 1.9587
# 5 -16.4253 -2.6744 -13.4102 6.3059 35.2007 -0.9225
# 6 5.6799 13.6089 3.9021 1.9587 -0.9225 21.0897
#
#
#
# Elastic Compliance Matrix: (Units=1/GPa)
#
#
# Indices 1 2 3 4 5 6 
#
# 1 0.015436 -0.003522 -0.005629 0.001220 0.004552 -0.000757
# 2 -0.003522 0.010923 -0.001528 -0.003239 -0.000961 -0.005558
# 3 -0.005629 -0.001528 0.011521 0.003035 0.001106 0.000137
# 4 0.001220 -0.003239 0.003035 0.026833 -0.003365 -0.001439
# 5 0.004552 -0.000961 0.001106 -0.003365 0.031507 0.000880
# 6 -0.000757 -0.005558 0.000137 -0.001439 0.000880 0.051354
#
#
# Mechanical properties :
#
#
# Convention : Reuss Voigt Hill
#
# Bulk Modulus (GPa) = 60.52956 67.21833 63.87395
# Shear Modulus (GPa) = 28.66320 33.71508 31.18914
#
# Velocity S-wave (km/s) = 3.74966 4.06669 3.91139
# Velocity P-wave (km/s) = 6.95972 7.41773 7.19237
#
# Compressibility (1/GPa) = 0.01652085
#
# Stress axis : x y z
#
# Youngs Moduli (GPa) = 64.78429 91.55209 86.79561
#
# Poissons Ratio (x) = 0.32246 0.48857
# Poissons Ratio (y) = 0.22818 0.13266
# Poissons Ratio (z) = 0.36467 0.13993
#
# Static dielectric constant tensor:
#      x y z
#    x 3.279580 0.118450 -0.040270 
#    y 0.118450 3.789630 -0.036670 
#    z -0.040270 -0.036670 4.366140 
# 
# 
# High freq. dielectric constant tensor:
#      x y z
#    x 1.756100 0.010290 -0.001340 
#    y 0.010290 1.815260 0.005110 
#    z -0.001340 0.005110 1.822280 
# 
# From -- ./inp_files/365242.got.cif
#   From: 2010.06.25/outbox.cif.g09.slc.cpg/sg2_183_cif.got.tgz:365242.got - 2010.06.27 13:26:56.
