data_PCOD8004055
_publ_section_title
;
Structure prediction by ZEFSAII (Michael W. Deem and Ramdas Pophale) SiO2 
 PCOD8004055
Probable space group: P -1
;
_chemical_formula_sum "Si O2"
_cell_formula_units_Z 16
_cell_length_a 11.772957
_cell_length_b 12.140508
_cell_length_c 9.082245
_cell_angle_alpha 63.817507
_cell_angle_beta 132.893075
_cell_angle_gamma 122.956480
_cell_volume 792.664744
_symmetry_space_group_name_H-M "P -1"
_symmetry_group_IT_number 2
_symmetry_cell_setting 'triclinic'
loop_
_space_group_symop_operation_xyz
x,y,z
-x,-y,-z
loop_
_atom_site_type_symbol
_atom_site_label
_atom_site_fract_x
_atom_site_fract_y
_atom_site_fract_z
Si Si1 0.226837 0.121041 0.541019
Si Si2 0.891082 0.139513 0.100629
Si Si3 0.148313 0.584707 0.681825
Si Si4 0.502529 0.372056 0.153506
Si Si5 0.607701 0.622147 0.617197
Si Si6 0.723686 0.140599 0.245930
Si Si7 0.349447 0.127992 0.970616
Si Si8 0.069020 0.417068 0.002033
O O1 0.374272 0.239500 0.522124
O O2 0.260097 0.145355 0.730527
O O3 0.045675 0.119433 0.334294
O O4 0.244664 0.985028 0.584720
O O5 0.762962 0.154178 0.099920
O O6 0.936496 0.265534 0.956355
O O7 0.779813 0.007603 0.989651
O O8 0.312954 0.624242 0.706055
O O9 0.144223 0.725680 0.643312
O O10 0.000000 0.500000 0.500000
O O11 0.138762 0.492108 0.868124
O O12 0.465815 0.376614 0.288623
O O13 0.500000 0.500000 0.000000
O O14 0.365252 0.244844 0.029616
O O15 0.500000 0.500000 0.500000
O O16 0.782159 0.605520 0.772479
O O17 0.531836 0.124779 0.103609
O O18 0.000000 0.500000 0.000000
#
# Coordination Sequence:
#
# PCOD8004055 Si02
#       8
#     2   2   2   2   2   2   2   2
#     4  10  21  37  61  93 120 159 211 246 304 371
#     4  10  20  37  63  92 121 161 204 253 302 365
#     4  11  25  42  61  94 125 167 204 253 318 361
#     4  11  23  43  63  88 128 160 206 257 311 369
#     4  11  25  41  65  93 121 165 209 257 307 369
#     4  10  20  38  61  89 123 159 207 246 303 367
#     4  10  21  38  62  90 122 163 200 254 310 360
#     4  11  23  42  64  93 125 158 213 254 302 373
#
# _framework density 20.185078000000001
#
# number of rings (size 3 to 8) (size 9 to 14) (size 15 to 20)
#    0.000    1.500    2.500    3.750    3.500    3.000 
#    2.250    2.500    0.000    0.000    0.000    0.000 
#    0.000    0.000    0.000    0.000    0.000    0.000 
#
# Total GULP energy -198281.997606 kJ/mol
# GULP energy per Si atom -12392.624850 kJ/mol
# Density = 2.013914 g / cm^3
# Si number density = 20.185078 Si / 1000 Ang^3
#
#
#
# Elastic Constant Matrix: (Units=GPa)
#
#
# Indices 1 2 3 4 5 6 
#
# 1 87.3000 57.1591 20.7463 0.4764 -11.0043 2.7311
# 2 57.1591 225.6572 63.0310 13.0118 -14.0312 8.1059
# 3 20.7463 63.0310 57.9492 9.1970 -4.5612 -1.7003
# 4 0.4764 13.0118 9.1970 42.2032 1.6495 -1.2757
# 5 -11.0043 -14.0312 -4.5612 1.6495 26.8003 0.7912
# 6 2.7311 8.1059 -1.7003 -1.2757 0.7912 35.4253
#
#
#
# Elastic Compliance Matrix: (Units=1/GPa)
#
#
# Indices 1 2 3 4 5 6 
#
# 1 0.014304 -0.002900 -0.001820 0.000955 0.004003 -0.000582
# 2 -0.002900 0.007227 -0.006613 -0.000870 0.001574 -0.001814
# 3 -0.001820 -0.006613 0.025759 -0.003483 0.000307 0.002758
# 4 0.000955 -0.000870 -0.003483 0.024825 -0.002211 0.000902
# 5 0.004003 0.001574 0.000307 -0.002211 0.040018 -0.001628
# 6 -0.000582 -0.001814 0.002758 0.000902 -0.001628 0.028889
#
#
# Mechanical properties :
#
#
# Convention : Reuss Voigt Hill
#
# Bulk Modulus (GPa) = 40.61290 72.53102 56.57196
# Shear Modulus (GPa) = 29.08748 36.21711 32.65229
#
# Velocity S-wave (km/s) = 3.80022 4.24046 4.02636
# Velocity P-wave (km/s) = 6.27849 7.74508 7.05003
#
# Compressibility (1/GPa) = 0.02462272
#
# Stress axis : x y z
#
# Youngs Moduli (GPa) = 69.91219 138.37938 38.82135
#
# Poissons Ratio (x) = 0.40130 0.07066
# Poissons Ratio (y) = 0.20274 0.25673
# Poissons Ratio (z) = 0.12725 0.91513
#
# Static dielectric constant tensor:
#      x y z
#    x 3.724520 0.005380 0.121900 
#    y 0.005380 3.531230 0.201610 
#    z 0.121900 0.201610 3.417120 
# 
# 
# High freq. dielectric constant tensor:
#      x y z
#    x 1.787870 0.009500 0.012700 
#    y 0.009500 1.821480 -0.000940 
#    z 0.012700 -0.000940 1.767130 
# 
# From -- ./inp_files/185939.got.cif
#   From: 2010.06.25/outbox.cif.g09.slc.cpg/sg2_93_cif.got.tgz:185939.got - 2010.06.27 13:26:56.
