data_PCOD8004939
_publ_section_title
;
Structure prediction by ZEFSAII (Michael W. Deem and Ramdas Pophale) SiO2 
 PCOD8004939
Probable space group: P -1
;
_chemical_formula_sum "Si O2"
_cell_formula_units_Z 14
_cell_length_a 9.574293
_cell_length_b 10.131691
_cell_length_c 8.170359
_cell_angle_alpha 45.027164
_cell_angle_beta 111.445933
_cell_angle_gamma 116.169811
_cell_volume 501.394153
_symmetry_space_group_name_H-M "P -1"
_symmetry_group_IT_number 2
_symmetry_cell_setting 'triclinic'
loop_
_space_group_symop_operation_xyz
x,y,z
-x,-y,-z
loop_
_atom_site_type_symbol
_atom_site_label
_atom_site_fract_x
_atom_site_fract_y
_atom_site_fract_z
Si Si1 0.479944 0.787004 0.886870
Si Si2 0.974767 0.667952 0.077467
Si Si3 0.276657 0.915047 0.448669
Si Si4 0.297098 0.435266 0.733993
Si Si5 0.302569 0.596279 0.268144
Si Si6 0.948474 0.900203 0.246349
Si Si7 0.808253 0.786797 0.613535
O O1 0.345922 0.758182 0.713124
O O2 0.606279 0.995211 0.730239
O O3 0.563196 0.612876 0.062536
O O4 0.402862 0.778151 0.044152
O O5 0.831765 0.516387 0.244061
O O6 0.120568 0.583303 0.211625
O O7 0.923096 0.695456 0.848553
O O8 0.011752 0.879351 0.005978
O O9 0.103581 0.821046 0.385150
O O10 0.281164 0.094739 0.415753
O O11 0.361271 0.603236 0.476999
O O12 0.207019 0.240895 0.768458
O O13 0.316067 0.398484 0.360282
O O14 0.910264 0.929461 0.395652
#
# Coordination Sequence:
#
# PCOD8004939 Si02
#       7
#     2   2   2   2   2   2   2
#     4  11  22  41  63  91 128 159 200 254 310 362
#     4  11  20  39  63  92 121 162 210 251 295 363
#     4  10  21  39  67  92 119 158 210 255 302 354
#     4  11  23  41  64  92 127 158 203 253 310 359
#     4  11  24  38  60  90 130 165 198 243 313 368
#     4  10  20  38  68  91 119 157 209 259 298 354
#     4  10  20  38  63  92 120 161 209 252 295 361
#
# _framework density 27.922143999999999
#
# number of rings (size 3 to 8) (size 9 to 14) (size 15 to 20)
#    0.000    1.429    2.857    5.143    0.000    1.714 
#    0.000    7.857    0.000    0.000    0.000    0.000 
#    0.000    0.000    0.000    0.000    0.000    0.000 
#
# Total GULP energy -173532.936702 kJ/mol
# GULP energy per Si atom -12395.209764 kJ/mol
# Density = 2.785859 g / cm^3
# Si number density = 27.922144 Si / 1000 Ang^3
#
#
#
# Elastic Constant Matrix: (Units=GPa)
#
#
# Indices 1 2 3 4 5 6 
#
# 1 156.8186 13.2725 80.6222 11.7592 -0.7096 -13.4420
# 2 13.2725 31.8601 3.4955 -9.2621 6.3942 1.4542
# 3 80.6222 3.4955 190.0962 23.1707 -13.2638 -6.6256
# 4 11.7592 -9.2621 23.1707 22.9667 -5.0096 5.1000
# 5 -0.7096 6.3942 -13.2638 -5.0096 61.1501 0.5173
# 6 -13.4420 1.4542 -6.6256 5.1000 0.5173 21.5489
#
#
#
# Elastic Compliance Matrix: (Units=1/GPa)
#
#
# Indices 1 2 3 4 5 6 
#
# 1 0.009347 -0.005363 -0.003001 -0.005488 -0.000487 0.006580
# 2 -0.005363 0.041900 -0.002028 0.023818 -0.002827 -0.012365
# 3 -0.003001 -0.002028 0.007613 -0.007202 0.001219 0.002281
# 4 -0.005488 0.023818 -0.007202 0.068834 0.001722 -0.023577
# 5 -0.000487 -0.002827 0.001219 0.001722 0.017053 -0.000555
# 6 0.006580 -0.012365 0.002281 -0.023577 -0.000555 0.057640
#
#
# Mechanical properties :
#
#
# Convention : Reuss Voigt Hill
#
# Bulk Modulus (GPa) = 26.26258 63.72838 44.99548
# Shear Modulus (GPa) = 21.19888 39.89212 30.54550
#
# Velocity S-wave (km/s) = 2.75837 3.78390 3.31108
# Velocity P-wave (km/s) = 4.42390 6.47794 5.54683
#
# Compressibility (1/GPa) = 0.03807699
#
# Stress axis : x y z
#
# Youngs Moduli (GPa) = 106.98623 23.86657 131.35263
#
# Poissons Ratio (x) = 0.12799 0.39423
# Poissons Ratio (y) = 0.57372 0.26632
# Poissons Ratio (z) = 0.32110 0.04839
#
# Static dielectric constant tensor:
#      x y z
#    x 5.047160 -0.121580 -0.337160 
#    y -0.121580 4.675140 0.403130 
#    z -0.337160 0.403130 5.671080 
# 
# 
# High freq. dielectric constant tensor:
#      x y z
#    x 2.134160 0.000740 -0.015860 
#    y 0.000740 2.099830 0.018520 
#    z -0.015860 0.018520 2.148190 
# 
# From -- ./inp_files/177735.got.cif
#   From: 2010.06.25/outbox.cif.g09.slc.cpg/sg2_89_cif.got.tgz:177735.got - 2010.06.27 13:26:56.
