data_PCOD8004984
_publ_section_title
;
Structure prediction by ZEFSAII (Michael W. Deem and Ramdas Pophale) SiO2 
 PCOD8004984
Probable space group: P -1
;
_chemical_formula_sum "Si O2"
_cell_formula_units_Z 14
_cell_length_a 10.373608
_cell_length_b 10.032392
_cell_length_c 10.964514
_cell_angle_alpha 74.587522
_cell_angle_beta 76.618569
_cell_angle_gamma 39.003526
_cell_volume 691.761392
_symmetry_space_group_name_H-M "P -1"
_symmetry_group_IT_number 2
_symmetry_cell_setting 'triclinic'
loop_
_space_group_symop_operation_xyz
x,y,z
-x,-y,-z
loop_
_atom_site_type_symbol
_atom_site_label
_atom_site_fract_x
_atom_site_fract_y
_atom_site_fract_z
Si Si1 0.292241 0.841817 0.925645
Si Si2 0.310756 0.125465 0.819123
Si Si3 0.062042 0.520056 0.606995
Si Si4 0.640826 0.491467 0.125363
Si Si5 0.716592 0.955524 0.712508
Si Si6 0.070783 0.193881 0.054019
Si Si7 0.560904 0.594390 0.401889
O O1 0.280151 0.728894 0.858839
O O2 0.352341 0.933218 0.814669
O O3 0.456544 0.678214 0.034442
O O4 0.085351 0.045278 0.998524
O O5 0.524979 0.032250 0.798429
O O6 0.150463 0.327418 0.716912
O O7 0.207541 0.205989 0.957975
O O8 0.000000 0.500000 0.500000
O O9 0.231156 0.508257 0.559408
O O10 0.851449 0.746584 0.652221
O O11 0.586451 0.554227 0.261884
O O12 0.835892 0.430818 0.060853
O O13 0.629160 0.148755 0.599853
O O14 0.851218 0.908537 0.804087
O O15 0.500000 0.500000 0.500000
#
# Coordination Sequence:
#
# PCOD8004984 Si02
#       7
#     2   2   2   2   2   2   2
#     4   9  22  37  61  98 130 160 199 260 318 375
#     4   9  23  38  64  96 123 165 203 254 325 372
#     4  11  26  46  64  92 124 170 220 262 305 373
#     4  11  20  40  64  94 133 162 205 258 312 378
#     4  11  22  43  65  90 129 156 210 267 309 380
#     4  10  20  38  63  96 125 160 202 252 319 377
#     4  11  25  45  65  93 125 174 212 258 316 369
#
# _framework density 20.238191
#
# number of rings (size 3 to 8) (size 9 to 14) (size 15 to 20)
#    0.857    0.857    2.857    0.857    2.000    5.714 
#    5.143    0.000    0.000    0.000    0.000    0.000 
#    0.000    0.000    0.000    0.000    0.000    0.000 
#
# Total GULP energy -173463.553539 kJ/mol
# GULP energy per Si atom -12390.253824 kJ/mol
# Density = 2.019213 g / cm^3
# Si number density = 20.238191 Si / 1000 Ang^3
#
#
#
# Elastic Constant Matrix: (Units=GPa)
#
#
# Indices 1 2 3 4 5 6 
#
# 1 70.4305 16.7930 47.3120 2.0401 0.2676 7.7106
# 2 16.7930 79.1511 48.4353 5.4446 0.4978 11.6448
# 3 47.3120 48.4353 80.0046 0.3886 -0.6601 2.2728
# 4 2.0401 5.4446 0.3886 28.7909 8.8912 -3.9710
# 5 0.2676 0.4978 -0.6601 8.8912 37.6841 -1.3408
# 6 7.7106 11.6448 2.2728 -3.9710 -1.3408 35.5139
#
#
#
# Elastic Compliance Matrix: (Units=1/GPa)
#
#
# Indices 1 2 3 4 5 6 
#
# 1 0.027318 0.008578 -0.021102 -0.004384 0.000077 -0.007881
# 2 0.008578 0.024714 -0.019732 -0.006453 0.000455 -0.009408
# 3 -0.021102 -0.019732 0.036628 0.006038 -0.000039 0.009381
# 4 -0.004384 -0.006453 0.006038 0.039884 -0.008946 0.006803
# 5 0.000077 0.000455 -0.000039 -0.008946 0.028637 -0.000082
# 6 -0.007881 -0.009408 0.009381 0.006803 -0.000082 0.033111
#
#
# Mechanical properties :
#
#
# Convention : Reuss Voigt Hill
#
# Bulk Modulus (GPa) = 41.41308 50.51854 45.96581
# Shear Modulus (GPa) = 19.02192 28.20085 23.61139
#
# Velocity S-wave (km/s) = 3.06911 3.73694 3.41937
# Velocity P-wave (km/s) = 5.75035 6.60574 6.19283
#
# Compressibility (1/GPa) = 0.02414696
#
# Stress axis : x y z
#
# Youngs Moduli (GPa) = 36.60576 40.46263 27.30127
#
# Poissons Ratio (x) = -0.34708 0.57612
# Poissons Ratio (y) = -0.31399 0.53872
# Poissons Ratio (z) = 0.77246 0.79842
#
# Static dielectric constant tensor:
#      x y z
#    x 3.671440 0.009280 -0.034670 
#    y 0.009280 4.093120 -0.022710 
#    z -0.034670 -0.022710 3.447060 
# 
# 
# High freq. dielectric constant tensor:
#      x y z
#    x 1.789000 -0.003340 0.002460 
#    y -0.003340 1.810810 0.001020 
#    z 0.002460 0.001020 1.769440 
# 
# From -- ./inp_files/381944.got.cif
#   From: 2010.06.25/outbox.cif.g09.slc.cpg/sg2_191_cif.got.tgz:381944.got - 2010.06.27 13:26:56.
