data_PCOD8004474
_publ_section_title
;
Structure prediction by ZEFSAII (Michael W. Deem and Ramdas Pophale) SiO2 
 PCOD8004474
Probable space group: P -1
;
_chemical_formula_sum "Si O2"
_cell_formula_units_Z 16
_cell_length_a 19.911965
_cell_length_b 9.888349
_cell_length_c 8.812422
_cell_angle_alpha 149.812928
_cell_angle_beta 102.635194
_cell_angle_gamma 72.410792
_cell_volume 828.408245
_symmetry_space_group_name_H-M "P -1"
_symmetry_group_IT_number 2
_symmetry_cell_setting 'triclinic'
loop_
_space_group_symop_operation_xyz
x,y,z
-x,-y,-z
loop_
_atom_site_type_symbol
_atom_site_label
_atom_site_fract_x
_atom_site_fract_y
_atom_site_fract_z
Si Si1 0.914938 0.462747 0.219847
Si Si2 0.344012 0.153162 0.285518
Si Si3 0.097757 0.789203 0.739335
Si Si4 0.818606 0.759602 0.688488
Si Si5 0.404340 0.581405 0.903239
Si Si6 0.021354 0.057221 0.399701
Si Si7 0.436783 0.618194 0.289948
Si Si8 0.573868 0.899197 0.023313
O O1 0.950081 0.306846 0.242498
O O2 0.838422 0.646001 0.413778
O O3 0.959261 0.650632 0.336749
O O4 0.913335 0.202888 0.858465
O O5 0.264228 0.120905 0.221004
O O6 0.349964 0.415283 0.645150
O O7 0.364472 0.189288 0.156295
O O8 0.395448 0.876734 0.106232
O O9 0.153275 0.502231 0.437119
O O10 0.048797 0.942719 0.731356
O O11 0.142889 0.995822 0.025221
O O12 0.482149 0.396029 0.727693
O O13 0.391560 0.632539 0.126536
O O14 0.000000 0.000000 0.500000
O O15 0.407958 0.878310 0.636073
O O16 0.428368 0.359615 0.128748
O O17 0.500000 0.000000 0.000000
#
# Coordination Sequence:
#
# PCOD8004474 Si02
#       8
#     2   2   2   2   2   2   2   2
#     4  10  20  38  59  85 115 152 189 236 274 341
#     4  12  23  38  63  85 113 157 209 238 287 358
#     4  10  20  38  62  82 115 151 194 233 279 334
#     4  10  22  37  63  80 113 158 205 228 270 343
#     4  11  22  37  61  85 116 151 196 245 299 364
#     4  12  22  34  62  96 117 144 184 242 296 330
#     4  11  22  38  57  89 119 147 182 258 324 339
#     4  12  21  37  60  90 117 149 193 260 299 344
#
# _framework density 19.314150000000001
#
# number of rings (size 3 to 8) (size 9 to 14) (size 15 to 20)
#    0.750    0.250    3.750    4.500    0.000    2.000 
#    0.000    0.000   16.500    0.000    0.000    0.000 
#    0.000    0.000    0.000    0.000    0.000    0.000 
#
# Total GULP energy -198256.202420 kJ/mol
# GULP energy per Si atom -12391.012651 kJ/mol
# Density = 1.927019 g / cm^3
# Si number density = 19.314150 Si / 1000 Ang^3
#
#
#
# Elastic Constant Matrix: (Units=GPa)
#
#
# Indices 1 2 3 4 5 6 
#
# 1 76.9844 33.6229 23.8936 -7.0490 0.1761 14.0055
# 2 33.6229 109.7842 44.9177 -4.8011 7.7902 25.0619
# 3 23.8936 44.9177 129.0879 4.2605 10.4314 10.3262
# 4 -7.0490 -4.8011 4.2605 33.0587 7.8644 -2.0362
# 5 0.1761 7.7902 10.4314 7.8644 24.8236 4.7985
# 6 14.0055 25.0619 10.3262 -2.0362 4.7985 18.5614
#
#
#
# Elastic Compliance Matrix: (Units=1/GPa)
#
#
# Indices 1 2 3 4 5 6 
#
# 1 0.016330 -0.002420 -0.001768 0.002297 0.002285 -0.008410
# 2 -0.002420 0.015106 -0.003501 0.001236 -0.000481 -0.016363
# 3 -0.001768 -0.003501 0.009447 -0.001382 -0.002681 0.001348
# 4 0.002297 0.001236 -0.001382 0.034057 -0.011396 0.004049
# 5 0.002285 -0.000481 -0.002681 -0.011396 0.047701 -0.013165
# 6 -0.008410 -0.016363 0.001348 0.004049 -0.013165 0.085411
#
#
# Mechanical properties :
#
#
# Convention : Reuss Voigt Hill
#
# Bulk Modulus (GPa) = 39.20970 57.85833 48.53402
# Shear Modulus (GPa) = 21.55800 29.51691 25.53745
#
# Velocity S-wave (km/s) = 3.34455 3.91353 3.64017
# Velocity P-wave (km/s) = 5.93799 7.10228 6.54607
#
# Compressibility (1/GPa) = 0.02550389
#
# Stress axis : x y z
#
# Youngs Moduli (GPa) = 61.23566 66.19925 105.85604
#
# Poissons Ratio (x) = 0.16018 0.18720
# Poissons Ratio (y) = 0.14817 0.37065
# Poissons Ratio (z) = 0.10829 0.23179
#
# Static dielectric constant tensor:
#      x y z
#    x 3.359820 0.092270 -0.220900 
#    y 0.092270 3.574540 0.100020 
#    z -0.220900 0.100020 3.768870 
# 
# 
# High freq. dielectric constant tensor:
#      x y z
#    x 1.719600 0.018810 -0.004360 
#    y 0.018810 1.743860 0.015860 
#    z -0.004360 0.015860 1.773880 
# 
# From -- ./inp_files/343986.got.cif
#   From: 2010.06.25/outbox.cif.g09.slc.cpg/sg2_172_cif.got.tgz:343986.got - 2010.06.27 13:26:56.
