data_PCOD8004795
_publ_section_title
;
Structure prediction by ZEFSAII (Michael W. Deem and Ramdas Pophale) SiO2 
 PCOD8004795
Probable space group: P -1
;
_chemical_formula_sum "Si O2"
_cell_formula_units_Z 16
_cell_length_a 9.304868
_cell_length_b 19.094020
_cell_length_c 12.433600
_cell_angle_alpha 148.891300
_cell_angle_beta 42.603935
_cell_angle_gamma 129.211306
_cell_volume 772.585712
_symmetry_space_group_name_H-M "P -1"
_symmetry_group_IT_number 2
_symmetry_cell_setting 'triclinic'
loop_
_space_group_symop_operation_xyz
x,y,z
-x,-y,-z
loop_
_atom_site_type_symbol
_atom_site_label
_atom_site_fract_x
_atom_site_fract_y
_atom_site_fract_z
Si Si1 0.976364 0.109283 0.747303
Si Si2 0.137756 0.213428 0.240691
Si Si3 0.379859 0.110216 0.785286
Si Si4 0.926416 0.090845 0.392453
Si Si5 0.344837 0.297758 0.854704
Si Si6 0.161713 0.615226 0.097381
Si Si7 0.602123 0.237901 0.007361
Si Si8 0.233212 0.589157 0.267107
O O1 0.764691 0.196692 0.957331
O O2 0.179925 0.207249 0.759499
O O3 0.959052 0.030552 0.766622
O O4 0.000000 0.000000 0.500000
O O5 0.046169 0.104379 0.231445
O O6 0.982321 0.341105 0.485733
O O7 0.165588 0.144397 0.017741
O O8 0.370513 0.266712 0.223960
O O9 0.407604 0.231717 0.846028
O O10 0.576699 0.114546 0.768674
O O11 0.323012 0.961796 0.566006
O O12 0.939732 0.233409 0.635200
O O13 0.560300 0.319840 0.694642
O O14 0.238646 0.443381 0.128595
O O15 0.325637 0.628964 0.925302
O O16 0.257471 0.570789 0.100085
O O17 0.000000 0.500000 0.000000
#
# Coordination Sequence:
#
# PCOD8004795 Si02
#       8
#     2   2   2   2   2   2   2   2
#     4  11  22  37  58  90 120 153 200 249 298 341
#     4   9  21  38  61  90 120 157 196 241 304 359
#     4   9  20  39  60  89 120 153 203 244 295 355
#     4  10  21  38  61  87 117 161 199 245 299 348
#     4  10  21  38  63  89 117 154 204 253 284 351
#     4  11  21  37  60  86 119 157 203 246 290 355
#     4  10  21  39  60  88 122 157 194 248 298 355
#     4  10  20  38  62  89 118 155 203 243 298 346
#
# _framework density 20.709676000000002
#
# number of rings (size 3 to 8) (size 9 to 14) (size 15 to 20)
#    0.750    1.250    2.500    1.125    0.000    3.500 
#    0.000    5.625    0.000    0.000    0.000    0.000 
#    0.000    0.000    0.000    0.000    0.000    0.000 
#
# Total GULP energy -198256.781688 kJ/mol
# GULP energy per Si atom -12391.048855 kJ/mol
# Density = 2.066254 g / cm^3
# Si number density = 20.709676 Si / 1000 Ang^3
#
#
#
# Elastic Constant Matrix: (Units=GPa)
#
#
# Indices 1 2 3 4 5 6 
#
# 1 91.5752 34.2391 31.5567 14.1104 -17.3163 11.4941
# 2 34.2391 128.5179 41.6247 23.0703 -1.7633 13.8097
# 3 31.5567 41.6247 68.1869 15.9108 -12.6871 5.2085
# 4 14.1104 23.0703 15.9108 23.1693 3.5446 -3.1235
# 5 -17.3163 -1.7633 -12.6871 3.5446 32.4704 3.6267
# 6 11.4941 13.8097 5.2085 -3.1235 3.6267 44.7003
#
#
#
# Elastic Compliance Matrix: (Units=1/GPa)
#
#
# Indices 1 2 3 4 5 6 
#
# 1 0.015867 -0.001204 -0.002566 -0.008698 0.008872 -0.004737
# 2 -0.001204 0.011245 -0.004333 -0.007836 -0.000516 -0.003165
# 3 -0.002566 -0.004333 0.023033 -0.011602 0.008910 -0.002219
# 4 -0.008698 -0.007836 -0.011602 0.068713 -0.018473 0.012310
# 5 0.008872 -0.000516 0.008910 -0.018473 0.041876 -0.007849
# 6 -0.004737 -0.003165 -0.002219 0.012310 -0.007849 0.026323
#
#
# Mechanical properties :
#
#
# Convention : Reuss Voigt Hill
#
# Bulk Modulus (GPa) = 29.46481 55.90234 42.68357
# Shear Modulus (GPa) = 23.30194 32.12530 27.71362
#
# Velocity S-wave (km/s) = 3.35800 3.94283 3.66211
# Velocity P-wave (km/s) = 5.41233 6.91229 6.20778
#
# Compressibility (1/GPa) = 0.03393879
#
# Stress axis : x y z
#
# Youngs Moduli (GPa) = 63.02464 88.93007 43.41641
#
# Poissons Ratio (x) = 0.10707 0.11140
# Poissons Ratio (y) = 0.07588 0.18812
# Poissons Ratio (z) = 0.16171 0.38532
#
# Static dielectric constant tensor:
#      x y z
#    x 4.037170 0.030020 -0.155370 
#    y 0.030020 4.100910 0.021240 
#    z -0.155370 0.021240 3.488040 
# 
# 
# High freq. dielectric constant tensor:
#      x y z
#    x 1.807660 0.005780 -0.007690 
#    y 0.005780 1.832160 0.007700 
#    z -0.007690 0.007700 1.782160 
# 
# From -- ./inp_files/508149.got.cif
#   From: 2010.06.25/outbox.cif.g09.slc.cpg/sg2_255_cif.got.tgz:508149.got - 2010.06.27 13:26:56.
