data_PCOD8004206
_publ_section_title
;
Structure prediction by ZEFSAII (Michael W. Deem and Ramdas Pophale) SiO2 
 PCOD8004206
Probable space group: P -1
;
_chemical_formula_sum "Si O2"
_cell_formula_units_Z 16
_cell_length_a 11.597550
_cell_length_b 12.050512
_cell_length_c 8.827094
_cell_angle_alpha 127.166152
_cell_angle_beta 113.274934
_cell_angle_gamma 39.880578
_cell_volume 624.654333
_symmetry_space_group_name_H-M "P -1"
_symmetry_group_IT_number 2
_symmetry_cell_setting 'triclinic'
loop_
_space_group_symop_operation_xyz
x,y,z
-x,-y,-z
loop_
_atom_site_type_symbol
_atom_site_label
_atom_site_fract_x
_atom_site_fract_y
_atom_site_fract_z
Si Si1 0.730979 0.296913 0.015140
Si Si2 0.862309 0.561086 0.677509
Si Si3 0.673498 0.242748 0.505793
Si Si4 0.404496 0.842979 0.317486
Si Si5 0.317211 0.016884 0.112378
Si Si6 0.797410 0.551733 0.303995
Si Si7 0.609660 0.599055 0.765732
Si Si8 0.111962 0.944849 0.819686
O O1 0.762579 0.432029 0.105149
O O2 0.740500 0.262678 0.174532
O O3 0.564828 0.341948 0.888184
O O4 0.905614 0.071236 0.851757
O O5 0.872962 0.473166 0.449049
O O6 0.805557 0.503525 0.736121
O O7 0.061961 0.467220 0.735494
O O8 0.701895 0.806086 0.790526
O O9 0.694079 0.105850 0.530702
O O10 0.642690 0.420820 0.713607
O O11 0.503558 0.333413 0.390480
O O12 0.852258 0.108994 0.383790
O O13 0.287749 0.024266 0.285507
O O14 0.592875 0.776667 0.385250
O O15 0.510412 0.790868 0.981846
O O16 0.150469 0.075790 0.988997
#
# Coordination Sequence:
#
# PCOD8004206 Si02
#       8
#     2   2   2   2   2   2   2   2
#     4  10  20  37  65  92 126 158 212 258 314 360
#     4  11  22  42  65  89 125 171 216 246 297 387
#     4  10  21  38  64  95 128 155 211 261 314 362
#     4  11  24  39  65  97 128 160 200 272 319 358
#     4  10  22  39  65  93 124 164 209 254 312 371
#     4  11  23  38  63  93 124 166 211 255 304 370
#     4  10  21  39  65  93 120 167 212 257 302 371
#     4   9  19  37  62  94 122 165 206 258 305 371
#
# _framework density 25.614167999999999
#
# number of rings (size 3 to 8) (size 9 to 14) (size 15 to 20)
#    0.000    1.750    2.500    1.500    7.000    1.000 
#    0.000    0.625    0.000    0.000    0.000    0.000 
#    0.000    0.000    0.000    0.000    0.000    0.000 
#
# Total GULP energy -198248.939288 kJ/mol
# GULP energy per Si atom -12390.558706 kJ/mol
# Density = 2.555587 g / cm^3
# Si number density = 25.614168 Si / 1000 Ang^3
#
#
#
# Elastic Constant Matrix: (Units=GPa)
#
#
# Indices 1 2 3 4 5 6 
#
# 1 139.8680 23.4606 28.0832 -5.6272 -5.4181 -6.9950
# 2 23.4606 18.1523 8.8470 -1.3443 -5.6485 8.7853
# 3 28.0832 8.8470 65.6438 -5.8921 -7.6237 -6.3492
# 4 -5.6272 -1.3443 -5.8921 23.5054 2.5765 0.5749
# 5 -5.4181 -5.6485 -7.6237 2.5765 47.9460 -5.0238
# 6 -6.9950 8.7853 -6.3492 0.5749 -5.0238 31.7964
#
#
#
# Elastic Compliance Matrix: (Units=1/GPa)
#
#
# Indices 1 2 3 4 5 6 
#
# 1 0.010477 -0.015766 -0.001697 0.001066 -0.000346 0.006248
# 2 -0.015766 0.096213 -0.008667 -0.000228 0.004939 -0.030998
# 3 -0.001697 -0.008667 0.018246 0.003292 0.002134 0.005942
# 4 0.001066 -0.000228 0.003292 0.043805 -0.001749 -0.000113
# 5 -0.000346 0.004939 0.002134 -0.001749 0.022096 0.002508
# 6 0.006248 -0.030998 0.005942 -0.000113 0.002508 0.042974
#
#
# Mechanical properties :
#
#
# Convention : Reuss Voigt Hill
#
# Bulk Modulus (GPa) = 13.75993 38.27174 26.01583
# Shear Modulus (GPa) = 16.11361 31.53444 23.82402
#
# Velocity S-wave (km/s) = 2.51089 3.51256 3.05308
# Velocity P-wave (km/s) = 3.71345 5.60578 4.75471
#
# Compressibility (1/GPa) = 0.07267479
#
# Stress axis : x y z
#
# Youngs Moduli (GPa) = 95.44814 10.39365 54.80615
#
# Poissons Ratio (x) = 0.16387 0.09303
# Poissons Ratio (y) = 1.50484 0.47500
# Poissons Ratio (z) = 0.16202 0.09008
#
# Static dielectric constant tensor:
#      x y z
#    x 4.735100 -0.137520 0.061500 
#    y -0.137520 4.209390 -0.005490 
#    z 0.061500 -0.005490 4.507640 
# 
# 
# High freq. dielectric constant tensor:
#      x y z
#    x 2.037180 -0.007250 0.004670 
#    y -0.007250 1.985060 0.002560 
#    z 0.004670 0.002560 2.012580 
# 
# From -- ./inp_files/263116.got.cif
#   From: 2010.06.25/outbox.cif.g09.slc.cpg/sg2_132_cif.got.tgz:263116.got - 2010.06.27 13:26:56.
