data_PCOD8004624
_publ_section_title
;
Structure prediction by ZEFSAII (Michael W. Deem and Ramdas Pophale) SiO2 
 PCOD8004624
Probable space group: P -1
;
_chemical_formula_sum "Si O2"
_cell_formula_units_Z 16
_cell_length_a 16.395927
_cell_length_b 12.517376
_cell_length_c 9.178633
_cell_angle_alpha 136.877905
_cell_angle_beta 134.661896
_cell_angle_gamma 36.861198
_cell_volume 739.232336
_symmetry_space_group_name_H-M "P -1"
_symmetry_group_IT_number 2
_symmetry_cell_setting 'triclinic'
loop_
_space_group_symop_operation_xyz
x,y,z
-x,-y,-z
loop_
_atom_site_type_symbol
_atom_site_label
_atom_site_fract_x
_atom_site_fract_y
_atom_site_fract_z
Si Si1 0.853053 0.436767 0.682626
Si Si2 0.842315 0.461474 0.355161
Si Si3 0.548114 0.123076 0.497224
Si Si4 0.164469 0.223391 0.846653
Si Si5 0.576836 0.586487 0.616027
Si Si6 0.847941 0.775046 0.505368
Si Si7 0.549578 0.120111 0.015175
Si Si8 0.545221 0.622197 0.104183
O O1 0.807803 0.478520 0.499560
O O2 0.742824 0.418534 0.618973
O O3 0.016266 0.250226 0.721480
O O4 0.830770 0.629484 0.901684
O O5 0.841313 0.639417 0.475610
O O6 0.713051 0.475439 0.126875
O O7 0.998464 0.262866 0.319567
O O8 0.503984 0.305472 0.525758
O O9 0.477796 0.208552 0.651198
O O10 0.719105 0.994039 0.600050
O O11 0.498005 0.000095 0.242549
O O12 0.167895 0.268425 0.725603
O O13 0.295476 0.008810 0.844382
O O14 0.500000 0.500000 0.500000
O O15 0.563529 0.747236 0.867664
O O16 0.547093 0.267668 0.046005
O O17 0.500000 0.500000 0.000000
#
# Coordination Sequence:
#
# PCOD8004624 Si02
#       8
#     2   2   2   2   2   2   2   2
#     4  10  21  37  62  89 129 159 203 254 314 363
#     4  10  21  39  61  89 126 162 202 254 317 359
#     4  12  22  41  64  93 122 161 221 254 298 367
#     4  10  20  38  60  96 121 158 208 261 298 361
#     4  12  24  40  61  93 131 165 201 256 321 366
#     4  10  21  37  63  94 119 158 210 262 297 361
#     4  12  23  39  67  94 123 164 216 258 297 366
#     4  12  26  42  61  93 130 165 203 258 322 372
#
# _framework density 21.644074
#
# number of rings (size 3 to 8) (size 9 to 14) (size 15 to 20)
#    0.000    1.000    5.000    2.250    1.750    0.000 
#    0.000    2.500    0.000    0.000    0.000    0.000 
#    0.000    0.000    0.000    0.000    0.000    0.000 
#
# Total GULP energy -198317.055419 kJ/mol
# GULP energy per Si atom -12394.815964 kJ/mol
# Density = 2.159481 g / cm^3
# Si number density = 21.644074 Si / 1000 Ang^3
#
#
#
# Elastic Constant Matrix: (Units=GPa)
#
#
# Indices 1 2 3 4 5 6 
#
# 1 137.2409 56.9235 20.8846 -20.2819 13.2614 -16.4933
# 2 56.9235 109.3573 19.4554 -26.5832 8.8688 -18.5495
# 3 20.8846 19.4554 39.5713 -11.1430 0.3797 -10.0877
# 4 -20.2819 -26.5832 -11.1430 23.6224 -2.0263 0.5914
# 5 13.2614 8.8688 0.3797 -2.0263 34.7223 -6.2500
# 6 -16.4933 -18.5495 -10.0877 0.5914 -6.2500 41.1343
#
#
#
# Elastic Compliance Matrix: (Units=1/GPa)
#
#
# Indices 1 2 3 4 5 6 
#
# 1 0.009996 -0.003573 -0.002206 0.003277 -0.002431 0.001439
# 2 -0.003573 0.015371 -0.000489 0.013801 -0.000841 0.005053
# 3 -0.002206 -0.000489 0.032000 0.012700 0.002611 0.006957
# 4 0.003277 0.013801 0.012700 0.066484 0.000730 0.009807
# 5 -0.002431 -0.000841 0.002611 0.000730 0.030666 0.003935
# 6 0.001439 0.005053 0.006957 0.009807 0.003935 0.029329
#
#
# Mechanical properties :
#
#
# Convention : Reuss Voigt Hill
#
# Bulk Modulus (GPa) = 22.30605 53.41071 37.85838
# Shear Modulus (GPa) = 23.65997 32.48954 28.07476
#
# Velocity S-wave (km/s) = 3.30985 3.87858 3.60545
# Velocity P-wave (km/s) = 4.99350 6.69240 5.90438
#
# Compressibility (1/GPa) = 0.04483089
#
# Stress axis : x y z
#
# Youngs Moduli (GPa) = 100.03742 65.05627 31.24972
#
# Poissons Ratio (x) = 0.23245 0.06894
# Poissons Ratio (y) = 0.35744 0.01529
# Poissons Ratio (z) = 0.22069 0.03183
#
# Static dielectric constant tensor:
#      x y z
#    x 4.213510 -0.431460 -0.255820 
#    y -0.431460 4.332780 -0.401040 
#    z -0.255820 -0.401040 3.762990 
# 
# 
# High freq. dielectric constant tensor:
#      x y z
#    x 1.863460 -0.016830 -0.018770 
#    y -0.016830 1.851160 -0.029170 
#    z -0.018770 -0.029170 1.824040 
# 
# From -- ./inp_files/281847.got.cif
#   From: 2010.06.25/outbox.cif.g09.slc.cpg/sg2_141_cif.got.tgz:281847.got - 2010.06.27 13:26:56.
