data_PCOD8004011
_publ_section_title
;
Structure prediction by ZEFSAII (Michael W. Deem and Ramdas Pophale) SiO2 
 PCOD8004011
Probable space group: P -1
;
_chemical_formula_sum "Si O2"
_cell_formula_units_Z 16
_cell_length_a 14.143530
_cell_length_b 8.364251
_cell_length_c 8.512553
_cell_angle_alpha 62.928459
_cell_angle_beta 92.073478
_cell_angle_gamma 119.718112
_cell_volume 755.039228
_symmetry_space_group_name_H-M "P -1"
_symmetry_group_IT_number 2
_symmetry_cell_setting 'triclinic'
loop_
_space_group_symop_operation_xyz
x,y,z
-x,-y,-z
loop_
_atom_site_type_symbol
_atom_site_label
_atom_site_fract_x
_atom_site_fract_y
_atom_site_fract_z
Si Si1 0.738809 0.261850 0.521738
Si Si2 0.669514 0.625392 0.997813
Si Si3 0.093140 0.592358 0.096657
Si Si4 0.055978 0.374356 0.498784
Si Si5 0.300120 0.757254 0.818343
Si Si6 0.467771 0.479052 0.262270
Si Si7 0.859952 0.078440 0.795668
Si Si8 0.489186 0.789282 0.383133
O O1 0.820937 0.512676 0.463598
O O2 0.755022 0.230838 0.353100
O O3 0.771052 0.121454 0.688469
O O4 0.610654 0.184081 0.579031
O O5 0.635941 0.632483 0.813526
O O6 0.794646 0.829154 0.944284
O O7 0.664889 0.411583 0.129670
O O8 0.584016 0.633795 0.108647
O O9 0.067970 0.399027 0.299634
O O10 0.093600 0.782053 0.104759
O O11 0.214629 0.687478 0.987111
O O12 0.000000 0.500000 0.000000
O O13 0.000000 0.500000 0.500000
O O14 0.966512 0.134381 0.662792
O O15 0.409240 0.982782 0.770162
O O16 0.446716 0.622616 0.313295
O O17 0.468813 0.290578 0.435455
#
# Coordination Sequence:
#
# PCOD8004011 Si02
#       8
#     2   2   2   2   2   2   2   2
#     4  10  20  37  63  87 116 159 203 237 294 360
#     4  11  24  39  58  91 125 154 195 251 295 351
#     4  10  20  38  63  92 117 152 202 250 291 351
#     4   8  18  37  60  84 113 156 193 238 292 354
#     4  12  23  36  63  93 119 155 205 243 293 352
#     4  10  24  41  57  84 128 157 198 243 303 348
#     4  10  21  40  64  84 122 162 194 240 307 350
#     4  11  23  40  62  86 118 165 200 241 295 362
#
# _framework density 21.190950000000001
#
# number of rings (size 3 to 8) (size 9 to 14) (size 15 to 20)
#    0.000    2.000    1.250    4.125    7.000    0.500 
#    0.000    3.125    0.000    0.000    0.000    0.000 
#    0.000    0.000    0.000    0.000    0.000    0.000 
#
# Total GULP energy -198389.416406 kJ/mol
# GULP energy per Si atom -12399.338525 kJ/mol
# Density = 2.114272 g / cm^3
# Si number density = 21.190950 Si / 1000 Ang^3
#
#
#
# Elastic Constant Matrix: (Units=GPa)
#
#
# Indices 1 2 3 4 5 6 
#
# 1 57.3583 20.8323 27.6860 -2.2064 -13.4626 12.9351
# 2 20.8323 89.3960 45.3169 -4.9807 -4.1591 16.1303
# 3 27.6860 45.3169 95.0715 8.3808 -24.5994 5.2747
# 4 -2.2064 -4.9807 8.3808 41.8660 3.6636 -4.4626
# 5 -13.4626 -4.1591 -24.5994 3.6636 34.6779 -4.8689
# 6 12.9351 16.1303 5.2747 -4.4626 -4.8689 28.8112
#
#
#
# Elastic Compliance Matrix: (Units=1/GPa)
#
#
# Indices 1 2 3 4 5 6 
#
# 1 0.022941 -0.001399 -0.004516 0.000730 0.004357 -0.007840
# 2 -0.001399 0.017798 -0.009723 0.003721 -0.006841 -0.008136
# 3 -0.004516 -0.009723 0.019970 -0.005958 0.012581 0.005018
# 4 0.000730 0.003721 -0.005958 0.026272 -0.006030 0.001730
# 5 0.004357 -0.006841 0.012581 -0.006030 0.040028 0.005401
# 6 -0.007840 -0.008136 0.005018 0.001730 0.005401 0.043046
#
#
# Mechanical properties :
#
#
# Convention : Reuss Voigt Hill
#
# Bulk Modulus (GPa) = 33.97472 47.72183 40.84827
# Shear Modulus (GPa) = 23.68082 30.93706 27.30894
#
# Velocity S-wave (km/s) = 3.34652 3.82503 3.59375
# Velocity P-wave (km/s) = 5.56774 6.48665 6.04468
#
# Compressibility (1/GPa) = 0.02943365
#
# Stress axis : x y z
#
# Youngs Moduli (GPa) = 43.59035 56.18568 50.07441
#
# Poissons Ratio (x) = 0.07859 0.22613
# Poissons Ratio (y) = 0.06097 0.48688
# Poissons Ratio (z) = 0.19685 0.54630
#
# Static dielectric constant tensor:
#      x y z
#    x 3.742020 0.333650 -0.344950 
#    y 0.333650 3.865880 -0.068360 
#    z -0.344950 -0.068360 4.213750 
# 
# 
# High freq. dielectric constant tensor:
#      x y z
#    x 1.813310 0.021610 -0.017350 
#    y 0.021610 1.822970 0.007830 
#    z -0.017350 0.007830 1.843500 
# 
# From -- ./inp_files/297670.got.cif
#   From: 2010.06.25/outbox.cif.g09.slc.cpg/sg2_149_cif.got.tgz:297670.got - 2010.06.27 13:26:56.
