data_PCOD8004840
_publ_section_title
;
Structure prediction by ZEFSAII (Michael W. Deem and Ramdas Pophale) SiO2 
 PCOD8004840
Probable space group: P -1
;
_chemical_formula_sum "Si O2"
_cell_formula_units_Z 16
_cell_length_a 8.790287
_cell_length_b 14.082509
_cell_length_c 8.045854
_cell_angle_alpha 76.293780
_cell_angle_beta 124.278342
_cell_angle_gamma 76.391024
_cell_volume 710.221992
_symmetry_space_group_name_H-M "P -1"
_symmetry_group_IT_number 2
_symmetry_cell_setting 'triclinic'
loop_
_space_group_symop_operation_xyz
x,y,z
-x,-y,-z
loop_
_atom_site_type_symbol
_atom_site_label
_atom_site_fract_x
_atom_site_fract_y
_atom_site_fract_z
Si Si1 0.786860 0.582104 0.745538
Si Si2 0.920796 0.891746 0.369306
Si Si3 0.773401 0.804080 0.998766
Si Si4 0.578169 0.420415 0.294718
Si Si5 0.104772 0.230408 0.278821
Si Si6 0.633021 0.344986 0.992350
Si Si7 0.676007 0.133393 0.216838
Si Si8 0.949413 0.426716 0.627546
O O1 0.567379 0.619581 0.683440
O O2 0.773488 0.699398 0.643673
O O3 0.787819 0.515368 0.613548
O O4 0.000000 0.500000 0.000000
O O5 0.867460 0.848540 0.184549
O O6 0.838635 0.857355 0.500243
O O7 0.168959 0.852343 0.558147
O O8 0.800821 0.023769 0.232237
O O9 0.847126 0.672375 0.122762
O O10 0.842657 0.825908 0.849657
O O11 0.523602 0.866337 0.820489
O O12 0.555532 0.394023 0.104784
O O13 0.825526 0.361684 0.507289
O O14 0.506503 0.549092 0.247561
O O15 0.865573 0.317464 0.102934
O O16 0.601370 0.235786 0.997660
O O17 0.000000 0.500000 0.500000
#
# Coordination Sequence:
#
# PCOD8004840 Si02
#       8
#     2   2   2   2   2   2   2   2
#     4  12  22  39  58  90 130 167 209 260 317 379
#     4  10  24  46  66  96 128 168 223 270 326 393
#     4  12  23  42  67  94 129 171 214 271 331 382
#     4  11  22  36  63  91 130 173 208 259 319 391
#     4  11  23  41  65  95 133 168 216 273 319 390
#     4  10  20  38  62  92 127 167 207 259 329 375
#     4  10  22  43  69  92 131 170 214 276 328 387
#     4  12  24  37  60  94 129 168 219 260 316 396
#
# _framework density 22.528168000000001
#
# number of rings (size 3 to 8) (size 9 to 14) (size 15 to 20)
#    0.000    1.000    2.500    5.250    1.750    0.500 
#    0.000    9.375    0.000    0.000    0.000    0.000 
#    0.000    0.000    0.000    0.000    0.000    0.000 
#
# Total GULP energy -198214.229170 kJ/mol
# GULP energy per Si atom -12388.389323 kJ/mol
# Density = 2.247689 g / cm^3
# Si number density = 22.528168 Si / 1000 Ang^3
#
#
#
# Elastic Constant Matrix: (Units=GPa)
#
#
# Indices 1 2 3 4 5 6 
#
# 1 120.5596 24.5357 22.9416 8.0683 14.9778 0.7133
# 2 24.5357 101.9086 28.8750 5.1902 -5.9692 6.1491
# 3 22.9416 28.8750 52.9536 5.3040 3.6672 7.6425
# 4 8.0683 5.1902 5.3040 33.5416 -1.4077 1.3875
# 5 14.9778 -5.9692 3.6672 -1.4077 39.2138 2.8419
# 6 0.7133 6.1491 7.6425 1.3875 2.8419 28.4680
#
#
#
# Elastic Compliance Matrix: (Units=1/GPa)
#
#
# Indices 1 2 3 4 5 6 
#
# 1 0.009827 -0.001716 -0.003074 -0.001835 -0.003897 0.001428
# 2 -0.001716 0.012175 -0.005890 -0.000354 0.003141 -0.001302
# 3 -0.003074 -0.005890 0.024470 -0.002087 -0.001727 -0.004946
# 4 -0.001835 -0.000354 -0.002087 0.030767 0.002020 -0.001019
# 5 -0.003897 0.003141 -0.001727 0.002020 0.027919 -0.003003
# 6 0.001428 -0.001302 -0.004946 -0.001019 -0.003003 0.037050
#
#
# Mechanical properties :
#
#
# Convention : Reuss Voigt Hill
#
# Bulk Modulus (GPa) = 39.82020 47.56960 43.69490
# Shear Modulus (GPa) = 29.07989 33.51598 31.29794
#
# Velocity S-wave (km/s) = 3.59670 3.86130 3.73135
# Velocity P-wave (km/s) = 5.91291 6.40633 6.16455
#
# Compressibility (1/GPa) = 0.02511288
#
# Stress axis : x y z
#
# Youngs Moduli (GPa) = 101.75686 82.13380 40.86560
#
# Poissons Ratio (x) = 0.14093 0.12564
# Poissons Ratio (y) = 0.17461 0.24069
# Poissons Ratio (z) = 0.31284 0.48375
#
# Static dielectric constant tensor:
#      x y z
#    x 4.013970 0.022770 0.168740 
#    y 0.022770 4.349420 -0.148290 
#    z 0.168740 -0.148290 3.824740 
# 
# 
# High freq. dielectric constant tensor:
#      x y z
#    x 1.893170 -0.001290 0.014720 
#    y -0.001290 1.893960 -0.000300 
#    z 0.014720 -0.000300 1.872690 
# 
# From -- ./inp_files/207195.got.cif
#   From: 2010.06.25/outbox.cif.g09.slc.cpg/sg2_104_cif.got.tgz:207195.got - 2010.06.27 13:26:56.
