data_PCOD8004555
_publ_section_title
;
Structure prediction by ZEFSAII (Michael W. Deem and Ramdas Pophale) SiO2 
 PCOD8004555
Probable space group: P -1
;
_chemical_formula_sum "Si O2"
_cell_formula_units_Z 14
_cell_length_a 12.424655
_cell_length_b 8.756962
_cell_length_c 11.624458
_cell_angle_alpha 84.896483
_cell_angle_beta 58.590392
_cell_angle_gamma 125.366734
_cell_volume 728.534233
_symmetry_space_group_name_H-M "P -1"
_symmetry_group_IT_number 2
_symmetry_cell_setting 'triclinic'
loop_
_space_group_symop_operation_xyz
x,y,z
-x,-y,-z
loop_
_atom_site_type_symbol
_atom_site_label
_atom_site_fract_x
_atom_site_fract_y
_atom_site_fract_z
Si Si1 0.195337 0.484128 0.703210
Si Si2 0.236414 0.734029 0.460929
Si Si3 0.921643 0.996625 0.925630
Si Si4 0.193123 0.598188 0.247458
Si Si5 0.344047 0.462314 0.030420
Si Si6 0.806731 0.215035 0.982994
Si Si7 0.433062 0.761702 0.759058
O O1 0.278601 0.633011 0.531818
O O2 0.357021 0.608855 0.698488
O O3 0.100243 0.233292 0.744720
O O4 0.030651 0.445584 0.850849
O O5 0.294148 0.726072 0.302638
O O6 0.026390 0.603119 0.594144
O O7 0.362967 0.994016 0.401370
O O8 0.771416 0.000120 0.032465
O O9 0.825780 0.784229 0.914253
O O10 0.000000 0.000000 0.000000
O O11 0.254337 0.486974 0.176775
O O12 0.255460 0.785017 0.109913
O O13 0.500000 0.500000 0.000000
O O14 0.443397 0.650789 0.864251
O O15 0.699804 0.212840 0.140040
#
# Coordination Sequence:
#
# PCOD8004555 Si02
#       7
#     2   2   2   2   2   2   2
#     4   9  19  36  57  85 116 154 195 238 293 347
#     4  10  21  36  61  85 117 153 199 242 285 352
#     4  10  20  38  60  85 122 150 190 239 304 344
#     4   9  21  40  58  84 116 160 197 231 296 351
#     4  11  24  37  62  92 118 151 199 249 292 343
#     4   8  19  33  62  82 109 151 202 239 282 337
#     4  11  20  35  61  90 112 150 204 251 282 342
#
# _framework density 19.216667000000001
#
# number of rings (size 3 to 8) (size 9 to 14) (size 15 to 20)
#    0.857    1.429    1.429    0.857    4.000    2.286 
#    0.000    2.857    0.000    2.571    0.000    0.000 
#    0.000    0.000    0.000    0.000    0.000    0.000 
#
# Total GULP energy -173510.782249 kJ/mol
# GULP energy per Si atom -12393.627304 kJ/mol
# Density = 1.917293 g / cm^3
# Si number density = 19.216667 Si / 1000 Ang^3
#
#
#
# Elastic Constant Matrix: (Units=GPa)
#
#
# Indices 1 2 3 4 5 6 
#
# 1 116.8772 45.5578 32.5327 9.7796 14.9119 -6.6678
# 2 45.5578 99.6482 25.1045 -11.6725 8.1727 1.1839
# 3 32.5327 25.1045 52.7378 -6.5716 17.4265 -2.0957
# 4 9.7796 -11.6725 -6.5716 31.3101 -8.6854 3.0570
# 5 14.9119 8.1727 17.4265 -8.6854 24.4267 0.6624
# 6 -6.6678 1.1839 -2.0957 3.0570 0.6624 34.5627
#
#
#
# Elastic Compliance Matrix: (Units=1/GPa)
#
#
# Indices 1 2 3 4 5 6 
#
# 1 0.014055 -0.005876 -0.004685 -0.009822 -0.006863 0.003629
# 2 -0.005876 0.014251 -0.003717 0.007824 0.004324 -0.002622
# 3 -0.004685 -0.003717 0.029222 0.001602 -0.016206 0.001164
# 4 -0.009822 0.007824 0.001602 0.043868 0.018005 -0.006291
# 5 -0.006863 0.004324 -0.016206 0.018005 0.061787 -0.005231
# 6 0.003629 -0.002622 0.001164 -0.006291 -0.005231 0.030450
#
#
# Mechanical properties :
#
#
# Convention : Reuss Voigt Hill
#
# Bulk Modulus (GPa) = 34.51644 52.85034 43.68339
# Shear Modulus (GPa) = 21.56584 29.13109 25.34846
#
# Velocity S-wave (km/s) = 3.35363 3.89772 3.63586
# Velocity P-wave (km/s) = 5.74426 6.91508 6.35668
#
# Compressibility (1/GPa) = 0.02897170
#
# Stress axis : x y z
#
# Youngs Moduli (GPa) = 71.14873 70.16924 34.22052
#
# Poissons Ratio (x) = 0.41233 0.16032
# Poissons Ratio (y) = 0.41809 0.12720
# Poissons Ratio (z) = 0.33333 0.26083
#
# Static dielectric constant tensor:
#      x y z
#    x 3.555560 0.077230 0.148660 
#    y 0.077230 3.502290 -0.078350 
#    z 0.148660 -0.078350 3.304090 
# 
# 
# High freq. dielectric constant tensor:
#      x y z
#    x 1.751330 0.010580 0.015160 
#    y 0.010580 1.742510 -0.011430 
#    z 0.015160 -0.011430 1.727210 
# 
# From -- ./inp_files/414132.got.cif
#   From: 2010.06.25/outbox.cif.g09.slc.cpg/sg2_208_cif.got.tgz:414132.got - 2010.06.27 13:26:56.
