data_PCOD8004380
_publ_section_title
;
Structure prediction by ZEFSAII (Michael W. Deem and Ramdas Pophale) SiO2 
 PCOD8004380
Probable space group: P -1
;
_chemical_formula_sum "Si O2"
_cell_formula_units_Z 14
_cell_length_a 18.729107
_cell_length_b 21.626470
_cell_length_c 7.944701
_cell_angle_alpha 136.411341
_cell_angle_beta 138.515211
_cell_angle_gamma 18.634636
_cell_volume 679.539572
_symmetry_space_group_name_H-M "P -1"
_symmetry_group_IT_number 2
_symmetry_cell_setting 'triclinic'
loop_
_space_group_symop_operation_xyz
x,y,z
-x,-y,-z
loop_
_atom_site_type_symbol
_atom_site_label
_atom_site_fract_x
_atom_site_fract_y
_atom_site_fract_z
Si Si1 0.752538 0.274649 0.540334
Si Si2 0.867679 0.953278 0.663987
Si Si3 0.981156 0.570052 0.774609
Si Si4 0.920878 0.818132 0.168504
Si Si5 0.414554 0.164520 0.844261
Si Si6 0.902487 0.088547 0.772010
Si Si7 0.517041 0.082820 0.471190
O O1 0.500000 0.500000 0.500000
O O2 0.737627 0.234134 0.611544
O O3 0.940799 0.215983 0.775631
O O4 0.845673 0.136695 0.290355
O O5 0.980758 0.797182 0.428036
O O6 0.772246 0.108267 0.691199
O O7 0.666251 0.055330 0.615913
O O8 0.059241 0.850511 0.928952
O O9 0.717555 0.747333 0.723740
O O10 0.000000 0.500000 0.500000
O O11 0.177586 0.396256 0.915018
O O12 0.008293 0.655435 0.951759
O O13 0.641436 0.036806 0.085854
O O14 0.461272 0.137145 0.674720
O O15 0.357283 0.106512 0.694485
#
# Coordination Sequence:
#
# PCOD8004380 Si02
#       7
#     2   2   2   2   2   2   2
#     4  10  21  39  63  86 107 143 195 237 271 328
#     4  10  20  38  57  81 120 152 179 227 289 339
#     4   9  19  34  54  82 108 139 189 232 268 321
#     4  10  21  35  55  82 112 145 182 229 280 331
#     4   9  18  35  56  79 107 145 190 229 268 326
#     4   9  21  40  59  82 114 149 185 231 283 332
#     4   9  18  34  56  79 108 146 187 230 273 325
#
# _framework density 20.602186
#
# number of rings (size 3 to 8) (size 9 to 14) (size 15 to 20)
#    0.000    2.571    0.000    1.714    0.000    8.000 
#    0.000   13.571    0.000    0.000    0.000    0.000 
#    0.000    0.000    0.000    0.000    0.000    0.000 
#
# Total GULP energy -173483.408041 kJ/mol
# GULP energy per Si atom -12391.672003 kJ/mol
# Density = 2.055529 g / cm^3
# Si number density = 20.602186 Si / 1000 Ang^3
#
#
#
# Elastic Constant Matrix: (Units=GPa)
#
#
# Indices 1 2 3 4 5 6 
#
# 1 119.2133 36.8664 34.6395 -10.1717 25.8106 6.2330
# 2 36.8664 122.2770 28.6530 -1.6428 6.7743 24.1980
# 3 34.6395 28.6530 114.9914 3.3596 11.8287 6.6064
# 4 -10.1717 -1.6428 3.3596 21.9717 -2.6778 2.1880
# 5 25.8106 6.7743 11.8287 -2.6778 35.0163 -6.3330
# 6 6.2330 24.1980 6.6064 2.1880 -6.3330 17.8376
#
#
#
# Elastic Compliance Matrix: (Units=1/GPa)
#
#
# Indices 1 2 3 4 5 6 
#
# 1 0.012028 -0.001639 -0.002250 0.005255 -0.008240 -0.004717
# 2 -0.001639 0.012747 -0.001305 0.001693 -0.003913 -0.017833
# 3 -0.002250 -0.001305 0.010072 -0.002768 -0.001981 -0.001538
# 4 0.005255 0.001693 -0.002768 0.049301 -0.001231 -0.009592
# 5 -0.008240 -0.003913 -0.001981 -0.001231 0.040185 0.023340
# 6 -0.004717 -0.017833 -0.001538 -0.009592 0.023340 0.091934
#
#
# Mechanical properties :
#
#
# Convention : Reuss Voigt Hill
#
# Bulk Modulus (GPa) = 40.88355 61.86663 51.37509
# Shear Modulus (GPa) = 21.29414 32.05330 26.67372
#
# Velocity S-wave (km/s) = 3.21843 3.94867 3.60210
# Velocity P-wave (km/s) = 5.80503 7.13328 6.50316
#
# Compressibility (1/GPa) = 0.02445971
#
# Stress axis : x y z
#
# Youngs Moduli (GPa) = 83.14060 78.45281 99.28285
#
# Poissons Ratio (x) = 0.12856 0.22337
# Poissons Ratio (y) = 0.13624 0.12956
# Poissons Ratio (z) = 0.18705 0.10238
#
# Static dielectric constant tensor:
#      x y z
#    x 3.668870 0.145460 0.083520 
#    y 0.145460 3.974690 -0.073400 
#    z 0.083520 -0.073400 3.873250 
# 
# 
# High freq. dielectric constant tensor:
#      x y z
#    x 1.800010 0.010160 0.010160 
#    y 0.010160 1.781270 -0.001250 
#    z 0.010160 -0.001250 1.812920 
# 
# From -- ./inp_files/308746.got.cif
#   From: 2010.06.25/outbox.cif.g09.slc.cpg/sg2_155_cif.got.tgz:308746.got - 2010.06.27 13:26:56.
