data_PCOD8004108
_publ_section_title
;
Structure prediction by ZEFSAII (Michael W. Deem and Ramdas Pophale) SiO2 
 PCOD8004108
Probable space group: P -1
;
_chemical_formula_sum "Si O2"
_cell_formula_units_Z 16
_cell_length_a 5.390634
_cell_length_b 22.606141
_cell_length_c 7.417577
_cell_angle_alpha 56.540040
_cell_angle_beta 63.270007
_cell_angle_gamma 66.854071
_cell_volume 660.633506
_symmetry_space_group_name_H-M "P -1"
_symmetry_group_IT_number 2
_symmetry_cell_setting 'triclinic'
loop_
_space_group_symop_operation_xyz
x,y,z
-x,-y,-z
loop_
_atom_site_type_symbol
_atom_site_label
_atom_site_fract_x
_atom_site_fract_y
_atom_site_fract_z
Si Si1 0.648014 0.556549 0.465195
Si Si2 0.874840 0.315696 0.623248
Si Si3 0.206563 0.594336 0.196313
Si Si4 0.704441 0.891491 0.998579
Si Si5 0.614127 0.964970 0.260438
Si Si6 0.399278 0.364637 0.302462
Si Si7 0.957757 0.094632 0.480104
Si Si8 0.325178 0.784170 0.369589
O O1 0.411252 0.624831 0.377221
O O2 0.609939 0.470689 0.621924
O O3 0.693566 0.568332 0.645796
O O4 0.944897 0.561332 0.258040
O O5 0.951741 0.329386 0.784231
O O6 0.841649 0.232563 0.730980
O O7 0.116222 0.336612 0.377238
O O8 0.435929 0.609372 0.958037
O O9 0.951718 0.883952 0.783497
O O10 0.429155 0.950903 0.922975
O O11 0.797228 0.916805 0.123657
O O12 0.603274 0.815277 0.176955
O O13 0.777720 0.954028 0.416608
O O14 0.297006 0.947483 0.399093
O O15 0.604545 0.296403 0.440924
O O16 0.867987 0.166217 0.506906
#
# Coordination Sequence:
#
# PCOD8004108 Si02
#       8
#     2   2   2   2   2   2   2   2
#     4   9  20  38  59  90 118 154 207 265 321 386
#     4  10  22  38  58  85 126 156 213 260 313 392
#     4  10  20  37  64  87 118 160 206 262 329 378
#     4  10  23  44  70  94 136 173 214 283 334 386
#     4  10  24  44  68 106 130 168 230 281 335 404
#     4  10  22  39  56  86 124 162 206 265 312 394
#     4  11  24  43  69  99 134 174 227 275 341 402
#     4  10  25  41  56  89 125 168 212 256 320 402
#
# _framework density 24.219176000000001
#
# number of rings (size 3 to 8) (size 9 to 14) (size 15 to 20)
#    0.000    2.000    0.000    1.500    3.500   13.000 
#    0.000    0.000    0.000    0.000    0.000    0.000 
#    0.000    0.000    0.000    0.000    0.000    0.000 
#
# Total GULP energy -198216.769092 kJ/mol
# GULP energy per Si atom -12388.548068 kJ/mol
# Density = 2.416405 g / cm^3
# Si number density = 24.219176 Si / 1000 Ang^3
#
#
#
# Elastic Constant Matrix: (Units=GPa)
#
#
# Indices 1 2 3 4 5 6 
#
# 1 62.9169 0.9190 14.5065 9.3853 -13.9133 5.1216
# 2 0.9190 72.5782 3.0828 -2.2399 -15.4055 16.6801
# 3 14.5065 3.0828 103.5091 23.6693 -12.7114 3.2235
# 4 9.3853 -2.2399 23.6693 36.2660 -5.8996 -4.5689
# 5 -13.9133 -15.4055 -12.7114 -5.8996 24.0981 3.5113
# 6 5.1216 16.6801 3.2235 -4.5689 3.5113 35.4533
#
#
#
# Elastic Compliance Matrix: (Units=1/GPa)
#
#
# Indices 1 2 3 4 5 6 
#
# 1 0.020105 0.004255 -0.000210 -0.003311 0.014388 -0.006739
# 2 0.004255 0.020254 0.001198 0.000787 0.017968 -0.011931
# 3 -0.000210 0.001198 0.012110 -0.007240 0.005717 -0.003134
# 4 -0.003311 0.000787 -0.007240 0.034222 0.002432 0.004936
# 5 0.014388 0.017968 0.005717 0.002432 0.067439 -0.017418
# 6 -0.006739 -0.011931 -0.003134 0.004936 -0.017418 0.037439
#
#
# Mechanical properties :
#
#
# Convention : Reuss Voigt Hill
#
# Bulk Modulus (GPa) = 15.88458 30.66895 23.27677
# Shear Modulus (GPa) = 24.74428 33.86320 29.30374
#
# Velocity S-wave (km/s) = 3.19984 3.74330 3.48219
# Velocity P-wave (km/s) = 4.49721 5.60122 5.07930
#
# Compressibility (1/GPa) = 0.06295414
#
# Stress axis : x y z
#
# Youngs Moduli (GPa) = 49.73993 49.37415 82.57649
#
# Poissons Ratio (x) = -0.21008 0.01737
# Poissons Ratio (y) = -0.21164 -0.09897
# Poissons Ratio (z) = 0.01046 -0.05917
#
# Static dielectric constant tensor:
#      x y z
#    x 4.930030 0.575050 -0.064330 
#    y 0.575050 4.911280 0.042970 
#    z -0.064330 0.042970 4.116670 
# 
# 
# High freq. dielectric constant tensor:
#      x y z
#    x 1.968530 0.011370 -0.013390 
#    y 0.011370 1.989720 0.002260 
#    z -0.013390 0.002260 1.939890 
# 
# From -- ./inp_files/142506.got.cif
#   From: 2010.06.25/outbox.cif.g09.slc.cpg/sg2_72_cif.got.tgz:142506.got - 2010.06.27 13:26:56.
