data_PCOD8004886
_publ_section_title
;
Structure prediction by ZEFSAII (Michael W. Deem and Ramdas Pophale) SiO2 
 PCOD8004886
Probable space group: P -1
;
_chemical_formula_sum "Si O2"
_cell_formula_units_Z 16
_cell_length_a 8.832101
_cell_length_b 17.879033
_cell_length_c 8.990723
_cell_angle_alpha 138.719484
_cell_angle_beta 131.028903
_cell_angle_gamma 57.297744
_cell_volume 703.439013
_symmetry_space_group_name_H-M "P -1"
_symmetry_group_IT_number 2
_symmetry_cell_setting 'triclinic'
loop_
_space_group_symop_operation_xyz
x,y,z
-x,-y,-z
loop_
_atom_site_type_symbol
_atom_site_label
_atom_site_fract_x
_atom_site_fract_y
_atom_site_fract_z
Si Si1 0.809442 0.989448 0.067033
Si Si2 0.445658 0.212309 0.864223
Si Si3 0.222282 0.320289 0.624936
Si Si4 0.226542 0.417269 0.185563
Si Si5 0.406852 0.317210 0.426577
Si Si6 0.101098 0.826272 0.813547
Si Si7 0.212724 0.563645 0.129991
Si Si8 0.377083 0.081897 0.891261
O O1 0.880836 0.109641 0.237758
O O2 0.569746 0.987561 0.875442
O O3 0.813102 0.966110 0.215258
O O4 0.938895 0.891095 0.916051
O O5 0.392664 0.334245 0.085712
O O6 0.686729 0.186133 0.983198
O O7 0.334984 0.115262 0.740134
O O8 0.365429 0.222321 0.658745
O O9 0.266141 0.306129 0.459297
O O10 0.988827 0.293423 0.458789
O O11 0.250222 0.446888 0.886016
O O12 0.296184 0.419309 0.405139
O O13 0.219552 0.537820 0.274161
O O14 0.003628 0.373217 0.961820
O O15 0.621212 0.351786 0.674386
O O16 0.436049 0.198921 0.180774
#
# Coordination Sequence:
#
# PCOD8004886 Si02
#       8
#     2   2   2   2   2   2   2   2
#     4   9  18  36  64  85 112 154 199 237 294 345
#     4   9  21  38  60  86 120 153 194 240 291 342
#     4  11  23  38  57  89 122 152 193 241 287 350
#     4   9  21  38  58  85 115 157 200 236 281 347
#     4  11  21  37  61  85 119 157 191 237 294 341
#     4  10  20  38  63  85 118 159 187 240 300 342
#     4  10  22  38  59  87 120 151 196 239 286 346
#     4   9  18  37  62  86 115 153 195 245 284 345
#
# _framework density 22.745396
#
# number of rings (size 3 to 8) (size 9 to 14) (size 15 to 20)
#    0.000    2.250    1.250    0.750    0.000   12.500 
#    0.000    6.250    0.000    0.000    0.000    0.000 
#    0.000    0.000    0.000    0.000    0.000    0.000 
#
# Total GULP energy -198226.025495 kJ/mol
# GULP energy per Si atom -12389.126593 kJ/mol
# Density = 2.269363 g / cm^3
# Si number density = 22.745396 Si / 1000 Ang^3
#
#
#
# Elastic Constant Matrix: (Units=GPa)
#
#
# Indices 1 2 3 4 5 6 
#
# 1 134.1447 41.0837 30.7219 -9.4245 8.3007 4.3462
# 2 41.0837 59.3380 14.5396 -14.5416 -10.0417 -6.9123
# 3 30.7219 14.5396 40.6710 -13.7291 5.8658 3.0603
# 4 -9.4245 -14.5416 -13.7291 23.8171 8.6517 -4.5767
# 5 8.3007 -10.0417 5.8658 8.6517 32.9757 3.1148
# 6 4.3462 -6.9123 3.0603 -4.5767 3.1148 32.1904
#
#
#
# Elastic Compliance Matrix: (Units=1/GPa)
#
#
# Indices 1 2 3 4 5 6 
#
# 1 0.011386 -0.008049 -0.006236 -0.003455 -0.003030 -0.002871
# 2 -0.008049 0.027852 -0.001375 0.012153 0.006782 0.008270
# 3 -0.006236 -0.001375 0.039705 0.024378 -0.012444 0.001442
# 4 -0.003455 0.012153 0.024378 0.071763 -0.019811 0.012878
# 5 -0.003030 0.006782 -0.012444 -0.019811 0.040917 -0.003727
# 6 -0.002871 0.008270 0.001442 0.012878 -0.003727 0.035283
#
#
# Mechanical properties :
#
#
# Convention : Reuss Voigt Hill
#
# Bulk Modulus (GPa) = 20.99856 45.20490 33.10173
# Shear Modulus (GPa) = 18.24158 27.65054 22.94606
#
# Velocity S-wave (km/s) = 2.83502 3.49041 3.17964
# Velocity P-wave (km/s) = 4.46861 6.01343 5.29763
#
# Compressibility (1/GPa) = 0.04762230
#
# Stress axis : x y z
#
# Youngs Moduli (GPa) = 87.82915 35.90471 25.18576
#
# Poissons Ratio (x) = 0.28899 0.15706
# Poissons Ratio (y) = 0.70692 0.03463
# Poissons Ratio (z) = 0.54772 0.04937
#
# Static dielectric constant tensor:
#      x y z
#    x 4.330950 0.240800 -0.004690 
#    y 0.240800 4.538070 -0.274050 
#    z -0.004690 -0.274050 3.675990 
# 
# 
# High freq. dielectric constant tensor:
#      x y z
#    x 1.910670 0.006810 -0.000180 
#    y 0.006810 1.904510 -0.004080 
#    z -0.000180 -0.004080 1.852910 
# 
# From -- ./inp_files/208083.got.cif
#   From: 2010.06.25/outbox.cif.g09.slc.cpg/sg2_105_cif.got.tgz:208083.got - 2010.06.27 13:26:56.
