data_PCOD8004344
_publ_section_title
;
Structure prediction by ZEFSAII (Michael W. Deem and Ramdas Pophale) SiO2 
 PCOD8004344
Probable space group: P -1
;
_chemical_formula_sum "Si O2"
_cell_formula_units_Z 12
_cell_length_a 8.817697
_cell_length_b 13.107480
_cell_length_c 13.951661
_cell_angle_alpha 30.181240
_cell_angle_beta 46.687371
_cell_angle_gamma 32.098989
_cell_volume 424.250512
_symmetry_space_group_name_H-M "P -1"
_symmetry_group_IT_number 2
_symmetry_cell_setting 'triclinic'
loop_
_space_group_symop_operation_xyz
x,y,z
-x,-y,-z
loop_
_atom_site_type_symbol
_atom_site_label
_atom_site_fract_x
_atom_site_fract_y
_atom_site_fract_z
Si Si1 0.232974 0.731989 0.689763
Si Si2 0.421711 0.645280 0.314991
Si Si3 0.886238 0.731265 0.459710
Si Si4 0.844182 0.304812 0.861683
Si Si5 0.245114 0.165281 0.348227
Si Si6 0.955589 0.760893 0.965625
O O1 0.302522 0.545155 0.719684
O O2 0.507929 0.541165 0.795381
O O3 0.986476 0.830609 0.789278
O O4 0.173822 0.002046 0.455606
O O5 0.500000 0.500000 0.500000
O O6 0.154506 0.695974 0.340619
O O7 0.356750 0.931082 0.119932
O O8 0.978787 0.427539 0.658334
O O9 0.815576 0.838002 0.512397
O O10 0.585427 0.988428 0.324748
O O11 0.847233 0.303594 0.977201
O O12 0.000000 0.000000 0.000000
O O13 0.012248 0.484697 0.151335
#
# Coordination Sequence:
#
# PCOD8004344 Si02
#       6
#     2   2   2   2   2   2
#     4  11  23  41  68 100 130 172 214 280 341 383
#     4  12  27  45  65  94 138 188 223 260 319 401
#     4   9  20  40  66  98 140 164 215 280 330 398
#     4  10  20  37  71 107 129 164 213 283 353 383
#     4   9  20  40  71 101 125 167 213 288 353 369
#     4  11  23  42  69  99 135 166 222 276 330 403
#
# _framework density 28.285174000000001
#
# number of rings (size 3 to 8) (size 9 to 14) (size 15 to 20)
#    0.000    1.667    3.333    1.500    2.333    4.667 
#    0.000    4.167    0.000    0.000    0.000    0.000 
#    0.000    0.000    0.000    0.000    0.000    0.000 
#
# Total GULP energy -148676.136478 kJ/mol
# GULP energy per Si atom -12389.678040 kJ/mol
# Density = 2.822080 g / cm^3
# Si number density = 28.285174 Si / 1000 Ang^3
#
#
#
# Elastic Constant Matrix: (Units=GPa)
#
#
# Indices 1 2 3 4 5 6 
#
# 1 96.1043 20.7892 44.9573 -15.7170 -23.9143 5.6163
# 2 20.7892 108.1671 75.1715 -42.3348 -14.3766 21.2086
# 3 44.9573 75.1715 194.1502 -45.7826 -3.8561 32.9007
# 4 -15.7170 -42.3348 -45.7826 59.2097 11.0860 2.1018
# 5 -23.9143 -14.3766 -3.8561 11.0860 45.1259 -5.2078
# 6 5.6163 21.2086 32.9007 2.1018 -5.2078 31.5528
#
#
#
# Elastic Compliance Matrix: (Units=1/GPa)
#
#
# Indices 1 2 3 4 5 6 
#
# 1 0.013681 0.000194 -0.003641 -0.000522 0.007417 0.002489
# 2 0.000194 0.017072 -0.002675 0.010183 0.001760 -0.009108
# 3 -0.003641 -0.002675 0.009841 0.005874 -0.004415 -0.008935
# 4 -0.000522 0.010183 0.005874 0.030219 -0.005783 -0.015844
# 5 0.007417 0.001760 -0.004415 -0.005783 0.028525 0.007193
# 6 0.002489 -0.009108 -0.008935 -0.015844 0.007193 0.048932
#
#
# Mechanical properties :
#
#
# Convention : Reuss Voigt Hill
#
# Bulk Modulus (GPa) = 35.27241 75.58419 55.42830
# Shear Modulus (GPa) = 29.41802 44.34458 36.88130
#
# Velocity S-wave (km/s) = 3.22848 3.96380 3.61489
# Velocity P-wave (km/s) = 5.13759 6.90863 6.08786
#
# Compressibility (1/GPa) = 0.02835077
#
# Stress axis : x y z
#
# Youngs Moduli (GPa) = 73.09293 58.57476 101.61381
#
# Poissons Ratio (x) = -0.01137 0.36995
# Poissons Ratio (y) = -0.01419 0.27185
# Poissons Ratio (z) = 0.26611 0.15671
#
# Static dielectric constant tensor:
#      x y z
#    x 5.501250 0.029590 0.287280 
#    y 0.029590 5.489410 -0.854810 
#    z 0.287280 -0.854810 6.359850 
# 
# 
# High freq. dielectric constant tensor:
#      x y z
#    x 2.157880 0.020950 0.014670 
#    y 0.020950 2.151410 -0.027470 
#    z 0.014670 -0.027470 2.155700 
# 
# From -- ./inp_files/520041.got.cif
#   From: 2010.06.25/outbox.cif.g09.slc.cpg/sg2_261_cif.got.tgz:520041.got - 2010.06.27 13:26:56.
