data_PCOD8004809
_publ_section_title
;
Structure prediction by ZEFSAII (Michael W. Deem and Ramdas Pophale) SiO2 
 PCOD8004809
Probable space group: P -1
;
_chemical_formula_sum "Si O2"
_cell_formula_units_Z 16
_cell_length_a 13.232531
_cell_length_b 12.178419
_cell_length_c 9.647086
_cell_angle_alpha 84.708661
_cell_angle_beta 134.886729
_cell_angle_gamma 124.737522
_cell_volume 766.278517
_symmetry_space_group_name_H-M "P -1"
_symmetry_group_IT_number 2
_symmetry_cell_setting 'triclinic'
loop_
_space_group_symop_operation_xyz
x,y,z
-x,-y,-z
loop_
_atom_site_type_symbol
_atom_site_label
_atom_site_fract_x
_atom_site_fract_y
_atom_site_fract_z
Si Si1 0.982496 0.382459 0.349385
Si Si2 0.878964 0.873998 0.139163
Si Si3 0.080884 0.216214 0.322589
Si Si4 0.448222 0.172789 0.291776
Si Si5 0.123304 0.616178 0.230135
Si Si6 0.639473 0.670052 0.177855
Si Si7 0.653553 0.315159 0.196200
Si Si8 0.916983 0.154267 0.888670
O O1 0.962751 0.256570 0.264750
O O2 0.014415 0.507572 0.271354
O O3 0.181738 0.496608 0.628350
O O4 0.766779 0.279909 0.228460
O O5 0.833920 0.783113 0.247739
O O6 0.040569 0.901995 0.194055
O O7 0.672650 0.778967 0.858401
O O8 0.955397 0.035397 0.244419
O O9 0.293462 0.320636 0.600231
O O10 0.099391 0.247337 0.170252
O O11 0.640128 0.292981 0.567393
O O12 0.550130 0.195772 0.240650
O O13 0.294147 0.995995 0.222902
O O14 0.107570 0.738636 0.208536
O O15 0.000000 0.500000 0.000000
O O16 0.500000 0.500000 0.000000
O O17 0.520856 0.721415 0.059626
#
# Coordination Sequence:
#
# PCOD8004809 Si02
#       8
#     2   2   2   2   2   2   2   2
#     4  10  20  38  62  90 123 161 202 256 311 373
#     4  10  24  43  64  91 126 173 210 258 313 372
#     4  11  21  41  64  90 127 166 208 259 310 371
#     4   9  20  41  64  87 122 166 206 257 310 369
#     4  11  22  39  62  91 125 162 206 259 315 367
#     4  11  22  39  64  94 128 162 208 263 317 371
#     4   9  20  38  61  91 122 158 205 250 319 373
#     4  11  23  43  65  90 128 172 210 258 312 372
#
# _framework density 20.880137000000001
#
# number of rings (size 3 to 8) (size 9 to 14) (size 15 to 20)
#    0.000    1.750    2.500    2.250    1.750    1.000 
#    4.500    6.875    0.000    0.000    0.000    0.000 
#    0.000    0.000    0.000    0.000    0.000    0.000 
#
# Total GULP energy -198267.716258 kJ/mol
# GULP energy per Si atom -12391.732266 kJ/mol
# Density = 2.083261 g / cm^3
# Si number density = 20.880137 Si / 1000 Ang^3
#
#
#
# Elastic Constant Matrix: (Units=GPa)
#
#
# Indices 1 2 3 4 5 6 
#
# 1 121.2915 50.6914 24.1900 10.6896 8.1054 0.9639
# 2 50.6914 98.6123 18.9095 2.2733 5.5099 -3.1767
# 3 24.1900 18.9095 123.0180 -4.4726 5.3829 1.5212
# 4 10.6896 2.2733 -4.4726 24.4016 -3.8309 -2.6779
# 5 8.1054 5.5099 5.3829 -3.8309 23.3029 5.7748
# 6 0.9639 -3.1767 1.5212 -2.6779 5.7748 27.7216
#
#
#
# Elastic Compliance Matrix: (Units=1/GPa)
#
#
# Indices 1 2 3 4 5 6 
#
# 1 0.011453 -0.005335 -0.001483 -0.005362 -0.003061 -0.000808
# 2 -0.005335 0.013183 -0.000907 0.000953 -0.001424 0.002135
# 3 -0.001483 -0.000907 0.008679 0.002171 -0.000884 -0.000135
# 4 -0.005362 0.000953 0.002171 0.045190 0.007847 0.002907
# 5 -0.003061 -0.001424 -0.000884 0.007847 0.048106 -0.009271
# 6 -0.000808 0.002135 -0.000135 0.002907 -0.009271 0.038565
#
#
# Mechanical properties :
#
#
# Convention : Reuss Voigt Hill
#
# Bulk Modulus (GPa) = 55.97037 58.94485 57.45761
# Shear Modulus (GPa) = 26.79784 31.69395 29.24589
#
# Velocity S-wave (km/s) = 3.58636 3.90025 3.74659
# Velocity P-wave (km/s) = 6.63423 6.96950 6.80393
#
# Compressibility (1/GPa) = 0.01786660
#
# Stress axis : x y z
#
# Youngs Moduli (GPa) = 87.31037 75.85385 115.21750
#
# Poissons Ratio (x) = 0.40465 0.17089
# Poissons Ratio (y) = 0.46577 0.10449
# Poissons Ratio (z) = 0.12950 0.06879
#
# Static dielectric constant tensor:
#      x y z
#    x 3.610610 0.031190 0.144800 
#    y 0.031190 3.700940 -0.134130 
#    z 0.144800 -0.134130 4.088230 
# 
# 
# High freq. dielectric constant tensor:
#      x y z
#    x 1.798130 0.002400 0.003990 
#    y 0.002400 1.817300 -0.013820 
#    z 0.003990 -0.013820 1.821380 
# 
# From -- ./inp_files/262634.got.cif
#   From: 2010.06.25/outbox.cif.g09.slc.cpg/sg2_132_cif.got.tgz:262634.got - 2010.06.27 13:26:56.
