data_PCOD8004144
_publ_section_title
;
Structure prediction by ZEFSAII (Michael W. Deem and Ramdas Pophale) SiO2 
 PCOD8004144
Probable space group: P -1
;
_chemical_formula_sum "Si O2"
_cell_formula_units_Z 16
_cell_length_a 17.695102
_cell_length_b 27.100410
_cell_length_c 27.093123
_cell_angle_alpha 10.504999
_cell_angle_beta 19.203401
_cell_angle_gamma 19.846507
_cell_volume 763.183667
_symmetry_space_group_name_H-M "P -1"
_symmetry_group_IT_number 2
_symmetry_cell_setting 'triclinic'
loop_
_space_group_symop_operation_xyz
x,y,z
-x,-y,-z
loop_
_atom_site_type_symbol
_atom_site_label
_atom_site_fract_x
_atom_site_fract_y
_atom_site_fract_z
Si Si1 0.736564 0.673587 0.491136
Si Si2 0.750747 0.658768 0.015845
Si Si3 0.354365 0.796389 0.400025
Si Si4 0.366665 0.803468 0.027553
Si Si5 0.134452 0.145586 0.667434
Si Si6 0.238826 0.583063 0.098141
Si Si7 0.259904 0.886642 0.261718
Si Si8 0.840556 0.653447 0.196583
O O1 0.584049 0.438680 0.806627
O O2 0.694862 0.837492 0.407406
O O3 0.000000 0.500000 0.500000
O O4 0.675576 0.894344 0.267688
O O5 0.647714 0.481593 0.294852
O O6 0.586172 0.742697 0.987815
O O7 0.000000 0.500000 0.000000
O O8 0.778358 0.944895 0.741558
O O9 0.207937 0.813013 0.422543
O O10 0.625767 0.814654 0.204390
O O11 0.136467 0.789604 0.214419
O O12 0.170081 0.370395 0.386483
O O13 0.209407 0.860694 0.873776
O O14 0.074459 0.579928 0.155684
O O15 0.500000 0.500000 0.000000
O O16 0.254592 0.610348 0.505791
O O17 0.500000 0.000000 0.000000
O O18 0.085897 0.147010 0.087927
#
# Coordination Sequence:
#
# PCOD8004144 Si02
#       8
#     2   2   2   2   2   2   2   2
#     4  10  20  37  64  94 117 146 199 259 301 350
#     4  12  25  40  57  87 125 161 199 245 297 359
#     4  11  21  40  63  86 115 157 200 247 300 358
#     4  11  21  39  64  91 117 154 201 251 301 359
#     4  11  21  40  63  86 115 157 200 247 300 358
#     4  12  25  40  57  87 125 161 199 245 297 359
#     4  10  20  37  64  94 117 146 199 259 301 350
#     4  11  21  39  64  91 117 154 201 251 301 359
#
# _framework density 20.964808000000001
#
# number of rings (size 3 to 8) (size 9 to 14) (size 15 to 20)
#    0.000    1.000    0.000   11.250    0.000    0.000 
#    0.000    7.500    0.000    0.000    0.000    0.000 
#    0.000    0.000    0.000    0.000    0.000    0.000 
#
# Total GULP energy -198300.332557 kJ/mol
# GULP energy per Si atom -12393.770785 kJ/mol
# Density = 2.091709 g / cm^3
# Si number density = 20.964808 Si / 1000 Ang^3
#
#
#
# Elastic Constant Matrix: (Units=GPa)
#
#
# Indices 1 2 3 4 5 6 
#
# 1 165.8901 56.6151 43.0554 -24.5578 9.8717 -10.8144
# 2 56.6151 77.6339 -26.1663 -56.0173 -15.1428 -32.6809
# 3 43.0554 -26.1663 -49.7121 -180.2037 4.3541 -66.2523
# 4 -24.5578 -56.0173 -180.2037 -96.6325 2.2748 -58.6829
# 5 9.8717 -15.1428 4.3541 2.2748 49.8031 -26.0767
# 6 -10.8144 -32.6809 -66.2523 -58.6829 -26.0767 -7.0889
#
#
#
# Elastic Compliance Matrix: (Units=1/GPa)
#
#
# Indices 1 2 3 4 5 6 
#
# 1 0.011229 -0.015254 0.006192 0.015927 -0.027210 -0.036435
# 2 -0.015254 0.056746 -0.033700 -0.055813 0.105195 0.151685
# 3 0.006192 -0.033700 0.027966 0.033110 -0.074979 -0.113729
# 4 0.015927 -0.055813 0.033110 0.071004 -0.127831 -0.193977
# 5 -0.027210 0.105195 -0.074979 -0.127831 0.259270 0.361765
# 6 -0.036435 0.151685 -0.113729 -0.193977 0.361765 0.553135
#
#
# Mechanical properties :
#
#
# Convention : Reuss Voigt Hill
#
# Bulk Modulus (GPa) = 95.98776 37.86894 66.92835
# Shear Modulus (GPa) = 4.68013 -2.76314 0.95849
#
# Velocity S-wave (km/s) = 1.49573 -1.14928 0.67689
# Velocity P-wave (km/s) = 6.99053 4.04242 5.71002
#
# Compressibility (1/GPa) = 0.01041799
#
# Stress axis : x y z
#
# Youngs Moduli (GPa) = 89.05679 17.62228 35.75756
#
# Poissons Ratio (x) = 0.26881 -0.22141
# Poissons Ratio (y) = 1.35847 1.20501
# Poissons Ratio (z) = -0.55143 0.59386
#
# Static dielectric constant tensor:
#      x y z
#    x 4.540210 0.075060 0.098270 
#    y 0.075060 3.505400 -0.262160 
#    z 0.098270 -0.262160 4.134720 
# 
# 
# High freq. dielectric constant tensor:
#      x y z
#    x 1.848110 0.001520 0.004490 
#    y 0.001520 1.785760 -0.025300 
#    z 0.004490 -0.025300 1.840370 
# 
# From -- ./inp_files/579970.got.cif
#   From: 2010.06.25/outbox.cif.g09.slc.cpg/sg2_290_cif.got.tgz:579970.got - 2010.06.27 13:26:56.
