data_PCOD8004429
_publ_section_title
;
Structure prediction by ZEFSAII (Michael W. Deem and Ramdas Pophale) SiO2 
 PCOD8004429
Probable space group: P -1
;
_chemical_formula_sum "Si O2"
_cell_formula_units_Z 16
_cell_length_a 9.029241
_cell_length_b 19.163788
_cell_length_c 7.419542
_cell_angle_alpha 125.503103
_cell_angle_beta 141.977341
_cell_angle_gamma 62.774483
_cell_volume 643.784739
_symmetry_space_group_name_H-M "P -1"
_symmetry_group_IT_number 2
_symmetry_cell_setting 'triclinic'
loop_
_space_group_symop_operation_xyz
x,y,z
-x,-y,-z
loop_
_atom_site_type_symbol
_atom_site_label
_atom_site_fract_x
_atom_site_fract_y
_atom_site_fract_z
Si Si1 0.749999 0.680619 0.270928
Si Si2 0.394819 0.613075 0.544960
Si Si3 0.858719 0.221805 0.383002
Si Si4 0.358718 0.778194 0.217586
Si Si5 0.198487 0.966830 0.851659
Si Si6 0.301513 0.966830 0.548831
Si Si7 0.250001 0.485798 0.478699
Si Si8 0.894821 0.386925 0.205737
O O1 0.626702 0.743060 0.394001
O O2 0.926690 0.620170 0.461638
O O3 0.873295 0.743063 0.335186
O O4 0.573311 0.620171 0.898871
O O5 0.285513 0.705656 0.534852
O O6 0.206598 0.543315 0.342158
O O7 0.520364 0.577088 0.430449
O O8 0.850173 0.134401 0.354287
O O9 0.749996 0.205185 0.057775
O O10 0.350173 0.865598 0.451084
O O11 0.214478 0.705657 0.082108
O O12 0.250000 0.002071 0.753106
O O13 0.952648 0.010780 0.765259
O O14 0.452648 0.989221 0.232919
O O15 0.020366 0.422913 0.199189
O O16 0.293404 0.543316 0.787791
#
# Coordination Sequence:
#
# PCOD8004429 Si02
#       8
#     2   2   2   2   2   2   2   2
#     4  10  20  38  58  87 120 166 207 254 314 380
#     4  10  21  39  58  89 124 165 206 264 309 380
#     4  10  22  40  61  91 125 162 208 258 323 378
#     4  10  22  40  61  91 125 162 208 258 323 378
#     4  10  24  44  66  95 129 166 212 267 320 390
#     4  10  24  44  66  95 129 166 212 267 320 390
#     4  10  20  40  58  85 128 158 213 262 312 372
#     4  10  21  39  58  89 124 165 206 264 309 380
#
# _framework density 24.853027000000001
#
# number of rings (size 3 to 8) (size 9 to 14) (size 15 to 20)
#    0.000    2.000    3.750    0.000    7.000    4.000 
#    2.250    0.000    0.000    0.000    0.000    0.000 
#    0.000    0.000    0.000    0.000    0.000    0.000 
#
# Total GULP energy -198261.820704 kJ/mol
# GULP energy per Si atom -12391.363794 kJ/mol
# Density = 2.479646 g / cm^3
# Si number density = 24.853027 Si / 1000 Ang^3
#
#
#
# Elastic Constant Matrix: (Units=GPa)
#
#
# Indices 1 2 3 4 5 6 
#
# 1 126.4420 53.7744 38.5841 11.0851 29.7094 -15.7429
# 2 53.7744 127.9597 47.8458 37.3048 24.9854 -14.5981
# 3 38.5841 47.8458 70.4229 5.2069 27.1257 -13.1822
# 4 11.0851 37.3048 5.2069 39.0061 -0.5833 1.2858
# 5 29.7094 24.9854 27.1257 -0.5833 38.5622 3.7191
# 6 -15.7429 -14.5981 -13.1822 1.2858 3.7191 43.5762
#
#
#
# Elastic Compliance Matrix: (Units=1/GPa)
#
#
# Indices 1 2 3 4 5 6 
#
# 1 0.011402 -0.002210 -0.001402 -0.001158 -0.006728 0.003563
# 2 -0.002210 0.017016 -0.006445 -0.014994 -0.005388 0.003855
# 3 -0.001402 -0.006445 0.025309 0.002789 -0.013086 0.006025
# 4 -0.001158 -0.014994 0.002789 0.040300 0.009894 -0.006631
# 5 -0.006728 -0.005388 -0.013086 0.009894 0.045151 -0.012340
# 6 0.003563 0.003855 0.006025 -0.006631 -0.012340 0.028599
#
#
# Mechanical properties :
#
#
# Convention : Reuss Voigt Hill
#
# Bulk Modulus (GPa) = 29.74887 67.24813 48.49850
# Shear Modulus (GPa) = 25.11367 36.53692 30.82529
#
# Velocity S-wave (km/s) = 3.18227 3.83837 3.52561
# Velocity P-wave (km/s) = 5.04959 6.83822 6.01080
#
# Compressibility (1/GPa) = 0.03361473
#
# Stress axis : x y z
#
# Youngs Moduli (GPa) = 87.70111 58.76692 39.51219
#
# Poissons Ratio (x) = 0.12987 0.05538
# Poissons Ratio (y) = 0.19381 0.25465
# Poissons Ratio (z) = 0.12293 0.37874
#
# Static dielectric constant tensor:
#      x y z
#    x 4.572290 -0.270050 0.502630 
#    y -0.270050 4.357170 0.032800 
#    z 0.502630 0.032800 4.306060 
# 
# 
# High freq. dielectric constant tensor:
#      x y z
#    x 1.991090 -0.012080 0.022610 
#    y -0.012080 1.985950 0.012840 
#    z 0.022610 0.012840 1.968490 
# 
# From -- ./inp_files/224140.got.cif
#   From: 2010.06.25/outbox.cif.g09.slc.cpg/sg2_113_cif.got.tgz:224140.got - 2010.06.27 13:26:56.
