data_PCOD8004239
_publ_section_title
;
Structure prediction by ZEFSAII (Michael W. Deem and Ramdas Pophale) SiO2 
 PCOD8004239
Probable space group: P -1
;
_chemical_formula_sum "Si O2"
_cell_formula_units_Z 16
_cell_length_a 18.973938
_cell_length_b 12.370922
_cell_length_c 15.164866
_cell_angle_alpha 116.301077
_cell_angle_beta 17.645998
_cell_angle_gamma 125.928529
_cell_volume 769.873724
_symmetry_space_group_name_H-M "P -1"
_symmetry_group_IT_number 2
_symmetry_cell_setting 'triclinic'
loop_
_space_group_symop_operation_xyz
x,y,z
-x,-y,-z
loop_
_atom_site_type_symbol
_atom_site_label
_atom_site_fract_x
_atom_site_fract_y
_atom_site_fract_z
Si Si1 0.362159 0.648138 0.182050
Si Si2 0.163617 0.426590 0.767564
Si Si3 0.276839 0.058173 0.247064
Si Si4 0.158136 0.376612 0.943851
Si Si5 0.932118 0.232405 0.335189
Si Si6 0.593165 0.581757 0.033622
Si Si7 0.467630 0.074876 0.201607
Si Si8 0.979999 0.385902 0.784237
O O1 0.140872 0.653057 0.509247
O O2 0.612501 0.676970 0.960939
O O3 0.470744 0.771901 0.022265
O O4 0.239888 0.490751 0.220105
O O5 0.086012 0.317822 0.906389
O O6 0.511234 0.552434 0.399905
O O7 0.061057 0.343819 0.765029
O O8 0.000000 0.500000 0.000000
O O9 0.236491 0.063304 0.403623
O O10 0.000000 0.000000 0.500000
O O11 0.342286 0.941680 0.099978
O O12 0.088510 0.495524 0.080147
O O13 0.963027 0.237620 0.194182
O O14 0.691323 0.057411 0.583901
O O15 0.239117 0.301560 0.043338
O O16 0.253445 0.450142 0.415975
O O17 0.678077 0.235172 0.055521
#
# Coordination Sequence:
#
# PCOD8004239 Si02
#       8
#     2   2   2   2   2   2   2   2
#     4  10  22  33  53  83 117 154 205 243 279 326
#     4   9  20  39  63  91 113 142 190 245 295 352
#     4  10  20  38  53  74 118 170 198 234 284 338
#     4  10  20  37  66  88 112 147 195 239 297 348
#     4  11  21  38  56  86 118 158 192 242 288 343
#     4  11  21  34  56  86 116 156 202 244 279 336
#     4  10  24  36  55  84 122 153 199 237 289 339
#     4  11  21  37  60  89 116 151 196 244 285 346
#
# _framework density 20.782630999999999
#
# number of rings (size 3 to 8) (size 9 to 14) (size 15 to 20)
#    0.000    1.750    2.500    1.875    1.750    6.000 
#    0.000    0.625    0.000    6.750    0.000    0.000 
#    0.000    0.000    0.000    0.000    0.000    0.000 
#
# Total GULP energy -198209.458529 kJ/mol
# GULP energy per Si atom -12388.091158 kJ/mol
# Density = 2.073533 g / cm^3
# Si number density = 20.782631 Si / 1000 Ang^3
#
#
#
# Elastic Constant Matrix: (Units=GPa)
#
#
# Indices 1 2 3 4 5 6 
#
# 1 149.7474 13.8468 18.8104 -13.7191 9.5959 -7.2983
# 2 13.8468 37.8006 3.6890 -5.4722 2.6213 -4.8942
# 3 18.8104 3.6890 65.5878 -0.5729 7.6189 -0.4833
# 4 -13.7191 -5.4722 -0.5729 25.4555 0.0361 -3.6901
# 5 9.5959 2.6213 7.6189 0.0361 35.9761 -6.7085
# 6 -7.2983 -4.8942 -0.4833 -3.6901 -6.7085 20.8631
#
#
#
# Elastic Compliance Matrix: (Units=1/GPa)
#
#
# Indices 1 2 3 4 5 6 
#
# 1 0.007640 -0.001600 -0.001927 0.004116 -0.001023 0.002652
# 2 -0.001600 0.029028 -0.001051 0.006416 -0.000106 0.007326
# 3 -0.001927 -0.001051 0.016204 -0.001152 -0.003170 -0.001768
# 4 0.004116 0.006416 -0.001152 0.044449 0.000685 0.011000
# 5 -0.001023 -0.000106 -0.003170 0.000685 0.030515 0.009477
# 6 0.002652 0.007326 -0.001768 0.011000 0.009477 0.055530
#
#
# Mechanical properties :
#
#
# Convention : Reuss Voigt Hill
#
# Bulk Modulus (GPa) = 22.87574 36.20313 29.53943
# Shear Modulus (GPa) = 24.14364 30.91159 27.52761
#
# Velocity S-wave (km/s) = 3.41210 3.86084 3.64338
# Velocity P-wave (km/s) = 5.15309 6.11003 5.65185
#
# Compressibility (1/GPa) = 0.04371444
#
# Stress axis : x y z
#
# Youngs Moduli (GPa) = 130.89402 34.44926 61.71488
#
# Poissons Ratio (x) = 0.05513 0.11891
# Poissons Ratio (y) = 0.20949 0.06488
# Poissons Ratio (z) = 0.25220 0.03622
#
# Static dielectric constant tensor:
#      x y z
#    x 4.156190 0.012800 -0.056350 
#    y 0.012800 3.296820 0.233990 
#    z -0.056350 0.233990 3.774190 
# 
# 
# High freq. dielectric constant tensor:
#      x y z
#    x 1.842980 -0.021190 -0.005540 
#    y -0.021190 1.771160 0.012570 
#    z -0.005540 0.012570 1.805420 
# 
# From -- ./inp_files/111682.got.cif
#   From: 2010.06.25/outbox.cif.g09.slc.cpg/sg2_56_cif.got.tgz:111682.got - 2010.06.27 13:26:56.
