data_PCOD8004659
_publ_section_title
;
Structure prediction by ZEFSAII (Michael W. Deem and Ramdas Pophale) SiO2 
 PCOD8004659
Probable space group: P -1
;
_chemical_formula_sum "Si O2"
_cell_formula_units_Z 16
_cell_length_a 18.151045
_cell_length_b 12.175258
_cell_length_c 8.506347
_cell_angle_alpha 105.009303
_cell_angle_beta 136.979868
_cell_angle_gamma 43.147546
_cell_volume 709.326571
_symmetry_space_group_name_H-M "P -1"
_symmetry_group_IT_number 2
_symmetry_cell_setting 'triclinic'
loop_
_space_group_symop_operation_xyz
x,y,z
-x,-y,-z
loop_
_atom_site_type_symbol
_atom_site_label
_atom_site_fract_x
_atom_site_fract_y
_atom_site_fract_z
Si Si1 0.890286 0.623871 0.536276
Si Si2 0.991571 0.981402 0.662996
Si Si3 0.202282 0.083464 0.660072
Si Si4 0.650684 0.432018 0.314616
Si Si5 0.599322 0.711035 0.253904
Si Si6 0.596399 0.319467 0.685158
Si Si7 0.467916 0.874141 0.463764
Si Si8 0.781342 0.765254 0.968587
O O1 0.824279 0.812536 0.495676
O O2 0.705064 0.710331 0.310667
O O3 0.000000 0.500000 0.500000
O O4 0.032641 0.474482 0.849106
O O5 0.950122 0.884813 0.585714
O O6 0.185869 0.840701 0.001914
O O7 0.000000 0.000000 0.500000
O O8 0.825549 0.203534 0.557854
O O9 0.169799 0.186596 0.802192
O O10 0.408005 0.849941 0.909348
O O11 0.720326 0.488604 0.360652
O O12 0.527748 0.583317 0.320256
O O13 0.500000 0.500000 0.000000
O O14 0.555523 0.791632 0.392350
O O15 0.500000 0.500000 0.500000
O O16 0.579562 0.204103 0.550673
O O17 0.612029 0.824068 0.774542
O O18 0.273853 0.115274 0.229731
#
# Coordination Sequence:
#
# PCOD8004659 Si02
#       8
#     2   2   2   2   2   2   2   2
#     4  10  22  33  57  89 119 156 203 261 319 364
#     4  12  23  40  73  99 131 178 225 271 328 400
#     4  10  21  38  58  95 128 153 212 266 323 379
#     4  11  22  42  67 103 124 178 232 266 325 404
#     4  10  20  38  61  85 130 162 206 267 314 386
#     4  11  26  44  68 100 141 173 214 282 340 382
#     4   9  20  41  61  86 123 170 211 245 318 402
#     4   9  19  37  61  84 121 161 211 250 304 392
#
# _framework density 22.556608000000001
#
# number of rings (size 3 to 8) (size 9 to 14) (size 15 to 20)
#    0.000    1.750    2.500    1.875    7.000    1.000 
#    2.250    2.500    0.000    0.000    0.000    0.000 
#    0.000    0.000    0.000    0.000    0.000    0.000 
#
# Total GULP energy -198214.224080 kJ/mol
# GULP energy per Si atom -12388.389005 kJ/mol
# Density = 2.250527 g / cm^3
# Si number density = 22.556608 Si / 1000 Ang^3
#
#
#
# Elastic Constant Matrix: (Units=GPa)
#
#
# Indices 1 2 3 4 5 6 
#
# 1 93.9369 34.8592 19.4151 -1.4057 19.3661 43.6436
# 2 34.8592 97.0854 49.1323 -12.5696 8.0990 48.5910
# 3 19.4151 49.1323 105.5327 -26.4068 16.8222 27.0143
# 4 -1.4057 -12.5696 -26.4068 35.3614 11.9718 1.2324
# 5 19.3661 8.0990 16.8222 11.9718 33.0220 -0.3785
# 6 43.6436 48.5910 27.0143 1.2324 -0.3785 55.8214
#
#
#
# Elastic Compliance Matrix: (Units=1/GPa)
#
#
# Indices 1 2 3 4 5 6 
#
# 1 0.031271 0.008445 0.013685 0.028791 -0.038271 -0.039319
# 2 0.008445 0.025324 0.002071 0.018455 -0.019256 -0.030187
# 3 0.013685 0.002071 0.026855 0.034062 -0.034866 -0.026486
# 4 0.028791 0.018455 0.034062 0.087511 -0.071148 -0.057473
# 5 -0.038271 -0.019256 -0.034866 -0.071148 0.101759 0.065817
# 6 -0.039319 -0.030187 -0.026486 -0.057473 0.065817 0.089465
#
#
# Mechanical properties :
#
#
# Convention : Reuss Voigt Hill
#
# Bulk Modulus (GPa) = 7.58427 55.92981 31.75704
# Shear Modulus (GPa) = 13.97684 37.71753 25.84719
#
# Velocity S-wave (km/s) = 2.49195 4.09360 3.38876
# Velocity P-wave (km/s) = 3.41311 6.86969 5.42411
#
# Compressibility (1/GPa) = 0.13185182
#
# Stress axis : x y z
#
# Youngs Moduli (GPa) = 31.97810 39.48817 37.23727
#
# Poissons Ratio (x) = -0.33349 -0.50957
# Poissons Ratio (y) = -0.27007 -0.07711
# Poissons Ratio (z) = -0.43760 -0.08177
#
# Static dielectric constant tensor:
#      x y z
#    x 4.256130 0.785040 -0.321880 
#    y 0.785040 4.794460 -0.739810 
#    z -0.321880 -0.739810 4.559890 
# 
# 
# High freq. dielectric constant tensor:
#      x y z
#    x 1.869910 0.036110 0.008650 
#    y 0.036110 1.896910 -0.017130 
#    z 0.008650 -0.017130 1.889860 
# 
# From -- ./inp_files/278260.got.cif
#   From: 2010.06.25/outbox.cif.g09.slc.cpg/sg2_140_cif.got.tgz:278260.got - 2010.06.27 13:26:56.
