data_PCOD8004345
_publ_section_title
;
Structure prediction by ZEFSAII (Michael W. Deem and Ramdas Pophale) SiO2 
 PCOD8004345
Probable space group: P -1
;
_chemical_formula_sum "Si O2"
_cell_formula_units_Z 16
_cell_length_a 8.525267
_cell_length_b 8.830092
_cell_length_c 15.003478
_cell_angle_alpha 140.028478
_cell_angle_beta 98.023832
_cell_angle_gamma 87.011479
_cell_volume 715.785486
_symmetry_space_group_name_H-M "P -1"
_symmetry_group_IT_number 2
_symmetry_cell_setting 'triclinic'
loop_
_space_group_symop_operation_xyz
x,y,z
-x,-y,-z
loop_
_atom_site_type_symbol
_atom_site_label
_atom_site_fract_x
_atom_site_fract_y
_atom_site_fract_z
Si Si1 0.403778 0.888144 0.631372
Si Si2 0.826215 0.428826 0.920291
Si Si3 0.676348 0.583960 0.154668
Si Si4 0.153334 0.442909 0.663830
Si Si5 0.376691 0.291935 0.079925
Si Si6 0.746625 0.898713 0.618732
Si Si7 0.129692 0.474446 0.422274
Si Si8 0.566864 0.206425 0.213686
O O1 0.555502 0.874644 0.571988
O O2 0.260650 0.692240 0.513728
O O3 0.484316 0.851052 0.716572
O O4 0.333106 0.139414 0.736071
O O5 0.787183 0.604754 0.915243
O O6 0.810220 0.167215 0.762215
O O7 0.712458 0.455950 0.007952
O O8 0.000000 0.500000 0.000000
O O9 0.810589 0.555549 0.227631
O O10 0.511252 0.456947 0.115005
O O11 0.163500 0.185652 0.501114
O O12 0.283934 0.600152 0.687344
O O13 0.978916 0.541056 0.683168
O O14 0.414806 0.302408 0.193731
O O15 0.371752 0.020042 0.931065
O O16 0.784264 0.756649 0.648255
O O17 0.000000 0.500000 0.500000
#
# Coordination Sequence:
#
# PCOD8004345 Si02
#       8
#     2   2   2   2   2   2   2   2
#     4  12  21  40  71  94 129 171 222 267 322 389
#     4  12  26  42  67  97 137 167 214 271 334 384
#     4  11  24  45  67  94 132 176 215 263 333 396
#     4  10  24  44  66  96 133 174 217 268 325 387
#     4  10  21  42  65  94 128 175 214 259 323 396
#     4  11  24  42  65 100 128 170 218 274 319 384
#     4  10  22  40  65  93 133 174 211 266 329 382
#     4  10  20  37  71  91 126 170 222 255 315 392
#
# _framework density 22.353066999999999
#
# number of rings (size 3 to 8) (size 9 to 14) (size 15 to 20)
#    0.000    1.250    5.000    1.500    5.250    1.000 
#    2.250    0.625    0.000    0.000    0.000    0.000 
#    0.000    0.000    0.000    0.000    0.000    0.000 
#
# Total GULP energy -198334.462924 kJ/mol
# GULP energy per Si atom -12395.903933 kJ/mol
# Density = 2.230219 g / cm^3
# Si number density = 22.353067 Si / 1000 Ang^3
#
#
#
# Elastic Constant Matrix: (Units=GPa)
#
#
# Indices 1 2 3 4 5 6 
#
# 1 73.4255 15.3861 14.3236 4.1955 29.7973 -26.2308
# 2 15.3861 79.6257 13.5846 5.0440 7.5320 -25.0602
# 3 14.3236 13.5846 69.2903 12.7605 6.8061 -18.1878
# 4 4.1955 5.0440 12.7605 38.1487 -5.9207 2.3390
# 5 29.7973 7.5320 6.8061 -5.9207 29.9045 -6.2335
# 6 -26.2308 -25.0602 -18.1878 2.3390 -6.2335 32.5934
#
#
#
# Elastic Compliance Matrix: (Units=1/GPa)
#
#
# Indices 1 2 3 4 5 6 
#
# 1 0.039905 0.006710 0.006108 -0.015438 -0.038731 0.034383
# 2 0.006710 0.018258 0.002208 -0.006481 -0.009024 0.019410
# 3 0.006108 0.002208 0.019918 -0.010153 -0.009726 0.016597
# 4 -0.015438 -0.006481 -0.010153 0.036920 0.022157 -0.021486
# 5 -0.038731 -0.009024 -0.009726 0.022157 0.074468 -0.030885
# 6 0.034383 0.019410 0.016597 -0.021486 -0.030885 0.078172
#
#
# Mechanical properties :
#
#
# Convention : Reuss Voigt Hill
#
# Bulk Modulus (GPa) = 9.24784 34.32559 21.78671
# Shear Modulus (GPa) = 18.27260 32.06580 25.16920
#
# Velocity S-wave (km/s) = 2.86222 3.79161 3.35921
# Velocity P-wave (km/s) = 3.88191 5.87859 4.98132
#
# Compressibility (1/GPa) = 0.10813340
#
# Stress axis : x y z
#
# Youngs Moduli (GPa) = 25.05976 54.76923 50.20549
#
# Poissons Ratio (x) = -0.36749 -0.30666
# Poissons Ratio (y) = -0.16815 -0.11086
# Poissons Ratio (z) = -0.15307 -0.12094
#
# Static dielectric constant tensor:
#      x y z
#    x 4.141490 -0.484840 0.140650 
#    y -0.484840 4.395480 -0.086170 
#    z 0.140650 -0.086170 4.225860 
# 
# 
# High freq. dielectric constant tensor:
#      x y z
#    x 1.872070 -0.021320 0.018130 
#    y -0.021320 1.889000 0.003760 
#    z 0.018130 0.003760 1.878660 
# 
# From -- ./inp_files/281730.got.cif
#   From: 2010.06.25/outbox.cif.g09.slc.cpg/sg2_141_cif.got.tgz:281730.got - 2010.06.27 13:26:56.
