data_PCOD8004093
_publ_section_title
;
Structure prediction by ZEFSAII (Michael W. Deem and Ramdas Pophale) SiO2 
 PCOD8004093
Probable space group: P -1
;
_chemical_formula_sum "Si O2"
_cell_formula_units_Z 16
_cell_length_a 16.218026
_cell_length_b 8.460062
_cell_length_c 9.230208
_cell_angle_alpha 82.817972
_cell_angle_beta 142.870177
_cell_angle_gamma 86.545317
_cell_volume 730.905838
_symmetry_space_group_name_H-M "P -1"
_symmetry_group_IT_number 2
_symmetry_cell_setting 'triclinic'
loop_
_space_group_symop_operation_xyz
x,y,z
-x,-y,-z
loop_
_atom_site_type_symbol
_atom_site_label
_atom_site_fract_x
_atom_site_fract_y
_atom_site_fract_z
Si Si1 0.597745 0.984964 0.863442
Si Si2 0.783415 0.242532 0.794043
Si Si3 0.694407 0.909419 0.697374
Si Si4 0.599770 0.685674 0.082141
Si Si5 0.262033 0.736914 0.949469
Si Si6 0.016901 0.335493 0.949150
Si Si7 0.453786 0.486195 0.708923
Si Si8 0.890124 0.439087 0.448204
O O1 0.674391 0.877479 0.844316
O O2 0.446746 0.100135 0.584112
O O3 0.576291 0.875209 0.981913
O O4 0.695955 0.095651 0.047910
O O5 0.675615 0.418986 0.583188
O O6 0.930293 0.220075 0.917472
O O7 0.718380 0.090405 0.685891
O O8 0.817758 0.249173 0.011018
O O9 0.819831 0.765387 0.822789
O O10 0.584579 0.662737 0.236587
O O11 0.755759 0.592255 0.261013
O O12 0.477804 0.620679 0.841645
O O13 0.156110 0.709429 0.679911
O O14 0.405196 0.586353 0.178947
O O15 0.956243 0.374238 0.700403
O O16 0.000000 0.500000 0.000000
O O17 0.000000 0.500000 0.500000
#
# Coordination Sequence:
#
# PCOD8004093 Si02
#       8
#     2   2   2   2   2   2   2   2
#     4  10  21  41  67 101 136 170 224 276 333 390
#     4  11  21  43  64  97 135 173 224 266 333 400
#     4  10  23  41  66  99 136 179 217 275 332 392
#     4  10  20  38  64  95 131 174 218 275 332 381
#     4  10  24  39  67 101 130 176 220 275 335 388
#     4  12  26  43  68  96 133 178 226 269 329 406
#     4  10  20  37  63  96 132 172 221 271 326 390
#     4  11  23  44  65  95 136 176 220 270 334 402
#
# _framework density 21.890644999999999
#
# number of rings (size 3 to 8) (size 9 to 14) (size 15 to 20)
#    0.000    1.500    2.500    2.250    1.750    1.500 
#    0.000    8.125    0.000    0.000    0.000    0.000 
#    0.000    0.000    0.000    0.000    0.000    0.000 
#
# Total GULP energy -198436.450226 kJ/mol
# GULP energy per Si atom -12402.278139 kJ/mol
# Density = 2.184082 g / cm^3
# Si number density = 21.890645 Si / 1000 Ang^3
#
#
#
# Elastic Constant Matrix: (Units=GPa)
#
#
# Indices 1 2 3 4 5 6 
#
# 1 125.2279 48.5752 55.7101 7.2500 2.3081 6.2638
# 2 48.5752 87.2338 44.5918 4.7149 -14.5957 10.6716
# 3 55.7101 44.5918 92.2493 6.8416 -5.2093 3.5937
# 4 7.2500 4.7149 6.8416 33.8190 0.1986 2.0056
# 5 2.3081 -14.5957 -5.2093 0.1986 38.2531 -6.5429
# 6 6.2638 10.6716 3.5937 2.0056 -6.5429 38.0403
#
#
#
# Elastic Compliance Matrix: (Units=1/GPa)
#
#
# Indices 1 2 3 4 5 6 
#
# 1 0.012249 -0.004523 -0.005304 -0.000857 -0.003315 -0.000772
# 2 -0.004523 0.018202 -0.005598 -0.000305 0.005980 -0.002788
# 3 -0.005304 -0.005598 0.016862 -0.001560 0.000668 0.001048
# 4 -0.000857 -0.000305 -0.001560 0.030194 -0.000662 -0.001332
# 5 -0.003315 0.005980 0.000668 -0.000662 0.029384 0.003894
# 6 -0.000772 -0.002788 0.001048 -0.001332 0.003894 0.027838
#
#
# Mechanical properties :
#
#
# Convention : Reuss Voigt Hill
#
# Bulk Modulus (GPa) = 60.74632 66.94057 63.84344
# Shear Modulus (GPa) = 29.22831 32.41141 30.81986
#
# Velocity S-wave (km/s) = 3.65800 3.85204 3.75627
# Velocity P-wave (km/s) = 6.75658 7.10142 6.93115
#
# Compressibility (1/GPa) = 0.01646190
#
# Stress axis : x y z
#
# Youngs Moduli (GPa) = 81.63903 54.93970 59.30463
#
# Poissons Ratio (x) = 0.24850 0.31458
# Poissons Ratio (y) = 0.36926 0.33198
# Poissons Ratio (z) = 0.43305 0.30755
#
# Static dielectric constant tensor:
#      x y z
#    x 4.267080 0.104260 0.089870 
#    y 0.104260 3.798540 0.092660 
#    z 0.089870 0.092660 3.863570 
# 
# 
# High freq. dielectric constant tensor:
#      x y z
#    x 1.876780 0.007480 0.002200 
#    y 0.007480 1.852350 0.007920 
#    z 0.002200 0.007920 1.851330 
# 
# From -- ./inp_files/279365.got.cif
#   From: 2010.06.25/outbox.cif.g09.slc.cpg/sg2_140_cif.got.tgz:279365.got - 2010.06.27 13:26:56.
