data_PCOD8004531
_publ_section_title
;
Structure prediction by ZEFSAII (Michael W. Deem and Ramdas Pophale) SiO2 
 PCOD8004531
Probable space group: P -1
;
_chemical_formula_sum "Si O2"
_cell_formula_units_Z 16
_cell_length_a 8.525558
_cell_length_b 21.612171
_cell_length_c 7.001719
_cell_angle_alpha 46.939060
_cell_angle_beta 125.253453
_cell_angle_gamma 113.183485
_cell_volume 769.723978
_symmetry_space_group_name_H-M "P -1"
_symmetry_group_IT_number 2
_symmetry_cell_setting 'triclinic'
loop_
_space_group_symop_operation_xyz
x,y,z
-x,-y,-z
loop_
_atom_site_type_symbol
_atom_site_label
_atom_site_fract_x
_atom_site_fract_y
_atom_site_fract_z
Si Si1 0.597356 0.016193 0.833403
Si Si2 0.064353 0.871812 0.118451
Si Si3 0.613054 0.718658 0.398148
Si Si4 0.371746 0.122113 0.166462
Si Si5 0.039809 0.735455 0.701572
Si Si6 0.782547 0.264329 0.766862
Si Si7 0.679463 0.539084 0.654702
Si Si8 0.077843 0.596974 0.704307
O O1 0.819988 0.040328 0.970471
O O2 0.502223 0.096658 0.490849
O O3 0.577053 0.932262 0.870509
O O4 0.500000 0.000000 0.000000
O O5 0.092404 0.818424 0.443514
O O6 0.139764 0.820080 0.097931
O O7 0.844389 0.895441 0.880422
O O8 0.449360 0.734502 0.408676
O O9 0.598439 0.622913 0.518887
O O10 0.816399 0.737723 0.601615
O O11 0.593235 0.779870 0.069208
O O12 0.082153 0.651964 0.784519
O O13 0.170501 0.735105 0.978652
O O14 0.873555 0.347606 0.562204
O O15 0.500000 0.500000 0.500000
O O16 0.862498 0.559419 0.602497
O O17 0.760549 0.475599 0.008401
#
# Coordination Sequence:
#
# PCOD8004531 Si02
#       8
#     2   2   2   2   2   2   2   2
#     4  11  23  39  62  89 116 149 191 238 285 341
#     4  10  22  38  60  88 118 154 192 232 284 341
#     4  10  21  38  60  85 113 152 197 235 285 346
#     4  10  23  42  60  84 119 153 188 235 289 342
#     4   9  20  39  59  83 120 157 190 236 285 337
#     4  11  21  36  61  88 117 154 193 237 283 333
#     4  10  20  38  60  82 117 156 189 239 292 335
#     4   9  21  38  56  86 118 151 197 235 283 345
#
# _framework density 20.786673
#
# number of rings (size 3 to 8) (size 9 to 14) (size 15 to 20)
#    0.000    2.000    0.000    3.375    0.000    7.000 
#    0.000   11.250    0.000    0.000    0.000    0.000 
#    0.000    0.000    0.000    0.000    0.000    0.000 
#
# Total GULP energy -198444.663057 kJ/mol
# GULP energy per Si atom -12402.791441 kJ/mol
# Density = 2.073936 g / cm^3
# Si number density = 20.786673 Si / 1000 Ang^3
#
#
#
# Elastic Constant Matrix: (Units=GPa)
#
#
# Indices 1 2 3 4 5 6 
#
# 1 119.4543 20.6220 22.3375 12.8393 3.6375 2.4893
# 2 20.6220 60.0909 20.9791 7.0714 -4.8295 3.8305
# 3 22.3375 20.9791 52.7505 1.9666 4.6893 -8.9857
# 4 12.8393 7.0714 1.9666 24.3845 -4.2012 2.5188
# 5 3.6375 -4.8295 4.6893 -4.2012 30.1495 -3.4163
# 6 2.4893 3.8305 -8.9857 2.5188 -3.4163 35.1263
#
#
#
# Elastic Compliance Matrix: (Units=1/GPa)
#
#
# Indices 1 2 3 4 5 6 
#
# 1 0.009873 -0.001730 -0.003375 -0.004596 -0.001721 -0.001212
# 2 -0.001730 0.021194 -0.008562 -0.003464 0.004029 -0.003739
# 3 -0.003375 -0.008562 0.025345 0.000785 -0.003980 0.007213
# 4 -0.004596 -0.003464 0.000785 0.045593 0.006029 -0.001779
# 5 -0.001721 0.004029 -0.003980 0.006029 0.035673 0.001702
# 6 -0.001212 -0.003739 0.007213 -0.001779 0.001702 0.031101
#
#
# Mechanical properties :
#
#
# Convention : Reuss Voigt Hill
#
# Bulk Modulus (GPa) = 34.39103 40.01923 37.20513
# Shear Modulus (GPa) = 24.29478 29.15587 26.72533
#
# Velocity S-wave (km/s) = 3.42243 3.74922 3.58955
# Velocity P-wave (km/s) = 5.67433 6.16736 5.92598
#
# Compressibility (1/GPa) = 0.02907735
#
# Stress axis : x y z
#
# Youngs Moduli (GPa) = 101.28842 47.18240 39.45602
#
# Poissons Ratio (x) = 0.08163 0.13315
# Poissons Ratio (y) = 0.17525 0.33784
# Poissons Ratio (z) = 0.34182 0.40399
#
# Static dielectric constant tensor:
#      x y z
#    x 3.903580 0.124130 0.155630 
#    y 0.124130 3.649480 -0.223700 
#    z 0.155630 -0.223700 3.652490 
# 
# 
# High freq. dielectric constant tensor:
#      x y z
#    x 1.827700 0.012090 0.010110 
#    y 0.012090 1.809590 -0.016350 
#    z 0.010110 -0.016350 1.805880 
# 
# From -- ./inp_files/52273.got.cif
#   From: 2010.06.25/outbox.cif.g09.slc.cpg/sg2_27_cif.got.tgz:52273.got - 2010.06.27 13:26:56.
