data_PCOD8004845
_publ_section_title
;
Structure prediction by ZEFSAII (Michael W. Deem and Ramdas Pophale) SiO2 
 PCOD8004845
Probable space group: P -1
;
_chemical_formula_sum "Si O2"
_cell_formula_units_Z 16
_cell_length_a 8.783891
_cell_length_b 19.103514
_cell_length_c 11.406748
_cell_angle_alpha 44.823737
_cell_angle_beta 41.532513
_cell_angle_gamma 74.798873
_cell_volume 731.970148
_symmetry_space_group_name_H-M "P -1"
_symmetry_group_IT_number 2
_symmetry_cell_setting 'triclinic'
loop_
_space_group_symop_operation_xyz
x,y,z
-x,-y,-z
loop_
_atom_site_type_symbol
_atom_site_label
_atom_site_fract_x
_atom_site_fract_y
_atom_site_fract_z
Si Si1 0.210915 0.640821 0.378997
Si Si2 0.938636 0.374854 0.940915
Si Si3 0.095529 0.992386 0.583101
Si Si4 0.272253 0.273053 0.864463
Si Si5 0.084079 0.226708 0.578692
Si Si6 0.674072 0.982478 0.012893
Si Si7 0.481166 0.761383 0.850181
Si Si8 0.479795 0.258963 0.518029
O O1 0.504555 0.720429 0.184202
O O2 0.037831 0.500629 0.676591
O O3 0.003745 0.680330 0.481867
O O4 0.291002 0.655410 0.178971
O O5 0.206965 0.371474 0.813842
O O6 0.721185 0.262579 0.113656
O O7 0.784257 0.362161 0.167412
O O8 0.405596 0.110020 0.300569
O O9 0.000000 0.000000 0.500000
O O10 0.029927 0.858581 0.791268
O O11 0.914048 0.990215 0.794075
O O12 0.419250 0.304747 0.615733
O O13 0.269808 0.248622 0.329240
O O14 0.240431 0.233528 0.597337
O O15 0.800078 0.091064 0.904356
O O16 0.506828 0.856596 0.329869
O O17 0.500000 0.000000 0.000000
#
# Coordination Sequence:
#
# PCOD8004845 Si02
#       8
#     2   2   2   2   2   2   2   2
#     4  12  24  41  66  91 126 173 218 255 307 373
#     4  11  26  42  62  93 128 174 211 256 314 370
#     4  10  20  38  62  93 121 154 205 256 318 375
#     4  11  24  41  63  93 127 163 211 264 318 373
#     4  10  22  40  64  92 126 168 208 262 315 369
#     4  10  21  36  62  95 125 161 204 257 321 381
#     4  10  23  41  65  94 124 162 214 262 311 375
#     4  10  23  41  61  92 130 162 209 260 317 379
#
# _framework density 21.858815
#
# number of rings (size 3 to 8) (size 9 to 14) (size 15 to 20)
#    0.000    1.500    1.250    3.375    1.750    6.000 
#    0.000    0.000    0.000    0.000    0.000    0.000 
#    0.000    0.000    0.000    0.000    0.000    0.000 
#
# Total GULP energy -198305.969446 kJ/mol
# GULP energy per Si atom -12394.123090 kJ/mol
# Density = 2.180906 g / cm^3
# Si number density = 21.858815 Si / 1000 Ang^3
#
#
#
# Elastic Constant Matrix: (Units=GPa)
#
#
# Indices 1 2 3 4 5 6 
#
# 1 88.9149 34.8568 18.6192 4.1384 2.1951 -18.8679
# 2 34.8568 79.5416 22.4470 1.8778 6.4762 -18.8794
# 3 18.6192 22.4470 99.5207 -1.0477 18.6967 -9.3680
# 4 4.1384 1.8778 -1.0477 33.1013 6.2669 6.7701
# 5 2.1951 6.4762 18.6967 6.2669 32.7273 0.5093
# 6 -18.8679 -18.8794 -9.3680 6.7701 0.5093 39.2271
#
#
#
# Elastic Compliance Matrix: (Units=1/GPa)
#
#
# Indices 1 2 3 4 5 6 
#
# 1 0.014578 -0.004882 -0.001445 -0.002812 0.001278 0.004786
# 2 -0.004882 0.016749 -0.002050 -0.001204 -0.001670 0.005452
# 3 -0.001445 -0.002050 0.012173 0.001764 -0.006805 0.001009
# 4 -0.002812 -0.001204 0.001764 0.033460 -0.006876 -0.007196
# 5 0.001278 -0.001670 -0.006805 -0.006876 0.036022 -0.001095
# 6 0.004786 0.005452 0.001009 -0.007196 -0.001095 0.031916
#
#
# Mechanical properties :
#
#
# Convention : Reuss Voigt Hill
#
# Bulk Modulus (GPa) = 37.39096 46.64703 42.01899
# Shear Modulus (GPa) = 29.31395 33.81475 31.56435
#
# Velocity S-wave (km/s) = 3.66602 3.93741 3.80414
# Velocity P-wave (km/s) = 5.92135 6.48517 6.20966
#
# Compressibility (1/GPa) = 0.02674443
#
# Stress axis : x y z
#
# Youngs Moduli (GPa) = 68.59517 59.70651 82.14910
#
# Poissons Ratio (x) = 0.29151 0.11874
# Poissons Ratio (y) = 0.33491 0.16840
# Poissons Ratio (z) = 0.09915 0.12239
#
# Static dielectric constant tensor:
#      x y z
#    x 3.860790 0.181800 -0.066410 
#    y 0.181800 3.979480 -0.018630 
#    z -0.066410 -0.018630 4.135130 
# 
# 
# High freq. dielectric constant tensor:
#      x y z
#    x 1.859410 0.006220 0.006890 
#    y 0.006220 1.856210 0.004910 
#    z 0.006890 0.004910 1.867500 
# 
# From -- ./inp_files/283070.got.cif
#   From: 2010.06.25/outbox.cif.g09.slc.cpg/sg2_142_cif.got.tgz:283070.got - 2010.06.27 13:26:56.
