data_PCOD8004184
_publ_section_title
;
Structure prediction by ZEFSAII (Michael W. Deem and Ramdas Pophale) SiO2 
 PCOD8004184
Probable space group: P -1
;
_chemical_formula_sum "Si O2"
_cell_formula_units_Z 14
_cell_length_a 15.328974
_cell_length_b 18.468007
_cell_length_c 9.012237
_cell_angle_alpha 57.140322
_cell_angle_beta 57.597620
_cell_angle_gamma 18.269092
_cell_volume 669.760567
_symmetry_space_group_name_H-M "P -1"
_symmetry_group_IT_number 2
_symmetry_cell_setting 'triclinic'
loop_
_space_group_symop_operation_xyz
x,y,z
-x,-y,-z
loop_
_atom_site_type_symbol
_atom_site_label
_atom_site_fract_x
_atom_site_fract_y
_atom_site_fract_z
Si Si1 0.827787 0.062023 0.757003
Si Si2 0.097716 0.559417 0.423869
Si Si3 0.827443 0.247131 0.499224
Si Si4 0.781887 0.647220 0.716340
Si Si5 0.799426 0.918555 0.097639
Si Si6 0.783830 0.469023 0.343614
Si Si7 0.821860 0.769329 0.993124
O O1 0.908907 0.098066 0.686588
O O2 0.506870 0.305605 0.727462
O O3 0.033983 0.868521 0.658546
O O4 0.863541 0.971106 0.966719
O O5 0.835477 0.701436 0.545367
O O6 0.984846 0.736315 0.262851
O O7 0.286511 0.363330 0.348666
O O8 0.271747 0.446893 0.537535
O O9 0.500000 0.500000 0.500000
O O10 0.910959 0.273696 0.466783
O O11 0.524247 0.847734 0.837938
O O12 0.055173 0.404057 0.827836
O O13 0.864524 0.824310 0.984868
O O14 0.010362 0.351010 0.180194
O O15 0.500000 0.000000 0.000000
#
# Coordination Sequence:
#
# PCOD8004184 Si02
#       7
#     2   2   2   2   2   2   2
#     4  10  20  37  65  88 112 153 196 242 303 344
#     4  10  24  36  57  83 123 161 195 237 293 348
#     4   9  20  37  62  91 116 142 194 252 297 350
#     4  10  22  41  53  80 123 167 197 236 288 350
#     4  11  21  39  59  84 116 162 194 239 297 348
#     4  11  21  38  59  90 117 151 198 249 287 345
#     4  11  23  34  59  90 118 152 205 246 283 342
#
# _framework density 20.902992999999999
#
# number of rings (size 3 to 8) (size 9 to 14) (size 15 to 20)
#    0.000    1.714    2.857    1.286    2.000    4.571 
#    0.000    0.714    0.000    8.571    0.000    0.000 
#    0.000    0.000    0.000    0.000    0.000    0.000 
#
# Total GULP energy -173553.900375 kJ/mol
# GULP energy per Si atom -12396.707170 kJ/mol
# Density = 2.085542 g / cm^3
# Si number density = 20.902993 Si / 1000 Ang^3
#
#
#
# Elastic Constant Matrix: (Units=GPa)
#
#
# Indices 1 2 3 4 5 6 
#
# 1 63.3143 -1.0770 36.0850 -11.4266 -3.8299 13.6390
# 2 -1.0770 59.8650 16.2785 11.5474 -1.6184 3.9618
# 3 36.0850 16.2785 121.5582 -13.7282 -21.1122 8.2549
# 4 -11.4266 11.5474 -13.7282 24.6453 4.2628 -9.0500
# 5 -3.8299 -1.6184 -21.1122 4.2628 41.0245 -3.5203
# 6 13.6390 3.9618 8.2549 -9.0500 -3.5203 24.9710
#
#
#
# Elastic Compliance Matrix: (Units=1/GPa)
#
#
# Indices 1 2 3 4 5 6 
#
# 1 0.021737 0.002174 -0.006188 0.002466 -0.002148 -0.009581
# 2 0.002174 0.021375 -0.004685 -0.014604 -0.000568 -0.008403
# 3 -0.006188 -0.004685 0.012071 0.006328 0.005062 0.003139
# 4 0.002466 -0.014604 0.006328 0.059826 -0.001561 0.020340
# 5 -0.002148 -0.000568 0.005062 -0.001561 0.027165 0.002854
# 6 -0.009581 -0.008403 0.003139 0.020340 0.002854 0.053349
#
#
# Mechanical properties :
#
#
# Convention : Reuss Voigt Hill
#
# Bulk Modulus (GPa) = 26.46529 38.59005 32.52767
# Shear Modulus (GPa) = 22.17142 31.02489 26.59816
#
# Velocity S-wave (km/s) = 3.26034 3.85675 3.57102
# Velocity P-wave (km/s) = 5.18282 6.19147 5.70946
#
# Compressibility (1/GPa) = 0.03778533
#
# Stress axis : x y z
#
# Youngs Moduli (GPa) = 46.00493 46.78329 82.84116
#
# Poissons Ratio (x) = -0.10170 0.51259
# Poissons Ratio (y) = -0.10001 0.38813
# Poissons Ratio (z) = 0.28466 0.21919
#
# Static dielectric constant tensor:
#      x y z
#    x 3.812340 0.415740 -0.404610 
#    y 0.415740 3.801260 0.005860 
#    z -0.404610 0.005860 4.040450 
# 
# 
# High freq. dielectric constant tensor:
#      x y z
#    x 1.795170 0.027780 -0.023880 
#    y 0.027780 1.816810 0.007160 
#    z -0.023880 0.007160 1.825970 
# 
# From -- ./inp_files/28454.got.cif
#   From: 2010.06.25/outbox.cif.g09.slc.cpg/sg2_15_cif.got.tgz:28454.got - 2010.06.27 13:26:56.
