data_PCOD8004979
_publ_section_title
;
Structure prediction by ZEFSAII (Michael W. Deem and Ramdas Pophale) SiO2 
 PCOD8004979
Probable space group: P -1
;
_chemical_formula_sum "Si O2"
_cell_formula_units_Z 12
_cell_length_a 15.436118
_cell_length_b 9.055521
_cell_length_c 24.651355
_cell_angle_alpha 148.336819
_cell_angle_beta 17.904097
_cell_angle_gamma 148.472371
_cell_volume 536.476405
_symmetry_space_group_name_H-M "P -1"
_symmetry_group_IT_number 2
_symmetry_cell_setting 'triclinic'
loop_
_space_group_symop_operation_xyz
x,y,z
-x,-y,-z
loop_
_atom_site_type_symbol
_atom_site_label
_atom_site_fract_x
_atom_site_fract_y
_atom_site_fract_z
Si Si1 0.042471 0.871666 0.752633
Si Si2 0.775410 0.056337 0.071076
Si Si3 0.342999 0.205568 0.530821
Si Si4 0.377085 0.245421 0.821722
Si Si5 0.533216 0.582532 0.362519
Si Si6 0.238794 0.143318 0.201356
O O1 0.198076 0.603084 0.573435
O O2 0.864171 0.845400 0.795414
O O3 0.284950 0.185131 0.716945
O O4 0.833272 0.852704 0.923705
O O5 0.568571 0.254202 0.232345
O O6 0.614865 0.837699 0.145421
O O7 0.061805 0.270617 0.996355
O O8 0.500000 0.500000 0.500000
O O9 0.297946 0.285103 0.643280
O O10 0.558236 0.002818 0.332288
O O11 0.008013 0.026674 0.661004
O O12 0.632907 0.535112 0.750066
O O13 0.500000 0.000000 0.000000
#
# Coordination Sequence:
#
# PCOD8004979 Si02
#       6
#     2   2   2   2   2   2
#     4  10  22  40  63  92 132 173 219 269 324 386
#     4  11  22  39  69  96 129 177 225 257 325 399
#     4  11  21  42  70  95 131 176 218 269 325 394
#     4  11  23  40  66 101 132 171 220 270 327 386
#     4  10  20  38  63  95 125 172 223 265 314 391
#     4  11  26  44  64  99 134 169 219 278 333 381
#
# _framework density 22.368178
#
# number of rings (size 3 to 8) (size 9 to 14) (size 15 to 20)
#    0.000    1.333    3.333    3.000    2.333    0.667 
#    3.000    0.833    0.000    0.000    0.000    0.000 
#    0.000    0.000    0.000    0.000    0.000    0.000 
#
# Total GULP energy -148666.600889 kJ/mol
# GULP energy per Si atom -12388.883407 kJ/mol
# Density = 2.231727 g / cm^3
# Si number density = 22.368178 Si / 1000 Ang^3
#
#
#
# Elastic Constant Matrix: (Units=GPa)
#
#
# Indices 1 2 3 4 5 6 
#
# 1 37.2375 19.5392 24.2979 2.9638 -13.4121 -6.9101
# 2 19.5392 134.0534 43.4045 -11.2731 -8.2314 -10.9026
# 3 24.2979 43.4045 142.8338 14.8078 -18.6813 -14.1235
# 4 2.9638 -11.2731 14.8078 39.1504 -7.2125 1.0242
# 5 -13.4121 -8.2314 -18.6813 -7.2125 43.0144 1.3833
# 6 -6.9101 -10.9026 -14.1235 1.0242 1.3833 25.6167
#
#
#
# Elastic Compliance Matrix: (Units=1/GPa)
#
#
# Indices 1 2 3 4 5 6 
#
# 1 0.034803 -0.003117 -0.003181 -0.000911 0.008532 0.005883
# 2 -0.003117 0.009177 -0.002463 0.003826 0.000307 0.001537
# 3 -0.003181 -0.002463 0.009233 -0.003710 0.001821 0.003234
# 4 -0.000911 0.003826 -0.003710 0.028858 0.003741 -0.002018
# 5 0.008532 0.000307 0.001821 0.003741 0.027327 0.001811
# 6 0.005883 0.001537 0.003234 -0.002018 0.001811 0.043045
#
#
# Mechanical properties :
#
#
# Convention : Reuss Voigt Hill
#
# Bulk Modulus (GPa) = 28.01812 54.28978 41.15395
# Shear Modulus (GPa) = 27.49319 36.68183 32.08751
#
# Velocity S-wave (km/s) = 3.50968 4.05398 3.79161
# Velocity P-wave (km/s) = 5.38302 6.79975 6.13244
#
# Compressibility (1/GPa) = 0.03569119
#
# Stress axis : x y z
#
# Youngs Moduli (GPa) = 28.73293 108.96563 108.30302
#
# Poissons Ratio (x) = 0.33965 0.34453
# Poissons Ratio (y) = 0.08956 0.26676
# Poissons Ratio (z) = 0.09141 0.26839
#
# Static dielectric constant tensor:
#      x y z
#    x 4.143490 -1.133240 0.043560 
#    y -1.133240 6.806570 -0.291600 
#    z 0.043560 -0.291600 4.133040 
# 
# 
# High freq. dielectric constant tensor:
#      x y z
#    x 1.870110 -0.013780 0.002720 
#    y -0.013780 1.860190 0.003120 
#    z 0.002720 0.003120 1.896520 
# 
# From -- ./inp_files/147474.got.cif
#   From: 2010.06.25/outbox.cif.g09.slc.cpg/sg2_74_cif.got.tgz:147474.got - 2010.06.27 13:26:56.
