data_PCOD8004864
_publ_section_title
;
Structure prediction by ZEFSAII (Michael W. Deem and Ramdas Pophale) SiO2 
 PCOD8004864
Probable space group: P -1
;
_chemical_formula_sum "Si O2"
_cell_formula_units_Z 16
_cell_length_a 11.345151
_cell_length_b 10.039671
_cell_length_c 16.232332
_cell_angle_alpha 78.470288
_cell_angle_beta 59.553093
_cell_angle_gamma 126.446327
_cell_volume 886.705365
_symmetry_space_group_name_H-M "P -1"
_symmetry_group_IT_number 2
_symmetry_cell_setting 'triclinic'
loop_
_space_group_symop_operation_xyz
x,y,z
-x,-y,-z
loop_
_atom_site_type_symbol
_atom_site_label
_atom_site_fract_x
_atom_site_fract_y
_atom_site_fract_z
Si Si1 0.837620 0.631025 0.721934
Si Si2 0.791190 0.642848 0.556338
Si Si3 0.450069 0.614514 0.710455
Si Si4 0.629015 0.968020 0.481400
Si Si5 0.560235 0.686783 0.405760
Si Si6 0.728738 0.853744 0.736600
Si Si7 0.418069 0.285645 0.022468
Si Si8 0.044058 0.091177 0.881814
O O1 0.756455 0.536926 0.668151
O O2 0.844236 0.798975 0.712856
O O3 0.646354 0.405870 0.880235
O O4 0.093749 0.772682 0.629641
O O5 0.651406 0.672728 0.600513
O O6 0.674374 0.460856 0.546074
O O7 0.074062 0.892167 0.409418
O O8 0.496821 0.797261 0.628862
O O9 0.486250 0.655864 0.791433
O O10 0.179590 0.346697 0.815804
O O11 0.619936 0.856605 0.423674
O O12 0.500000 0.000000 0.500000
O O13 0.500000 0.500000 0.500000
O O14 0.782661 0.858298 0.242384
O O15 0.663032 0.862389 0.848624
O O16 0.500000 0.500000 0.000000
O O17 0.207143 0.107970 0.051944
O O18 0.000000 0.000000 0.000000
#
# Coordination Sequence:
#
# PCOD8004864 Si02
#       8
#     2   2   2   2   2   2   2   2
#     4  10  18  34  50  78 112 145 186 226 281 338
#     4  10  16  29  57  79 107 139 179 240 283 316
#     4  10  19  33  53  83 114 144 188 232 287 329
#     4  12  23  37  57  83 118 157 190 233 284 341
#     4  11  19  34  57  88 114 142 193 241 277 327
#     4  10  16  29  54  83 108 139 180 238 285 328
#     4  10  19  28  48  81 114 141 176 231 289 337
#     4  11  20  32  56  90 121 142 178 245 295 334
#
# _framework density 18.044324
#
# number of rings (size 3 to 8) (size 9 to 14) (size 15 to 20)
#    0.000    1.500    5.000    6.000    0.000    0.000 
#    0.000    0.625    0.000    3.750    0.000    0.000 
#    0.000    0.000    0.000    0.000    0.000    0.000 
#
# Total GULP energy -198287.780926 kJ/mol
# GULP energy per Si atom -12392.986308 kJ/mol
# Density = 1.800325 g / cm^3
# Si number density = 18.044324 Si / 1000 Ang^3
#
#
#
# Elastic Constant Matrix: (Units=GPa)
#
#
# Indices 1 2 3 4 5 6 
#
# 1 104.5658 47.3538 44.1707 2.0035 -0.6352 21.6665
# 2 47.3538 59.8894 30.8770 -2.0635 -1.5006 30.1049
# 3 44.1707 30.8770 120.6648 1.3127 10.5110 16.2991
# 4 2.0035 -2.0635 1.3127 26.7046 17.2594 -0.0601
# 5 -0.6352 -1.5006 10.5110 17.2594 26.3699 -0.2499
# 6 21.6665 30.1049 16.2991 -0.0601 -0.2499 36.6567
#
#
#
# Elastic Compliance Matrix: (Units=1/GPa)
#
#
# Indices 1 2 3 4 5 6 
#
# 1 0.016175 -0.012018 -0.003402 -0.004625 0.004106 0.001843
# 2 -0.012018 0.040058 -0.002585 0.003930 0.000215 -0.024638
# 3 -0.003402 -0.002585 0.010893 0.004293 -0.007388 -0.000753
# 4 -0.004625 0.003930 0.004293 0.067472 -0.045785 -0.002605
# 5 0.004106 0.000215 -0.007388 -0.045785 0.070955 0.001091
# 6 0.001843 -0.024638 -0.000753 -0.002605 0.001091 0.046763
#
#
# Mechanical properties :
#
#
# Convention : Reuss Voigt Hill
#
# Bulk Modulus (GPa) = 32.13738 58.88034 45.50886
# Shear Modulus (GPa) = 16.73944 28.79413 22.76678
#
# Velocity S-wave (km/s) = 3.04910 3.99901 3.55592
# Velocity P-wave (km/s) = 5.49953 7.35014 6.49113
#
# Compressibility (1/GPa) = 0.03111642
#
# Stress axis : x y z
#
# Youngs Moduli (GPa) = 61.82555 24.96392 91.80447
#
# Poissons Ratio (x) = 0.30001 0.31231
# Poissons Ratio (y) = 0.74301 0.23728
# Poissons Ratio (z) = 0.21032 0.06452
#
# Static dielectric constant tensor:
#      x y z
#    x 2.517240 1.612930 0.256030 
#    y 1.612930 1.920460 -0.133630 
#    z 0.256030 -0.133630 3.732510 
# 
# 
# High freq. dielectric constant tensor:
#      x y z
#    x 1.666850 0.063450 0.014630 
#    y 0.063450 1.672220 -0.006100 
#    z 0.014630 -0.006100 1.713440 
# 
# From -- ./inp_files/305507.got.cif
#   From: 2010.06.25/outbox.cif.g09.slc.cpg/sg2_153_cif.got.tgz:305507.got - 2010.06.27 13:26:56.
