data_PCOD8004649
_publ_section_title
;
Structure prediction by ZEFSAII (Michael W. Deem and Ramdas Pophale) SiO2 
 PCOD8004649
Probable space group: P -1
;
_chemical_formula_sum "Si O2"
_cell_formula_units_Z 14
_cell_length_a 14.733484
_cell_length_b 12.156713
_cell_length_c 13.527865
_cell_angle_alpha 44.624450
_cell_angle_beta 143.048501
_cell_angle_gamma 104.966510
_cell_volume 693.388906
_symmetry_space_group_name_H-M "P -1"
_symmetry_group_IT_number 2
_symmetry_cell_setting 'triclinic'
loop_
_space_group_symop_operation_xyz
x,y,z
-x,-y,-z
loop_
_atom_site_type_symbol
_atom_site_label
_atom_site_fract_x
_atom_site_fract_y
_atom_site_fract_z
Si Si1 0.253208 0.030179 0.385658
Si Si2 0.465970 0.735482 0.938735
Si Si3 0.521325 0.428419 0.675751
Si Si4 0.662668 0.734599 0.291554
Si Si5 0.466778 0.645166 0.682807
Si Si6 0.132709 0.461635 0.955078
Si Si7 0.011302 0.818353 0.761774
O O1 0.023144 0.172212 0.154542
O O2 0.462393 0.815064 0.775305
O O3 0.269616 0.913283 0.375158
O O4 0.270411 0.200329 0.268790
O O5 0.639486 0.696834 0.182474
O O6 0.529680 0.504132 0.143077
O O7 0.216625 0.940899 0.638685
O O8 0.500000 0.500000 0.500000
O O9 0.407172 0.348153 0.639769
O O10 0.416220 0.629673 0.535816
O O11 0.787188 0.217035 0.064020
O O12 0.918704 0.584264 0.624699
O O13 0.500000 0.000000 0.000000
O O14 0.703035 0.553978 0.954982
O O15 0.059397 0.607390 0.897528
#
# Coordination Sequence:
#
# PCOD8004649 Si02
#       7
#     2   2   2   2   2   2   2
#     4  10  20  38  61  85 113 157 193 234 282 347
#     4   9  21  37  60  81 117 149 197 228 288 335
#     4  10  22  38  57  87 116 146 195 242 286 335
#     4  11  21  35  57  90 118 143 188 247 286 326
#     4  10  22  38  62  81 118 156 193 228 290 352
#     4  11  21  36  60  88 116 152 193 238 286 334
#     4   9  20  35  63  79 112 151 198 225 287 333
#
# _framework density 20.190688000000002
#
# number of rings (size 3 to 8) (size 9 to 14) (size 15 to 20)
#    0.857    1.143    1.429    2.143    2.000    5.143 
#    0.000    7.143    0.000    0.000    0.000    0.000 
#    0.000    0.000    0.000    0.000    0.000    0.000 
#
# Total GULP energy -173495.023599 kJ/mol
# GULP energy per Si atom -12392.501686 kJ/mol
# Density = 2.014473 g / cm^3
# Si number density = 20.190688 Si / 1000 Ang^3
#
#
#
# Elastic Constant Matrix: (Units=GPa)
#
#
# Indices 1 2 3 4 5 6 
#
# 1 60.0001 38.6485 16.9741 1.4552 -6.1953 -13.7158
# 2 38.6485 124.5936 41.0290 -15.2084 6.9541 -0.4152
# 3 16.9741 41.0290 57.0483 0.0311 -3.5290 -2.8154
# 4 1.4552 -15.2084 0.0311 36.2979 -0.3686 5.4672
# 5 -6.1953 6.9541 -3.5290 -0.3686 32.6736 -6.3060
# 6 -13.7158 -0.4152 -2.8154 5.4672 -6.3060 34.0100
#
#
#
# Elastic Compliance Matrix: (Units=1/GPa)
#
#
# Indices 1 2 3 4 5 6 
#
# 1 0.027438 -0.010036 0.000368 -0.007313 0.009999 0.014003
# 2 -0.010036 0.015441 -0.008943 0.007896 -0.007466 -0.007253
# 3 0.000368 -0.008943 0.024364 -0.004290 0.005275 0.003724
# 4 -0.007313 0.007896 -0.004290 0.032514 -0.004970 -0.009356
# 5 0.009999 -0.007466 0.005275 -0.004970 0.036925 0.012023
# 6 0.014003 -0.007253 0.003724 -0.009356 0.012023 0.039003
#
#
# Mechanical properties :
#
#
# Convention : Reuss Voigt Hill
#
# Bulk Modulus (GPa) = 33.31148 48.32727 40.81937
# Shear Modulus (GPa) = 22.43023 30.26233 26.34628
#
# Velocity S-wave (km/s) = 3.33666 3.87567 3.61622
# Velocity P-wave (km/s) = 5.60167 6.63439 6.13978
#
# Compressibility (1/GPa) = 0.03001968
#
# Stress axis : x y z
#
# Youngs Moduli (GPa) = 36.44553 64.76435 41.04492
#
# Poissons Ratio (x) = 0.65000 -0.01510
# Poissons Ratio (y) = 0.36578 0.36705
# Poissons Ratio (z) = -0.01341 0.57917
#
# Static dielectric constant tensor:
#      x y z
#    x 3.525290 -0.040860 0.029530 
#    y -0.040860 3.767850 -0.004510 
#    z 0.029530 -0.004510 3.530200 
# 
# 
# High freq. dielectric constant tensor:
#      x y z
#    x 1.778230 -0.000950 -0.000780 
#    y -0.000950 1.796730 -0.006110 
#    z -0.000780 -0.006110 1.768540 
# 
# From -- ./inp_files/240016.got.cif
#   From: 2010.06.25/outbox.cif.g09.slc.cpg/sg2_121_cif.got.tgz:240016.got - 2010.06.27 13:26:56.
