data_PCOD8004527
_publ_section_title
;
Structure prediction by ZEFSAII (Michael W. Deem and Ramdas Pophale) SiO2 
 PCOD8004527
Probable space group: P -1
;
_chemical_formula_sum "Si O2"
_cell_formula_units_Z 16
_cell_length_a 20.610602
_cell_length_b 11.574417
_cell_length_c 9.691199
_cell_angle_alpha 130.416506
_cell_angle_beta 45.755229
_cell_angle_gamma 149.033435
_cell_volume 844.260052
_symmetry_space_group_name_H-M "P -1"
_symmetry_group_IT_number 2
_symmetry_cell_setting 'triclinic'
loop_
_space_group_symop_operation_xyz
x,y,z
-x,-y,-z
loop_
_atom_site_type_symbol
_atom_site_label
_atom_site_fract_x
_atom_site_fract_y
_atom_site_fract_z
Si Si1 0.914476 0.957815 0.720615
Si Si2 0.511289 0.765041 0.249014
Si Si3 0.971236 0.618790 0.207601
Si Si4 0.022495 0.153156 0.199969
Si Si5 0.852009 0.387094 0.642687
Si Si6 0.179356 0.923741 0.384563
Si Si7 0.703410 0.242795 0.466857
Si Si8 0.361834 0.300308 0.199144
O O1 0.909313 0.839151 0.763684
O O2 0.759752 0.795887 0.790873
O O3 0.000000 0.000000 0.500000
O O4 0.992663 0.212662 0.833646
O O5 0.398365 0.744473 0.352918
O O6 0.457347 0.567201 0.281053
O O7 0.631674 0.002958 0.330209
O O8 0.562338 0.746242 0.020407
O O9 0.815940 0.438526 0.343058
O O10 0.066586 0.763944 0.310536
O O11 0.000000 0.500000 0.000000
O O12 0.127341 0.411301 0.187559
O O13 0.881444 0.054274 0.380870
O O14 0.000000 0.000000 0.000000
O O15 0.774569 0.186729 0.715921
O O16 0.771261 0.277978 0.535828
O O17 0.000000 0.500000 0.500000
O O18 0.309251 0.175530 0.328742
#
# Coordination Sequence:
#
# PCOD8004527 Si02
#       8
#     2   2   2   2   2   2   2   2
#     4  11  19  36  61  88 120 151 193 266 306 342
#     4  10  23  36  60  85 116 166 198 250 280 357
#     4  11  21  32  61  91 117 147 194 254 311 349
#     4  11  22  34  54  93 124 155 185 239 325 362
#     4  10  20  38  60  81 123 154 185 247 310 363
#     4  10  21  38  58  88 121 154 193 256 304 357
#     4  11  20  39  57  86 121 154 202 240 301 355
#     4  10  20  39  58  85 118 152 212 243 297 344
#
# _framework density 18.951505000000001
#
# number of rings (size 3 to 8) (size 9 to 14) (size 15 to 20)
#    0.000    1.500    5.000    3.000    1.750    2.000 
#    0.000    1.250    0.000    0.000    0.000    0.000 
#    0.000    0.000    0.000    0.000    0.000    0.000 
#
# Total GULP energy -198316.197871 kJ/mol
# GULP energy per Si atom -12394.762367 kJ/mol
# Density = 1.890837 g / cm^3
# Si number density = 18.951505 Si / 1000 Ang^3
#
#
#
# Elastic Constant Matrix: (Units=GPa)
#
#
# Indices 1 2 3 4 5 6 
#
# 1 85.6749 24.3426 12.9749 5.9252 -1.4740 -19.7547
# 2 24.3426 103.5464 20.7060 9.4822 0.8132 -25.0827
# 3 12.9749 20.7060 81.9246 12.9097 -9.2021 -7.3918
# 4 5.9252 9.4822 12.9097 34.2519 -3.9992 -3.3330
# 5 -1.4740 0.8132 -9.2021 -3.9992 24.1899 0.0255
# 6 -19.7547 -25.0827 -7.3918 -3.3330 0.0255 44.3569
#
#
#
# Elastic Compliance Matrix: (Units=1/GPa)
#
#
# Indices 1 2 3 4 5 6 
#
# 1 0.013499 -0.001710 -0.001090 -0.000949 0.000304 0.004792
# 2 -0.001710 0.012016 -0.002156 -0.001871 -0.001644 0.005534
# 3 -0.001090 -0.002156 0.014107 -0.003947 0.004720 0.000347
# 4 -0.000949 -0.001871 -0.003947 0.031829 0.003766 0.000251
# 5 0.000304 -0.001644 0.004720 0.003766 0.043831 0.000250
# 6 0.004792 0.005534 0.000347 0.000251 0.000250 0.027884
#
#
# Mechanical properties :
#
#
# Convention : Reuss Voigt Hill
#
# Bulk Modulus (GPa) = 33.65996 43.02143 38.34070
# Shear Modulus (GPa) = 30.67829 34.76790 32.72310
#
# Velocity S-wave (km/s) = 4.02777 4.28784 4.15984
# Velocity P-wave (km/s) = 6.27935 6.87489 6.58386
#
# Compressibility (1/GPa) = 0.02970889
#
# Stress axis : x y z
#
# Youngs Moduli (GPa) = 74.08138 83.22554 70.88511
#
# Poissons Ratio (x) = 0.14234 0.07724
# Poissons Ratio (y) = 0.12670 0.15286
# Poissons Ratio (z) = 0.08072 0.17947
#
# Static dielectric constant tensor:
#      x y z
#    x 4.249910 -0.610720 -0.071360 
#    y -0.610720 3.946630 0.038440 
#    z -0.071360 0.038440 3.502730 
# 
# 
# High freq. dielectric constant tensor:
#      x y z
#    x 1.730680 -0.025170 -0.020620 
#    y -0.025170 1.748720 0.008270 
#    z -0.020620 0.008270 1.723180 
# 
# From -- ./inp_files/274660.got.cif
#   From: 2010.06.25/outbox.cif.g09.slc.cpg/sg2_138_cif.got.tgz:274660.got - 2010.06.27 13:26:56.
