data_PCOD8004833
_publ_section_title
;
Structure prediction by ZEFSAII (Michael W. Deem and Ramdas Pophale) SiO2 
 PCOD8004833
Probable space group: P -1
;
_chemical_formula_sum "Si O2"
_cell_formula_units_Z 16
_cell_length_a 12.744611
_cell_length_b 9.295046
_cell_length_c 22.169840
_cell_angle_alpha 143.398554
_cell_angle_beta 36.091443
_cell_angle_gamma 117.840948
_cell_volume 789.401312
_symmetry_space_group_name_H-M "P -1"
_symmetry_group_IT_number 2
_symmetry_cell_setting 'triclinic'
loop_
_space_group_symop_operation_xyz
x,y,z
-x,-y,-z
loop_
_atom_site_type_symbol
_atom_site_label
_atom_site_fract_x
_atom_site_fract_y
_atom_site_fract_z
Si Si1 0.663563 0.205674 0.503182
Si Si2 0.596955 0.802863 0.478484
Si Si3 0.969481 0.286207 0.086412
Si Si4 0.932556 0.780328 0.661210
Si Si5 0.718867 0.352650 0.108635
Si Si6 0.303260 0.150640 0.098194
Si Si7 0.346195 0.283576 0.849671
Si Si8 0.537366 0.374468 0.006246
O O1 0.581373 0.243920 0.484685
O O2 0.520379 0.475061 0.701726
O O3 0.893059 0.146953 0.380748
O O4 0.662119 0.945945 0.445653
O O5 0.819141 0.509297 0.283160
O O6 0.507405 0.975888 0.641060
O O7 0.860936 0.359507 0.096908
O O8 0.187661 0.269780 0.966200
O O9 0.000000 0.000000 0.000000
O O10 0.887815 0.680757 0.711763
O O11 0.000000 0.500000 0.500000
O O12 0.744570 0.063514 0.812615
O O13 0.767771 0.488853 0.074212
O O14 0.755194 0.048203 0.977818
O O15 0.335082 0.350118 0.105146
O O16 0.500000 0.000000 0.000000
O O17 0.472819 0.393392 0.865396
O O18 0.500000 0.500000 0.000000
#
# Coordination Sequence:
#
# PCOD8004833 Si02
#       8
#     2   2   2   2   2   2   2   2
#     4   9  18  36  61  94 120 151 208 264 305 361
#     4   9  21  37  63  92 125 161 207 260 312 381
#     4  11  25  40  60  97 132 163 205 262 329 379
#     4  11  22  37  67  95 123 165 218 268 313 387
#     4  10  20  39  67  89 123 163 210 259 304 386
#     4  10  20  38  62  92 119 164 214 256 313 381
#     4  11  22  41  69  88 121 174 214 258 319 389
#     4  11  25  43  63  90 132 169 212 267 334 379
#
# _framework density 20.268522999999998
#
# number of rings (size 3 to 8) (size 9 to 14) (size 15 to 20)
#    0.000    1.750    2.500    3.375    5.250    0.500 
#    0.000    1.875    0.000    0.000    0.000    0.000 
#    0.000    0.000    0.000    0.000    0.000    0.000 
#
# Total GULP energy -198210.176990 kJ/mol
# GULP energy per Si atom -12388.136062 kJ/mol
# Density = 2.022239 g / cm^3
# Si number density = 20.268523 Si / 1000 Ang^3
#
#
#
# Elastic Constant Matrix: (Units=GPa)
#
#
# Indices 1 2 3 4 5 6 
#
# 1 58.3081 33.0381 46.8334 -1.0309 23.9196 6.8464
# 2 33.0381 132.0838 55.7515 -9.0094 3.2803 1.8774
# 3 46.8334 55.7515 132.3502 5.9338 18.9481 9.5045
# 4 -1.0309 -9.0094 5.9338 24.3986 11.6292 -2.6689
# 5 23.9196 3.2803 18.9481 11.6292 29.7599 2.6533
# 6 6.8464 1.8774 9.5045 -2.6689 2.6533 34.9296
#
#
#
# Elastic Compliance Matrix: (Units=1/GPa)
#
#
# Indices 1 2 3 4 5 6 
#
# 1 0.040936 -0.004600 -0.008383 0.018107 -0.033997 -0.001530
# 2 -0.004600 0.010254 -0.003411 0.002888 0.003500 0.001233
# 3 -0.008383 -0.003411 0.012101 -0.005633 0.001791 -0.002033
# 4 0.018107 0.002888 -0.005633 0.061898 -0.035945 0.005288
# 5 -0.033997 0.003500 0.001791 -0.035945 0.073657 -0.002353
# 6 -0.001530 0.001233 -0.002033 0.005288 -0.002353 0.029998
#
#
# Mechanical properties :
#
#
# Convention : Reuss Voigt Hill
#
# Bulk Modulus (GPa) = 32.78255 65.99869 49.39062
# Shear Modulus (GPa) = 18.39592 30.29221 24.34407
#
# Velocity S-wave (km/s) = 3.01593 3.87013 3.46942
# Velocity P-wave (km/s) = 5.32325 7.25282 6.36162
#
# Compressibility (1/GPa) = 0.03050403
#
# Stress axis : x y z
#
# Youngs Moduli (GPa) = 24.42834 97.52564 82.63938
#
# Poissons Ratio (x) = 0.44862 0.69273
# Poissons Ratio (y) = 0.11237 0.28186
# Poissons Ratio (z) = 0.20477 0.33263
#
# Static dielectric constant tensor:
#      x y z
#    x 3.074400 0.329930 0.265270 
#    y 0.329930 3.910120 -0.197840 
#    z 0.265270 -0.197840 3.945100 
# 
# 
# High freq. dielectric constant tensor:
#      x y z
#    x 1.783390 0.019610 0.020260 
#    y 0.019610 1.791790 -0.008890 
#    z 0.020260 -0.008890 1.791290 
# 
# From -- ./inp_files/273694.got.cif
#   From: 2010.06.25/outbox.cif.g09.slc.cpg/sg2_137_cif.got.tgz:273694.got - 2010.06.27 13:26:56.
