data_PCOD8004778
_publ_section_title
;
Structure prediction by ZEFSAII (Michael W. Deem and Ramdas Pophale) SiO2 
 PCOD8004778
Probable space group: P -1
;
_chemical_formula_sum "Si O2"
_cell_formula_units_Z 16
_cell_length_a 8.418503
_cell_length_b 11.831743
_cell_length_c 18.705079
_cell_angle_alpha 28.454702
_cell_angle_beta 125.636796
_cell_angle_gamma 126.846896
_cell_volume 702.843335
_symmetry_space_group_name_H-M "P -1"
_symmetry_group_IT_number 2
_symmetry_cell_setting 'triclinic'
loop_
_space_group_symop_operation_xyz
x,y,z
-x,-y,-z
loop_
_atom_site_type_symbol
_atom_site_label
_atom_site_fract_x
_atom_site_fract_y
_atom_site_fract_z
Si Si1 0.418453 0.492391 0.644515
Si Si2 0.832572 0.895299 0.726245
Si Si3 0.794583 0.527083 0.800021
Si Si4 0.183853 0.977343 0.868423
Si Si5 0.584143 0.053561 0.692847
Si Si6 0.166724 0.635800 0.620354
Si Si7 0.925842 0.127478 0.841509
Si Si8 0.844667 0.164352 0.345717
O O1 0.658601 0.575169 0.670893
O O2 0.351402 0.663298 0.472345
O O3 0.332320 0.530550 0.679610
O O4 0.355170 0.210713 0.759734
O O5 0.744813 0.674395 0.773390
O O6 0.043813 0.859542 0.831700
O O7 0.667562 0.890730 0.746908
O O8 0.892673 0.151577 0.558672
O O9 0.027942 0.609606 0.792602
O O10 0.723771 0.238256 0.956374
O O11 0.046082 0.076114 0.833141
O O12 0.688668 0.036451 0.807792
O O13 0.342126 0.966051 0.680859
O O14 0.249559 0.743493 0.659193
O O15 0.972076 0.417789 0.705043
O O16 0.000000 0.000000 0.000000
O O17 0.000000 0.000000 0.500000
#
# Coordination Sequence:
#
# PCOD8004778 Si02
#       8
#     2   2   2   2   2   2   2   2
#     4  10  20  38  64  89 117 159 204 249 295 354
#     4  10  20  38  62  88 118 157 206 249 294 355
#     4  12  22  37  59  89 131 160 194 245 302 358
#     4  10  22  38  60  89 120 159 202 251 301 350
#     4  10  21  40  65  92 116 158 208 248 295 358
#     4  10  20  38  64  87 118 159 204 252 297 354
#     4  10  21  41  63  87 122 159 202 251 303 359
#     4  12  22  38  59  91 129 155 196 246 302 358
#
# _framework density 22.764675
#
# number of rings (size 3 to 8) (size 9 to 14) (size 15 to 20)
#    0.000    1.500    2.500    3.000    0.000    5.000 
#    0.000   13.750    0.000    0.000    0.000    0.000 
#    0.000    0.000    0.000    0.000    0.000    0.000 
#
# Total GULP energy -198339.414483 kJ/mol
# GULP energy per Si atom -12396.213405 kJ/mol
# Density = 2.271286 g / cm^3
# Si number density = 22.764675 Si / 1000 Ang^3
#
#
#
# Elastic Constant Matrix: (Units=GPa)
#
#
# Indices 1 2 3 4 5 6 
#
# 1 47.0859 26.1465 20.3033 0.4686 -0.8799 19.7451
# 2 26.1465 122.8238 48.5123 14.8637 8.5824 26.0404
# 3 20.3033 48.5123 89.8410 7.2143 6.8613 3.1655
# 4 0.4686 14.8637 7.2143 45.4958 1.6437 10.4511
# 5 -0.8799 8.5824 6.8613 1.6437 25.5690 0.1434
# 6 19.7451 26.0404 3.1655 10.4511 0.1434 31.1046
#
#
#
# Elastic Compliance Matrix: (Units=1/GPa)
#
#
# Indices 1 2 3 4 5 6 
#
# 1 0.034152 -0.000535 -0.007356 0.006055 0.003066 -0.022532
# 2 -0.000535 0.013103 -0.006339 -0.000959 -0.002600 -0.009651
# 3 -0.007356 -0.006339 0.016272 -0.002450 -0.002386 0.009155
# 4 0.006055 -0.000959 -0.002450 0.025220 -0.000370 -0.011263
# 5 0.003066 -0.002600 -0.002386 -0.000370 0.040750 0.000410
# 6 -0.022532 -0.009651 0.009155 -0.011263 0.000410 0.057383
#
#
# Mechanical properties :
#
#
# Convention : Reuss Voigt Hill
#
# Bulk Modulus (GPa) = 28.51541 49.96389 39.23965
# Shear Modulus (GPa) = 22.02353 31.41978 26.72166
#
# Velocity S-wave (km/s) = 3.11375 3.71913 3.42982
# Velocity P-wave (km/s) = 5.04783 6.35911 5.74103
#
# Compressibility (1/GPa) = 0.03506876
#
# Stress axis : x y z
#
# Youngs Moduli (GPa) = 29.28081 76.31703 61.45350
#
# Poissons Ratio (x) = 0.04081 0.45204
# Poissons Ratio (y) = 0.01566 0.38955
# Poissons Ratio (z) = 0.21538 0.48377
#
# Static dielectric constant tensor:
#      x y z
#    x 3.906560 -0.003730 0.027850 
#    y -0.003730 4.301930 0.029550 
#    z 0.027850 0.029550 4.053010 
# 
# 
# High freq. dielectric constant tensor:
#      x y z
#    x 1.872140 0.003330 0.005890 
#    y 0.003330 1.909160 -0.002760 
#    z 0.005890 -0.002760 1.891390 
# 
# From -- ./inp_files/218880.got.cif
#   From: 2010.06.25/outbox.cif.g09.slc.cpg/sg2_110_cif.got.tgz:218880.got - 2010.06.27 13:26:56.
