data_PCOD8004699
_publ_section_title
;
Structure prediction by ZEFSAII (Michael W. Deem and Ramdas Pophale) SiO2 
 PCOD8004699
Probable space group: P -1
;
_chemical_formula_sum "Si O2"
_cell_formula_units_Z 16
_cell_length_a 13.075212
_cell_length_b 13.140983
_cell_length_c 9.222905
_cell_angle_alpha 62.665960
_cell_angle_beta 92.200453
_cell_angle_gamma 43.319695
_cell_volume 764.468396
_symmetry_space_group_name_H-M "P -1"
_symmetry_group_IT_number 2
_symmetry_cell_setting 'triclinic'
loop_
_space_group_symop_operation_xyz
x,y,z
-x,-y,-z
loop_
_atom_site_type_symbol
_atom_site_label
_atom_site_fract_x
_atom_site_fract_y
_atom_site_fract_z
Si Si1 0.019203 0.529326 0.640825
Si Si2 0.878538 0.293933 0.126332
Si Si3 0.832416 0.103677 0.140790
Si Si4 0.498188 0.531484 0.311947
Si Si5 0.917352 0.681239 0.968249
Si Si6 0.338375 0.059800 0.463247
Si Si7 0.458028 0.694802 0.774173
Si Si8 0.868222 0.327889 0.427681
O O1 0.150133 0.518867 0.650595
O O2 0.000000 0.500000 0.500000
O O3 0.818701 0.747229 0.559623
O O4 0.122220 0.330385 0.866022
O O5 0.945795 0.117017 0.159719
O O6 0.961225 0.218985 0.344189
O O7 0.940407 0.345304 0.001803
O O8 0.654814 0.503258 0.992614
O O9 0.691000 0.230178 0.184727
O O10 0.705780 0.222846 0.908831
O O11 0.989704 0.856161 0.320744
O O12 0.500000 0.500000 0.500000
O O13 0.534494 0.377971 0.331000
O O14 0.661152 0.470424 0.332590
O O15 0.730765 0.896598 0.733871
O O16 0.000000 0.500000 0.000000
O O17 0.500000 0.000000 0.500000
O O18 0.413474 0.869443 0.646677
#
# Coordination Sequence:
#
# PCOD8004699 Si02
#       8
#     2   2   2   2   2   2   2   2
#     4  11  25  44  63  93 132 172 216 271 339 384
#     4  11  19  36  69  96 125 163 215 275 312 377
#     4  11  22  39  67  99 121 167 222 259 316 387
#     4  11  26  42  61  99 140 167 204 270 337 389
#     4  10  20  38  61  90 122 171 215 257 320 383
#     4  11  23  38  66  96 123 168 229 272 311 389
#     4  11  20  39  65  96 124 163 220 266 311 387
#     4  12  22  40  71  90 127 174 216 267 322 393
#
# _framework density 20.929577999999999
#
# number of rings (size 3 to 8) (size 9 to 14) (size 15 to 20)
#    0.000    1.000    6.250    2.625    1.750    3.500 
#    2.250    0.625    0.000    0.000    0.000    0.000 
#    0.000    0.000    0.000    0.000    0.000    0.000 
#
# Total GULP energy -198365.307188 kJ/mol
# GULP energy per Si atom -12397.831699 kJ/mol
# Density = 2.088194 g / cm^3
# Si number density = 20.929578 Si / 1000 Ang^3
#
#
#
# Elastic Constant Matrix: (Units=GPa)
#
#
# Indices 1 2 3 4 5 6 
#
# 1 156.4297 28.4453 37.9191 4.5195 -14.6223 15.3972
# 2 28.4453 45.6605 31.2199 17.0602 -3.1157 5.9903
# 3 37.9191 31.2199 131.9528 20.4533 -12.5925 10.4298
# 4 4.5195 17.0602 20.4533 34.9737 2.8864 1.0639
# 5 -14.6223 -3.1157 -12.5925 2.8864 37.4491 -1.9515
# 6 15.3972 5.9903 10.4298 1.0639 -1.9515 13.4215
#
#
#
# Elastic Compliance Matrix: (Units=1/GPa)
#
#
# Indices 1 2 3 4 5 6 
#
# 1 0.008145 -0.003983 -0.000895 0.001444 0.002089 -0.006682
# 2 -0.003983 0.032827 -0.004109 -0.012960 0.000491 -0.005790
# 3 -0.000895 -0.004109 0.009995 -0.003824 0.002745 -0.004204
# 4 0.001444 -0.012960 -0.003824 0.037228 -0.004487 0.003495
# 5 0.002089 0.000491 0.002745 -0.004487 0.028818 -0.000203
# 6 -0.006682 -0.005790 -0.004204 0.003495 -0.000203 0.087718
#
#
# Mechanical properties :
#
#
# Convention : Reuss Voigt Hill
#
# Bulk Modulus (GPa) = 30.30897 58.80128 44.55512
# Shear Modulus (GPa) = 21.39488 32.93279 27.16384
#
# Velocity S-wave (km/s) = 3.20070 3.97105 3.60650
# Velocity P-wave (km/s) = 5.30775 7.01295 6.21907
#
# Compressibility (1/GPa) = 0.03299353
#
# Stress axis : x y z
#
# Youngs Moduli (GPa) = 122.77526 30.46302 100.05268
#
# Poissons Ratio (x) = 0.12133 0.08952
# Poissons Ratio (y) = 0.48901 0.41110
# Poissons Ratio (z) = 0.10985 0.12517
#
# Static dielectric constant tensor:
#      x y z
#    x 4.257680 0.137320 -0.453400 
#    y 0.137320 3.390870 -0.195980 
#    z -0.453400 -0.195980 5.008770 
# 
# 
# High freq. dielectric constant tensor:
#      x y z
#    x 1.841160 0.008770 -0.006730 
#    y 0.008770 1.772700 -0.003300 
#    z -0.006730 -0.003300 1.837860 
# 
# From -- ./inp_files/186095.got.cif
#   From: 2010.06.25/outbox.cif.g09.slc.cpg/sg2_94_cif.got.tgz:186095.got - 2010.06.27 13:26:56.
