data_PCOD8004739
_publ_section_title
;
Structure prediction by ZEFSAII (Michael W. Deem and Ramdas Pophale) SiO2 
 PCOD8004739
Probable space group: P -1
;
_chemical_formula_sum "Si O2"
_cell_formula_units_Z 16
_cell_length_a 25.585996
_cell_length_b 17.278774
_cell_length_c 13.914178
_cell_angle_alpha 146.691578
_cell_angle_beta 157.223216
_cell_angle_gamma 21.462248
_cell_volume 860.423570
_symmetry_space_group_name_H-M "P -1"
_symmetry_group_IT_number 2
_symmetry_cell_setting 'triclinic'
loop_
_space_group_symop_operation_xyz
x,y,z
-x,-y,-z
loop_
_atom_site_type_symbol
_atom_site_label
_atom_site_fract_x
_atom_site_fract_y
_atom_site_fract_z
Si Si1 0.905420 0.166381 0.425682
Si Si2 0.185063 0.950582 0.013057
Si Si3 0.740515 0.918868 0.084233
Si Si4 0.834665 0.541980 0.918083
Si Si5 0.557522 0.545571 0.338932
Si Si6 0.782705 0.385156 0.837207
Si Si7 0.529016 0.358371 0.266679
Si Si8 0.702042 0.906286 0.790454
O O1 0.666512 0.379419 0.263424
O O2 0.026228 0.217933 0.680306
O O3 0.927903 0.087397 0.274097
O O4 0.000000 0.000000 0.500000
O O5 0.355555 0.777347 0.198627
O O6 0.273258 0.965000 0.086590
O O7 0.023919 0.162830 0.025186
O O8 0.616813 0.136424 0.157656
O O9 0.744269 0.770308 0.995479
O O10 0.641451 0.972325 0.867390
O O11 0.723954 0.528055 0.638963
O O12 0.764492 0.537415 0.897535
O O13 0.082316 0.348900 0.121586
O O14 0.487380 0.485968 0.235634
O O15 0.681505 0.323670 0.558277
O O16 0.686031 0.497307 0.892917
O O17 0.500000 0.000000 0.500000
#
# Coordination Sequence:
#
# PCOD8004739 Si02
#       8
#     2   2   2   2   2   2   2   2
#     4  12  19  36  56  85 120 147 183 235 285 340
#     4  11  21  35  57  86 116 149 188 238 278 334
#     4  12  21  35  60  85 117 151 186 231 287 340
#     4  10  22  38  57  82 116 153 186 234 286 339
#     4  11  21  36  58  85 116 151 187 229 288 341
#     4   9  20  40  60  81 111 150 198 236 276 334
#     4  10  20  38  62  82 109 154 194 235 283 328
#     4  11  22  36  56  84 118 153 187 227 286 348
#
# _framework density 18.595492
#
# number of rings (size 3 to 8) (size 9 to 14) (size 15 to 20)
#    0.000    1.250    5.000    2.250    1.750    1.000 
#    0.000    0.000    0.000    6.750    0.000    0.000 
#    0.000    0.000    0.000    0.000    0.000    0.000 
#
# Total GULP energy -198310.692555 kJ/mol
# GULP energy per Si atom -12394.418285 kJ/mol
# Density = 1.855317 g / cm^3
# Si number density = 18.595492 Si / 1000 Ang^3
#
#
#
# Elastic Constant Matrix: (Units=GPa)
#
#
# Indices 1 2 3 4 5 6 
#
# 1 108.2771 79.2398 40.0627 -2.2335 9.6220 -13.5055
# 2 79.2398 141.0535 45.5593 0.6953 5.5258 4.7326
# 3 40.0627 45.5593 85.0935 -7.3467 0.4690 3.6764
# 4 -2.2335 0.6953 -7.3467 29.7133 5.6200 3.0823
# 5 9.6220 5.5258 0.4690 5.6200 23.0223 -0.0867
# 6 -13.5055 4.7326 3.6764 3.0823 -0.0867 32.2753
#
#
#
# Elastic Compliance Matrix: (Units=1/GPa)
#
#
# Indices 1 2 3 4 5 6 
#
# 1 0.019921 -0.009867 -0.004443 0.000706 -0.006001 0.010205
# 2 -0.009867 0.013592 -0.002506 -0.001317 0.001212 -0.005707
# 3 -0.004443 -0.002506 0.015659 0.003744 0.001212 -0.003630
# 4 0.000706 -0.001317 0.003744 0.036733 -0.009035 -0.003470
# 5 -0.006001 0.001212 0.001212 -0.009035 0.047827 -0.001835
# 6 0.010205 -0.005707 -0.003630 -0.003470 -0.001835 0.036831
#
#
# Mechanical properties :
#
#
# Convention : Reuss Voigt Hill
#
# Bulk Modulus (GPa) = 64.34786 73.79417 69.07101
# Shear Modulus (GPa) = 23.88066 28.30633 26.09350
#
# Velocity S-wave (km/s) = 3.58749 3.90579 3.75002
# Velocity P-wave (km/s) = 7.19994 7.75308 7.48163
#
# Compressibility (1/GPa) = 0.01554053
#
# Stress axis : x y z
#
# Youngs Moduli (GPa) = 50.19834 73.57180 63.86281
#
# Poissons Ratio (x) = 0.72591 0.28375
# Poissons Ratio (y) = 0.49529 0.16002
# Poissons Ratio (z) = 0.22304 0.18435
#
# Static dielectric constant tensor:
#      x y z
#    x 3.483000 -0.025360 0.148270 
#    y -0.025360 3.408740 -0.029470 
#    z 0.148270 -0.029470 3.359930 
# 
# 
# High freq. dielectric constant tensor:
#      x y z
#    x 1.716580 0.002490 0.008220 
#    y 0.002490 1.721230 -0.000900 
#    z 0.008220 -0.000900 1.712540 
# 
# From -- ./inp_files/170446.got.cif
#   From: 2010.06.25/outbox.cif.g09.slc.cpg/sg2_86_cif.got.tgz:170446.got - 2010.06.27 13:26:56.
