data_PCOD8004960
_publ_section_title
;
Structure prediction by ZEFSAII (Michael W. Deem and Ramdas Pophale) SiO2 
 PCOD8004960
Probable space group: P -1
;
_chemical_formula_sum "Si O2"
_cell_formula_units_Z 16
_cell_length_a 8.850312
_cell_length_b 15.292417
_cell_length_c 21.426257
_cell_angle_alpha 153.058290
_cell_angle_beta 39.912741
_cell_angle_gamma 142.733274
_cell_volume 777.883072
_symmetry_space_group_name_H-M "P -1"
_symmetry_group_IT_number 2
_symmetry_cell_setting 'triclinic'
loop_
_space_group_symop_operation_xyz
x,y,z
-x,-y,-z
loop_
_atom_site_type_symbol
_atom_site_label
_atom_site_fract_x
_atom_site_fract_y
_atom_site_fract_z
Si Si1 0.066939 0.849064 0.702522
Si Si2 0.592978 0.486940 0.392579
Si Si3 0.393598 0.050645 0.130790
Si Si4 0.403669 0.291843 0.858830
Si Si5 0.981879 0.278460 0.887139
Si Si6 0.155598 0.213230 0.663946
Si Si7 0.888410 0.228670 0.640372
Si Si8 0.325026 0.552647 0.396391
O O1 0.209203 0.731214 0.541146
O O2 0.895032 0.675563 0.697490
O O3 0.274816 0.075407 0.803738
O O4 0.864221 0.904510 0.761877
O O5 0.500000 0.500000 0.500000
O O6 0.423493 0.548517 0.434117
O O7 0.885684 0.647108 0.399491
O O8 0.597844 0.257492 0.229904
O O9 0.303435 0.846595 0.074115
O O10 0.500000 0.000000 0.000000
O O11 0.200990 0.310464 0.887437
O O12 0.645384 0.285871 0.740707
O O13 0.500000 0.500000 0.000000
O O14 0.026653 0.155759 0.735351
O O15 0.000000 0.500000 0.000000
O O16 0.438919 0.398725 0.694893
O O17 0.980599 0.286286 0.719613
O O18 0.198405 0.017316 0.497155
#
# Coordination Sequence:
#
# PCOD8004960 Si02
#       8
#     2   2   2   2   2   2   2   2
#     4   9  19  37  61  85 112 158 205 246 303 369
#     4  10  21  38  60  88 121 160 204 249 306 371
#     4  10  23  40  63  85 121 166 205 248 307 374
#     4  11  23  40  59  89 125 162 204 255 313 370
#     4  11  25  41  63  91 121 165 215 259 299 374
#     4  10  20  38  63  94 122 155 205 254 309 370
#     4  10  21  37  64  90 124 162 196 254 321 368
#     4   9  18  37  64  87 118 157 201 254 309 366
#
# _framework density 20.568643000000002
#
# number of rings (size 3 to 8) (size 9 to 14) (size 15 to 20)
#    0.000    2.000    1.250    1.500    8.750    0.500 
#    9.000    0.000    0.000    2.250    0.000    0.000 
#    0.000    0.000    0.000    0.000    0.000    0.000 
#
# Total GULP energy -198228.227038 kJ/mol
# GULP energy per Si atom -12389.264190 kJ/mol
# Density = 2.052183 g / cm^3
# Si number density = 20.568643 Si / 1000 Ang^3
#
#
#
# Elastic Constant Matrix: (Units=GPa)
#
#
# Indices 1 2 3 4 5 6 
#
# 1 49.5427 33.1521 29.5192 -4.0921 -1.6591 -0.7355
# 2 33.1521 170.9211 55.6661 3.5080 8.7425 4.7766
# 3 29.5192 55.6661 92.6393 8.1510 4.0926 -4.9189
# 4 -4.0921 3.5080 8.1510 41.9725 -4.8210 5.4526
# 5 -1.6591 8.7425 4.0926 -4.8210 35.0105 -3.6728
# 6 -0.7355 4.7766 -4.9189 5.4526 -3.6728 30.4093
#
#
#
# Elastic Compliance Matrix: (Units=1/GPa)
#
#
# Indices 1 2 3 4 5 6 
#
# 1 0.027194 -0.003136 -0.007387 0.004818 0.003548 -0.000480
# 2 -0.003136 0.007830 -0.003717 -0.000185 -0.001916 -0.002105
# 3 -0.007387 -0.003717 0.016002 -0.004151 -0.001491 0.003558
# 4 0.004818 -0.000185 -0.004151 0.026178 0.003866 -0.004753
# 5 0.003548 -0.001916 -0.001491 0.003866 0.030242 0.003105
# 6 -0.000480 -0.002105 0.003558 -0.004753 0.003105 0.035006
#
#
# Mechanical properties :
#
#
# Convention : Reuss Voigt Hill
#
# Bulk Modulus (GPa) = 44.35252 61.08642 52.71947
# Shear Modulus (GPa) = 28.01964 34.46284 31.24124
#
# Velocity S-wave (km/s) = 3.69487 4.09773 3.90151
# Velocity P-wave (km/s) = 6.30973 7.22162 6.78102
#
# Compressibility (1/GPa) = 0.02254663
#
# Stress axis : x y z
#
# Youngs Moduli (GPa) = 36.77266 127.71558 62.49330
#
# Poissons Ratio (x) = 0.40047 0.46165
# Poissons Ratio (y) = 0.11531 0.23226
# Poissons Ratio (z) = 0.27165 0.47467
#
# Static dielectric constant tensor:
#      x y z
#    x 3.683080 -0.033140 -0.074620 
#    y -0.033140 5.090360 0.179540 
#    z -0.074620 0.179540 3.754760 
# 
# 
# High freq. dielectric constant tensor:
#      x y z
#    x 1.765560 0.017700 -0.018620 
#    y 0.017700 1.832090 0.014810 
#    z -0.018620 0.014810 1.798760 
# 
# From -- ./inp_files/590304.got.cif
#   From: 2010.06.25/outbox.cif.g09.slc.cpg/sg2_296_cif.got.tgz:590304.got - 2010.06.27 13:26:56.
