data_PCOD8004653
_publ_section_title
;
Structure prediction by ZEFSAII (Michael W. Deem and Ramdas Pophale) SiO2 
 PCOD8004653
Probable space group: P -1
;
_chemical_formula_sum "Si O2"
_cell_formula_units_Z 14
_cell_length_a 8.396558
_cell_length_b 10.782186
_cell_length_c 19.689631
_cell_angle_alpha 138.030823
_cell_angle_beta 141.678630
_cell_angle_gamma 42.056758
_cell_volume 682.536906
_symmetry_space_group_name_H-M "P -1"
_symmetry_group_IT_number 2
_symmetry_cell_setting 'triclinic'
loop_
_space_group_symop_operation_xyz
x,y,z
-x,-y,-z
loop_
_atom_site_type_symbol
_atom_site_label
_atom_site_fract_x
_atom_site_fract_y
_atom_site_fract_z
Si Si1 0.115860 0.226563 0.735470
Si Si2 0.426643 0.074419 0.319588
Si Si3 0.846294 0.106307 0.163605
Si Si4 0.612780 0.139550 0.552871
Si Si5 0.662839 0.667899 0.735096
Si Si6 0.743243 0.447159 0.370657
Si Si7 0.472047 0.056928 0.909717
O O1 0.943236 0.083892 0.635975
O O2 0.924048 0.457205 0.748062
O O3 0.308337 0.122825 0.693341
O O4 0.313901 0.211734 0.860158
O O5 0.487288 0.165941 0.446421
O O6 0.344056 0.258725 0.314117
O O7 0.172120 0.000544 0.212296
O O8 0.803287 0.317436 0.270035
O O9 0.759914 0.962216 0.125057
O O10 0.664246 0.150193 0.051824
O O11 0.507801 0.344480 0.644209
O O12 0.500000 0.000000 0.500000
O O13 0.364938 0.653605 0.645068
O O14 0.677909 0.839961 0.861135
O O15 0.000000 0.500000 0.500000
#
# Coordination Sequence:
#
# PCOD8004653 Si02
#       7
#     2   2   2   2   2   2   2
#     4  10  22  39  58  90 121 158 198 246 300 357
#     4  11  22  38  60  89 125 156 196 248 304 358
#     4  10  20  39  64  91 111 164 200 246 305 347
#     4  11  23  38  60  87 122 159 200 246 298 358
#     4   9  22  39  60  89 118 162 197 244 305 350
#     4  10  20  38  61  85 118 156 204 245 289 354
#     4   9  20  42  66  81 123 154 206 250 290 358
#
# _framework density 20.511710000000001
#
# number of rings (size 3 to 8) (size 9 to 14) (size 15 to 20)
#    0.000    2.000    1.429    1.286    4.000    5.714 
#    0.000   17.143    0.000    0.000    0.000    0.000 
#    0.000    0.000    0.000    0.000    0.000    0.000 
#
# Total GULP energy -173516.167358 kJ/mol
# GULP energy per Si atom -12394.011954 kJ/mol
# Density = 2.046502 g / cm^3
# Si number density = 20.511710 Si / 1000 Ang^3
#
#
#
# Elastic Constant Matrix: (Units=GPa)
#
#
# Indices 1 2 3 4 5 6 
#
# 1 101.4022 50.8832 39.2252 2.0192 -1.6556 -21.1049
# 2 50.8832 120.7947 38.9187 -3.7900 -6.8239 -11.1722
# 3 39.2252 38.9187 133.1452 1.8698 -6.6678 -17.4343
# 4 2.0192 -3.7900 1.8698 24.7759 -0.1182 1.9260
# 5 -1.6556 -6.8239 -6.6678 -0.1182 30.0101 -12.6323
# 6 -21.1049 -11.1722 -17.4343 1.9260 -12.6323 27.6432
#
#
#
# Elastic Compliance Matrix: (Units=1/GPa)
#
#
# Indices 1 2 3 4 5 6 
#
# 1 0.015174 -0.004801 -0.001427 -0.002679 0.003933 0.010728
# 2 -0.004801 0.011083 -0.001672 0.002178 0.002138 0.000584
# 3 -0.001427 -0.001672 0.009471 -0.001320 0.004272 0.006252
# 4 -0.002679 0.002178 -0.001320 0.041463 -0.002277 -0.005927
# 5 0.003933 0.002138 0.004272 -0.002277 0.046796 0.028105
# 6 0.010728 0.000584 0.006252 -0.005927 0.028105 0.061801
#
#
# Mechanical properties :
#
#
# Convention : Reuss Voigt Hill
#
# Bulk Modulus (GPa) = 50.18630 68.15514 59.17072
# Shear Modulus (GPa) = 24.01189 31.57351 27.79270
#
# Velocity S-wave (km/s) = 3.42518 3.92764 3.68498
# Velocity P-wave (km/s) = 6.33741 7.33948 6.85678
#
# Compressibility (1/GPa) = 0.01992576
#
# Stress axis : x y z
#
# Youngs Moduli (GPa) = 65.90408 90.22910 105.58632
#
# Poissons Ratio (x) = 0.43322 0.15071
# Poissons Ratio (y) = 0.31643 0.17654
# Poissons Ratio (z) = 0.09407 0.15087
#
# Static dielectric constant tensor:
#      x y z
#    x 4.153920 -0.247280 0.162440 
#    y -0.247280 3.682860 0.025240 
#    z 0.162440 0.025240 3.899980 
# 
# 
# High freq. dielectric constant tensor:
#      x y z
#    x 1.816570 -0.014060 0.004200 
#    y -0.014060 1.785940 -0.001080 
#    z 0.004200 -0.001080 1.800820 
# 
# From -- ./inp_files/253357.got.cif
#   From: 2010.06.25/outbox.cif.g09.slc.cpg/sg2_127_cif.got.tgz:253357.got - 2010.06.27 13:26:56.
