data_PCOD8004678
_publ_section_title
;
Structure prediction by ZEFSAII (Michael W. Deem and Ramdas Pophale) SiO2 
 PCOD8004678
Probable space group: P -1
;
_chemical_formula_sum "Si O2"
_cell_formula_units_Z 16
_cell_length_a 11.301281
_cell_length_b 20.971663
_cell_length_c 17.374425
_cell_angle_alpha 159.816797
_cell_angle_beta 34.107380
_cell_angle_gamma 134.881126
_cell_volume 740.269592
_symmetry_space_group_name_H-M "P -1"
_symmetry_group_IT_number 2
_symmetry_cell_setting 'triclinic'
loop_
_space_group_symop_operation_xyz
x,y,z
-x,-y,-z
loop_
_atom_site_type_symbol
_atom_site_label
_atom_site_fract_x
_atom_site_fract_y
_atom_site_fract_z
Si Si1 0.450655 0.746060 0.206602
Si Si2 0.105193 0.555679 0.431548
Si Si3 0.244064 0.187324 0.215176
Si Si4 0.757850 0.029031 0.747424
Si Si5 0.000780 0.699447 0.363175
Si Si6 0.943823 0.722498 0.170812
Si Si7 0.748138 0.112069 0.238080
Si Si8 0.558141 0.879980 0.451956
O O1 0.431367 0.783825 0.351915
O O2 0.272737 0.643978 0.163313
O O3 0.382184 0.946328 0.422279
O O4 0.718493 0.633173 0.920250
O O5 0.280754 0.658976 0.482535
O O6 0.000000 0.500000 0.500000
O O7 0.898100 0.672576 0.618734
O O8 0.116516 0.261603 0.446847
O O9 0.501736 0.175709 0.070467
O O10 0.278408 0.959496 0.915353
O O11 0.887991 0.905013 0.610589
O O12 0.775276 0.861211 0.483558
O O13 0.860387 0.190507 0.847228
O O14 0.960698 0.515713 0.132127
O O15 0.803963 0.727408 0.173550
O O16 0.595291 0.048408 0.308711
O O17 0.000000 0.000000 0.000000
#
# Coordination Sequence:
#
# PCOD8004678 Si02
#       8
#     2   2   2   2   2   2   2   2
#     4  11  23  38  69 102 135 170 228 280 346 409
#     4  11  24  40  64 102 136 175 223 280 344 413
#     4  11  24  44  66  96 139 177 225 283 340 401
#     4  11  25  47  68  98 137 184 233 280 336 402
#     4  12  25  45  70 103 135 182 232 281 337 408
#     4  11  24  44  72  95 135 180 236 284 336 399
#     4  10  20  38  61  88 129 175 211 268 340 394
#     4  11  21  41  66  97 135 176 215 289 343 396
#
# _framework density 21.613748000000001
#
# number of rings (size 3 to 8) (size 9 to 14) (size 15 to 20)
#    0.000    1.000    2.500    5.250    0.000    3.000 
#    4.500    0.000    0.000    0.000    0.000    0.000 
#    0.000    0.000    0.000    0.000    0.000    0.000 
#
# Total GULP energy -198262.700501 kJ/mol
# GULP energy per Si atom -12391.418781 kJ/mol
# Density = 2.156455 g / cm^3
# Si number density = 21.613748 Si / 1000 Ang^3
#
#
#
# Elastic Constant Matrix: (Units=GPa)
#
#
# Indices 1 2 3 4 5 6 
#
# 1 88.2314 42.3856 32.9908 -6.6277 0.4288 3.6026
# 2 42.3856 71.9476 34.2116 -17.1669 6.7333 -0.8435
# 3 32.9908 34.2116 89.5676 -20.1434 -2.1812 0.8702
# 4 -6.6277 -17.1669 -20.1434 38.6613 3.7392 1.5443
# 5 0.4288 6.7333 -2.1812 3.7392 41.9413 -3.0139
# 6 3.6026 -0.8435 0.8702 1.5443 -3.0139 28.4683
#
#
#
# Elastic Compliance Matrix: (Units=1/GPa)
#
#
# Indices 1 2 3 4 5 6 
#
# 1 0.016842 -0.009196 -0.003306 -0.002960 0.001252 -0.002010
# 2 -0.009196 0.023362 -0.004067 0.007060 -0.004416 0.001130
# 3 -0.003306 -0.004067 0.015192 0.005464 0.000964 -0.000361
# 4 -0.002960 0.007060 0.005464 0.031773 -0.003774 -0.001706
# 5 0.001252 -0.004416 0.000964 -0.003774 0.025109 0.002544
# 6 -0.002010 0.001130 -0.000361 -0.001706 0.002544 0.035787
#
#
# Mechanical properties :
#
#
# Convention : Reuss Voigt Hill
#
# Bulk Modulus (GPa) = 44.93159 52.10249 48.51704
# Shear Modulus (GPa) = 26.50812 31.15810 28.83311
#
# Velocity S-wave (km/s) = 3.50587 3.80094 3.65638
# Velocity P-wave (km/s) = 6.10096 6.58949 6.34992
#
# Compressibility (1/GPa) = 0.02225606
#
# Stress axis : x y z
#
# Youngs Moduli (GPa) = 59.37670 42.80527 65.82563
#
# Poissons Ratio (x) = 0.39366 0.21764
# Poissons Ratio (y) = 0.54606 0.26769
# Poissons Ratio (z) = 0.19631 0.17408
#
# Static dielectric constant tensor:
#      x y z
#    x 4.910980 1.147250 1.073740 
#    y 1.147250 5.153390 1.317480 
#    z 1.073740 1.317480 5.206880 
# 
# 
# High freq. dielectric constant tensor:
#      x y z
#    x 1.851570 0.005590 0.001010 
#    y 0.005590 1.849020 -0.006560 
#    z 0.001010 -0.006560 1.852450 
# 
# From -- ./inp_files/245104.got.cif
#   From: 2010.06.25/outbox.cif.g09.slc.cpg/sg2_123_cif.got.tgz:245104.got - 2010.06.27 13:26:56.
