data_PCOD8004376
_publ_section_title
;
Structure prediction by ZEFSAII (Michael W. Deem and Ramdas Pophale) SiO2 
 PCOD8004376
Probable space group: P -1
;
_chemical_formula_sum "Si O2"
_cell_formula_units_Z 16
_cell_length_a 8.534169
_cell_length_b 18.239311
_cell_length_c 9.923092
_cell_angle_alpha 51.721773
_cell_angle_beta 97.407404
_cell_angle_gamma 131.716247
_cell_volume 792.278961
_symmetry_space_group_name_H-M "P -1"
_symmetry_group_IT_number 2
_symmetry_cell_setting 'triclinic'
loop_
_space_group_symop_operation_xyz
x,y,z
-x,-y,-z
loop_
_atom_site_type_symbol
_atom_site_label
_atom_site_fract_x
_atom_site_fract_y
_atom_site_fract_z
Si Si1 0.801991 0.636993 0.737067
Si Si2 0.214559 0.538849 0.545720
Si Si3 0.881780 0.044033 0.894502
Si Si4 0.066617 0.322555 0.591387
Si Si5 0.644114 0.858744 0.535055
Si Si6 0.102848 0.949172 0.416950
Si Si7 0.662745 0.454361 0.164804
Si Si8 0.544799 0.171848 0.721394
O O1 0.534111 0.558954 0.790291
O O2 0.863379 0.619749 0.618928
O O3 0.994881 0.800851 0.611271
O O4 0.821241 0.565794 0.933995
O O5 0.164024 0.490103 0.752026
O O6 0.443864 0.710958 0.376061
O O7 0.000000 0.500000 0.500000
O O8 0.252347 0.460289 0.553421
O O9 0.075339 0.214505 0.739416
O O10 0.794976 0.002759 0.777442
O O11 0.647353 0.961528 0.050595
O O12 0.000000 0.000000 0.000000
O O13 0.798858 0.236141 0.696029
O O14 0.465508 0.694910 0.735842
O O15 0.534326 0.876482 0.387569
O O16 0.899705 0.937722 0.418398
O O17 0.679518 0.933551 0.590234
#
# Coordination Sequence:
#
# PCOD8004376 Si02
#       8
#     2   2   2   2   2   2   2   2
#     4   9  19  35  53  80 111 143 184 231 276 325
#     4   9  20  38  57  82 114 151 184 228 280 334
#     4  11  21  37  56  84 111 145 187 232 276 329
#     4  10  22  38  56  83 113 150 187 228 282 334
#     4   9  17  33  55  77 107 145 178 223 281 322
#     4   9  18  33  53  80 108 139 185 229 271 327
#     4   9  18  35  56  80 111 143 184 233 274 327
#     4  10  20  38  57  79 116 148 181 231 282 329
#
# _framework density 20.194906
#
# number of rings (size 3 to 8) (size 9 to 14) (size 15 to 20)
#    0.000    2.500    1.250    0.375    1.750    2.500 
#    4.500   10.625    0.000    0.000    0.000    0.000 
#    0.000    0.000    0.000    0.000    0.000    0.000 
#
# Total GULP energy -198370.956216 kJ/mol
# GULP energy per Si atom -12398.184763 kJ/mol
# Density = 2.014894 g / cm^3
# Si number density = 20.194906 Si / 1000 Ang^3
#
#
#
# Elastic Constant Matrix: (Units=GPa)
#
#
# Indices 1 2 3 4 5 6 
#
# 1 40.5008 18.9199 25.7930 2.8087 7.3919 -5.3490
# 2 18.9199 143.7022 51.1012 17.4214 17.1111 -16.3760
# 3 25.7930 51.1012 150.8505 14.5595 11.7136 -6.4977
# 4 2.8087 17.4214 14.5595 18.3336 2.0441 1.7875
# 5 7.3919 17.1111 11.7136 2.0441 27.4621 2.7961
# 6 -5.3490 -16.3760 -6.4977 1.7875 2.7961 28.5112
#
#
#
# Elastic Compliance Matrix: (Units=1/GPa)
#
#
# Indices 1 2 3 4 5 6 
#
# 1 0.029473 -0.001263 -0.003965 0.000056 -0.005915 0.004477
# 2 -0.001263 0.010030 -0.001745 -0.007971 -0.005197 0.006136
# 3 -0.003965 -0.001745 0.008434 -0.004357 -0.001176 0.000565
# 4 0.000056 -0.007971 -0.004357 0.066222 0.002898 -0.009996
# 5 -0.005915 -0.005197 -0.001176 0.002898 0.042416 -0.008704
# 6 0.004477 0.006136 0.000565 -0.009996 -0.008704 0.041047
#
#
# Mechanical properties :
#
#
# Convention : Reuss Voigt Hill
#
# Bulk Modulus (GPa) = 29.41853 58.52022 43.96937
# Shear Modulus (GPa) = 22.43187 30.81064 26.62126
#
# Velocity S-wave (km/s) = 3.33644 3.91021 3.63466
# Velocity P-wave (km/s) = 5.42599 7.03043 6.27966
#
# Compressibility (1/GPa) = 0.03399218
#
# Stress axis : x y z
#
# Youngs Moduli (GPa) = 33.92963 99.70298 118.56533
#
# Poissons Ratio (x) = 0.12590 0.47010
# Poissons Ratio (y) = 0.04285 0.20685
# Poissons Ratio (z) = 0.13453 0.17394
#
# Static dielectric constant tensor:
#      x y z
#    x 3.438670 -0.241260 0.157430 
#    y -0.241260 4.068430 -0.060000 
#    z 0.157430 -0.060000 3.758020 
# 
# 
# High freq. dielectric constant tensor:
#      x y z
#    x 1.765140 -0.010200 0.011880 
#    y -0.010200 1.790220 0.004470 
#    z 0.011880 0.004470 1.788870 
# 
# From -- ./inp_files/217077.got.cif
#   From: 2010.06.25/outbox.cif.g09.slc.cpg/sg2_109_cif.got.tgz:217077.got - 2010.06.27 13:26:56.
