data_PCOD8004891
_publ_section_title
;
Structure prediction by ZEFSAII (Michael W. Deem and Ramdas Pophale) SiO2 
 PCOD8004891
Probable space group: P -1
;
_chemical_formula_sum "Si O2"
_cell_formula_units_Z 12
_cell_length_a 12.799903
_cell_length_b 7.780358
_cell_length_c 11.901172
_cell_angle_alpha 76.014980
_cell_angle_beta 35.965596
_cell_angle_gamma 57.574316
_cell_volume 541.530714
_symmetry_space_group_name_H-M "P -1"
_symmetry_group_IT_number 2
_symmetry_cell_setting 'triclinic'
loop_
_space_group_symop_operation_xyz
x,y,z
-x,-y,-z
loop_
_atom_site_type_symbol
_atom_site_label
_atom_site_fract_x
_atom_site_fract_y
_atom_site_fract_z
Si Si1 0.276396 0.846017 0.083212
Si Si2 0.932162 0.093080 0.167849
Si Si3 0.032750 0.427525 0.658400
Si Si4 0.573294 0.052565 0.540884
Si Si5 0.173249 0.261026 0.019459
Si Si6 0.758047 0.434798 0.697733
O O1 0.505749 0.639626 0.866508
O O2 0.090318 0.890621 0.148661
O O3 0.227520 0.787166 0.258006
O O4 0.277455 0.059728 0.051600
O O5 0.680224 0.180645 0.397782
O O6 0.974776 0.278996 0.119990
O O7 0.000000 0.000000 0.000000
O O8 0.248049 0.174966 0.514060
O O9 0.106220 0.580691 0.526242
O O10 0.929045 0.512950 0.859677
O O11 0.845452 0.471079 0.730743
O O12 0.500000 0.000000 0.500000
O O13 0.362575 0.215207 0.777495
#
# Coordination Sequence:
#
# PCOD8004891 Si02
#       6
#     2   2   2   2   2   2
#     4   9  19  39  60  90 120 166 201 240 313 353
#     4  10  20  42  63  85 124 162 196 255 308 354
#     4  11  22  40  62  93 119 161 209 247 303 361
#     4  12  22  43  66  85 126 163 198 256 310 353
#     4  10  23  40  62  96 119 157 214 241 302 369
#     4  10  20  38  63  85 129 165 194 255 304 356
#
# _framework density 22.159407999999999
#
# number of rings (size 3 to 8) (size 9 to 14) (size 15 to 20)
#    1.000    0.667    5.000    0.000    0.000    2.000 
#    6.000    0.833    0.000    0.000    0.000    0.000 
#    0.000    0.000    0.000    0.000    0.000    0.000 
#
# Total GULP energy -148687.250105 kJ/mol
# GULP energy per Si atom -12390.604175 kJ/mol
# Density = 2.210897 g / cm^3
# Si number density = 22.159408 Si / 1000 Ang^3
#
#
#
# Elastic Constant Matrix: (Units=GPa)
#
#
# Indices 1 2 3 4 5 6 
#
# 1 77.6035 -10.3460 35.5775 8.9744 -10.4720 7.0188
# 2 -10.3460 16.5544 13.3485 -5.7511 -0.1772 -0.4545
# 3 35.5775 13.3485 159.9964 -17.9371 -0.9677 19.9241
# 4 8.9744 -5.7511 -17.9371 28.3212 7.0464 -1.3560
# 5 -10.4720 -0.1772 -0.9677 7.0464 39.7677 0.0036
# 6 7.0188 -0.4545 19.9241 -1.3560 0.0036 26.2030
#
#
#
# Elastic Compliance Matrix: (Units=1/GPa)
#
#
# Indices 1 2 3 4 5 6 
#
# 1 0.019855 0.014553 -0.006549 -0.009194 0.006763 -0.000563
# 2 0.014553 0.079343 -0.009974 0.004662 0.003116 0.005303
# 3 -0.006549 -0.009974 0.009987 0.006783 -0.002727 -0.005662
# 4 -0.009194 0.004662 0.006783 0.046040 -0.010393 -0.000230
# 5 0.006763 0.003116 -0.002727 -0.010393 0.028716 -0.000226
# 6 -0.000563 0.005303 -0.005662 -0.000230 -0.000226 0.042699
#
#
# Mechanical properties :
#
#
# Convention : Reuss Voigt Hill
#
# Bulk Modulus (GPa) = 9.50168 36.81269 23.15719
# Shear Modulus (GPa) = 18.82072 33.23001 26.02536
#
# Velocity S-wave (km/s) = 2.91749 3.87665 3.43076
# Velocity P-wave (km/s) = 3.95553 6.05695 5.11531
#
# Compressibility (1/GPa) = 0.10524450
#
# Stress axis : x y z
#
# Youngs Moduli (GPa) = 50.36442 12.60344 100.12518
#
# Poissons Ratio (x) = -0.18341 0.65571
# Poissons Ratio (y) = -0.73293 0.99870
# Poissons Ratio (z) = 0.32983 0.12571
#
# Static dielectric constant tensor:
#      x y z
#    x 3.842020 -0.214850 -0.252670 
#    y -0.214850 3.906880 -0.453810 
#    z -0.252670 -0.453810 4.083810 
# 
# 
# High freq. dielectric constant tensor:
#      x y z
#    x 1.859420 -0.016450 -0.016200 
#    y -0.016450 1.856840 -0.027490 
#    z -0.016200 -0.027490 1.877630 
# 
# From -- ./inp_files/230081.got.cif
#   From: 2010.06.25/outbox.cif.g09.slc.cpg/sg2_116_cif.got.tgz:230081.got - 2010.06.27 13:26:56.
