data_PCOD8004617
_publ_section_title
;
Structure prediction by ZEFSAII (Michael W. Deem and Ramdas Pophale) SiO2 
 PCOD8004617
Probable space group: P -1
;
_chemical_formula_sum "Si O2"
_cell_formula_units_Z 16
_cell_length_a 11.005080
_cell_length_b 16.762227
_cell_length_c 6.321820
_cell_angle_alpha 106.935613
_cell_angle_beta 102.044597
_cell_angle_gamma 42.320874
_cell_volume 751.079105
_symmetry_space_group_name_H-M "P -1"
_symmetry_group_IT_number 2
_symmetry_cell_setting 'triclinic'
loop_
_space_group_symop_operation_xyz
x,y,z
-x,-y,-z
loop_
_atom_site_type_symbol
_atom_site_label
_atom_site_fract_x
_atom_site_fract_y
_atom_site_fract_z
Si Si1 0.543701 0.566533 0.940849
Si Si2 0.636465 0.928741 0.300318
Si Si3 0.475926 0.874141 0.895223
Si Si4 0.713385 0.438198 0.294824
Si Si5 0.007625 0.197370 0.479731
Si Si6 0.571610 0.658939 0.648659
Si Si7 0.834762 0.037246 0.857215
Si Si8 0.264107 0.770799 0.330736
O O1 0.468021 0.532364 0.722571
O O2 0.598789 0.620498 0.873113
O O3 0.718668 0.449771 0.048991
O O4 0.382723 0.664381 0.120624
O O5 0.839926 0.818039 0.373502
O O6 0.500000 0.000000 0.500000
O O7 0.621612 0.020904 0.231488
O O8 0.597999 0.868319 0.092735
O O9 0.603749 0.743514 0.718818
O O10 0.331831 0.889671 0.986220
O O11 0.703493 0.536421 0.464106
O O12 0.884707 0.310457 0.361323
O O13 0.902646 0.205580 0.642006
O O14 0.112170 0.080625 0.284225
O O15 0.368661 0.739692 0.560785
O O16 0.791371 0.113201 0.694596
O O17 0.000000 0.000000 0.000000
#
# Coordination Sequence:
#
# PCOD8004617 Si02
#       8
#     2   2   2   2   2   2   2   2
#     4  10  20  38  60  92 136 170 204 244 324 391
#     4  11  25  47  67  89 123 172 219 265 310 372
#     4  11  24  44  68  92 118 173 217 256 324 373
#     4  10  23  35  59  95 131 173 202 254 314 386
#     4  12  23  40  61  93 136 166 212 261 313 376
#     4  11  21  40  63  93 130 161 213 256 317 382
#     4  12  22  38  63  99 132 158 204 267 328 383
#     4  11  22  36  63  98 130 166 202 262 322 381
#
# _framework density 21.302682999999998
#
# number of rings (size 3 to 8) (size 9 to 14) (size 15 to 20)
#    0.000    1.000    3.750    3.750    3.500    0.000 
#    0.000    0.625    0.000    1.500    0.000    0.000 
#    0.000    0.000    0.000    0.000    0.000    0.000 
#
# Total GULP energy -198275.813496 kJ/mol
# GULP energy per Si atom -12392.238343 kJ/mol
# Density = 2.125420 g / cm^3
# Si number density = 21.302683 Si / 1000 Ang^3
#
#
#
# Elastic Constant Matrix: (Units=GPa)
#
#
# Indices 1 2 3 4 5 6 
#
# 1 81.0808 40.8733 38.5870 -18.8194 11.7481 3.1337
# 2 40.8733 136.1245 59.1101 -26.5109 16.4759 16.4742
# 3 38.5870 59.1101 107.4538 -16.3681 10.8830 5.7512
# 4 -18.8194 -26.5109 -16.3681 51.5634 8.6263 6.8485
# 5 11.7481 16.4759 10.8830 8.6263 36.0572 3.7559
# 6 3.1337 16.4742 5.7512 6.8485 3.7559 31.2794
#
#
#
# Elastic Compliance Matrix: (Units=1/GPa)
#
#
# Indices 1 2 3 4 5 6 
#
# 1 0.016895 -0.001851 -0.003816 0.004844 -0.004612 -0.000523
# 2 -0.001851 0.012213 -0.004402 0.005759 -0.004384 -0.006172
# 3 -0.003816 -0.004402 0.013287 0.000691 -0.000944 0.000220
# 4 0.004844 0.005759 0.000691 0.027134 -0.010037 -0.008381
# 5 -0.004612 -0.004384 -0.000944 -0.010037 0.033813 0.001082
# 6 -0.000523 -0.006172 0.000220 -0.008381 0.001082 0.036938
#
#
# Mechanical properties :
#
#
# Convention : Reuss Voigt Hill
#
# Bulk Modulus (GPa) = 44.92887 66.86667 55.89777
# Shear Modulus (GPa) = 29.79090 36.18591 32.98840
#
# Velocity S-wave (km/s) = 3.74365 4.12595 3.93944
# Velocity P-wave (km/s) = 6.31055 7.35900 6.85485
#
# Compressibility (1/GPa) = 0.02225740
#
# Stress axis : x y z
#
# Youngs Moduli (GPa) = 59.18780 81.88262 75.26107
#
# Poissons Ratio (x) = 0.15158 0.28719
# Poissons Ratio (y) = 0.10957 0.33128
# Poissons Ratio (z) = 0.22585 0.36043
#
# Static dielectric constant tensor:
#      x y z
#    x 3.525980 0.235880 0.028740 
#    y 0.235880 4.139850 -0.298360 
#    z 0.028740 -0.298360 4.073660 
# 
# 
# High freq. dielectric constant tensor:
#      x y z
#    x 1.797860 0.030130 0.008080 
#    y 0.030130 1.841860 -0.011340 
#    z 0.008080 -0.011340 1.855810 
# 
# From -- ./inp_files/80711.got.cif
#   From: 2010.06.25/outbox.cif.g09.slc.cpg/sg2_41_cif.got.tgz:80711.got - 2010.06.27 13:26:56.
