data_PCOD8004138
_publ_section_title
;
Structure prediction by ZEFSAII (Michael W. Deem and Ramdas Pophale) SiO2 
 PCOD8004138
Probable space group: P -1
;
_chemical_formula_sum "Si O2"
_cell_formula_units_Z 16
_cell_length_a 7.408944
_cell_length_b 13.622614
_cell_length_c 13.354863
_cell_angle_alpha 146.699346
_cell_angle_beta 66.538008
_cell_angle_gamma 113.380873
_cell_volume 673.338739
_symmetry_space_group_name_H-M "P -1"
_symmetry_group_IT_number 2
_symmetry_cell_setting 'triclinic'
loop_
_space_group_symop_operation_xyz
x,y,z
-x,-y,-z
loop_
_atom_site_type_symbol
_atom_site_label
_atom_site_fract_x
_atom_site_fract_y
_atom_site_fract_z
Si Si1 0.149503 0.312923 0.473841
Si Si2 0.239970 0.353093 0.269231
Si Si3 0.920110 0.319986 0.139037
Si Si4 0.864966 0.559691 0.993827
Si Si5 0.227294 0.968512 0.935400
Si Si6 0.469469 0.739986 0.556027
Si Si7 0.881152 0.194814 0.596474
Si Si8 0.282656 0.175835 0.614552
O O1 0.108142 0.335147 0.384697
O O2 0.196395 0.506167 0.684239
O O3 0.345110 0.217760 0.372608
O O4 0.951172 0.202274 0.471177
O O5 0.399301 0.527319 0.389862
O O6 0.101004 0.364652 0.214952
O O7 0.349560 0.169719 0.084144
O O8 0.771325 0.143313 0.055409
O O9 0.005291 0.301191 0.992480
O O10 0.777945 0.374930 0.798068
O O11 0.695689 0.668425 0.171470
O O12 0.000000 0.500000 0.000000
O O13 0.301485 0.855833 0.730992
O O14 0.000000 0.000000 0.000000
O O15 0.530282 0.798045 0.478778
O O16 0.077769 0.189062 0.614100
O O17 0.721696 0.020932 0.501737
#
# Coordination Sequence:
#
# PCOD8004138 Si02
#       8
#     2   2   2   2   2   2   2   2
#     4  10  20  37  64  92 127 164 208 263 308 364
#     4  11  23  39  62  88 128 174 198 257 320 365
#     4  10  21  40  63  92 122 165 218 249 305 384
#     4   9  18  35  59  87 117 152 205 257 296 356
#     4  10  24  40  61  92 126 166 214 250 311 387
#     4  11  23  41  60  95 133 157 210 266 312 367
#     4   8  17  33  55  89 117 156 208 241 302 366
#     4   9  18  34  58  83 120 162 193 256 306 353
#
# _framework density 23.762184000000001
#
# number of rings (size 3 to 8) (size 9 to 14) (size 15 to 20)
#    0.000    2.250    1.250    1.500    3.500    1.500 
#    0.000    3.125    0.000    7.500    0.000    0.000 
#    0.000    0.000    0.000    0.000    0.000    0.000 
#
# Total GULP energy -198282.251989 kJ/mol
# GULP energy per Si atom -12392.640749 kJ/mol
# Density = 2.370810 g / cm^3
# Si number density = 23.762184 Si / 1000 Ang^3
#
#
#
# Elastic Constant Matrix: (Units=GPa)
#
#
# Indices 1 2 3 4 5 6 
#
# 1 34.1122 20.9055 20.8594 -13.4530 -5.0067 5.6837
# 2 20.9055 215.7972 100.8035 -4.1187 -5.3500 5.2116
# 3 20.8594 100.8035 157.1406 4.4213 -17.6890 17.4654
# 4 -13.4530 -4.1187 4.4213 51.1451 -0.8296 5.2959
# 5 -5.0067 -5.3500 -17.6890 -0.8296 23.9474 -6.9428
# 6 5.6837 5.2116 17.4654 5.2959 -6.9428 22.6600
#
#
#
# Elastic Compliance Matrix: (Units=1/GPa)
#
#
# Indices 1 2 3 4 5 6 
#
# 1 0.038580 -0.001882 -0.002891 0.011191 0.003408 -0.008587
# 2 -0.001882 0.006861 -0.004551 0.000234 -0.001683 0.001831
# 3 -0.002891 -0.004551 0.010785 -0.001495 0.004937 -0.004679
# 4 0.011191 0.000234 -0.001495 0.023386 0.000020 -0.007168
# 5 0.003408 -0.001683 0.004937 0.000020 0.048840 0.010687
# 6 -0.008587 0.001831 -0.004679 -0.007168 0.010687 0.054419
#
#
# Mechanical properties :
#
#
# Convention : Reuss Voigt Hill
#
# Bulk Modulus (GPa) = 26.61085 76.90967 51.76026
# Shear Modulus (GPa) = 23.35967 37.18260 30.27113
#
# Velocity S-wave (km/s) = 3.13878 3.96002 3.57307
# Velocity P-wave (km/s) = 4.93549 7.30381 6.23317
#
# Compressibility (1/GPa) = 0.03757865
#
# Stress axis : x y z
#
# Youngs Moduli (GPa) = 25.91989 145.76149 92.72540
#
# Poissons Ratio (x) = 0.27426 0.26808
# Poissons Ratio (y) = 0.04877 0.42197
# Poissons Ratio (z) = 0.07494 0.66332
#
# Static dielectric constant tensor:
#      x y z
#    x 3.602540 -0.200230 -0.166980 
#    y -0.200230 4.750110 0.273970 
#    z -0.166980 0.273970 4.860150 
# 
# 
# High freq. dielectric constant tensor:
#      x y z
#    x 1.896670 -0.015700 -0.011520 
#    y -0.015700 1.955900 0.004290 
#    z -0.011520 0.004290 1.948320 
# 
# From -- ./inp_files/504610.got.cif
#   From: 2010.06.25/outbox.cif.g09.slc.cpg/sg2_253_cif.got.tgz:504610.got - 2010.06.27 13:26:56.
