data_PCOD8004006
_publ_section_title
;
Structure prediction by ZEFSAII (Michael W. Deem and Ramdas Pophale) SiO2 
 PCOD8004006
Probable space group: P -1
;
_chemical_formula_sum "Si O2"
_cell_formula_units_Z 14
_cell_length_a 6.310178
_cell_length_b 9.045004
_cell_length_c 13.904790
_cell_angle_alpha 59.147347
_cell_angle_beta 108.891150
_cell_angle_gamma 92.535359
_cell_volume 637.329293
_symmetry_space_group_name_H-M "P -1"
_symmetry_group_IT_number 2
_symmetry_cell_setting 'triclinic'
loop_
_space_group_symop_operation_xyz
x,y,z
-x,-y,-z
loop_
_atom_site_type_symbol
_atom_site_label
_atom_site_fract_x
_atom_site_fract_y
_atom_site_fract_z
Si Si1 0.368774 0.932872 0.591351
Si Si2 0.003880 0.631056 0.337035
Si Si3 0.284183 0.348412 0.184994
Si Si4 0.451908 0.386372 0.803376
Si Si5 0.828421 0.541290 0.071096
Si Si6 0.985228 0.752128 0.502378
Si Si7 0.893152 0.194293 0.903022
O O1 0.568821 0.842966 0.722291
O O2 0.199668 0.798125 0.579229
O O3 0.500000 0.000000 0.500000
O O4 0.225172 0.093140 0.573111
O O5 0.068249 0.720421 0.414934
O O6 0.083110 0.741244 0.224545
O O7 0.731461 0.633240 0.298143
O O8 0.101356 0.424311 0.412391
O O9 0.392232 0.463199 0.243975
O O10 0.011845 0.360063 0.161617
O O11 0.317587 0.432903 0.056504
O O12 0.332414 0.438598 0.869029
O O13 0.628357 0.206993 0.889013
O O14 0.984343 0.693450 0.041927
O O15 0.000000 0.000000 0.000000
#
# Coordination Sequence:
#
# PCOD8004006 Si02
#       7
#     2   2   2   2   2   2   2
#     4  11  25  39  65  94 132 161 213 266 316 370
#     4  10  22  42  67  86 132 163 217 257 310 394
#     4  10  20  38  58  90 121 164 208 254 316 372
#     4  10  20  37  63  86 118 166 200 261 315 367
#     4   9  21  36  61  87 121 162 209 257 308 380
#     4  10  24  43  61  98 121 176 211 258 319 372
#     4  10  23  38  60  93 123 160 211 265 318 371
#
# _framework density 21.966664999999999
#
# number of rings (size 3 to 8) (size 9 to 14) (size 15 to 20)
#    0.000    2.000    1.429    0.429    6.000    6.857 
#    0.000    2.857    0.000    0.000    0.000    0.000 
#    0.000    0.000    0.000    0.000    0.000    0.000 
#
# Total GULP energy -173463.782412 kJ/mol
# GULP energy per Si atom -12390.270172 kJ/mol
# Density = 2.191667 g / cm^3
# Si number density = 21.966665 Si / 1000 Ang^3
#
#
#
# Elastic Constant Matrix: (Units=GPa)
#
#
# Indices 1 2 3 4 5 6 
#
# 1 87.7216 28.9172 53.9288 -13.2498 12.8944 -23.3209
# 2 28.9172 99.2126 49.2053 -12.9686 10.1687 -18.9482
# 3 53.9288 49.2053 140.1000 -21.1903 19.5200 -22.2738
# 4 -13.2498 -12.9686 -21.1903 35.7153 -8.7573 10.4259
# 5 12.8944 10.1687 19.5200 -8.7573 45.1225 -4.4078
# 6 -23.3209 -18.9482 -22.2738 10.4259 -4.4078 30.7606
#
#
#
# Elastic Compliance Matrix: (Units=1/GPa)
#
#
# Indices 1 2 3 4 5 6 
#
# 1 0.017160 -0.000800 -0.004626 0.000320 -0.001800 0.008801
# 2 -0.000800 0.013020 -0.003296 0.000974 -0.000641 0.004605
# 3 -0.004626 -0.003296 0.010962 0.002750 -0.002029 0.001177
# 4 0.000320 0.000974 0.002750 0.033443 0.004219 -0.007897
# 5 -0.001800 -0.000641 -0.002029 0.004219 0.024404 -0.001162
# 6 0.008801 0.004605 0.001177 -0.007897 -0.001162 0.045380
#
#
# Mechanical properties :
#
#
# Convention : Reuss Voigt Hill
#
# Bulk Modulus (GPa) = 42.19887 65.68187 53.94037
# Shear Modulus (GPa) = 29.46175 35.31853 32.39014
#
# Velocity S-wave (km/s) = 3.66622 4.01412 3.84411
# Velocity P-wave (km/s) = 6.09702 7.17285 6.65671
#
# Compressibility (1/GPa) = 0.02369732
#
# Stress axis : x y z
#
# Youngs Moduli (GPa) = 58.27485 76.80664 91.22606
#
# Poissons Ratio (x) = 0.06145 0.42201
# Poissons Ratio (y) = 0.04663 0.30069
# Poissons Ratio (z) = 0.26958 0.25316
#
# Static dielectric constant tensor:
#      x y z
#    x 4.317600 -0.257040 0.470990 
#    y -0.257040 4.140310 0.004120 
#    z 0.470990 0.004120 4.029060 
# 
# 
# High freq. dielectric constant tensor:
#      x y z
#    x 1.865550 -0.013670 0.022160 
#    y -0.013670 1.855460 0.003550 
#    z 0.022160 0.003550 1.861380 
# 
# From -- ./inp_files/26795.got.cif
#   From: 2010.06.25/outbox.cif.g09.slc.cpg/sg2_14_cif.got.tgz:26795.got - 2010.06.27 13:26:56.
