data_PCOD8004378
_publ_section_title
;
Structure prediction by ZEFSAII (Michael W. Deem and Ramdas Pophale) SiO2 
 PCOD8004378
Probable space group: P -1
;
_chemical_formula_sum "Si O2"
_cell_formula_units_Z 16
_cell_length_a 15.054183
_cell_length_b 9.035959
_cell_length_c 14.750755
_cell_angle_alpha 107.611484
_cell_angle_beta 113.889293
_cell_angle_gamma 27.086619
_cell_volume 827.230830
_symmetry_space_group_name_H-M "P -1"
_symmetry_group_IT_number 2
_symmetry_cell_setting 'triclinic'
loop_
_space_group_symop_operation_xyz
x,y,z
-x,-y,-z
loop_
_atom_site_type_symbol
_atom_site_label
_atom_site_fract_x
_atom_site_fract_y
_atom_site_fract_z
Si Si1 0.103851 0.887413 0.927692
Si Si2 0.569297 0.781539 0.414355
Si Si3 0.475966 0.216907 0.038737
Si Si4 0.097835 0.240163 0.924884
Si Si5 0.301878 0.571417 0.225234
Si Si6 0.566958 0.432550 0.413316
Si Si7 0.020249 0.790458 0.461429
Si Si8 0.225470 0.404439 0.287202
O O1 0.139367 0.020609 0.952986
O O2 0.322695 0.491035 0.945718
O O3 0.944069 0.048099 0.815636
O O4 0.000000 0.000000 0.000000
O O5 0.559575 0.623101 0.421455
O O6 0.809951 0.489691 0.441843
O O7 0.500000 0.000000 0.500000
O O8 0.415943 0.016379 0.309668
O O9 0.390149 0.381695 0.132404
O O10 0.692256 0.994697 0.073942
O O11 0.500000 0.000000 0.000000
O O12 0.936644 0.450491 0.816713
O O13 0.000000 0.500000 0.000000
O O14 0.418562 0.560890 0.302671
O O15 0.330659 0.404860 0.284831
O O16 0.500000 0.500000 0.500000
O O17 0.794972 0.034786 0.427128
O O18 0.107663 0.618480 0.368599
O O19 0.000000 0.000000 0.500000
#
# Coordination Sequence:
#
# PCOD8004378 Si02
#       8
#     2   2   2   2   2   2   2   2
#     4   9  20  38  59  83 115 150 193 240 287 344
#     4   9  19  36  57  80 110 146 186 231 280 340
#     4  11  22  39  59  86 118 151 192 242 291 345
#     4  11  22  38  60  84 115 156 192 236 291 345
#     4  10  21  38  58  83 113 147 187 237 285 340
#     4  11  21  36  58  83 112 148 187 233 283 337
#     4   9  18  35  56  78 106 143 180 221 273 334
#     4  10  20  38  57  81 112 145 186 232 282 339
#
# _framework density 19.341639000000001
#
# number of rings (size 3 to 8) (size 9 to 14) (size 15 to 20)
#    0.000    2.000    0.000    5.625    0.000    3.000 
#    0.000   20.625    0.000    0.000    0.000    0.000 
#    0.000    0.000    0.000    0.000    0.000    0.000 
#
# Total GULP energy -198248.878602 kJ/mol
# GULP energy per Si atom -12390.554913 kJ/mol
# Density = 1.929762 g / cm^3
# Si number density = 19.341639 Si / 1000 Ang^3
#
#
#
# Elastic Constant Matrix: (Units=GPa)
#
#
# Indices 1 2 3 4 5 6 
#
# 1 112.9399 55.5141 47.3134 -18.3037 7.7044 0.6673
# 2 55.5141 139.7658 69.2867 -28.4623 6.1416 4.8907
# 3 47.3134 69.2867 115.7239 -13.7182 12.7757 3.9228
# 4 -18.3037 -28.4623 -13.7182 41.4321 -1.3925 -2.6288
# 5 7.7044 6.1416 12.7757 -1.3925 38.2882 -0.2949
# 6 0.6673 4.8907 3.9228 -2.6288 -0.2949 34.7229
#
#
#
# Elastic Compliance Matrix: (Units=1/GPa)
#
#
# Indices 1 2 3 4 5 6 
#
# 1 0.011857 -0.002819 -0.002799 0.002386 -0.000908 0.000658
# 2 -0.002819 0.012051 -0.005498 0.005195 0.000653 -0.000623
# 3 -0.002799 -0.005498 0.013351 -0.000743 -0.003043 -0.000762
# 4 0.002386 0.005195 -0.000743 0.028606 -0.000014 0.001472
# 5 -0.000908 0.000653 -0.003043 -0.000014 0.027214 0.000499
# 6 0.000658 -0.000623 -0.000762 0.001472 0.000499 0.029076
#
#
# Mechanical properties :
#
#
# Convention : Reuss Voigt Hill
#
# Bulk Modulus (GPa) = 66.54622 79.18421 72.86522
# Shear Modulus (GPa) = 33.46779 35.97631 34.72205
#
# Velocity S-wave (km/s) = 4.16426 4.31750 4.24157
# Velocity P-wave (km/s) = 7.58958 8.11684 7.85763
#
# Compressibility (1/GPa) = 0.01502715
#
# Stress axis : x y z
#
# Youngs Moduli (GPa) = 84.33530 82.97944 74.90124
#
# Poissons Ratio (x) = 0.23395 0.20966
# Poissons Ratio (y) = 0.23777 0.41179
# Poissons Ratio (z) = 0.23606 0.45620
#
# Static dielectric constant tensor:
#      x y z
#    x 3.574800 -0.105460 0.102930 
#    y -0.105460 4.463000 -0.616620 
#    z 0.102930 -0.616620 3.843730 
# 
# 
# High freq. dielectric constant tensor:
#      x y z
#    x 1.749360 -0.005630 0.011210 
#    y -0.005630 1.765640 -0.020400 
#    z 0.011210 -0.020400 1.758410 
# 
# From -- ./inp_files/201995.got.cif
#   From: 2010.06.25/outbox.cif.g09.slc.cpg/sg2_101_cif.got.tgz:201995.got - 2010.06.27 13:26:56.
