data_PCOD8004495
_publ_section_title
;
Structure prediction by ZEFSAII (Michael W. Deem and Ramdas Pophale) SiO2 
 PCOD8004495
Probable space group: P -1
;
_chemical_formula_sum "Si O2"
_cell_formula_units_Z 16
_cell_length_a 8.704942
_cell_length_b 15.214653
_cell_length_c 9.691384
_cell_angle_alpha 73.969994
_cell_angle_beta 66.224753
_cell_angle_gamma 120.566979
_cell_volume 800.930106
_symmetry_space_group_name_H-M "P -1"
_symmetry_group_IT_number 2
_symmetry_cell_setting 'triclinic'
loop_
_space_group_symop_operation_xyz
x,y,z
-x,-y,-z
loop_
_atom_site_type_symbol
_atom_site_label
_atom_site_fract_x
_atom_site_fract_y
_atom_site_fract_z
Si Si1 0.071899 0.443560 0.402899
Si Si2 0.757957 0.943860 0.551893
Si Si3 0.409144 0.930007 0.856946
Si Si4 0.040090 0.394948 0.125971
Si Si5 0.678794 0.188314 0.771372
Si Si6 0.482549 0.292075 0.909791
Si Si7 0.376139 0.673350 0.845926
Si Si8 0.024984 0.828941 0.824382
O O1 0.982934 0.417593 0.286655
O O2 0.359645 0.556409 0.248308
O O3 0.000000 0.500000 0.500000
O O4 0.951996 0.307687 0.571357
O O5 0.593222 0.926757 0.734436
O O6 0.605759 0.795679 0.620120
O O7 0.806015 0.037277 0.377814
O O8 0.000000 0.000000 0.500000
O O9 0.173365 0.850274 0.888944
O O10 0.543776 0.078380 0.751713
O O11 0.312648 0.863822 0.068540
O O12 0.839011 0.342372 0.110640
O O13 0.059241 0.292494 0.179815
O O14 0.288781 0.534646 0.917774
O O15 0.543657 0.233142 0.809462
O O16 0.548819 0.282443 0.042024
O O17 0.207706 0.207636 0.026643
#
# Coordination Sequence:
#
# PCOD8004495 Si02
#       8
#     2   2   2   2   2   2   2   2
#     4   9  20  36  61  81 112 156 199 235 284 355
#     4  12  22  39  60  89 124 155 190 250 306 351
#     4  11  23  37  62  85 119 158 200 244 295 355
#     4  10  21  37  63  89 116 156 200 245 301 350
#     4  10  20  40  60  82 116 162 202 238 295 353
#     4  10  20  40  59  87 121 156 192 249 301 347
#     4  10  20  38  59  88 120 155 192 244 304 351
#     4  12  23  37  63  90 124 151 199 254 296 352
#
# _framework density 19.976773999999999
#
# number of rings (size 3 to 8) (size 9 to 14) (size 15 to 20)
#    0.000    1.500    3.750    1.125    1.750    2.500 
#    2.250    0.625    0.000    0.000    0.000    0.000 
#    0.000    0.000    0.000    0.000    0.000    0.000 
#
# Total GULP energy -198222.858396 kJ/mol
# GULP energy per Si atom -12388.928650 kJ/mol
# Density = 1.993131 g / cm^3
# Si number density = 19.976774 Si / 1000 Ang^3
#
#
#
# Elastic Constant Matrix: (Units=GPa)
#
#
# Indices 1 2 3 4 5 6 
#
# 1 83.2087 42.9316 35.7440 -3.8080 -9.1292 9.3293
# 2 42.9316 113.0318 57.8497 -35.2414 -1.4873 2.0096
# 3 35.7440 57.8497 110.7518 -42.1114 0.0944 -1.2431
# 4 -3.8080 -35.2414 -42.1114 50.2528 -0.7093 4.5604
# 5 -9.1292 -1.4873 0.0944 -0.7093 21.6101 -8.5072
# 6 9.3293 2.0096 -1.2431 4.5604 -8.5072 24.3188
#
#
#
# Elastic Compliance Matrix: (Units=1/GPa)
#
#
# Indices 1 2 3 4 5 6 
#
# 1 0.018239 -0.006265 -0.005362 -0.007114 0.005718 -0.003419
# 2 -0.006265 0.015151 -0.002958 0.007743 -0.001757 -0.001066
# 3 -0.005362 -0.002958 0.016651 0.011417 -0.002051 0.000294
# 4 -0.007114 0.007743 0.011417 0.034766 -0.003358 -0.005021
# 5 0.005718 -0.001757 -0.002051 -0.003358 0.055513 0.017896
# 6 -0.003419 -0.001066 0.000294 -0.005021 0.017896 0.049737
#
#
# Mechanical properties :
#
#
# Convention : Reuss Voigt Hill
#
# Bulk Modulus (GPa) = 47.91519 64.44923 56.18221
# Shear Modulus (GPa) = 22.10582 30.60080 26.35331
#
# Velocity S-wave (km/s) = 3.33013 3.91809 3.63602
# Velocity P-wave (km/s) = 6.23088 7.26641 6.76848
#
# Compressibility (1/GPa) = 0.02087021
#
# Stress axis : x y z
#
# Youngs Moduli (GPa) = 54.82751 66.00378 60.05647
#
# Poissons Ratio (x) = 0.41353 0.32203
# Poissons Ratio (y) = 0.34350 0.17764
# Poissons Ratio (z) = 0.29399 0.19523
#
# Static dielectric constant tensor:
#      x y z
#    x 3.279040 -0.034570 0.107250 
#    y -0.034570 4.138400 -0.527410 
#    z 0.107250 -0.527410 4.028520 
# 
# 
# High freq. dielectric constant tensor:
#      x y z
#    x 1.749360 0.002170 0.010820 
#    y 0.002170 1.797050 -0.035060 
#    z 0.010820 -0.035060 1.780810 
# 
# From -- ./inp_files/206774.got.cif
#   From: 2010.06.25/outbox.cif.g09.slc.cpg/sg2_104_cif.got.tgz:206774.got - 2010.06.27 13:26:56.
