data_PCOD8004749
_publ_section_title
;
Structure prediction by ZEFSAII (Michael W. Deem and Ramdas Pophale) SiO2 
 PCOD8004749
Probable space group: P -1
;
_chemical_formula_sum "Si O2"
_cell_formula_units_Z 16
_cell_length_a 12.235411
_cell_length_b 26.852040
_cell_length_c 26.937007
_cell_angle_alpha 169.371176
_cell_angle_beta 30.298055
_cell_angle_gamma 147.658557
_cell_volume 822.859519
_symmetry_space_group_name_H-M "P -1"
_symmetry_group_IT_number 2
_symmetry_cell_setting 'triclinic'
loop_
_space_group_symop_operation_xyz
x,y,z
-x,-y,-z
loop_
_atom_site_type_symbol
_atom_site_label
_atom_site_fract_x
_atom_site_fract_y
_atom_site_fract_z
Si Si1 0.908362 0.796659 0.486404
Si Si2 0.411765 0.771986 0.277717
Si Si3 0.342791 0.400384 0.421746
Si Si4 0.645511 0.517983 0.131579
Si Si5 0.254857 0.728312 0.920209
Si Si6 0.088053 0.867755 0.016424
Si Si7 0.586527 0.930037 0.261002
Si Si8 0.931508 0.769366 0.339720
O O1 0.838155 0.491937 0.222469
O O2 0.871414 0.890101 0.535338
O O3 0.155684 0.811933 0.419569
O O4 0.762061 0.986682 0.765822
O O5 0.500000 0.000000 0.500000
O O6 0.502278 0.775020 0.189757
O O7 0.500000 0.500000 0.000000
O O8 0.500000 0.500000 0.500000
O O9 0.489410 0.342847 0.259265
O O10 0.233169 0.126870 0.212313
O O11 0.162790 0.645871 0.727699
O O12 0.516232 0.768761 0.402952
O O13 0.724319 0.608379 0.243840
O O14 0.864014 0.442331 0.940458
O O15 0.494005 0.255524 0.935425
O O16 0.114448 0.738887 0.934706
O O17 0.843000 0.954672 0.184908
O O18 0.000000 0.000000 0.500000
#
# Coordination Sequence:
#
# PCOD8004749 Si02
#       8
#     2   2   2   2   2   2   2   2
#     4  12  24  37  59  86 120 157 195 244 291 349
#     4  12  24  36  51  79 126 167 187 220 281 356
#     4  10  20  38  62  84 120 160 199 248 289 334
#     4  11  23  39  61  81 116 148 205 254 288 340
#     4  11  23  38  57  92 120 155 199 239 291 351
#     4  11  21  38  62  88 124 161 195 239 290 355
#     4  12  23  38  58  89 118 156 202 239 291 357
#     4  11  24  42  63  83 116 160 206 254 301 339
#
# _framework density 19.444389000000001
#
# number of rings (size 3 to 8) (size 9 to 14) (size 15 to 20)
#    0.000    0.750    2.500    7.500    5.250    0.000 
#    0.000    0.000    0.000    0.000    0.000   17.500 
#    0.000    0.000    0.000    0.000    0.000    0.000 
#
# Total GULP energy -198386.773216 kJ/mol
# GULP energy per Si atom -12399.173326 kJ/mol
# Density = 1.940013 g / cm^3
# Si number density = 19.444389 Si / 1000 Ang^3
#
#
#
# Elastic Constant Matrix: (Units=GPa)
#
#
# Indices 1 2 3 4 5 6 
#
# 1 79.4075 40.9317 39.6875 -9.6348 2.0645 1.4340
# 2 40.9317 100.3290 42.0055 -5.4206 -6.5825 1.7646
# 3 39.6875 42.0055 129.2023 -7.0139 -1.1994 2.3639
# 4 -9.6348 -5.4206 -7.0139 43.6075 2.7283 -0.7926
# 5 2.0645 -6.5825 -1.1994 2.7283 29.9828 -4.4238
# 6 1.4340 1.7646 2.3639 -0.7926 -4.4238 15.5141
#
#
#
# Elastic Compliance Matrix: (Units=1/GPa)
#
#
# Indices 1 2 3 4 5 6 
#
# 1 0.017752 -0.005845 -0.003407 0.002818 -0.003074 -0.001190
# 2 -0.005845 0.013656 -0.002632 -0.000221 0.003365 0.000336
# 3 -0.003407 -0.002632 0.009682 0.000470 -0.000127 -0.000873
# 4 0.002818 -0.000221 0.000470 0.023754 -0.002351 0.000237
# 5 -0.003074 0.003365 -0.000127 -0.002351 0.035997 0.010065
# 6 -0.001190 0.000336 -0.000873 0.000237 0.010065 0.067545
#
#
# Mechanical properties :
#
#
# Convention : Reuss Voigt Hill
#
# Bulk Modulus (GPa) = 57.71995 61.57648 59.64821
# Shear Modulus (GPa) = 25.26205 30.24182 27.75194
#
# Velocity S-wave (km/s) = 3.60835 3.94801 3.78199
# Velocity P-wave (km/s) = 6.86362 7.24700 7.05792
#
# Compressibility (1/GPa) = 0.01732503
#
# Stress axis : x y z
#
# Youngs Moduli (GPa) = 56.33221 73.22645 103.28420
#
# Poissons Ratio (x) = 0.42797 0.35184
# Poissons Ratio (y) = 0.32923 0.27179
# Poissons Ratio (z) = 0.19190 0.19270
#
# Static dielectric constant tensor:
#      x y z
#    x 3.784060 0.157690 0.213190 
#    y 0.157690 3.631390 -0.221990 
#    z 0.213190 -0.221990 4.071360 
# 
# 
# High freq. dielectric constant tensor:
#      x y z
#    x 1.732460 0.016700 0.005470 
#    y 0.016700 1.743900 0.001500 
#    z 0.005470 0.001500 1.787010 
# 
# From -- ./inp_files/602121.got.cif
#   From: 2010.06.25/outbox.cif.g09.slc.cpg/sg2_302_cif.got.tgz:602121.got - 2010.06.27 13:26:56.
