data_PCOD8004081
_publ_section_title
;
Structure prediction by ZEFSAII (Michael W. Deem and Ramdas Pophale) SiO2 
 PCOD8004081
Probable space group: P -1
;
_chemical_formula_sum "Si O2"
_cell_formula_units_Z 16
_cell_length_a 14.670948
_cell_length_b 14.186215
_cell_length_c 8.599459
_cell_angle_alpha 81.234007
_cell_angle_beta 128.734621
_cell_angle_gamma 140.228394
_cell_volume 672.280750
_symmetry_space_group_name_H-M "P -1"
_symmetry_group_IT_number 2
_symmetry_cell_setting 'triclinic'
loop_
_space_group_symop_operation_xyz
x,y,z
-x,-y,-z
loop_
_atom_site_type_symbol
_atom_site_label
_atom_site_fract_x
_atom_site_fract_y
_atom_site_fract_z
Si Si1 0.667546 0.783658 0.949390
Si Si2 0.802146 0.361567 0.137733
Si Si3 0.074205 0.224907 0.285924
Si Si4 0.685394 0.309882 0.363649
Si Si5 0.443428 0.371290 0.807228
Si Si6 0.723990 0.090242 0.107344
Si Si7 0.663889 0.903917 0.373071
Si Si8 0.121385 0.237434 0.975521
O O1 0.599020 0.661063 0.045080
O O2 0.767104 0.790343 0.912350
O O3 0.434574 0.682558 0.684814
O O4 0.877703 0.004173 0.171396
O O5 0.774239 0.401614 0.259502
O O6 0.710079 0.188937 0.123497
O O7 0.077705 0.557304 0.322696
O O8 0.616887 0.274447 0.835180
O O9 0.318616 0.376311 0.600245
O O10 0.971790 0.251815 0.235501
O O11 0.132216 0.276796 0.154104
O O12 0.492623 0.087560 0.199776
O O13 0.314487 0.188082 0.640544
O O14 0.724275 0.577925 0.009061
O O15 0.728406 0.022037 0.274485
O O16 0.844146 0.044569 0.673804
#
# Coordination Sequence:
#
# PCOD8004081 Si02
#       8
#     2   2   2   2   2   2   2   2
#     4  11  21  41  66  94 125 163 208 265 308 367
#     4  10  20  37  63  94 124 161 209 263 311 360
#     4  11  23  44  61  93 134 169 202 257 320 375
#     4   9  19  34  59  95 123 148 208 266 304 350
#     4  12  23  41  63  94 129 161 213 261 304 376
#     4  10  21  38  67  89 123 167 211 255 309 369
#     4  11  22  40  63  95 126 166 207 266 310 363
#     4  12  27  38  63  96 133 168 204 253 324 380
#
# _framework density 23.799581
#
# number of rings (size 3 to 8) (size 9 to 14) (size 15 to 20)
#    0.000    1.250    5.000    3.750    3.500    1.000 
#    0.000    0.625    0.000    3.750    0.000    0.000 
#    0.000    0.000    0.000    0.000    0.000    0.000 
#
# Total GULP energy -198351.070416 kJ/mol
# GULP energy per Si atom -12396.941901 kJ/mol
# Density = 2.374541 g / cm^3
# Si number density = 23.799581 Si / 1000 Ang^3
#
#
#
# Elastic Constant Matrix: (Units=GPa)
#
#
# Indices 1 2 3 4 5 6 
#
# 1 82.6223 5.6322 30.7949 -17.5714 21.9614 10.0650
# 2 5.6322 38.4128 14.3318 3.5463 6.9717 8.0479
# 3 30.7949 14.3318 139.1233 14.7836 28.6937 21.5692
# 4 -17.5714 3.5463 14.7836 21.3753 4.4120 -0.8692
# 5 21.9614 6.9717 28.6937 4.4120 33.2689 1.3959
# 6 10.0650 8.0479 21.5692 -0.8692 1.3959 26.2446
#
#
#
# Elastic Compliance Matrix: (Units=1/GPa)
#
#
# Indices 1 2 3 4 5 6 
#
# 1 0.023504 -0.000726 -0.004137 0.025243 -0.014985 -0.003758
# 2 -0.000726 0.029232 -0.000069 -0.004798 -0.004592 -0.008543
# 3 -0.004137 -0.000069 0.011619 -0.010609 -0.005534 -0.007999
# 4 0.025243 -0.004798 -0.010609 0.079383 -0.017206 0.004053
# 5 -0.014985 -0.004592 -0.005534 -0.017206 0.047606 0.008601
# 6 -0.003758 -0.008543 -0.007999 0.004053 0.008601 0.048415
#
#
# Mechanical properties :
#
#
# Convention : Reuss Voigt Hill
#
# Bulk Modulus (GPa) = 18.35166 40.18625 29.26896
# Shear Modulus (GPa) = 18.67154 30.13774 24.40464
#
# Velocity S-wave (km/s) = 2.80399 3.56239 3.20570
# Velocity P-wave (km/s) = 4.26741 5.81745 5.10165
#
# Compressibility (1/GPa) = 0.05449098
#
# Stress axis : x y z
#
# Youngs Moduli (GPa) = 42.54551 34.20961 86.06325
#
# Poissons Ratio (x) = 0.02484 0.35603
# Poissons Ratio (y) = 0.03089 0.00595
# Poissons Ratio (z) = 0.17601 0.00236
#
# Static dielectric constant tensor:
#      x y z
#    x 4.391510 -0.116660 0.460750 
#    y -0.116660 3.882370 0.406550 
#    z 0.460750 0.406550 4.487410 
# 
# 
# High freq. dielectric constant tensor:
#      x y z
#    x 1.946230 -0.015360 0.023610 
#    y -0.015360 1.908280 0.038330 
#    z 0.023610 0.038330 1.941640 
# 
# From -- ./inp_files/315160.got.cif
#   From: 2010.06.25/outbox.cif.g09.slc.cpg/sg2_158_cif.got.tgz:315160.got - 2010.06.27 13:26:56.
