data_PCOD8004591
_publ_section_title
;
Structure prediction by ZEFSAII (Michael W. Deem and Ramdas Pophale) SiO2 
 PCOD8004591
Probable space group: P -1
;
_chemical_formula_sum "Si O2"
_cell_formula_units_Z 16
_cell_length_a 14.996366
_cell_length_b 27.562204
_cell_length_c 8.341243
_cell_angle_alpha 130.312376
_cell_angle_beta 120.860030
_cell_angle_gamma 19.267857
_cell_volume 799.351480
_symmetry_space_group_name_H-M "P -1"
_symmetry_group_IT_number 2
_symmetry_cell_setting 'triclinic'
loop_
_space_group_symop_operation_xyz
x,y,z
-x,-y,-z
loop_
_atom_site_type_symbol
_atom_site_label
_atom_site_fract_x
_atom_site_fract_y
_atom_site_fract_z
Si Si1 0.282745 0.790928 0.169208
Si Si2 0.666392 0.766931 0.750523
Si Si3 0.798356 0.889558 0.752854
Si Si4 0.610577 0.407172 0.240958
Si Si5 0.518598 0.036042 0.245611
Si Si6 0.118772 0.871509 0.534368
Si Si7 0.326296 0.385917 0.594106
Si Si8 0.034715 0.781764 0.388422
O O1 0.079947 0.882805 0.329391
O O2 0.575775 0.656693 0.222624
O O3 0.366502 0.682095 0.907436
O O4 0.102162 0.944997 0.224927
O O5 0.582606 0.837111 0.641910
O O6 0.637904 0.708363 0.614959
O O7 0.999329 0.598407 0.726143
O O8 0.469532 0.911982 0.016544
O O9 0.701254 0.870641 0.628587
O O10 0.066442 0.748415 0.824444
O O11 0.891227 0.852552 0.579898
O O12 0.500000 0.500000 0.500000
O O13 0.368122 0.563306 0.215424
O O14 0.842108 0.857150 0.236977
O O15 0.500000 0.000000 0.000000
O O16 0.456340 0.700063 0.510189
O O17 0.041342 0.853452 0.522725
#
# Coordination Sequence:
#
# PCOD8004591 Si02
#       8
#     2   2   2   2   2   2   2   2
#     4   9  19  36  62  89 122 152 206 255 303 351
#     4  10  20  38  60  89 122 153 210 246 306 356
#     4  10  23  40  59  84 128 162 197 248 313 362
#     4  10  23  39  60  88 126 163 200 251 307 364
#     4  10  23  35  60  86 118 159 204 243 302 357
#     4   9  20  35  65  92 114 156 210 246 317 340
#     4   9  19  34  62  89 118 154 198 266 290 362
#     4  11  23  41  61  90 125 162 204 252 306 372
#
# _framework density 20.016227000000001
#
# number of rings (size 3 to 8) (size 9 to 14) (size 15 to 20)
#    0.750    1.500    0.000    1.875    8.750    0.500 
#    0.000    5.625    2.750    3.750    0.000    0.000 
#    0.000    0.000    0.000    0.000    0.000    0.000 
#
# Total GULP energy -198256.622587 kJ/mol
# GULP energy per Si atom -12391.038912 kJ/mol
# Density = 1.997067 g / cm^3
# Si number density = 20.016227 Si / 1000 Ang^3
#
#
#
# Elastic Constant Matrix: (Units=GPa)
#
#
# Indices 1 2 3 4 5 6 
#
# 1 117.8600 42.6885 23.7576 4.6103 2.6462 -0.1370
# 2 42.6885 167.2947 36.7324 14.6091 4.7193 -19.7368
# 3 23.7576 36.7324 84.5853 10.6372 13.5240 2.3084
# 4 4.6103 14.6091 10.6372 28.2098 2.1699 5.7745
# 5 2.6462 4.7193 13.5240 2.1699 23.6257 -1.9892
# 6 -0.1370 -19.7368 2.3084 5.7745 -1.9892 29.0532
#
#
#
# Elastic Compliance Matrix: (Units=1/GPa)
#
#
# Indices 1 2 3 4 5 6 
#
# 1 0.009647 -0.002302 -0.001777 0.000570 0.000220 -0.001475
# 2 -0.002302 0.008332 -0.002795 -0.004371 0.001169 0.006820
# 3 -0.001777 -0.002795 0.015243 -0.002758 -0.007977 -0.003116
# 4 0.000570 -0.004371 -0.002758 0.041105 -0.002320 -0.011076
# 5 0.000220 0.001169 -0.007977 -0.002320 0.047280 0.005127
# 6 -0.001475 0.006820 -0.003116 -0.011076 0.005127 0.041846
#
#
# Mechanical properties :
#
#
# Convention : Reuss Voigt Hill
#
# Bulk Modulus (GPa) = 51.34861 64.01076 57.67969
# Shear Modulus (GPa) = 27.21968 33.94851 30.58410
#
# Velocity S-wave (km/s) = 3.69166 4.12278 3.91316
# Velocity P-wave (km/s) = 6.62422 7.39675 7.02112
#
# Compressibility (1/GPa) = 0.01947472
#
# Stress axis : x y z
#
# Youngs Moduli (GPa) = 103.65391 120.02206 65.60570
#
# Poissons Ratio (x) = 0.27625 0.11657
# Poissons Ratio (y) = 0.23858 0.18338
# Poissons Ratio (z) = 0.18417 0.33548
#
# Static dielectric constant tensor:
#      x y z
#    x 3.880900 -0.182720 0.139240 
#    y -0.182720 4.210830 0.213120 
#    z 0.139240 0.213120 3.298750 
# 
# 
# High freq. dielectric constant tensor:
#      x y z
#    x 1.776340 -0.014130 0.020700 
#    y -0.014130 1.793100 0.010590 
#    z 0.020700 0.010590 1.755350 
# 
# From -- ./inp_files/320720.got.cif
#   From: 2010.06.25/outbox.cif.g09.slc.cpg/sg2_161_cif.got.tgz:320720.got - 2010.06.27 13:26:56.
