data_PCOD8004774
_publ_section_title
;
Structure prediction by ZEFSAII (Michael W. Deem and Ramdas Pophale) SiO2 
 PCOD8004774
Probable space group: P -1
;
_chemical_formula_sum "Si O2"
_cell_formula_units_Z 16
_cell_length_a 8.549299
_cell_length_b 12.134045
_cell_length_c 14.827988
_cell_angle_alpha 126.998035
_cell_angle_beta 52.567243
_cell_angle_gamma 142.570795
_cell_volume 719.410665
_symmetry_space_group_name_H-M "P -1"
_symmetry_group_IT_number 2
_symmetry_cell_setting 'triclinic'
loop_
_space_group_symop_operation_xyz
x,y,z
-x,-y,-z
loop_
_atom_site_type_symbol
_atom_site_label
_atom_site_fract_x
_atom_site_fract_y
_atom_site_fract_z
Si Si1 0.037505 0.372495 0.815645
Si Si2 0.882656 0.809241 0.638068
Si Si3 0.215166 0.543424 0.517417
Si Si4 0.833963 0.861983 0.407190
Si Si5 0.636793 0.296839 0.266824
Si Si6 0.733559 0.484871 0.002877
Si Si7 0.095719 0.842186 0.943137
Si Si8 0.181519 0.174256 0.127915
O O1 0.009301 0.203488 0.708046
O O2 0.280598 0.554251 0.764875
O O3 0.079015 0.393650 0.918257
O O4 0.781708 0.352913 0.879972
O O5 0.866648 0.650483 0.522605
O O6 0.669852 0.809569 0.663112
O O7 0.848498 0.772391 0.738133
O O8 0.155452 0.017435 0.617507
O O9 0.518717 0.688683 0.446434
O O10 0.198895 0.617966 0.654624
O O11 0.000000 0.500000 0.500000
O O12 0.000000 0.000000 0.500000
O O13 0.669894 0.160038 0.146176
O O14 0.432199 0.356211 0.076876
O O15 0.819969 0.640554 0.975346
O O16 0.066670 0.895994 0.880655
O O17 0.190046 0.012126 0.058381
#
# Coordination Sequence:
#
# PCOD8004774 Si02
#       8
#     2   2   2   2   2   2   2   2
#     4  10  21  38  61  97 122 161 217 268 308 377
#     4  12  24  41  69  94 127 171 221 268 316 385
#     4  12  26  46  68  95 133 170 212 271 332 383
#     4  12  24  41  67  98 128 166 217 269 320 383
#     4  11  21  42  65  92 126 169 219 265 319 379
#     4  10  20  38  62  87 126 166 213 257 316 374
#     4  10  24  38  58  95 129 164 212 260 322 380
#     4  11  22  40  61  91 131 171 205 263 324 379
#
# _framework density 22.240425999999999
#
# number of rings (size 3 to 8) (size 9 to 14) (size 15 to 20)
#    0.000    1.000    3.750    3.000    1.750    1.000 
#    0.000    5.000    0.000    0.000    0.000    0.000 
#    0.000    0.000    0.000    0.000    0.000    0.000 
#
# Total GULP energy -198321.794042 kJ/mol
# GULP energy per Si atom -12395.112128 kJ/mol
# Density = 2.218981 g / cm^3
# Si number density = 22.240426 Si / 1000 Ang^3
#
#
#
# Elastic Constant Matrix: (Units=GPa)
#
#
# Indices 1 2 3 4 5 6 
#
# 1 63.6972 12.3886 7.9967 0.9003 11.5387 -14.1810
# 2 12.3886 77.8338 21.1987 7.4370 -11.3892 -28.1805
# 3 7.9967 21.1987 90.6725 10.0055 2.7256 -14.4654
# 4 0.9003 7.4370 10.0055 35.9535 -5.4583 -1.4429
# 5 11.5387 -11.3892 2.7256 -5.4583 27.1934 4.3716
# 6 -14.1810 -28.1805 -14.4654 -1.4429 4.3716 29.5321
#
#
#
# Elastic Compliance Matrix: (Units=1/GPa)
#
#
# Indices 1 2 3 4 5 6 
#
# 1 0.020221 -0.001014 0.000678 -0.001749 -0.011134 0.010637
# 2 -0.001014 0.021022 -0.001970 -0.002131 0.006177 0.017589
# 3 0.000678 -0.001970 0.012753 -0.003549 -0.003923 0.005100
# 4 -0.001749 -0.002131 -0.003549 0.030171 0.006931 -0.004164
# 5 -0.011134 0.006177 -0.003923 0.006931 0.047158 -0.008016
# 6 0.010637 0.017589 0.005100 -0.004164 -0.008016 0.059235
#
#
# Mechanical properties :
#
#
# Convention : Reuss Voigt Hill
#
# Bulk Modulus (GPa) = 20.24923 35.04127 27.64525
# Shear Modulus (GPa) = 23.62598 31.24379 27.43488
#
# Velocity S-wave (km/s) = 3.26283 3.75216 3.51602
# Velocity P-wave (km/s) = 4.82899 5.87890 5.37962
#
# Compressibility (1/GPa) = 0.04938461
#
# Stress axis : x y z
#
# Youngs Moduli (GPa) = 49.45311 47.57021 78.41534
#
# Poissons Ratio (x) = 0.04824 -0.05320
# Poissons Ratio (y) = 0.05015 0.15445
# Poissons Ratio (z) = -0.03355 0.09370
#
# Static dielectric constant tensor:
#      x y z
#    x 3.824400 -0.219820 -0.044920 
#    y -0.219820 4.087090 -0.017230 
#    z -0.044920 -0.017230 4.107420 
# 
# 
# High freq. dielectric constant tensor:
#      x y z
#    x 1.860240 -0.021630 0.001200 
#    y -0.021630 1.879480 -0.000910 
#    z 0.001200 -0.000910 1.884840 
# 
# From -- ./inp_files/500804.got.cif
#   From: 2010.06.25/outbox.cif.g09.slc.cpg/sg2_251_cif.got.tgz:500804.got - 2010.06.27 13:26:56.
