data_PCOD8004889
_publ_section_title
;
Structure prediction by ZEFSAII (Michael W. Deem and Ramdas Pophale) SiO2 
 PCOD8004889
Probable space group: P -1
;
_chemical_formula_sum "Si O2"
_cell_formula_units_Z 16
_cell_length_a 17.319825
_cell_length_b 11.037274
_cell_length_c 9.002898
_cell_angle_alpha 77.787966
_cell_angle_beta 130.079247
_cell_angle_gamma 64.005261
_cell_volume 824.003805
_symmetry_space_group_name_H-M "P -1"
_symmetry_group_IT_number 2
_symmetry_cell_setting 'triclinic'
loop_
_space_group_symop_operation_xyz
x,y,z
-x,-y,-z
loop_
_atom_site_type_symbol
_atom_site_label
_atom_site_fract_x
_atom_site_fract_y
_atom_site_fract_z
Si Si1 0.115240 0.719329 0.799508
Si Si2 0.338808 0.080712 0.806122
Si Si3 0.185585 0.017670 0.476173
Si Si4 0.310958 0.088245 0.116551
Si Si5 0.145186 0.430240 0.273369
Si Si6 0.649718 0.704662 0.713743
Si Si7 0.039142 0.911695 0.366214
Si Si8 0.933900 0.827444 0.027576
O O1 0.085773 0.756236 0.575913
O O2 0.973933 0.778287 0.693015
O O3 0.278726 0.494981 0.094209
O O4 0.111611 0.865861 0.817170
O O5 0.334243 0.951111 0.747931
O O6 0.199984 0.294941 0.512906
O O7 0.307354 0.085613 0.936737
O O8 0.500000 0.000000 0.000000
O O9 0.188539 0.865634 0.545864
O O10 0.181522 0.044478 0.288111
O O11 0.309048 0.232649 0.127319
O O12 0.461662 0.871301 0.423066
O O13 0.154660 0.170068 0.960169
O O14 0.286353 0.313219 0.362255
O O15 0.093773 0.610813 0.227815
O O16 0.000000 0.500000 0.000000
O O17 0.988723 0.905092 0.146742
#
# Coordination Sequence:
#
# PCOD8004889 Si02
#       8
#     2   2   2   2   2   2   2   2
#     4   9  19  39  65  85 125 157 215 255 308 355
#     4  12  24  40  62  91 128 168 198 258 323 372
#     4  10  20  38  63  85 123 158 202 258 303 359
#     4  11  26  36  61  92 131 158 210 248 324 374
#     4  12  21  40  62  93 126 163 208 255 315 371
#     4  11  21  42  57  90 128 169 195 262 312 378
#     4   9  21  38  63  95 116 162 214 265 296 359
#     4  12  22  37  66  94 123 158 216 259 301 373
#
# _framework density 19.417384999999999
#
# number of rings (size 3 to 8) (size 9 to 14) (size 15 to 20)
#    0.750    0.500    5.000    1.125    3.500    0.500 
#    0.000    0.625    0.000    1.500    0.000    0.000 
#    0.000    0.000    0.000    0.000    0.000    0.000 
#
# Total GULP energy -198331.798342 kJ/mol
# GULP energy per Si atom -12395.737396 kJ/mol
# Density = 1.937319 g / cm^3
# Si number density = 19.417385 Si / 1000 Ang^3
#
#
#
# Elastic Constant Matrix: (Units=GPa)
#
#
# Indices 1 2 3 4 5 6 
#
# 1 78.9331 27.6752 34.8712 19.8851 -16.0570 -6.3045
# 2 27.6752 104.2892 50.0738 23.1609 -6.3691 5.0079
# 3 34.8712 50.0738 88.6465 11.7333 -11.5769 8.9735
# 4 19.8851 23.1609 11.7333 43.7862 2.4151 -4.2166
# 5 -16.0570 -6.3691 -11.5769 2.4151 36.0180 1.7469
# 6 -6.3045 5.0079 8.9735 -4.2166 1.7469 27.3989
#
#
#
# Elastic Compliance Matrix: (Units=1/GPa)
#
#
# Indices 1 2 3 4 5 6 
#
# 1 0.018856 -0.000557 -0.005864 -0.006588 0.006626 0.004925
# 2 -0.000557 0.014449 -0.006984 -0.005680 0.000510 -0.001389
# 3 -0.005864 -0.006984 0.018357 0.000722 0.002300 -0.006120
# 4 -0.006588 -0.005680 0.000722 0.029369 -0.005882 0.004180
# 5 0.006626 0.000510 0.002300 -0.005882 0.032052 -0.002270
# 6 0.004925 -0.001389 -0.006120 0.004180 -0.002270 0.040677
#
#
# Mechanical properties :
#
#
# Convention : Reuss Voigt Hill
#
# Bulk Modulus (GPa) = 40.23749 55.23434 47.73592
# Shear Modulus (GPa) = 26.47572 32.05719 29.26645
#
# Velocity S-wave (km/s) = 3.69657 4.06760 3.88652
# Velocity P-wave (km/s) = 6.24395 7.11112 6.69160
#
# Compressibility (1/GPa) = 0.02485244
#
# Stress axis : x y z
#
# Youngs Moduli (GPa) = 53.03419 69.20861 54.47604
#
# Poissons Ratio (x) = 0.03854 0.31945
# Poissons Ratio (y) = 0.02953 0.38045
# Poissons Ratio (z) = 0.31099 0.48333
#
# Static dielectric constant tensor:
#      x y z
#    x 3.570700 -0.097180 -0.075070 
#    y -0.097180 3.640270 -0.039810 
#    z -0.075070 -0.039810 4.267850 
# 
# 
# High freq. dielectric constant tensor:
#      x y z
#    x 1.759070 -0.004020 -0.018430 
#    y -0.004020 1.751390 0.016550 
#    z -0.018430 0.016550 1.735580 
# 
# From -- ./inp_files/331987.got.cif
#   From: 2010.06.25/outbox.cif.g09.slc.cpg/sg2_166_cif.got.tgz:331987.got - 2010.06.27 13:26:56.
