data_PCOD8004893
_publ_section_title
;
Structure prediction by ZEFSAII (Michael W. Deem and Ramdas Pophale) SiO2 
 PCOD8004893
Probable space group: P -1
;
_chemical_formula_sum "Si O2"
_cell_formula_units_Z 16
_cell_length_a 8.840848
_cell_length_b 8.844664
_cell_length_c 14.622959
_cell_angle_alpha 82.291907
_cell_angle_beta 131.719919
_cell_angle_gamma 114.051383
_cell_volume 763.439844
_symmetry_space_group_name_H-M "P -1"
_symmetry_group_IT_number 2
_symmetry_cell_setting 'triclinic'
loop_
_space_group_symop_operation_xyz
x,y,z
-x,-y,-z
loop_
_atom_site_type_symbol
_atom_site_label
_atom_site_fract_x
_atom_site_fract_y
_atom_site_fract_z
Si Si1 0.813545 0.043011 0.701539
Si Si2 0.673073 0.359924 0.309521
Si Si3 0.569065 0.049071 0.171652
Si Si4 0.532997 0.699387 0.519841
Si Si5 0.102639 0.673184 0.419602
Si Si6 0.554736 0.201290 0.703551
Si Si7 0.706587 0.570357 0.749272
Si Si8 0.861872 0.101957 0.112211
O O1 0.889502 0.153029 0.630774
O O2 0.714039 0.124332 0.730560
O O3 0.627362 0.857169 0.616318
O O4 0.026317 0.028952 0.834098
O O5 0.807735 0.301553 0.442419
O O6 0.469585 0.392586 0.264332
O O7 0.848701 0.532661 0.319983
O O8 0.573663 0.216535 0.204906
O O9 0.594233 0.922186 0.266918
O O10 0.771523 0.101514 0.177943
O O11 0.330020 0.951079 0.035520
O O12 0.262678 0.618388 0.425864
O O13 0.606805 0.772042 0.440941
O O14 0.631975 0.570560 0.610173
O O15 0.701711 0.389991 0.787166
O O16 0.957853 0.709485 0.855364
#
# Coordination Sequence:
#
# PCOD8004893 Si02
#       8
#     2   2   2   2   2   2   2   2
#     4  10  20  38  63  86 121 160 198 240 294 360
#     4  10  21  38  62  88 125 158 192 241 297 358
#     4  11  24  43  62  84 117 159 205 252 295 348
#     4   9  18  37  60  89 127 158 189 237 302 358
#     4   9  18  34  62  91 123 150 192 240 296 354
#     4  11  21  35  65  90 119 154 201 240 293 358
#     4  10  22  39  61  91 123 155 195 244 295 358
#     4  10  25  44  60  83 119 158 204 254 300 339
#
# _framework density 20.957775000000002
#
# number of rings (size 3 to 8) (size 9 to 14) (size 15 to 20)
#    0.000    2.000    0.000    4.875    5.250    2.500 
#    6.750    3.750    0.000    0.000    0.000    0.000 
#    0.000    0.000    0.000    0.000    0.000    0.000 
#
# Total GULP energy -198377.520184 kJ/mol
# GULP energy per Si atom -12398.595011 kJ/mol
# Density = 2.091007 g / cm^3
# Si number density = 20.957775 Si / 1000 Ang^3
#
#
#
# Elastic Constant Matrix: (Units=GPa)
#
#
# Indices 1 2 3 4 5 6 
#
# 1 98.7131 62.5726 38.3899 15.3991 -1.4220 9.0096
# 2 62.5726 93.1372 14.4034 -0.0666 3.8588 2.4165
# 3 38.3899 14.4034 52.4293 9.6962 -0.4310 5.0637
# 4 15.3991 -0.0666 9.6962 27.3296 5.2099 2.7909
# 5 -1.4220 3.8588 -0.4310 5.2099 30.0339 4.3533
# 6 9.0096 2.4165 5.0637 2.7909 4.3533 38.3408
#
#
#
# Elastic Compliance Matrix: (Units=1/GPa)
#
#
# Indices 1 2 3 4 5 6 
#
# 1 0.028785 -0.017394 -0.013638 -0.012202 0.006050 -0.003665
# 2 -0.017394 0.021853 0.004834 0.008963 -0.005411 0.002034
# 3 -0.013638 0.004834 0.028189 -0.002166 -0.000397 -0.000620
# 4 -0.012202 0.008963 -0.002166 0.046090 -0.009806 0.000347
# 5 0.006050 -0.005411 -0.000397 -0.009806 0.036621 -0.004472
# 6 -0.003665 0.002034 -0.000620 0.000347 -0.004472 0.027379
#
#
# Mechanical properties :
#
#
# Convention : Reuss Voigt Hill
#
# Bulk Modulus (GPa) = 37.83459 52.77904 45.30682
# Shear Modulus (GPa) = 19.99010 27.73510 23.86260
#
# Velocity S-wave (km/s) = 3.09176 3.64178 3.37798
# Velocity P-wave (km/s) = 5.55313 6.55145 6.07284
#
# Compressibility (1/GPa) = 0.02643084
#
# Stress axis : x y z
#
# Youngs Moduli (GPa) = 34.73977 45.76036 35.47519
#
# Poissons Ratio (x) = 0.79596 0.48383
# Poissons Ratio (y) = 0.60427 -0.17150
# Poissons Ratio (z) = 0.47380 -0.22123
#
# Static dielectric constant tensor:
#      x y z
#    x 3.779050 0.122710 -0.096110 
#    y 0.122710 4.062060 -0.030080 
#    z -0.096110 -0.030080 3.608860 
# 
# 
# High freq. dielectric constant tensor:
#      x y z
#    x 1.816560 0.005940 -0.007090 
#    y 0.005940 1.839850 0.005470 
#    z -0.007090 0.005470 1.798430 
# 
# From -- ./inp_files/221723.got.cif
#   From: 2010.06.25/outbox.cif.g09.slc.cpg/sg2_111_cif.got.tgz:221723.got - 2010.06.27 13:26:56.
