data_PCOD8004636
_publ_section_title
;
Structure prediction by ZEFSAII (Michael W. Deem and Ramdas Pophale) SiO2 
 PCOD8004636
Probable space group: P -1
;
_chemical_formula_sum "Si O2"
_cell_formula_units_Z 16
_cell_length_a 12.298211
_cell_length_b 13.517044
_cell_length_c 20.416588
_cell_angle_alpha 163.356386
_cell_angle_beta 51.970932
_cell_angle_gamma 130.247848
_cell_volume 741.886489
_symmetry_space_group_name_H-M "P -1"
_symmetry_group_IT_number 2
_symmetry_cell_setting 'triclinic'
loop_
_space_group_symop_operation_xyz
x,y,z
-x,-y,-z
loop_
_atom_site_type_symbol
_atom_site_label
_atom_site_fract_x
_atom_site_fract_y
_atom_site_fract_z
Si Si1 0.058259 0.840737 0.805719
Si Si2 0.825386 0.154974 0.031872
Si Si3 0.501153 0.782611 0.622739
Si Si4 0.326026 0.211214 0.021938
Si Si5 0.223242 0.335711 0.384242
Si Si6 0.039017 0.867220 0.254710
Si Si7 0.808809 0.953317 0.556552
Si Si8 0.841017 0.307508 0.632677
O O1 0.100475 0.552141 0.557426
O O2 0.966728 0.660904 0.789835
O O3 0.207959 0.074224 0.923142
O O4 0.976227 0.078938 0.945726
O O5 0.838131 0.574256 0.284912
O O6 0.705518 0.999723 0.032202
O O7 0.772569 0.949014 0.853943
O O8 0.500000 0.500000 0.500000
O O9 0.379249 0.600839 0.500774
O O10 0.647989 0.901171 0.605986
O O11 0.471361 0.142880 0.895568
O O12 0.310235 0.624589 0.295981
O O13 0.180241 0.125149 0.335048
O O14 0.076438 0.857242 0.311264
O O15 0.891537 0.989987 0.376922
O O16 0.000000 0.500000 0.000000
O O17 0.833736 0.230668 0.663769
#
# Coordination Sequence:
#
# PCOD8004636 Si02
#       8
#     2   2   2   2   2   2   2   2
#     4   9  19  37  59  85 123 152 188 241 298 350
#     4  11  19  34  61  91 115 149 196 242 290 347
#     4  11  21  42  62  82 118 159 204 238 285 348
#     4  10  20  38  61  83 116 162 194 242 286 348
#     4  10  21  36  60  92 116 153 197 242 289 346
#     4  11  22  37  57  88 125 152 185 248 304 347
#     4  12  23  38  61  87 117 159 197 240 293 350
#     4  10  21  36  58  87 117 149 195 237 297 347
#
# _framework density 21.566641000000001
#
# number of rings (size 3 to 8) (size 9 to 14) (size 15 to 20)
#    0.000    1.500    2.500    5.250    0.000    3.000 
#    0.000    2.500    0.000    3.750    0.000    0.000 
#    0.000    0.000    0.000    0.000    0.000    0.000 
#
# Total GULP energy -198214.146745 kJ/mol
# GULP energy per Si atom -12388.384172 kJ/mol
# Density = 2.151755 g / cm^3
# Si number density = 21.566641 Si / 1000 Ang^3
#
#
#
# Elastic Constant Matrix: (Units=GPa)
#
#
# Indices 1 2 3 4 5 6 
#
# 1 66.7603 37.1212 44.6599 -9.3132 -20.3026 5.9060
# 2 37.1212 82.8354 39.1938 -2.2636 -14.0603 6.6755
# 3 44.6599 39.1938 136.4339 -16.1129 -20.6604 6.1815
# 4 -9.3132 -2.2636 -16.1129 31.0352 -5.5026 -8.7375
# 5 -20.3026 -14.0603 -20.6604 -5.5026 36.7409 -9.1698
# 6 5.9060 6.6755 6.1815 -8.7375 -9.1698 33.6171
#
#
#
# Elastic Compliance Matrix: (Units=1/GPa)
#
#
# Indices 1 2 3 4 5 6 
#
# 1 0.026304 -0.008114 -0.003738 0.008168 0.011268 0.002874
# 2 -0.008114 0.016941 -0.002579 -0.003341 -0.000573 -0.002489
# 3 -0.003738 -0.002579 0.010460 0.005330 0.004061 0.001739
# 4 0.008168 -0.003341 0.005330 0.044090 0.016373 0.014174
# 5 0.011268 -0.000573 0.004061 0.016373 0.041174 0.012874
# 6 0.002874 -0.002489 0.001739 0.014174 0.012874 0.036612
#
#
# Mechanical properties :
#
#
# Convention : Reuss Voigt Hill
#
# Bulk Modulus (GPa) = 40.25640 58.66440 49.46040
# Shear Modulus (GPa) = 23.50468 31.28228 27.39348
#
# Velocity S-wave (km/s) = 3.30489 3.81267 3.56782
# Velocity P-wave (km/s) = 5.76798 6.82952 6.32108
#
# Compressibility (1/GPa) = 0.02484077
#
# Stress axis : x y z
#
# Youngs Moduli (GPa) = 38.01756 59.02902 95.60347
#
# Poissons Ratio (x) = 0.47899 0.35740
# Poissons Ratio (y) = 0.30849 0.24655
# Poissons Ratio (z) = 0.14212 0.15223
#
# Static dielectric constant tensor:
#      x y z
#    x 3.850740 0.083740 -0.644030 
#    y 0.083740 4.002970 -0.145970 
#    z -0.644030 -0.145970 4.542150 
# 
# 
# High freq. dielectric constant tensor:
#      x y z
#    x 1.816300 -0.004680 -0.033330 
#    y -0.004680 1.844460 -0.017260 
#    z -0.033330 -0.017260 1.864570 
# 
# From -- ./inp_files/569261.got.cif
#   From: 2010.06.25/outbox.cif.g09.slc.cpg/sg2_285_cif.got.tgz:569261.got - 2010.06.27 13:26:56.
