data_PCOD8004157
_publ_section_title
;
Structure prediction by ZEFSAII (Michael W. Deem and Ramdas Pophale) SiO2 
 PCOD8004157
Probable space group: P -1
;
_chemical_formula_sum "Si O2"
_cell_formula_units_Z 14
_cell_length_a 19.313849
_cell_length_b 10.022170
_cell_length_c 10.952379
_cell_angle_alpha 27.043287
_cell_angle_beta 133.940249
_cell_angle_gamma 122.049319
_cell_volume 668.881641
_symmetry_space_group_name_H-M "P -1"
_symmetry_group_IT_number 2
_symmetry_cell_setting 'triclinic'
loop_
_space_group_symop_operation_xyz
x,y,z
-x,-y,-z
loop_
_atom_site_type_symbol
_atom_site_label
_atom_site_fract_x
_atom_site_fract_y
_atom_site_fract_z
Si Si1 0.310690 0.226086 0.824933
Si Si2 0.011716 0.268931 0.092269
Si Si3 0.861342 0.383848 0.146288
Si Si4 0.613535 0.441145 0.144559
Si Si5 0.802615 0.268474 0.896383
Si Si6 0.504926 0.829144 0.270469
Si Si7 0.666110 0.756076 0.723207
O O1 0.322293 0.394525 0.826819
O O2 0.283920 0.467295 0.485567
O O3 0.225334 0.051071 0.877855
O O4 0.414738 0.986349 0.120144
O O5 0.092435 0.956164 0.475182
O O6 0.054176 0.428692 0.902197
O O7 0.000000 0.500000 0.000000
O O8 0.903122 0.215817 0.979949
O O9 0.816563 0.372967 0.965536
O O10 0.777049 0.549905 0.002570
O O11 0.668327 0.083130 0.512290
O O12 0.500000 0.500000 0.000000
O O13 0.612844 0.574270 0.898988
O O14 0.500000 0.500000 0.500000
O O15 0.607083 0.816276 0.474854
O O16 0.500000 0.000000 0.000000
#
# Coordination Sequence:
#
# PCOD8004157 Si02
#       7
#     2   2   2   2   2   2   2
#     4  12  24  40  63  88 127 163 214 258 301 375
#     4  10  20  37  64  94 131 163 200 250 317 396
#     4  11  21  39  65  98 128 160 204 256 326 380
#     4  12  26  45  65  85 123 178 230 251 300 364
#     4  11  22  39  64  97 126 160 202 259 324 374
#     4  12  25  39  61  95 129 159 194 259 332 374
#     4  12  25  42  67  90 128 167 215 264 303 376
#
# _framework density 20.930458000000002
#
# number of rings (size 3 to 8) (size 9 to 14) (size 15 to 20)
#    0.000    0.571    1.429    9.857    2.000    0.000 
#    0.000    0.000    0.000   17.143    0.000    0.000 
#    0.000    0.000    0.000    0.000    0.000    0.000 
#
# Total GULP energy -173659.295144 kJ/mol
# GULP energy per Si atom -12404.235367 kJ/mol
# Density = 2.088282 g / cm^3
# Si number density = 20.930458 Si / 1000 Ang^3
#
#
#
# Elastic Constant Matrix: (Units=GPa)
#
#
# Indices 1 2 3 4 5 6 
#
# 1 131.8427 35.0626 33.9006 -24.6362 1.1365 -0.4337
# 2 35.0626 82.2568 20.6434 -25.7469 2.8771 2.4518
# 3 33.9006 20.6434 116.2285 -34.5779 2.8589 -11.9183
# 4 -24.6362 -25.7469 -34.5779 31.2855 0.0053 0.9774
# 5 1.1365 2.8771 2.8589 0.0053 47.4791 -9.4423
# 6 -0.4337 2.4518 -11.9183 0.9774 -9.4423 26.3214
#
#
#
# Elastic Compliance Matrix: (Units=1/GPa)
#
#
# Indices 1 2 3 4 5 6 
#
# 1 0.009269 -0.002362 -0.001067 0.004185 -0.000073 -0.000292
# 2 -0.002362 0.017341 0.001724 0.014377 -0.001486 -0.001941
# 3 -0.001067 0.001724 0.013851 0.015712 0.000195 0.005580
# 4 0.004185 0.014377 0.015712 0.064364 -0.001333 0.002976
# 5 -0.000073 -0.001486 0.000195 -0.001333 0.022825 0.008463
# 6 -0.000292 -0.001941 0.005580 0.002976 0.008463 0.043620
#
#
# Mechanical properties :
#
#
# Convention : Reuss Voigt Hill
#
# Bulk Modulus (GPa) = 26.99062 56.61569 41.80315
# Shear Modulus (GPa) = 26.73358 37.06528 31.89943
#
# Velocity S-wave (km/s) = 3.57775 4.21275 3.90817
# Velocity P-wave (km/s) = 5.47635 7.12538 6.35459
#
# Compressibility (1/GPa) = 0.03704991
#
# Stress axis : x y z
#
# Youngs Moduli (GPa) = 107.88638 57.66590 72.19931
#
# Poissons Ratio (x) = 0.13621 0.07705
# Poissons Ratio (y) = 0.25483 -0.12445
# Poissons Ratio (z) = 0.11513 -0.09940
#
# Static dielectric constant tensor:
#      x y z
#    x 4.031280 0.085800 0.033910 
#    y 0.085800 3.622840 -0.120980 
#    z 0.033910 -0.120980 3.885940 
# 
# 
# High freq. dielectric constant tensor:
#      x y z
#    x 1.828280 0.011850 -0.001350 
#    y 0.011850 1.804860 -0.019720 
#    z -0.001350 -0.019720 1.837150 
# 
# From -- ./inp_files/328301.got.cif
#   From: 2010.06.25/outbox.cif.g09.slc.cpg/sg2_165_cif.got.tgz:328301.got - 2010.06.27 13:26:56.
