data_PCOD8004065
_publ_section_title
;
Structure prediction by ZEFSAII (Michael W. Deem and Ramdas Pophale) SiO2 
 PCOD8004065
Probable space group: P -1
;
_chemical_formula_sum "Si O2"
_cell_formula_units_Z 14
_cell_length_a 13.039207
_cell_length_b 5.223646
_cell_length_c 15.135946
_cell_angle_alpha 111.247006
_cell_angle_beta 136.072052
_cell_angle_gamma 80.358552
_cell_volume 659.595450
_symmetry_space_group_name_H-M "P -1"
_symmetry_group_IT_number 2
_symmetry_cell_setting 'triclinic'
loop_
_space_group_symop_operation_xyz
x,y,z
-x,-y,-z
loop_
_atom_site_type_symbol
_atom_site_label
_atom_site_fract_x
_atom_site_fract_y
_atom_site_fract_z
Si Si1 0.583491 0.032738 0.352838
Si Si2 0.908261 0.387499 0.342481
Si Si3 0.171338 0.066146 0.645198
Si Si4 0.343161 0.595876 0.402099
Si Si5 0.044208 0.265746 0.231088
Si Si6 0.928029 0.623885 0.054985
Si Si7 0.611430 0.503841 0.772335
O O1 0.656943 0.124361 0.505466
O O2 0.477070 0.246796 0.278960
O O3 0.720277 0.032266 0.371969
O O4 0.493174 0.725931 0.265274
O O5 0.794935 0.604164 0.273646
O O6 0.018635 0.348725 0.326311
O O7 0.000000 0.500000 0.500000
O O8 0.809406 0.095327 0.271066
O O9 0.000000 0.000000 0.500000
O O10 0.500000 0.500000 0.500000
O O11 0.323829 0.644753 0.291633
O O12 0.217916 0.352511 0.328307
O O13 0.947081 0.432255 0.127255
O O14 0.007532 0.936500 0.156785
O O15 0.751909 0.629103 0.934342
O O16 0.000000 0.500000 0.000000
#
# Coordination Sequence:
#
# PCOD8004065 Si02
#       7
#     2   2   2   2   2   2   2
#     4  11  23  40  65  96 133 173 207 271 345 386
#     4  10  21  39  63  96 129 158 214 272 327 379
#     4  10  20  37  63  92 129 161 208 259 326 395
#     4  10  23  37  61  96 136 166 209 263 335 403
#     4  12  25  42  69  98 131 174 220 273 327 380
#     4  12  26  44  69  91 134 182 231 263 304 390
#     4  11  24  42  62  92 134 174 220 265 322 387
#
# _framework density 21.225131999999999
#
# number of rings (size 3 to 8) (size 9 to 14) (size 15 to 20)
#    0.000    1.143    1.429    5.143    4.000    6.857 
#    0.000    0.000    0.000   17.143    0.000    0.000 
#    0.000    0.000    0.000    0.000    0.000    0.000 
#
# Total GULP energy -173564.217040 kJ/mol
# GULP energy per Si atom -12397.444074 kJ/mol
# Density = 2.117682 g / cm^3
# Si number density = 21.225132 Si / 1000 Ang^3
#
#
#
# Elastic Constant Matrix: (Units=GPa)
#
#
# Indices 1 2 3 4 5 6 
#
# 1 154.4553 33.5235 38.9069 -7.9847 -9.3138 3.2911
# 2 33.5235 134.4430 13.0555 4.2867 -12.0334 9.6974
# 3 38.9069 13.0555 78.4096 -0.1424 0.8304 -5.7201
# 4 -7.9847 4.2867 -0.1424 23.6787 3.9713 -0.5025
# 5 -9.3138 -12.0334 0.8304 3.9713 26.3144 -0.7718
# 6 3.2911 9.6974 -5.7201 -0.5025 -0.7718 34.2527
#
#
#
# Elastic Compliance Matrix: (Units=1/GPa)
#
#
# Indices 1 2 3 4 5 6 
#
# 1 0.008024 -0.001482 -0.003816 0.002620 0.001861 -0.000908
# 2 -0.001482 0.008485 -0.000894 -0.002716 0.003724 -0.002365
# 3 -0.003816 -0.000894 0.015041 -0.000625 -0.002050 0.003076
# 4 0.002620 -0.002716 -0.000625 0.044802 -0.007030 0.000912
# 5 0.001861 0.003724 -0.002050 -0.007030 0.041468 -0.000744
# 6 -0.000908 -0.002365 0.003076 0.000912 -0.000744 0.030462
#
#
# Mechanical properties :
#
#
# Convention : Reuss Voigt Hill
#
# Bulk Modulus (GPa) = 52.17681 59.80887 55.99284
# Shear Modulus (GPa) = 29.93029 35.63729 32.78379
#
# Velocity S-wave (km/s) = 3.75925 4.10202 3.93437
# Velocity P-wave (km/s) = 6.59383 7.11863 6.86125
#
# Compressibility (1/GPa) = 0.01916560
#
# Stress axis : x y z
#
# Youngs Moduli (GPa) = 124.62227 117.85536 66.48477
#
# Poissons Ratio (x) = 0.17463 0.25372
# Poissons Ratio (y) = 0.18465 0.05947
# Poissons Ratio (z) = 0.47558 0.10542
#
# Static dielectric constant tensor:
#      x y z
#    x 4.123470 0.541350 -0.231820 
#    y 0.541350 5.147140 -0.277020 
#    z -0.231820 -0.277020 3.972900 
# 
# 
# High freq. dielectric constant tensor:
#      x y z
#    x 1.842580 0.006750 -0.001400 
#    y 0.006750 1.851970 0.004090 
#    z -0.001400 0.004090 1.806360 
# 
# From -- ./inp_files/93038.got.cif
#   From: 2010.06.25/outbox.cif.g09.slc.cpg/sg2_47_cif.got.tgz:93038.got - 2010.06.27 13:26:56.
