data_PCOD8004569
_publ_section_title
;
Structure prediction by ZEFSAII (Michael W. Deem and Ramdas Pophale) SiO2 
 PCOD8004569
Probable space group: P -1
;
_chemical_formula_sum "Si O2"
_cell_formula_units_Z 14
_cell_length_a 12.803150
_cell_length_b 12.775387
_cell_length_c 10.313077
_cell_angle_alpha 46.842712
_cell_angle_beta 146.062605
_cell_angle_gamma 129.811589
_cell_volume 675.928077
_symmetry_space_group_name_H-M "P -1"
_symmetry_group_IT_number 2
_symmetry_cell_setting 'triclinic'
loop_
_space_group_symop_operation_xyz
x,y,z
-x,-y,-z
loop_
_atom_site_type_symbol
_atom_site_label
_atom_site_fract_x
_atom_site_fract_y
_atom_site_fract_z
Si Si1 0.972351 0.621792 0.764948
Si Si2 0.604517 0.158585 0.231421
Si Si3 0.209085 0.119133 0.994765
Si Si4 0.625373 0.316661 0.873549
Si Si5 0.990449 0.369989 0.499959
Si Si6 0.309898 0.346504 0.354279
Si Si7 0.838916 0.927445 0.718480
O O1 0.946388 0.572202 0.629755
O O2 0.791487 0.681921 0.583553
O O3 0.170838 0.736786 0.884409
O O4 0.000000 0.500000 0.000000
O O5 0.775165 0.280767 0.359477
O O6 0.692586 0.012821 0.421095
O O7 0.425563 0.127102 0.168597
O O8 0.519218 0.215408 0.963317
O O9 0.143529 0.274551 0.785807
O O10 0.205643 0.063650 0.184343
O O11 0.059005 0.002311 0.855673
O O12 0.515449 0.304214 0.633739
O O13 0.665983 0.488652 0.813580
O O14 0.000000 0.500000 0.500000
O O15 0.195062 0.239949 0.220909
#
# Coordination Sequence:
#
# PCOD8004569 Si02
#       7
#     2   2   2   2   2   2   2
#     4   9  19  36  57  84 124 154 188 243 300 358
#     4  10  21  41  60  86 123 156 201 256 300 357
#     4  10  22  41  60  84 124 161 202 257 295 358
#     4   9  20  37  58  86 122 148 198 254 292 364
#     4  10  22  38  61  95 121 155 206 250 302 361
#     4  10  20  38  60  87 118 160 197 247 307 354
#     4  10  23  39  61  86 120 162 210 245 297 365
#
# _framework density 20.712264000000001
#
# number of rings (size 3 to 8) (size 9 to 14) (size 15 to 20)
#    0.000    2.286    0.000    1.286    6.000    2.286 
#    7.714   10.000    0.000    0.000    0.000    0.000 
#    0.000    0.000    0.000    0.000    0.000    0.000 
#
# Total GULP energy -173451.931758 kJ/mol
# GULP energy per Si atom -12389.423697 kJ/mol
# Density = 2.066512 g / cm^3
# Si number density = 20.712264 Si / 1000 Ang^3
#
#
#
# Elastic Constant Matrix: (Units=GPa)
#
#
# Indices 1 2 3 4 5 6 
#
# 1 85.6657 21.8185 19.8943 4.4187 -0.3613 15.7265
# 2 21.8185 91.0045 23.2148 4.9646 -5.1024 -0.5315
# 3 19.8943 23.2148 82.9191 -9.8956 -0.0951 3.5467
# 4 4.4187 4.9646 -9.8956 28.5310 6.6544 -5.6521
# 5 -0.3613 -5.1024 -0.0951 6.6544 27.7164 1.3354
# 6 15.7265 -0.5315 3.5467 -5.6521 1.3354 23.8566
#
#
#
# Elastic Compliance Matrix: (Units=1/GPa)
#
#
# Indices 1 2 3 4 5 6 
#
# 1 0.015408 -0.002552 -0.003175 -0.005631 0.001610 -0.011166
# 2 -0.002552 0.012853 -0.003460 -0.003465 0.003081 0.001490
# 3 -0.003175 -0.003460 0.014556 0.007028 -0.002395 0.001651
# 4 -0.005631 -0.003465 0.007028 0.044505 -0.012038 0.013808
# 5 0.001610 0.003081 -0.002395 -0.012038 0.039825 -0.005718
# 6 -0.011166 0.001490 0.001651 0.013808 -0.005718 0.052657
#
#
# Mechanical properties :
#
#
# Convention : Reuss Voigt Hill
#
# Bulk Modulus (GPa) = 40.91081 43.27161 42.09121
# Shear Modulus (GPa) = 24.23360 28.99825 26.61592
#
# Velocity S-wave (km/s) = 3.42425 3.74579 3.58862
# Velocity P-wave (km/s) = 5.95222 6.29643 6.12674
#
# Compressibility (1/GPa) = 0.02444342
#
# Stress axis : x y z
#
# Youngs Moduli (GPa) = 64.90310 77.80043 68.70170
#
# Poissons Ratio (x) = 0.19854 0.21811
# Poissons Ratio (y) = 0.16563 0.23771
# Poissons Ratio (z) = 0.20605 0.26919
#
# Static dielectric constant tensor:
#      x y z
#    x 4.118460 0.380590 0.248120 
#    y 0.380590 3.598350 -0.056020 
#    z 0.248120 -0.056020 3.926280 
# 
# 
# High freq. dielectric constant tensor:
#      x y z
#    x 1.798720 0.026030 0.007240 
#    y 0.026030 1.787980 -0.007890 
#    z 0.007240 -0.007890 1.830290 
# 
# From -- ./inp_files/262238.got.cif
#   From: 2010.06.25/outbox.cif.g09.slc.cpg/sg2_132_cif.got.tgz:262238.got - 2010.06.27 13:26:56.
