data_PCOD8004824
_publ_section_title
;
Structure prediction by ZEFSAII (Michael W. Deem and Ramdas Pophale) SiO2 
 PCOD8004824
Probable space group: P -1
;
_chemical_formula_sum "Si O2"
_cell_formula_units_Z 16
_cell_length_a 9.718032
_cell_length_b 11.944572
_cell_length_c 16.052379
_cell_angle_alpha 88.071007
_cell_angle_beta 152.768491
_cell_angle_gamma 101.968816
_cell_volume 785.386844
_symmetry_space_group_name_H-M "P -1"
_symmetry_group_IT_number 2
_symmetry_cell_setting 'triclinic'
loop_
_space_group_symop_operation_xyz
x,y,z
-x,-y,-z
loop_
_atom_site_type_symbol
_atom_site_label
_atom_site_fract_x
_atom_site_fract_y
_atom_site_fract_z
Si Si1 0.493238 0.228167 0.910033
Si Si2 0.641162 0.482841 0.488675
Si Si3 0.068334 0.275443 0.103142
Si Si4 0.802587 0.018442 0.315796
Si Si5 0.924080 0.019192 0.050605
Si Si6 0.855990 0.263282 0.278359
Si Si7 0.180122 0.381576 0.817527
Si Si8 0.181277 0.232847 0.976165
O O1 0.263590 0.303700 0.792547
O O2 0.245861 0.086853 0.775863
O O3 0.727495 0.249940 0.115091
O O4 0.720375 0.272609 0.948853
O O5 0.500000 0.500000 0.500000
O O6 0.348986 0.403205 0.273559
O O7 0.826059 0.613632 0.542650
O O8 0.882618 0.413565 0.628008
O O9 0.125425 0.160535 0.181732
O O10 0.057011 0.258889 0.997810
O O11 0.971349 0.153063 0.363642
O O12 0.000000 0.000000 0.500000
O O13 0.450615 0.003686 0.155765
O O14 0.979394 0.911588 0.134555
O O15 0.000000 0.000000 0.000000
O O16 0.574125 0.270696 0.187561
O O17 0.074496 0.307071 0.848465
O O18 0.500000 0.500000 0.000000
#
# Coordination Sequence:
#
# PCOD8004824 Si02
#       8
#     2   2   2   2   2   2   2   2
#     4  10  20  40  64  87 121 161 196 241 308 355
#     4  12  23  42  61  87 124 161 202 245 295 366
#     4  10  20  38  62  91 121 162 195 245 304 350
#     4  10  21  37  62  95 118 148 205 256 288 347
#     4   8  17  36  59  82 125 153 186 241 304 347
#     4  10  20  40  63  84 124 165 196 239 305 357
#     4  11  21  41  62  85 121 157 205 244 295 360
#     4   9  19  38  64  90 115 161 204 246 297 350
#
# _framework density 20.372126000000002
#
# number of rings (size 3 to 8) (size 9 to 14) (size 15 to 20)
#    0.000    2.000    3.750    0.375    0.000    4.500 
#    9.000    1.875    0.000    0.000    0.000    0.000 
#    0.000    0.000    0.000    0.000    0.000    0.000 
#
# Total GULP energy -198256.903393 kJ/mol
# GULP energy per Si atom -12391.056462 kJ/mol
# Density = 2.032576 g / cm^3
# Si number density = 20.372126 Si / 1000 Ang^3
#
#
#
# Elastic Constant Matrix: (Units=GPa)
#
#
# Indices 1 2 3 4 5 6 
#
# 1 129.0132 50.1191 14.9422 0.5927 9.4123 -15.2919
# 2 50.1191 161.6634 43.9051 19.9106 9.7272 -3.5351
# 3 14.9422 43.9051 47.6998 10.4586 -2.3166 -5.3493
# 4 0.5927 19.9106 10.4586 35.7570 -2.2600 3.8751
# 5 9.4123 9.7272 -2.3166 -2.2600 18.5941 -0.0496
# 6 -15.2919 -3.5351 -5.3493 3.8751 -0.0496 37.3930
#
#
#
# Elastic Compliance Matrix: (Units=1/GPa)
#
#
# Indices 1 2 3 4 5 6 
#
# 1 0.009485 -0.002628 -0.000519 0.000869 -0.003376 0.003462
# 2 -0.002628 0.009841 -0.007853 -0.003368 -0.005208 -0.000926
# 3 -0.000519 -0.007853 0.030108 -0.004358 0.007602 0.003814
# 4 0.000869 -0.003368 -0.004358 0.031815 0.004636 -0.003877
# 5 -0.003376 -0.005208 0.007602 0.004636 0.059722 -0.001187
# 6 0.003462 -0.000926 0.003814 -0.003877 -0.001187 0.029017
#
#
# Mechanical properties :
#
#
# Convention : Reuss Voigt Hill
#
# Bulk Modulus (GPa) = 36.45107 61.81215 49.13161
# Shear Modulus (GPa) = 24.85929 33.64282 29.25105
#
# Velocity S-wave (km/s) = 3.49701 4.06817 3.79335
# Velocity P-wave (km/s) = 5.85123 7.24390 6.58449
#
# Compressibility (1/GPa) = 0.02743404
#
# Stress axis : x y z
#
# Youngs Moduli (GPa) = 105.43304 101.61394 33.21384
#
# Poissons Ratio (x) = 0.26702 0.01723
# Poissons Ratio (y) = 0.27706 0.26084
# Poissons Ratio (z) = 0.05469 0.79801
#
# Static dielectric constant tensor:
#      x y z
#    x 3.897990 -0.074830 0.318470 
#    y -0.074830 4.299200 0.315580 
#    z 0.318470 0.315580 3.381810 
# 
# 
# High freq. dielectric constant tensor:
#      x y z
#    x 1.803080 -0.006980 0.016270 
#    y -0.006980 1.821420 0.015300 
#    z 0.016270 0.015300 1.751540 
# 
# From -- ./inp_files/181248.got.cif
#   From: 2010.06.25/outbox.cif.g09.slc.cpg/sg2_91_cif.got.tgz:181248.got - 2010.06.27 13:26:56.
