data_PCOD8004838
_publ_section_title
;
Structure prediction by ZEFSAII (Michael W. Deem and Ramdas Pophale) SiO2 
 PCOD8004838
Probable space group: P -1
;
_chemical_formula_sum "Si O2"
_cell_formula_units_Z 16
_cell_length_a 12.381411
_cell_length_b 9.621194
_cell_length_c 8.896095
_cell_angle_alpha 116.008940
_cell_angle_beta 113.727616
_cell_angle_gamma 103.633945
_cell_volume 754.606403
_symmetry_space_group_name_H-M "P -1"
_symmetry_group_IT_number 2
_symmetry_cell_setting 'triclinic'
loop_
_space_group_symop_operation_xyz
x,y,z
-x,-y,-z
loop_
_atom_site_type_symbol
_atom_site_label
_atom_site_fract_x
_atom_site_fract_y
_atom_site_fract_z
Si Si1 0.363021 0.967547 0.833992
Si Si2 0.141084 0.397140 0.969549
Si Si3 0.931651 0.814635 0.465662
Si Si4 0.096970 0.704619 0.695811
Si Si5 0.383383 0.017125 0.522309
Si Si6 0.635354 0.653992 0.292506
Si Si7 0.621111 0.663293 0.945955
Si Si8 0.130222 0.742446 0.084997
O O1 0.246186 0.779459 0.744447
O O2 0.359128 0.939223 0.640017
O O3 0.500000 0.000000 0.000000
O O4 0.340071 0.131553 0.947563
O O5 0.105590 0.342024 0.749517
O O6 0.008547 0.277043 0.937993
O O7 0.265259 0.370014 0.089484
O O8 0.172018 0.599204 0.098541
O O9 0.797792 0.765007 0.469284
O O10 0.040789 0.826070 0.651060
O O11 0.000000 0.000000 0.500000
O O12 0.000000 0.500000 0.500000
O O13 0.115894 0.737807 0.897507
O O14 0.249300 0.928550 0.302422
O O15 0.500000 0.000000 0.500000
O O16 0.432623 0.225088 0.658600
O O17 0.539114 0.474273 0.253791
O O18 0.628603 0.604428 0.091076
#
# Coordination Sequence:
#
# PCOD8004838 Si02
#       8
#     2   2   2   2   2   2   2   2
#     4  11  25  42  67  95 134 175 222 276 328 392
#     4  10  20  38  62  92 124 173 217 271 328 388
#     4  11  21  40  66  92 129 173 223 268 325 399
#     4  12  25  42  65  99 132 172 225 274 326 396
#     4  11  22  40  65  97 131 170 219 270 338 392
#     4   9  19  35  63  90 120 170 217 261 315 397
#     4   9  19  38  62  90 124 169 222 264 319 395
#     4  11  23  38  64  95 134 167 218 278 334 392
#
# _framework density 21.203108
#
# number of rings (size 3 to 8) (size 9 to 14) (size 15 to 20)
#    0.000    1.500    1.250    5.250    3.500    2.000 
#    0.000    6.875    0.000    4.500    0.000    0.000 
#    0.000    0.000    0.000    0.000    0.000    0.000 
#
# Total GULP energy -198295.107897 kJ/mol
# GULP energy per Si atom -12393.444244 kJ/mol
# Density = 2.115485 g / cm^3
# Si number density = 21.203108 Si / 1000 Ang^3
#
#
#
# Elastic Constant Matrix: (Units=GPa)
#
#
# Indices 1 2 3 4 5 6 
#
# 1 168.8037 52.7975 45.5914 7.4600 11.4290 14.1181
# 2 52.7975 81.1979 41.5389 6.3883 13.3458 12.0762
# 3 45.5914 41.5389 103.2585 -4.8279 12.6039 15.6496
# 4 7.4600 6.3883 -4.8279 37.3087 3.2321 6.0330
# 5 11.4290 13.3458 12.6039 3.2321 39.4279 3.7645
# 6 14.1181 12.0762 15.6496 6.0330 3.7645 32.3033
#
#
#
# Elastic Compliance Matrix: (Units=1/GPa)
#
#
# Indices 1 2 3 4 5 6 
#
# 1 0.007744 -0.003910 -0.001731 -0.000942 -0.000206 -0.000884
# 2 -0.003910 0.018481 -0.005163 -0.002480 -0.003089 -0.001876
# 3 -0.001731 -0.005163 0.013618 0.003878 -0.002002 -0.004402
# 4 -0.000942 -0.002480 0.003878 0.029014 -0.001958 -0.005730
# 5 -0.000206 -0.003089 -0.002002 -0.001958 0.027326 -0.000604
# 6 -0.000884 -0.001876 -0.004402 -0.005730 -0.000604 0.035317
#
#
# Mechanical properties :
#
#
# Convention : Reuss Voigt Hill
#
# Bulk Modulus (GPa) = 54.83820 70.34619 62.59219
# Shear Modulus (GPa) = 31.40930 36.03014 33.71972
#
# Velocity S-wave (km/s) = 3.85301 4.12671 3.99221
# Velocity P-wave (km/s) = 6.76119 7.48035 7.12984
#
# Compressibility (1/GPa) = 0.01823546
#
# Stress axis : x y z
#
# Youngs Moduli (GPa) = 129.12873 54.10898 73.43053
#
# Poissons Ratio (x) = 0.21159 0.12711
# Poissons Ratio (y) = 0.50496 0.37909
# Poissons Ratio (z) = 0.22353 0.27934
#
# Static dielectric constant tensor:
#      x y z
#    x 4.208240 0.137630 0.218920 
#    y 0.137630 3.759990 0.264960 
#    z 0.218920 0.264960 3.898760 
# 
# 
# High freq. dielectric constant tensor:
#      x y z
#    x 1.849470 0.004040 0.011910 
#    y 0.004040 1.815690 0.024750 
#    z 0.011910 0.024750 1.821440 
# 
# From -- ./inp_files/245153.got.cif
#   From: 2010.06.25/outbox.cif.g09.slc.cpg/sg2_123_cif.got.tgz:245153.got - 2010.06.27 13:26:56.
