data_PCOD8004856
_publ_section_title
;
Structure prediction by ZEFSAII (Michael W. Deem and Ramdas Pophale) SiO2 
 PCOD8004856
Probable space group: P -1
;
_chemical_formula_sum "Si O2"
_cell_formula_units_Z 14
_cell_length_a 10.773659
_cell_length_b 8.446500
_cell_length_c 11.303995
_cell_angle_alpha 91.545203
_cell_angle_beta 69.477332
_cell_angle_gamma 138.198927
_cell_volume 595.155016
_symmetry_space_group_name_H-M "P -1"
_symmetry_group_IT_number 2
_symmetry_cell_setting 'triclinic'
loop_
_space_group_symop_operation_xyz
x,y,z
-x,-y,-z
loop_
_atom_site_type_symbol
_atom_site_label
_atom_site_fract_x
_atom_site_fract_y
_atom_site_fract_z
Si Si1 0.007394 0.542176 0.195678
Si Si2 0.521414 0.354839 0.924647
Si Si3 0.809089 0.623924 0.621709
Si Si4 0.204415 0.855335 0.910526
Si Si5 0.718659 0.886200 0.573334
Si Si6 0.569264 0.955029 0.837100
Si Si7 0.618200 0.275997 0.470941
O O1 0.925040 0.289455 0.173488
O O2 0.838444 0.478082 0.329327
O O3 0.229190 0.738717 0.198167
O O4 0.039925 0.679506 0.070235
O O5 0.740080 0.562059 0.780694
O O6 0.323122 0.136804 0.893434
O O7 0.500000 0.500000 0.000000
O O8 0.513773 0.202121 0.016286
O O9 0.760630 0.741522 0.573415
O O10 0.674636 0.364882 0.590343
O O11 0.062140 0.822552 0.537221
O O12 0.380131 0.879953 0.845354
O O13 0.638571 0.883497 0.723234
O O14 0.537915 0.737499 0.531008
O O15 0.500000 0.000000 0.500000
#
# Coordination Sequence:
#
# PCOD8004856 Si02
#       7
#     2   2   2   2   2   2   2
#     4  10  20  38  62  95 126 165 211 264 315 383
#     4  11  22  40  66  96 126 164 214 271 317 382
#     4  11  25  45  66  94 135 172 217 265 330 388
#     4  10  22  38  66  92 128 170 213 263 326 375
#     4  11  24  43  69  93 129 182 212 263 331 387
#     4  11  21  42  68  93 125 173 219 262 325 383
#     4  12  25  41  67  98 134 166 222 269 323 388
#
# _framework density 23.523282999999999
#
# number of rings (size 3 to 8) (size 9 to 14) (size 15 to 20)
#    0.000    1.143    4.286    3.000    0.000    2.857 
#    0.000    0.000    0.000   18.000    0.000    0.000 
#    0.000    0.000    0.000    0.000    0.000    0.000 
#
# Total GULP energy -173597.181286 kJ/mol
# GULP energy per Si atom -12399.798663 kJ/mol
# Density = 2.346974 g / cm^3
# Si number density = 23.523283 Si / 1000 Ang^3
#
#
#
# Elastic Constant Matrix: (Units=GPa)
#
#
# Indices 1 2 3 4 5 6 
#
# 1 59.7954 22.1729 29.2762 -9.6051 -12.1629 9.6832
# 2 22.1729 136.7548 29.4908 5.1428 -11.0017 1.7329
# 3 29.2762 29.4908 145.6399 -0.8759 -29.8287 15.5320
# 4 -9.6051 5.1428 -0.8759 40.3924 0.1554 -3.0571
# 5 -12.1629 -11.0017 -29.8287 0.1554 26.8683 2.7175
# 6 9.6832 1.7329 15.5320 -3.0571 2.7175 31.6743
#
#
#
# Elastic Compliance Matrix: (Units=1/GPa)
#
#
# Indices 1 2 3 4 5 6 
#
# 1 0.021813 -0.002692 -0.001644 0.005021 0.007511 -0.005875
# 2 -0.002692 0.008091 -0.000977 -0.001648 0.000956 0.000618
# 3 -0.001644 -0.000977 0.010152 -0.000495 0.010674 -0.005386
# 4 0.005021 -0.001648 -0.000495 0.026243 0.000768 0.001265
# 5 0.007511 0.000956 0.010674 0.000768 0.054085 -0.012149
# 6 -0.005875 0.000618 -0.005386 0.001265 -0.012149 0.037139
#
#
# Mechanical properties :
#
#
# Convention : Reuss Voigt Hill
#
# Bulk Modulus (GPa) = 33.98093 56.00776 44.99435
# Shear Modulus (GPa) = 28.09637 37.20369 32.65003
#
# Velocity S-wave (km/s) = 3.45977 3.98121 3.72961
# Velocity P-wave (km/s) = 5.51698 6.70780 6.14132
#
# Compressibility (1/GPa) = 0.02942827
#
# Stress axis : x y z
#
# Youngs Moduli (GPa) = 45.84464 123.59953 98.50102
#
# Poissons Ratio (x) = 0.33274 0.16198
# Poissons Ratio (y) = 0.12342 0.09625
# Poissons Ratio (z) = 0.07539 0.12077
#
# Static dielectric constant tensor:
#      x y z
#    x 3.877290 0.265630 -0.149000 
#    y 0.265630 4.678160 -0.029940 
#    z -0.149000 -0.029940 4.484880 
# 
# 
# High freq. dielectric constant tensor:
#      x y z
#    x 1.894630 0.013440 -0.016940 
#    y 0.013440 1.948020 0.003120 
#    z -0.016940 0.003120 1.953210 
# 
# From -- ./inp_files/417345.got.cif
#   From: 2010.06.25/outbox.cif.g09.slc.cpg/sg2_209_cif.got.tgz:417345.got - 2010.06.27 13:26:56.
