data_PCOD8004703
_publ_section_title
;
Structure prediction by ZEFSAII (Michael W. Deem and Ramdas Pophale) SiO2 
 PCOD8004703
Probable space group: P -1
;
_chemical_formula_sum "Si O2"
_cell_formula_units_Z 12
_cell_length_a 11.640864
_cell_length_b 8.613483
_cell_length_c 13.776482
_cell_angle_alpha 44.617029
_cell_angle_beta 133.831936
_cell_angle_gamma 140.315407
_cell_volume 586.383524
_symmetry_space_group_name_H-M "P -1"
_symmetry_group_IT_number 2
_symmetry_cell_setting 'triclinic'
loop_
_space_group_symop_operation_xyz
x,y,z
-x,-y,-z
loop_
_atom_site_type_symbol
_atom_site_label
_atom_site_fract_x
_atom_site_fract_y
_atom_site_fract_z
Si Si1 0.577935 0.990751 0.405216
Si Si2 0.885987 0.861551 0.399124
Si Si3 0.223269 0.697666 0.441322
Si Si4 0.211947 0.610650 0.036476
Si Si5 0.404958 0.010311 0.805343
Si Si6 0.156489 0.100833 0.291620
O O1 0.652985 0.235221 0.416223
O O2 0.613137 0.085518 0.273021
O O3 0.353679 0.791932 0.379838
O O4 0.682375 0.839055 0.560651
O O5 0.910434 0.616572 0.504642
O O6 0.672895 0.796481 0.313727
O O7 0.000000 0.000000 0.500000
O O8 0.974290 0.041317 0.274229
O O9 0.110407 0.846976 0.311920
O O10 0.227903 0.356153 0.153275
O O11 0.374535 0.832219 0.104680
O O12 0.262874 0.742085 0.901437
O O13 0.000000 0.500000 0.000000
#
# Coordination Sequence:
#
# PCOD8004703 Si02
#       6
#     2   2   2   2   2   2
#     4   9  20  40  63  91 121 164 206 262 311 372
#     4  12  21  35  67 100 122 157 210 266 313 372
#     4   9  21  37  60  96 126 159 203 261 322 364
#     4  11  24  42  61  91 131 168 213 256 312 368
#     4  11  24  39  65  95 123 167 214 259 306 378
#     4  10  20  38  61  90 125 164 201 262 310 368
#
# _framework density 20.464423
#
# number of rings (size 3 to 8) (size 9 to 14) (size 15 to 20)
#    1.000    0.667    3.333    1.500    2.333    1.333 
#    0.000    0.833    0.000    3.000    0.000    0.000 
#    0.000    0.000    0.000    0.000    0.000    0.000 
#
# Total GULP energy -148666.732466 kJ/mol
# GULP energy per Si atom -12388.894372 kJ/mol
# Density = 2.041785 g / cm^3
# Si number density = 20.464423 Si / 1000 Ang^3
#
#
#
# Elastic Constant Matrix: (Units=GPa)
#
#
# Indices 1 2 3 4 5 6 
#
# 1 127.3766 42.4717 52.4027 -0.1277 -21.2420 9.6578
# 2 42.4717 82.0193 45.0225 -16.9957 -2.7069 -0.0577
# 3 52.4027 45.0225 106.0906 -15.1669 -17.1879 -8.8047
# 4 -0.1277 -16.9957 -15.1669 33.3985 5.1046 7.1185
# 5 -21.2420 -2.7069 -17.1879 5.1046 25.0697 3.5668
# 6 9.6578 -0.0577 -8.8047 7.1185 3.5668 33.9232
#
#
#
# Elastic Compliance Matrix: (Units=1/GPa)
#
#
# Indices 1 2 3 4 5 6 
#
# 1 0.013172 -0.005491 -0.003696 -0.004901 0.009703 -0.004710
# 2 -0.005491 0.019797 -0.005825 0.008853 -0.008181 -0.000912
# 3 -0.003696 -0.005825 0.015298 0.002257 0.005708 0.003939
# 4 -0.004901 0.008853 0.002257 0.037847 -0.008639 -0.005037
# 5 0.009703 -0.008181 0.005708 -0.008639 0.053627 -0.005121
# 6 -0.004710 -0.000912 0.003939 -0.005037 -0.005121 0.033436
#
#
# Mechanical properties :
#
#
# Convention : Reuss Voigt Hill
#
# Bulk Modulus (GPa) = 54.81315 66.14225 60.47770
# Shear Modulus (GPa) = 23.89143 30.18426 27.03784
#
# Velocity S-wave (km/s) = 3.42052 3.84469 3.63879
# Velocity P-wave (km/s) = 6.51481 7.21801 6.87540
#
# Compressibility (1/GPa) = 0.01824380
#
# Stress axis : x y z
#
# Youngs Moduli (GPa) = 75.91666 50.51352 65.37001
#
# Poissons Ratio (x) = 0.27737 0.24160
# Poissons Ratio (y) = 0.41685 0.38075
# Poissons Ratio (z) = 0.28058 0.29422
#
# Static dielectric constant tensor:
#      x y z
#    x 3.796300 0.154280 0.049790 
#    y 0.154280 3.417800 -0.123360 
#    z 0.049790 -0.123360 3.637380 
# 
# 
# High freq. dielectric constant tensor:
#      x y z
#    x 1.813080 0.014910 -0.003070 
#    y 0.014910 1.777160 -0.011910 
#    z -0.003070 -0.011910 1.779490 
# 
# From -- ./inp_files/512677.got.cif
#   From: 2010.06.25/outbox.cif.g09.slc.cpg/sg2_257_cif.got.tgz:512677.got - 2010.06.27 13:26:56.
