data_PCOD8004320
_publ_section_title
;
Structure prediction by ZEFSAII (Michael W. Deem and Ramdas Pophale) SiO2 
 PCOD8004320
Probable space group: P -1
;
_chemical_formula_sum "Si O2"
_cell_formula_units_Z 14
_cell_length_a 7.627547
_cell_length_b 13.735044
_cell_length_c 8.411379
_cell_angle_alpha 133.286063
_cell_angle_beta 100.206846
_cell_angle_gamma 67.217879
_cell_volume 586.285972
_symmetry_space_group_name_H-M "P -1"
_symmetry_group_IT_number 2
_symmetry_cell_setting 'triclinic'
loop_
_space_group_symop_operation_xyz
x,y,z
-x,-y,-z
loop_
_atom_site_type_symbol
_atom_site_label
_atom_site_fract_x
_atom_site_fract_y
_atom_site_fract_z
Si Si1 0.559807 0.364762 0.682577
Si Si2 0.050125 0.121402 0.730444
Si Si3 0.675679 0.237912 0.230950
Si Si4 0.358480 0.687689 0.023894
Si Si5 0.983328 0.363346 0.765442
Si Si6 0.278341 0.050635 0.983348
Si Si7 0.014125 0.348424 0.403051
O O1 0.545867 0.284100 0.424458
O O2 0.553142 0.282697 0.758972
O O3 0.761755 0.385159 0.741550
O O4 0.388456 0.519322 0.831855
O O5 0.869683 0.221014 0.919365
O O6 0.102732 0.220071 0.722042
O O7 0.235279 0.042848 0.781096
O O8 0.000000 0.000000 0.500000
O O9 0.810987 0.329256 0.341914
O O10 0.792786 0.065169 0.067655
O O11 0.554352 0.271636 0.081074
O O12 0.083064 0.344365 0.590033
O O13 0.000000 0.500000 0.000000
O O14 0.177185 0.215619 0.198961
O O15 0.500000 0.000000 0.000000
O O16 0.000000 0.500000 0.500000
#
# Coordination Sequence:
#
# PCOD8004320 Si02
#       7
#     2   2   2   2   2   2   2
#     4   9  21  39  62 106 132 179 235 293 341 434
#     4  11  23  44  70  97 137 189 237 289 356 430
#     4  11  23  43  73  96 138 190 236 285 366 427
#     4  10  20  37  68  93 137 174 236 284 354 411
#     4  10  22  40  65  95 137 179 227 286 355 417
#     4  12  27  47  68 108 145 181 240 302 356 427
#     4  11  24  44  72 101 140 189 237 286 357 438
#
# _framework density 23.879131000000001
#
# number of rings (size 3 to 8) (size 9 to 14) (size 15 to 20)
#    0.000    1.429    1.429    4.286    4.000    4.571 
#    5.143    0.714    0.000    0.000    0.000    0.000 
#    0.000    0.000    0.000    0.000    0.000    0.000 
#
# Total GULP energy -173470.548526 kJ/mol
# GULP energy per Si atom -12390.753466 kJ/mol
# Density = 2.382478 g / cm^3
# Si number density = 23.879131 Si / 1000 Ang^3
#
#
#
# Elastic Constant Matrix: (Units=GPa)
#
#
# Indices 1 2 3 4 5 6 
#
# 1 31.9006 35.5525 33.1927 -1.0330 5.2068 -5.9754
# 2 35.5525 243.2674 101.5172 -21.1674 5.9419 17.2413
# 3 33.1927 101.5172 156.8620 -17.0703 -4.9671 10.5180
# 4 -1.0330 -21.1674 -17.0703 65.9498 8.7258 0.0954
# 5 5.2068 5.9419 -4.9671 8.7258 33.7543 4.8433
# 6 -5.9754 17.2413 10.5180 0.0954 4.8433 41.5216
#
#
#
# Elastic Compliance Matrix: (Units=1/GPa)
#
#
# Indices 1 2 3 4 5 6 
#
# 1 0.049169 -0.004220 -0.008974 -0.001670 -0.009483 0.012212
# 2 -0.004220 0.006224 -0.002861 0.001309 -0.000864 -0.002369
# 3 -0.008974 -0.002861 0.010586 0.001210 0.003593 -0.003207
# 4 -0.001670 0.001309 0.001210 0.016392 -0.003936 -0.000669
# 5 -0.009483 -0.000864 0.003593 -0.003936 0.033623 -0.005829
# 6 0.012212 -0.002369 -0.003207 -0.000669 -0.005829 0.028319
#
#
# Mechanical properties :
#
#
# Convention : Reuss Voigt Hill
#
# Bulk Modulus (GPa) = 29.52567 85.83942 57.68255
# Shear Modulus (GPa) = 26.63609 45.69631 36.16620
#
# Velocity S-wave (km/s) = 3.34347 4.37927 3.89595
# Velocity P-wave (km/s) = 5.22460 7.84833 6.66681
#
# Compressibility (1/GPa) = 0.03386883
#
# Stress axis : x y z
#
# Youngs Moduli (GPa) = 20.33790 160.65711 94.46133
#
# Poissons Ratio (x) = 0.67799 0.84771
# Poissons Ratio (y) = 0.08583 0.27029
# Poissons Ratio (z) = 0.18252 0.45970
#
# Static dielectric constant tensor:
#      x y z
#    x 3.913970 0.017040 -0.165020 
#    y 0.017040 3.918140 -0.406350 
#    z -0.165020 -0.406350 4.831420 
# 
# 
# High freq. dielectric constant tensor:
#      x y z
#    x 1.897840 -0.002990 -0.007980 
#    y -0.002990 1.974380 -0.013050 
#    z -0.007980 -0.013050 1.963650 
# 
# From -- ./inp_files/209446.got.cif
#   From: 2010.06.25/outbox.cif.g09.slc.cpg/sg2_105_cif.got.tgz:209446.got - 2010.06.27 13:26:56.
