data_PCOD8004640
_publ_section_title
;
Structure prediction by ZEFSAII (Michael W. Deem and Ramdas Pophale) SiO2 
 PCOD8004640
Probable space group: P -1
;
_chemical_formula_sum "Si O2"
_cell_formula_units_Z 14
_cell_length_a 8.794395
_cell_length_b 6.820891
_cell_length_c 11.183756
_cell_angle_alpha 86.102035
_cell_angle_beta 94.882805
_cell_angle_gamma 83.274148
_cell_volume 661.766689
_symmetry_space_group_name_H-M "P -1"
_symmetry_group_IT_number 2
_symmetry_cell_setting 'triclinic'
loop_
_space_group_symop_operation_xyz
x,y,z
-x,-y,-z
loop_
_atom_site_type_symbol
_atom_site_label
_atom_site_fract_x
_atom_site_fract_y
_atom_site_fract_z
Si Si1 0.728292 0.472189 0.781499
Si Si2 0.697157 0.771208 0.977563
Si Si3 0.462586 0.858649 0.163103
Si Si4 0.725086 0.976453 0.339164
Si Si5 0.076812 0.301078 0.801769
Si Si6 0.797318 0.682297 0.552389
Si Si7 0.140625 0.634392 0.629921
O O1 0.705423 0.581840 0.901306
O O2 0.604459 0.318761 0.765433
O O3 0.704618 0.633781 0.666951
O O4 0.894554 0.344193 0.791316
O O5 0.675845 0.976272 0.893662
O O6 0.554875 0.766254 0.058034
O O7 0.857701 0.760030 0.060552
O O8 0.572287 0.963003 0.253824
O O9 0.875605 0.873372 0.283373
O O10 0.709468 0.872088 0.471112
O O11 0.743352 0.204947 0.349489
O O12 0.151964 0.493604 0.753135
O O13 0.806501 0.487739 0.479453
O O14 0.965995 0.735025 0.596834
#
# Coordination Sequence:
#
# PCOD8004640 Si02
#       7
#     2   2   2   2   2   2   2
#     4  11  22  38  59  86 119 146 185 243 285 328
#     4  10  22  41  58  80 115 154 192 232 282 336
#     4  10  24  39  57  86 113 152 195 225 283 351
#     4  10  20  38  61  84 117 153 186 229 280 339
#     4   9  21  37  61  91 109 144 198 235 279 334
#     4   9  20  35  57  88 113 146 192 230 279 338
#     4   9  18  36  60  85 115 148 186 234 281 331
#
# _framework density 21.15549
#
# number of rings (size 3 to 8) (size 9 to 14) (size 15 to 20)
#    0.000    2.286    0.000    2.143    0.000   11.429 
#    0.000    1.429    0.000    0.000    0.000    0.000 
#    0.000    0.000    0.000    0.000    0.000    0.000 
#
# Total GULP energy -173640.244230 kJ/mol
# GULP energy per Si atom -12402.874588 kJ/mol
# Density = 2.110734 g / cm^3
# Si number density = 21.155490 Si / 1000 Ang^3
#
#
#
# Elastic Constant Matrix: (Units=GPa)
#
#
# Indices 1 2 3 4 5 6 
#
# 1 55.4705 23.9836 30.9062 6.0778 -4.2158 14.2819
# 2 23.9836 68.7184 26.2396 1.9826 2.1747 20.1254
# 3 30.9062 26.2396 97.2750 -9.2307 13.0926 9.0821
# 4 6.0778 1.9826 -9.2307 31.0743 1.7105 5.8431
# 5 -4.2158 2.1747 13.0926 1.7105 22.7242 -5.2436
# 6 14.2819 20.1254 9.0821 5.8431 -5.2436 37.2817
#
#
#
# Elastic Compliance Matrix: (Units=1/GPa)
#
#
# Indices 1 2 3 4 5 6 
#
# 1 0.028113 -0.005550 -0.009464 -0.008078 0.011201 -0.002626
# 2 -0.005550 0.020007 -0.002201 0.001025 -0.003791 -0.008831
# 3 -0.009464 -0.002201 0.016469 0.007956 -0.012129 -0.002151
# 4 -0.008078 0.001025 0.007956 0.037928 -0.010612 -0.006833
# 5 0.011201 -0.003791 -0.012129 -0.010612 0.056619 0.010337
# 6 -0.002626 -0.008831 -0.002151 -0.006833 0.010337 0.035645
#
#
# Mechanical properties :
#
#
# Convention : Reuss Voigt Hill
#
# Bulk Modulus (GPa) = 33.15909 42.63585 37.89747
# Shear Modulus (GPa) = 20.89739 27.57166 24.23452
#
# Velocity S-wave (km/s) = 3.14634 3.61402 3.38826
# Velocity P-wave (km/s) = 5.37655 6.13288 5.76713
#
# Compressibility (1/GPa) = 0.03015764
#
# Stress axis : x y z
#
# Youngs Moduli (GPa) = 35.57085 49.98343 60.71996
#
# Poissons Ratio (x) = 0.27743 0.57464
# Poissons Ratio (y) = 0.19743 0.13366
# Poissons Ratio (z) = 0.33664 0.11003
#
# Static dielectric constant tensor:
#      x y z
#    x 3.554050 -0.149620 0.012230 
#    y -0.149620 3.682080 -0.143720 
#    z 0.012230 -0.143720 4.000930 
# 
# 
# High freq. dielectric constant tensor:
#      x y z
#    x 1.811140 -0.006120 0.006490 
#    y -0.006120 1.825200 -0.006840 
#    z 0.006490 -0.006840 1.837830 
# 
# From -- ./inp_files/53462.got.cif
#   From: 2010.06.25/outbox.cif.g09.slc.cpg/sg2_27_cif.got.tgz:53462.got - 2010.06.27 13:26:56.
