data_PCOD8004993
_publ_section_title
;
Structure prediction by ZEFSAII (Michael W. Deem and Ramdas Pophale) SiO2 
 PCOD8004993
Probable space group: P -1
;
_chemical_formula_sum "Si O2"
_cell_formula_units_Z 16
_cell_length_a 18.636885
_cell_length_b 9.512668
_cell_length_c 8.903953
_cell_angle_alpha 80.939887
_cell_angle_beta 116.096522
_cell_angle_gamma 142.945173
_cell_volume 797.702897
_symmetry_space_group_name_H-M "P -1"
_symmetry_group_IT_number 2
_symmetry_cell_setting 'triclinic'
loop_
_space_group_symop_operation_xyz
x,y,z
-x,-y,-z
loop_
_atom_site_type_symbol
_atom_site_label
_atom_site_fract_x
_atom_site_fract_y
_atom_site_fract_z
Si Si1 0.585942 0.071383 0.708976
Si Si2 0.894262 0.260184 0.548095
Si Si3 0.522002 0.332108 0.125454
Si Si4 0.992334 0.145543 0.306192
Si Si5 0.884196 0.417125 0.812759
Si Si6 0.618444 0.272279 0.994128
Si Si7 0.920170 0.727832 0.305635
Si Si8 0.711375 0.863006 0.219679
O O1 0.733921 0.211279 0.788732
O O2 0.610562 0.244384 0.811109
O O3 0.500000 0.000000 0.500000
O O4 0.487086 0.810838 0.743237
O O5 0.858487 0.296447 0.655321
O O6 0.000000 0.500000 0.500000
O O7 0.961555 0.205778 0.658155
O O8 0.747778 0.019329 0.366626
O O9 0.620218 0.597309 0.242374
O O10 0.589896 0.387386 0.016249
O O11 0.368398 0.167484 0.977941
O O12 0.065035 0.347370 0.211525
O O13 0.090863 0.278378 0.522081
O O14 0.959761 0.942144 0.242243
O O15 0.851953 0.017450 0.246737
O O16 0.000000 0.500000 0.000000
O O17 0.773468 0.452497 0.157145
O O18 0.500000 0.000000 0.000000
#
# Coordination Sequence:
#
# PCOD8004993 Si02
#       8
#     2   2   2   2   2   2   2   2
#     4  11  27  40  60  94 131 170 202 254 326 381
#     4  11  23  37  68  94 124 162 218 260 307 376
#     4  10  22  40  68  86 128 159 215 258 305 378
#     4  10  21  37  68  92 128 158 205 273 312 364
#     4  12  25  43  63  93 137 171 205 258 323 386
#     4  10  22  37  65  88 120 163 212 256 300 377
#     4  10  20  38  63  99 116 154 223 264 309 351
#     4  10  20  39  66  98 113 161 219 266 305 356
#
# _framework density 20.057594000000002
#
# number of rings (size 3 to 8) (size 9 to 14) (size 15 to 20)
#    0.000    1.500    3.750    1.500    8.750    0.000 
#    0.000    4.375    0.000    0.000    0.000    0.000 
#    0.000    0.000    0.000    0.000    0.000    0.000 
#
# Total GULP energy -198368.546058 kJ/mol
# GULP energy per Si atom -12398.034129 kJ/mol
# Density = 2.001194 g / cm^3
# Si number density = 20.057594 Si / 1000 Ang^3
#
#
#
# Elastic Constant Matrix: (Units=GPa)
#
#
# Indices 1 2 3 4 5 6 
#
# 1 88.0595 28.4089 30.1856 -0.5801 -15.7891 -2.8413
# 2 28.4089 98.8212 51.7807 7.4663 -10.4948 -15.1327
# 3 30.1856 51.7807 110.3226 17.2788 -12.4441 -1.5213
# 4 -0.5801 7.4663 17.2788 36.5935 -2.8794 3.5088
# 5 -15.7891 -10.4948 -12.4441 -2.8794 28.5794 2.3637
# 6 -2.8413 -15.1327 -1.5213 3.5088 2.3637 31.3006
#
#
#
# Elastic Compliance Matrix: (Units=1/GPa)
#
#
# Indices 1 2 3 4 5 6 
#
# 1 0.014053 -0.002427 -0.002402 0.002406 0.006131 -0.000747
# 2 -0.002427 0.015266 -0.006173 -0.000826 0.000925 0.006883
# 3 -0.002402 -0.006173 0.013571 -0.004822 0.002008 -0.002154
# 4 0.002406 -0.000826 -0.004822 0.030376 0.002317 -0.003995
# 5 0.006131 0.000925 0.002008 0.002317 0.040005 -0.002179
# 6 -0.000747 0.006883 -0.002154 -0.003995 -0.002179 0.035716
#
#
# Mechanical properties :
#
#
# Convention : Reuss Voigt Hill
#
# Bulk Modulus (GPa) = 47.87470 57.55040 52.71255
# Shear Modulus (GPa) = 28.09760 31.74991 29.92376
#
# Velocity S-wave (km/s) = 3.74685 3.98293 3.86669
# Velocity P-wave (km/s) = 6.52985 7.06445 6.80241
#
# Compressibility (1/GPa) = 0.02088786
#
# Stress axis : x y z
#
# Youngs Moduli (GPa) = 71.15848 65.50580 73.68860
#
# Poissons Ratio (x) = 0.15895 0.17698
# Poissons Ratio (y) = 0.17267 0.45485
# Poissons Ratio (z) = 0.17091 0.40434
#
# Static dielectric constant tensor:
#      x y z
#    x -1.452710 0.854830 1.816120 
#    y 0.854830 3.525890 -0.153440 
#    z 1.816120 -0.153440 3.165780 
# 
# 
# High freq. dielectric constant tensor:
#      x y z
#    x 1.786610 -0.013810 0.010090 
#    y -0.013810 1.777850 0.022930 
#    z 0.010090 0.022930 1.779770 
# 
# From -- ./inp_files/328914.got.cif
#   From: 2010.06.25/outbox.cif.g09.slc.cpg/sg2_165_cif.got.tgz:328914.got - 2010.06.27 13:26:56.
