data_PCOD8004465
_publ_section_title
;
Structure prediction by ZEFSAII (Michael W. Deem and Ramdas Pophale) SiO2 
 PCOD8004465
Probable space group: P -1
;
_chemical_formula_sum "Si O2"
_cell_formula_units_Z 16
_cell_length_a 21.109175
_cell_length_b 8.296436
_cell_length_c 8.342916
_cell_angle_alpha 61.245704
_cell_angle_beta 125.827943
_cell_angle_gamma 138.824995
_cell_volume 777.671227
_symmetry_space_group_name_H-M "P -1"
_symmetry_group_IT_number 2
_symmetry_cell_setting 'triclinic'
loop_
_space_group_symop_operation_xyz
x,y,z
-x,-y,-z
loop_
_atom_site_type_symbol
_atom_site_label
_atom_site_fract_x
_atom_site_fract_y
_atom_site_fract_z
Si Si1 0.515160 0.818058 0.672569
Si Si2 0.145564 0.040772 0.307505
Si Si3 0.033837 0.079315 0.695492
Si Si4 0.343629 0.259722 0.696405
Si Si5 0.240737 0.426271 0.996612
Si Si6 0.085554 0.776411 0.037112
Si Si7 0.304144 0.161663 0.057808
Si Si8 0.418306 0.993535 0.974864
O O1 0.416970 0.539764 0.611213
O O2 0.618711 0.872823 0.735941
O O3 0.500000 0.000000 0.500000
O O4 0.521703 0.843173 0.859601
O O5 0.232880 0.111422 0.524058
O O6 0.182841 0.278748 0.147404
O O7 0.119503 0.831913 0.247554
O O8 0.045426 0.915652 0.329493
O O9 0.153218 0.339788 0.772198
O O10 0.000000 0.000000 0.500000
O O11 0.028399 0.876710 0.869994
O O12 0.334160 0.250377 0.878109
O O13 0.388135 0.130774 0.766910
O O14 0.310539 0.361152 0.072941
O O15 0.314220 0.715697 0.996602
O O16 0.186699 0.899705 0.017163
O O17 0.000000 0.500000 0.000000
O O18 0.500000 0.000000 0.000000
#
# Coordination Sequence:
#
# PCOD8004465 Si02
#       8
#     2   2   2   2   2   2   2   2
#     4  11  23  38  59  85 114 153 192 236 292 347
#     4  10  21  38  59  85 117 153 192 238 289 347
#     4  10  21  38  60  86 116 154 193 236 289 346
#     4  11  22  38  58  85 116 151 192 239 289 347
#     4  10  20  38  59  84 115 153 193 240 288 340
#     4  10  22  38  59  86 116 152 193 240 289 340
#     4   9  20  40  58  82 117 153 192 239 287 342
#     4  11  23  38  59  85 114 151 194 240 289 341
#
# _framework density 20.574245999999999
#
# number of rings (size 3 to 8) (size 9 to 14) (size 15 to 20)
#    0.000    2.000    0.000    6.750    0.000    8.000 
#    0.000    6.250    0.000    0.000    0.000    0.000 
#    0.000    0.000    0.000    0.000    0.000    0.000 
#
# Total GULP energy -198317.351553 kJ/mol
# GULP energy per Si atom -12394.834472 kJ/mol
# Density = 2.052742 g / cm^3
# Si number density = 20.574246 Si / 1000 Ang^3
#
#
#
# Elastic Constant Matrix: (Units=GPa)
#
#
# Indices 1 2 3 4 5 6 
#
# 1 116.8794 32.2350 31.2903 -0.7756 20.9758 6.4119
# 2 32.2350 135.8922 21.0328 1.6920 16.6055 -8.7336
# 3 31.2903 21.0328 94.8582 5.4467 24.5164 -2.2076
# 4 -0.7756 1.6920 5.4467 26.7568 0.1459 0.5788
# 5 20.9758 16.6055 24.5164 0.1459 39.4172 -0.3643
# 6 6.4119 -8.7336 -2.2076 0.5788 -0.3643 23.9344
#
#
#
# Elastic Compliance Matrix: (Units=1/GPa)
#
#
# Indices 1 2 3 4 5 6 
#
# 1 0.010547 -0.001991 -0.002312 0.001004 -0.003375 -0.003841
# 2 -0.001991 0.008407 -0.000550 -0.000542 -0.002106 0.003531
# 3 -0.002312 -0.000550 0.013391 -0.002756 -0.006841 0.001617
# 4 0.001004 -0.000542 -0.002756 0.038026 0.001253 -0.001622
# 5 -0.003375 -0.002106 -0.006841 0.001253 0.032303 -0.000034
# 6 -0.003841 0.003531 0.001617 -0.001622 -0.000034 0.044286
#
#
# Mechanical properties :
#
#
# Convention : Reuss Voigt Hill
#
# Bulk Modulus (GPa) = 44.17240 57.41622 50.79431
# Shear Modulus (GPa) = 30.44830 35.55980 33.00405
#
# Velocity S-wave (km/s) = 3.85115 4.16187 4.00952
# Velocity P-wave (km/s) = 6.42585 7.14579 6.79536
#
# Compressibility (1/GPa) = 0.02263857
#
# Stress axis : x y z
#
# Youngs Moduli (GPa) = 94.81353 118.94626 74.67820
#
# Poissons Ratio (x) = 0.23681 0.17269
# Poissons Ratio (y) = 0.18876 0.04106
# Poissons Ratio (z) = 0.21925 0.06540
#
# Static dielectric constant tensor:
#      x y z
#    x 3.199890 1.106810 0.765740 
#    y 1.106810 1.882310 -0.693830 
#    z 0.765740 -0.693830 3.604060 
# 
# 
# High freq. dielectric constant tensor:
#      x y z
#    x 1.811650 0.001400 0.010010 
#    y 0.001400 1.802660 0.016880 
#    z 0.010010 0.016880 1.802550 
# 
# From -- ./inp_files/343444.got.cif
#   From: 2010.06.25/outbox.cif.g09.slc.cpg/sg2_172_cif.got.tgz:343444.got - 2010.06.27 13:26:56.
