data_PCOD8004194
_publ_section_title
;
Structure prediction by ZEFSAII (Michael W. Deem and Ramdas Pophale) SiO2 
 PCOD8004194
Probable space group: P -1
;
_chemical_formula_sum "Si O2"
_cell_formula_units_Z 16
_cell_length_a 16.254197
_cell_length_b 8.539164
_cell_length_c 14.636857
_cell_angle_alpha 135.976064
_cell_angle_beta 46.472719
_cell_angle_gamma 99.125306
_cell_volume 761.718887
_symmetry_space_group_name_H-M "P -1"
_symmetry_group_IT_number 2
_symmetry_cell_setting 'triclinic'
loop_
_space_group_symop_operation_xyz
x,y,z
-x,-y,-z
loop_
_atom_site_type_symbol
_atom_site_label
_atom_site_fract_x
_atom_site_fract_y
_atom_site_fract_z
Si Si1 0.995012 0.845964 0.025779
Si Si2 0.655976 0.912995 0.821693
Si Si3 0.671208 0.189773 0.366924
Si Si4 0.843522 0.568616 0.712764
Si Si5 0.390387 0.158997 0.842420
Si Si6 0.915047 0.961150 0.803220
Si Si7 0.617296 0.451650 0.135338
Si Si8 0.300488 0.335559 0.510031
O O1 0.147133 0.490029 0.751329
O O2 0.997806 0.981322 0.174191
O O3 0.000000 0.000000 0.000000
O O4 0.836224 0.919070 0.173973
O O5 0.771632 0.695317 0.721141
O O6 0.724484 0.739783 0.601392
O O7 0.500000 0.000000 0.000000
O O8 0.630623 0.214359 0.962195
O O9 0.544964 0.332155 0.600774
O O10 0.665662 0.443714 0.432867
O O11 0.639546 0.057800 0.254515
O O12 0.896579 0.746251 0.780079
O O13 0.986316 0.210524 0.437447
O O14 0.728210 0.613861 0.892338
O O15 0.366471 0.348910 0.854094
O O16 0.559585 0.966519 0.671804
O O17 0.750430 0.280841 0.037570
#
# Coordination Sequence:
#
# PCOD8004194 Si02
#       8
#     2   2   2   2   2   2   2   2
#     4  10  21  36  64  94 114 150 207 262 293 344
#     4  11  20  40  65  90 120 153 205 250 303 352
#     4  11  22  40  64  87 123 159 205 251 300 357
#     4  10  20  37  65  91 116 162 203 254 295 359
#     4  12  24  39  61  91 126 161 205 242 306 366
#     4  10  21  40  63  88 124 158 206 248 305 355
#     4  11  25  41  60  89 126 167 193 250 308 366
#     4  11  21  39  66  92 118 157 207 256 293 357
#
# _framework density 21.005123999999999
#
# number of rings (size 3 to 8) (size 9 to 14) (size 15 to 20)
#    0.000    1.250    2.500    5.250    0.000    3.000 
#    0.000    2.500    0.000    0.000    0.000    0.000 
#    0.000    0.000    0.000    0.000    0.000    0.000 
#
# Total GULP energy -198422.669998 kJ/mol
# GULP energy per Si atom -12401.416875 kJ/mol
# Density = 2.095732 g / cm^3
# Si number density = 21.005124 Si / 1000 Ang^3
#
#
#
# Elastic Constant Matrix: (Units=GPa)
#
#
# Indices 1 2 3 4 5 6 
#
# 1 89.7226 8.2432 27.0842 -3.9647 -0.6859 0.4695
# 2 8.2432 53.8818 33.1381 -5.0715 -0.7122 -8.3903
# 3 27.0842 33.1381 142.3601 -29.7150 -14.5324 -2.8448
# 4 -3.9647 -5.0715 -29.7150 18.1575 8.4053 3.8863
# 5 -0.6859 -0.7122 -14.5324 8.4053 39.7540 -1.9401
# 6 0.4695 -8.3903 -2.8448 3.8863 -1.9401 15.9459
#
#
#
# Elastic Compliance Matrix: (Units=1/GPa)
#
#
# Indices 1 2 3 4 5 6 
#
# 1 0.011883 -0.000571 -0.002431 -0.001127 -0.000498 -0.000870
# 2 -0.000571 0.024209 -0.006790 -0.007411 0.000161 0.013369
# 3 -0.002431 -0.006790 0.013233 0.020527 0.000034 -0.006139
# 4 -0.001127 -0.007411 0.020527 0.098787 -0.014808 -0.026082
# 5 -0.000498 0.000161 0.000034 -0.014808 0.028644 0.007200
# 6 -0.000870 0.013369 -0.006139 -0.026082 0.007200 0.075910
#
#
# Mechanical properties :
#
#
# Convention : Reuss Voigt Hill
#
# Bulk Modulus (GPa) = 33.62414 46.98839 40.30626
# Shear Modulus (GPa) = 17.72026 29.27140 23.49583
#
# Velocity S-wave (km/s) = 2.90766 3.73706 3.34814
# Velocity P-wave (km/s) = 5.22637 6.40620 5.84612
#
# Compressibility (1/GPa) = 0.02974054
#
# Stress axis : x y z
#
# Youngs Moduli (GPa) = 84.15543 41.30728 75.56935
#
# Poissons Ratio (x) = 0.02357 0.18373
# Poissons Ratio (y) = 0.04803 0.51311
# Poissons Ratio (z) = 0.20461 0.28047
#
# Static dielectric constant tensor:
#      x y z
#    x 3.957250 -0.019970 -0.083410 
#    y -0.019970 3.282530 -0.016930 
#    z -0.083410 -0.016930 4.317890 
# 
# 
# High freq. dielectric constant tensor:
#      x y z
#    x 1.835460 0.001380 -0.005400 
#    y 0.001380 1.774260 -0.010120 
#    z -0.005400 -0.010120 1.849130 
# 
# From -- ./inp_files/271760.got.cif
#   From: 2010.06.25/outbox.cif.g09.slc.cpg/sg2_136_cif.got.tgz:271760.got - 2010.06.27 13:26:56.
