data_PCOD8004996
_publ_section_title
;
Structure prediction by ZEFSAII (Michael W. Deem and Ramdas Pophale) SiO2 
 PCOD8004996
Probable space group: P -1
;
_chemical_formula_sum "Si O2"
_cell_formula_units_Z 14
_cell_length_a 13.848026
_cell_length_b 22.329506
_cell_length_c 11.514737
_cell_angle_alpha 32.094378
_cell_angle_beta 31.905552
_cell_angle_gamma 19.930702
_cell_volume 617.207106
_symmetry_space_group_name_H-M "P -1"
_symmetry_group_IT_number 2
_symmetry_cell_setting 'triclinic'
loop_
_space_group_symop_operation_xyz
x,y,z
-x,-y,-z
loop_
_atom_site_type_symbol
_atom_site_label
_atom_site_fract_x
_atom_site_fract_y
_atom_site_fract_z
Si Si1 0.319973 0.474579 0.254488
Si Si2 0.656096 0.764836 0.499631
Si Si3 0.090579 0.159266 0.346904
Si Si4 0.584329 0.128094 0.181934
Si Si5 0.465307 0.642634 0.523895
Si Si6 0.735114 0.696015 0.003748
Si Si7 0.817618 0.255123 0.717098
O O1 0.358849 0.362412 0.298768
O O2 0.450387 0.360266 0.428188
O O3 0.968997 0.669023 0.304131
O O4 0.500000 0.500000 0.000000
O O5 0.608270 0.810368 0.610245
O O6 0.399515 0.943580 0.389342
O O7 0.884695 0.216080 0.358131
O O8 0.900189 0.235635 0.532187
O O9 0.148676 0.263430 0.095578
O O10 0.429937 0.157946 0.173317
O O11 0.595638 0.257636 0.945569
O O12 0.899999 0.914127 0.215194
O O13 0.520801 0.719047 0.255506
O O14 0.662815 0.439182 0.624496
O O15 0.000000 0.500000 0.000000
#
# Coordination Sequence:
#
# PCOD8004996 Si02
#       7
#     2   2   2   2   2   2   2
#     4  11  26  48  72  90 128 181 230 277 326 387
#     4  10  25  46  66 100 129 176 231 272 321 395
#     4  11  24  40  66 102 141 169 217 272 331 400
#     4  10  21  38  67  98 137 172 216 266 329 401
#     4  12  24  42  68  99 135 174 218 273 334 391
#     4  12  23  37  64 102 138 176 211 266 340 392
#     4  10  20  38  63  99 139 175 210 261 328 406
#
# _framework density 22.682822999999999
#
# number of rings (size 3 to 8) (size 9 to 14) (size 15 to 20)
#    0.000    1.143    2.857    3.000    2.000    5.143 
#    0.000    1.429    0.000    0.000    0.000    0.000 
#    0.000    0.000    0.000    0.000    0.000    0.000 
#
# Total GULP energy -173655.520396 kJ/mol
# GULP energy per Si atom -12403.965743 kJ/mol
# Density = 2.263120 g / cm^3
# Si number density = 22.682823 Si / 1000 Ang^3
#
#
#
# Elastic Constant Matrix: (Units=GPa)
#
#
# Indices 1 2 3 4 5 6 
#
# 1 84.9052 32.3624 25.7310 9.6095 1.8375 -29.0762
# 2 32.3624 101.5789 46.4348 7.4540 -5.9714 -26.2446
# 3 25.7310 46.4348 104.4174 2.8549 -27.1254 -5.2589
# 4 9.6095 7.4540 2.8549 28.4087 -8.0610 -2.4979
# 5 1.8375 -5.9714 -27.1254 -8.0610 39.8602 -0.2717
# 6 -29.0762 -26.2446 -5.2589 -2.4979 -0.2717 29.3328
#
#
#
# Elastic Compliance Matrix: (Units=1/GPa)
#
#
# Indices 1 2 3 4 5 6 
#
# 1 0.021003 0.001622 -0.006304 -0.006872 -0.006265 0.020497
# 2 0.001622 0.016930 -0.008028 -0.003917 -0.003692 0.014949
# 3 -0.006304 -0.008028 0.017099 0.004965 0.011661 -0.009836
# 4 -0.006872 -0.003917 0.004965 0.040748 0.011309 -0.005852
# 5 -0.006265 -0.003692 0.011661 0.011309 0.035004 -0.006136
# 6 0.020497 0.014949 -0.009836 -0.005852 -0.006136 0.065466
#
#
# Mechanical properties :
#
#
# Convention : Reuss Voigt Hill
#
# Bulk Modulus (GPa) = 33.77033 55.55087 44.66060
# Shear Modulus (GPa) = 21.59457 31.94524 26.76990
#
# Velocity S-wave (km/s) = 3.08883 3.75686 3.43911
# Velocity P-wave (km/s) = 5.25753 6.58499 5.95834
#
# Compressibility (1/GPa) = 0.02961179
#
# Stress axis : x y z
#
# Youngs Moduli (GPa) = 47.61285 59.06632 58.48446
#
# Poissons Ratio (x) = -0.09582 0.36871
# Poissons Ratio (y) = -0.07724 0.46950
# Poissons Ratio (z) = 0.30017 0.47417
#
# Static dielectric constant tensor:
#      x y z
#    x 4.389320 -0.404910 -0.013190 
#    y -0.404910 4.186690 -0.078240 
#    z -0.013190 -0.078240 4.178700 
# 
# 
# High freq. dielectric constant tensor:
#      x y z
#    x 1.896110 -0.019480 -0.014560 
#    y -0.019480 1.892390 -0.005360 
#    z -0.014560 -0.005360 1.897720 
# 
# From -- ./inp_files/278139.got.cif
#   From: 2010.06.25/outbox.cif.g09.slc.cpg/sg2_140_cif.got.tgz:278139.got - 2010.06.27 13:26:56.
