data_PCOD8004571
_publ_section_title
;
Structure prediction by ZEFSAII (Michael W. Deem and Ramdas Pophale) SiO2 
 PCOD8004571
Probable space group: P -1
;
_chemical_formula_sum "Si O2"
_cell_formula_units_Z 14
_cell_length_a 14.305036
_cell_length_b 16.767304
_cell_length_c 11.273069
_cell_angle_alpha 25.171457
_cell_angle_beta 40.539521
_cell_angle_gamma 37.512483
_cell_volume 691.011212
_symmetry_space_group_name_H-M "P -1"
_symmetry_group_IT_number 2
_symmetry_cell_setting 'triclinic'
loop_
_space_group_symop_operation_xyz
x,y,z
-x,-y,-z
loop_
_atom_site_type_symbol
_atom_site_label
_atom_site_fract_x
_atom_site_fract_y
_atom_site_fract_z
Si Si1 0.609495 0.268525 0.202232
Si Si2 0.602781 0.543108 0.245875
Si Si3 0.875432 0.393438 0.354973
Si Si4 0.558832 0.010102 0.300477
Si Si5 0.822015 0.110783 0.979533
Si Si6 0.058125 0.234746 0.173177
Si Si7 0.768967 0.200326 0.379992
O O1 0.704846 0.214646 0.059877
O O2 0.740066 0.218909 0.243235
O O3 0.494015 0.149654 0.503937
O O4 0.500000 0.500000 0.000000
O O5 0.500000 0.500000 0.500000
O O6 0.761722 0.515664 0.194613
O O7 0.626790 0.374764 0.347443
O O8 0.528573 0.765949 0.966302
O O9 0.016886 0.236789 0.351976
O O10 0.810273 0.279524 0.665856
O O11 0.913958 0.563267 0.161383
O O12 0.746493 0.961487 0.190260
O O13 0.500000 0.000000 0.500000
O O14 0.000000 0.000000 0.000000
O O15 0.928110 0.230347 0.212752
O O16 0.209811 0.026093 0.290644
#
# Coordination Sequence:
#
# PCOD8004571 Si02
#       7
#     2   2   2   2   2   2   2
#     4  11  24  42  63  90 129 171 209 257 319 382
#     4  11  21  38  66  88 119 161 214 260 299 373
#     4  10  20  38  63  91 122 161 213 256 313 377
#     4  10  22  42  65  90 125 173 209 248 322 384
#     4  11  23  40  65  92 125 166 217 260 305 383
#     4   9  20  37  62  89 122 160 195 263 327 374
#     4  10  20  38  60  87 122 159 203 254 315 372
#
# _framework density 20.260162999999999
#
# number of rings (size 3 to 8) (size 9 to 14) (size 15 to 20)
#    0.000    1.714    1.429    3.429    0.000    6.857 
#    2.571    2.857    0.000    0.000    0.000    0.000 
#    0.000    0.000    0.000    0.000    0.000    0.000 
#
# Total GULP energy -173451.808345 kJ/mol
# GULP energy per Si atom -12389.414882 kJ/mol
# Density = 2.021405 g / cm^3
# Si number density = 20.260163 Si / 1000 Ang^3
#
#
#
# Elastic Constant Matrix: (Units=GPa)
#
#
# Indices 1 2 3 4 5 6 
#
# 1 117.3465 29.6365 63.6168 -7.9872 -4.4895 -2.4125
# 2 29.6365 82.1153 52.7875 -10.0651 -8.6706 -7.2466
# 3 63.6168 52.7875 159.9015 -4.2127 -7.7656 -0.6188
# 4 -7.9872 -10.0651 -4.2127 37.3626 3.0961 3.7626
# 5 -4.4895 -8.6706 -7.7656 3.0961 36.7855 -2.5810
# 6 -2.4125 -7.2466 -0.6188 3.7626 -2.5810 29.1269
#
#
#
# Elastic Compliance Matrix: (Units=1/GPa)
#
#
# Indices 1 2 3 4 5 6 
#
# 1 0.011096 -0.001225 -0.003962 0.001551 0.000123 0.000341
# 2 -0.001225 0.016713 -0.004799 0.003086 0.002784 0.003803
# 3 -0.003962 -0.004799 0.009402 -0.000994 0.000372 -0.001161
# 4 0.001551 0.003086 -0.000994 0.028268 -0.001879 -0.002943
# 5 0.000123 0.002784 0.000372 -0.001879 0.028335 0.003464
# 6 0.000341 0.003803 -0.001161 -0.002943 0.003464 0.035969
#
#
# Mechanical properties :
#
#
# Convention : Reuss Voigt Hill
#
# Bulk Modulus (GPa) = 58.00649 72.38279 65.19464
# Shear Modulus (GPa) = 32.15410 34.87651 33.51530
#
# Velocity S-wave (km/s) = 3.98811 4.15352 4.07166
# Velocity P-wave (km/s) = 7.06397 7.66854 7.37246
#
# Compressibility (1/GPa) = 0.01723945
#
# Stress axis : x y z
#
# Youngs Moduli (GPa) = 90.11947 59.83490 106.36160
#
# Poissons Ratio (x) = 0.07327 0.42144
# Poissons Ratio (y) = 0.11036 0.51042
# Poissons Ratio (z) = 0.35708 0.28714
#
# Static dielectric constant tensor:
#      x y z
#    x 3.840310 0.068420 -0.138690 
#    y 0.068420 3.685820 -0.295000 
#    z -0.138690 -0.295000 4.180690 
# 
# 
# High freq. dielectric constant tensor:
#      x y z
#    x 1.810340 -0.004550 -0.004290 
#    y -0.004550 1.774300 -0.009510 
#    z -0.004290 -0.009510 1.793450 
# 
# From -- ./inp_files/261906.got.cif
#   From: 2010.06.25/outbox.cif.g09.slc.cpg/sg2_131_cif.got.tgz:261906.got - 2010.06.27 13:26:56.
