data_PCOD8004043
_publ_section_title
;
Structure prediction by ZEFSAII (Michael W. Deem and Ramdas Pophale) SiO2 
 PCOD8004043
Probable space group: P -1
;
_chemical_formula_sum "Si O2"
_cell_formula_units_Z 16
_cell_length_a 22.732247
_cell_length_b 9.096147
_cell_length_c 5.177370
_cell_angle_alpha 53.103563
_cell_angle_beta 73.366321
_cell_angle_gamma 60.696290
_cell_volume 746.547660
_symmetry_space_group_name_H-M "P -1"
_symmetry_group_IT_number 2
_symmetry_cell_setting 'triclinic'
loop_
_space_group_symop_operation_xyz
x,y,z
-x,-y,-z
loop_
_atom_site_type_symbol
_atom_site_label
_atom_site_fract_x
_atom_site_fract_y
_atom_site_fract_z
Si Si1 0.654249 0.308774 0.757705
Si Si2 0.951919 0.727069 0.558736
Si Si3 0.859521 0.128695 0.488098
Si Si4 0.095765 0.530827 0.748196
Si Si5 0.461361 0.830744 0.976082
Si Si6 0.455686 0.264001 0.530507
Si Si7 0.741576 0.168036 0.292005
Si Si8 0.161734 0.147008 0.803211
O O1 0.613560 0.547291 0.515891
O O2 0.694808 0.201975 0.563355
O O3 0.604063 0.202761 0.983223
O O4 0.699430 0.290859 0.971561
O O5 0.915433 0.785545 0.267484
O O6 0.032618 0.637003 0.518421
O O7 0.927294 0.934403 0.534080
O O8 0.930128 0.559078 0.886390
O O9 0.878103 0.305034 0.374860
O O10 0.805259 0.222597 0.223611
O O11 0.820748 0.048626 0.829983
O O12 0.160061 0.347266 0.732788
O O13 0.516959 0.718274 0.805796
O O14 0.439581 0.069144 0.762599
O O15 0.490344 0.740595 0.315197
O O16 0.780295 0.927851 0.413659
#
# Coordination Sequence:
#
# PCOD8004043 Si02
#       8
#     2   2   2   2   2   2   2   2
#     4  12  22  41  65  90 123 173 206 245 303 366
#     4   9  20  36  60  93 124 149 210 270 321 393
#     4  10  21  40  59  87 125 168 203 269 315 368
#     4  10  20  37  63  91 119 161 210 258 337 377
#     4  10  21  39  65  95 128 156 195 257 312 351
#     4  10  21  39  63  98 127 152 202 254 304 368
#     4  11  24  42  61  86 130 167 219 250 295 370
#     4  10  21  40  58  85 127 165 204 271 309 370
#
# _framework density 21.431988
#
# number of rings (size 3 to 8) (size 9 to 14) (size 15 to 20)
#    0.000    1.750    1.250    3.000    0.000    2.500 
#    2.250    3.750    0.000    0.000    0.000    0.000 
#    0.000    0.000    0.000    0.000    0.000    0.000 
#
# Total GULP energy -198286.988710 kJ/mol
# GULP energy per Si atom -12392.936794 kJ/mol
# Density = 2.138321 g / cm^3
# Si number density = 21.431988 Si / 1000 Ang^3
#
#
#
# Elastic Constant Matrix: (Units=GPa)
#
#
# Indices 1 2 3 4 5 6 
#
# 1 79.3600 56.4485 42.7517 -18.3690 17.8456 -13.0483
# 2 56.4485 146.1141 62.6927 -11.3718 -5.4901 -2.5301
# 3 42.7517 62.6927 67.0555 -4.3091 13.7174 7.7388
# 4 -18.3690 -11.3718 -4.3091 35.1427 9.3385 -3.6524
# 5 17.8456 -5.4901 13.7174 9.3385 27.6970 -0.5509
# 6 -13.0483 -2.5301 7.7388 -3.6524 -0.5509 28.6822
#
#
#
# Elastic Compliance Matrix: (Units=1/GPa)
#
#
# Indices 1 2 3 4 5 6 
#
# 1 0.049049 -0.011029 -0.014541 0.033161 -0.037196 0.028773
# 2 -0.011029 0.016899 -0.013120 -0.007097 0.019336 -0.000519
# 3 -0.014541 -0.013120 0.040793 -0.005735 -0.011894 -0.019738
# 4 0.033161 -0.007097 -0.005735 0.055234 -0.038112 0.022309
# 5 -0.037196 0.019336 -0.011894 -0.038112 0.082340 -0.015278
# 6 0.028773 -0.000519 -0.019738 0.022309 -0.015278 0.055781
#
#
# Mechanical properties :
#
#
# Convention : Reuss Voigt Hill
#
# Bulk Modulus (GPa) = 34.05844 68.47950 51.26897
# Shear Modulus (GPa) = 12.91108 27.01349 19.96228
#
# Velocity S-wave (km/s) = 2.45709 3.55410 3.05524
# Velocity P-wave (km/s) = 4.89649 6.99025 6.03486
#
# Compressibility (1/GPa) = 0.02936130
#
# Stress axis : x y z
#
# Youngs Moduli (GPa) = 20.38764 59.17396 24.51417
#
# Poissons Ratio (x) = 0.65262 0.35647
# Poissons Ratio (y) = 0.22485 0.32163
# Poissons Ratio (z) = 0.29646 0.77637
#
# Static dielectric constant tensor:
#      x y z
#    x 3.817430 -0.025850 0.346550 
#    y -0.025850 4.219720 0.062670 
#    z 0.346550 0.062670 3.778480 
# 
# 
# High freq. dielectric constant tensor:
#      x y z
#    x 1.831140 0.001170 0.027820 
#    y 0.001170 1.866030 0.004170 
#    z 0.027820 0.004170 1.820620 
# 
# From -- ./inp_files/122338.got.cif
#   From: 2010.06.25/outbox.cif.g09.slc.cpg/sg2_62_cif.got.tgz:122338.got - 2010.06.27 13:26:56.
