data_PCOD8004506
_publ_section_title
;
Structure prediction by ZEFSAII (Michael W. Deem and Ramdas Pophale) SiO2 
 PCOD8004506
Probable space group: P -1
;
_chemical_formula_sum "Si O2"
_cell_formula_units_Z 16
_cell_length_a 8.155275
_cell_length_b 14.210495
_cell_length_c 24.361953
_cell_angle_alpha 29.712582
_cell_angle_beta 33.641171
_cell_angle_gamma 52.469224
_cell_volume 705.426459
_symmetry_space_group_name_H-M "P -1"
_symmetry_group_IT_number 2
_symmetry_cell_setting 'triclinic'
loop_
_space_group_symop_operation_xyz
x,y,z
-x,-y,-z
loop_
_atom_site_type_symbol
_atom_site_label
_atom_site_fract_x
_atom_site_fract_y
_atom_site_fract_z
Si Si1 0.751118 0.700321 0.072205
Si Si2 0.649302 0.397655 0.054271
Si Si3 0.000544 0.037450 0.403829
Si Si4 0.138952 0.731079 0.585098
Si Si5 0.909392 0.484610 0.595556
Si Si6 0.155423 0.151734 0.695814
Si Si7 0.533294 0.356171 0.938157
Si Si8 0.083734 0.937791 0.315285
O O1 0.484165 0.611409 0.240023
O O2 0.533984 0.652862 0.102597
O O3 0.991517 0.584387 0.068173
O O4 0.967034 0.948442 0.888397
O O5 0.674523 0.524885 0.038686
O O6 0.387435 0.157781 0.250681
O O7 0.500000 0.500000 0.000000
O O8 0.914479 0.813061 0.569190
O O9 0.927385 0.019345 0.367863
O O10 0.801060 0.155731 0.428829
O O11 0.460223 0.760662 0.447780
O O12 0.917032 0.483806 0.779132
O O13 0.000000 0.500000 0.500000
O O14 0.042648 0.323813 0.665181
O O15 0.092112 0.723889 0.445117
O O16 0.110374 0.106824 0.665378
O O17 0.434445 0.126013 0.109104
#
# Coordination Sequence:
#
# PCOD8004506 Si02
#       8
#     2   2   2   2   2   2   2   2
#     4  11  22  42  68  91 125 174 210 264 316 381
#     4  11  21  37  64 100 133 163 202 258 322 385
#     4  10  20  38  59  91 133 164 199 261 323 380
#     4  10  21  38  63  93 130 168 206 260 315 377
#     4  10  23  43  65  91 125 166 223 267 310 370
#     4  10  22  42  67  92 121 170 220 261 311 372
#     4  10  22  39  63  96 133 167 207 252 324 389
#     4  10  21  41  60  89 131 164 212 260 309 380
#
# _framework density 22.681315999999999
#
# number of rings (size 3 to 8) (size 9 to 14) (size 15 to 20)
#    0.000    1.750    2.500    1.500    0.000    4.500 
#    4.500    3.125    2.750    0.000    0.000    0.000 
#    0.000    0.000    0.000    0.000    0.000    0.000 
#
# Total GULP energy -198217.231152 kJ/mol
# GULP energy per Si atom -12388.576947 kJ/mol
# Density = 2.262969 g / cm^3
# Si number density = 22.681316 Si / 1000 Ang^3
#
#
#
# Elastic Constant Matrix: (Units=GPa)
#
#
# Indices 1 2 3 4 5 6 
#
# 1 33.4795 13.1258 19.7614 0.6315 9.8848 4.1176
# 2 13.1258 102.7125 81.6057 11.0991 -7.7867 -14.9514
# 3 19.7614 81.6057 182.9401 -1.5154 2.8125 -17.4474
# 4 0.6315 11.0991 -1.5154 45.6101 0.4586 2.5041
# 5 9.8848 -7.7867 2.8125 0.4586 25.8109 6.1567
# 6 4.1176 -14.9514 -17.4474 2.5041 6.1567 29.1883
#
#
#
# Elastic Compliance Matrix: (Units=1/GPa)
#
#
# Indices 1 2 3 4 5 6 
#
# 1 0.038295 -0.005386 -0.002117 0.001211 -0.014540 -0.006464
# 2 -0.005386 0.017754 -0.007056 -0.004801 0.007192 0.004531
# 3 -0.002117 -0.007056 0.009154 0.001937 -0.002974 0.002617
# 4 0.001211 -0.004801 0.001937 0.023329 -0.001800 -0.003094
# 5 -0.014540 0.007192 -0.002974 -0.001800 0.048286 -0.006073
# 6 -0.006464 0.004531 0.002617 -0.003094 -0.006073 0.040604
#
#
# Mechanical properties :
#
#
# Convention : Reuss Voigt Hill
#
# Bulk Modulus (GPa) = 27.71229 60.90198 44.30713
# Shear Modulus (GPa) = 22.87618 33.76449 28.32034
#
# Velocity S-wave (km/s) = 3.17928 3.86249 3.53741
# Velocity P-wave (km/s) = 5.07166 6.84114 6.02175
#
# Compressibility (1/GPa) = 0.03608508
#
# Stress axis : x y z
#
# Youngs Moduli (GPa) = 26.11299 56.32572 109.24322
#
# Poissons Ratio (x) = 0.30336 0.23128
# Poissons Ratio (y) = 0.14064 0.77083
# Poissons Ratio (z) = 0.05528 0.39744
#
# Static dielectric constant tensor:
#      x y z
#    x 3.621150 0.176270 0.224330 
#    y 0.176270 4.666720 -0.511670 
#    z 0.224330 -0.511670 4.757750 
# 
# 
# High freq. dielectric constant tensor:
#      x y z
#    x 1.857280 0.016760 0.021340 
#    y 0.016760 1.883500 -0.011700 
#    z 0.021340 -0.011700 1.916430 
# 
# From -- ./inp_files/617255.got.cif
#   From: 2010.06.25/outbox.cif.g09.slc.cpg/sg2_309_cif.got.tgz:617255.got - 2010.06.27 13:26:56.
