data_PCOD8004123
_publ_section_title
;
Structure prediction by ZEFSAII (Michael W. Deem and Ramdas Pophale) SiO2 
 PCOD8004123
Probable space group: P -1
;
_chemical_formula_sum "Si O2"
_cell_formula_units_Z 16
_cell_length_a 15.538695
_cell_length_b 14.417689
_cell_length_c 12.548323
_cell_angle_alpha 58.522559
_cell_angle_beta 34.242878
_cell_angle_gamma 34.204086
_cell_volume 764.578241
_symmetry_space_group_name_H-M "P -1"
_symmetry_group_IT_number 2
_symmetry_cell_setting 'triclinic'
loop_
_space_group_symop_operation_xyz
x,y,z
-x,-y,-z
loop_
_atom_site_type_symbol
_atom_site_label
_atom_site_fract_x
_atom_site_fract_y
_atom_site_fract_z
Si Si1 0.035976 0.096535 0.543872
Si Si2 0.476972 0.216047 0.354319
Si Si3 0.302462 0.528608 0.237990
Si Si4 0.085204 0.572348 0.221370
Si Si5 0.394048 0.787575 0.204400
Si Si6 0.364218 0.473694 0.695276
Si Si7 0.335596 0.819192 0.597811
Si Si8 0.998400 0.804183 0.006916
O O1 0.899210 0.294502 0.578335
O O2 0.815800 0.135318 0.713014
O O3 0.265093 0.966738 0.293191
O O4 0.142598 0.999516 0.608983
O O5 0.477625 0.338882 0.237838
O O6 0.186115 0.334170 0.574625
O O7 0.579325 0.153978 0.408444
O O8 0.685482 0.020413 0.190707
O O9 0.131028 0.564411 0.303978
O O10 0.500000 0.500000 0.000000
O O11 0.072189 0.698612 0.104083
O O12 0.324666 0.354842 0.059294
O O13 0.450051 0.666424 0.310735
O O14 0.500000 0.500000 0.500000
O O15 0.388575 0.371867 0.635928
O O16 0.060266 0.681612 0.920443
O O17 0.184346 0.801817 0.809150
#
# Coordination Sequence:
#
# PCOD8004123 Si02
#       8
#     2   2   2   2   2   2   2   2
#     4  10  20  37  64  91 115 152 200 251 284 347
#     4  12  25  38  58  89 125 157 194 246 298 358
#     4  12  23  39  62  88 115 157 201 244 292 350
#     4  11  23  42  59  85 125 157 192 246 306 349
#     4   9  19  37  62  88 117 151 197 244 300 341
#     4   8  17  32  59  88 117 141 196 252 288 335
#     4  10  20  38  60  91 114 150 204 247 291 346
#     4  10  20  38  61  86 114 158 199 241 291 350
#
# _framework density 20.926570000000002
#
# number of rings (size 3 to 8) (size 9 to 14) (size 15 to 20)
#    0.000    1.750    1.250    3.375    3.500    0.000 
#    0.000    7.500    0.000    0.000    0.000    0.000 
#    0.000    0.000    0.000    0.000    0.000    0.000 
#
# Total GULP energy -198291.631034 kJ/mol
# GULP energy per Si atom -12393.226940 kJ/mol
# Density = 2.087894 g / cm^3
# Si number density = 20.926570 Si / 1000 Ang^3
#
#
#
# Elastic Constant Matrix: (Units=GPa)
#
#
# Indices 1 2 3 4 5 6 
#
# 1 88.5659 28.2213 58.0615 13.5469 7.8447 -8.9899
# 2 28.2213 87.9564 33.0609 27.5352 21.6131 4.0837
# 3 58.0615 33.0609 114.6814 45.2444 15.2235 7.6377
# 4 13.5469 27.5352 45.2444 39.3107 9.2332 10.8213
# 5 7.8447 21.6131 15.2235 9.2332 34.0602 9.1312
# 6 -8.9899 4.0837 7.6377 10.8213 9.1312 28.2376
#
#
#
# Elastic Compliance Matrix: (Units=1/GPa)
#
#
# Indices 1 2 3 4 5 6 
#
# 1 0.021055 -0.005042 -0.013586 0.009940 -0.000251 0.007379
# 2 -0.005042 0.018002 0.003922 -0.014110 -0.009008 0.003051
# 3 -0.013586 0.003922 0.025308 -0.026233 -0.003403 -0.000584
# 4 0.009940 -0.014110 -0.026233 0.064882 0.004565 -0.014039
# 5 -0.000251 -0.009008 -0.003403 0.004565 0.038663 -0.012108
# 6 0.007379 0.003051 -0.000584 -0.014039 -0.012108 0.046776
#
#
# Mechanical properties :
#
#
# Convention : Reuss Voigt Hill
#
# Bulk Modulus (GPa) = 28.60960 58.87679 43.74319
# Shear Modulus (GPa) = 19.55051 31.77902 25.66477
#
# Velocity S-wave (km/s) = 3.05986 3.90115 3.50583
# Velocity P-wave (km/s) = 5.11710 6.96333 6.11035
#
# Compressibility (1/GPa) = 0.03495330
#
# Stress axis : x y z
#
# Youngs Moduli (GPa) = 47.49442 55.55019 39.51350
#
# Poissons Ratio (x) = 0.28007 0.53684
# Poissons Ratio (y) = 0.23946 -0.15499
# Poissons Ratio (z) = 0.64527 -0.21789
#
# Static dielectric constant tensor:
#      x y z
#    x 4.029330 0.145190 0.907280 
#    y 0.145190 3.949230 0.293070 
#    z 0.907280 0.293070 3.959180 
# 
# 
# High freq. dielectric constant tensor:
#      x y z
#    x 1.805720 -0.005620 0.036800 
#    y -0.005620 1.824770 0.022640 
#    z 0.036800 0.022640 1.810670 
# 
# From -- ./inp_files/271763.got.cif
#   From: 2010.06.25/outbox.cif.g09.slc.cpg/sg2_136_cif.got.tgz:271763.got - 2010.06.27 13:26:56.
