data_PCOD8004258
_publ_section_title
;
Structure prediction by ZEFSAII (Michael W. Deem and Ramdas Pophale) SiO2 
 PCOD8004258
Probable space group: P -1
;
_chemical_formula_sum "Si O2"
_cell_formula_units_Z 16
_cell_length_a 16.793274
_cell_length_b 8.028680
_cell_length_c 5.472643
_cell_angle_alpha 99.532217
_cell_angle_beta 111.259951
_cell_angle_gamma 75.512143
_cell_volume 663.485259
_symmetry_space_group_name_H-M "P -1"
_symmetry_group_IT_number 2
_symmetry_cell_setting 'triclinic'
loop_
_space_group_symop_operation_xyz
x,y,z
-x,-y,-z
loop_
_atom_site_type_symbol
_atom_site_label
_atom_site_fract_x
_atom_site_fract_y
_atom_site_fract_z
Si Si1 0.683492 0.448396 0.178576
Si Si2 0.774408 0.026184 0.582302
Si Si3 0.829424 0.161978 0.160050
Si Si4 0.251365 0.314826 0.362499
Si Si5 0.005571 0.295319 0.437605
Si Si6 0.592033 0.660311 0.752770
Si Si7 0.069908 0.321102 0.014529
Si Si8 0.399802 0.706781 0.557477
O O1 0.747772 0.317859 0.042472
O O2 0.747175 0.501177 0.469490
O O3 0.612285 0.351186 0.191678
O O4 0.633490 0.633809 0.062700
O O5 0.815354 0.078063 0.388224
O O6 0.678566 0.138375 0.561139
O O7 0.761722 0.830794 0.494081
O O8 0.833468 0.034596 0.898340
O O9 0.914048 0.242568 0.290510
O O10 0.344214 0.248467 0.312779
O O11 0.167752 0.354103 0.097178
O O12 0.000000 0.500000 0.500000
O O13 0.063452 0.222269 0.244515
O O14 0.049084 0.214587 0.724222
O O15 0.492862 0.767848 0.658338
O O16 0.597270 0.457157 0.652741
O O17 0.000000 0.500000 0.000000
#
# Coordination Sequence:
#
# PCOD8004258 Si02
#       8
#     2   2   2   2   2   2   2   2
#     4  10  20  37  66  94 122 170 221 268 308 382
#     4  11  25  44  63  95 137 174 205 261 328 389
#     4  11  23  43  69  92 130 174 213 258 327 384
#     4  11  26  39  63  96 129 170 215 265 322 381
#     4  10  21  37  65  94 119 156 213 269 309 367
#     4  10  20  37  67  90 127 164 226 262 314 376
#     4  10  22  38  61  92 125 157 207 266 309 368
#     4   9  20  39  60  97 125 169 212 270 317 376
#
# _framework density 24.115079000000001
#
# number of rings (size 3 to 8) (size 9 to 14) (size 15 to 20)
#    0.000    1.750    1.250    2.625    7.000    0.500 
#    0.000    4.375    0.000    0.000    0.000    0.000 
#    0.000    0.000    0.000    0.000    0.000    0.000 
#
# Total GULP energy -198240.111167 kJ/mol
# GULP energy per Si atom -12390.006948 kJ/mol
# Density = 2.406019 g / cm^3
# Si number density = 24.115079 Si / 1000 Ang^3
#
#
#
# Elastic Constant Matrix: (Units=GPa)
#
#
# Indices 1 2 3 4 5 6 
#
# 1 168.1131 30.3489 50.3420 10.0013 5.8918 29.5718
# 2 30.3489 43.8614 9.7029 -0.0912 -3.3905 20.2641
# 3 50.3420 9.7029 132.3104 -9.2653 -15.4975 11.4133
# 4 10.0013 -0.0912 -9.2653 25.7879 3.0422 -8.3943
# 5 5.8918 -3.3905 -15.4975 3.0422 34.5973 5.0088
# 6 29.5718 20.2641 11.4133 -8.3943 5.0088 26.1183
#
#
#
# Elastic Compliance Matrix: (Units=1/GPa)
#
#
# Indices 1 2 3 4 5 6 
#
# 1 0.009632 -0.000669 -0.003310 -0.008600 -0.000759 -0.011559
# 2 -0.000669 0.041583 0.000914 -0.013052 0.011286 -0.038264
# 3 -0.003310 0.000914 0.009653 0.003924 0.004752 -0.000830
# 4 -0.008600 -0.013052 0.003924 0.056882 -0.008571 0.038074
# 5 -0.000759 0.011286 0.004752 -0.008571 0.035860 -0.019605
# 6 -0.011559 -0.038264 -0.000830 0.038074 -0.019605 0.097421
#
#
# Mechanical properties :
#
#
# Convention : Reuss Voigt Hill
#
# Bulk Modulus (GPa) = 18.26872 58.34139 38.30505
# Shear Modulus (GPa) = 18.15501 34.22676 26.19088
#
# Velocity S-wave (km/s) = 2.74679 3.77146 3.29915
# Velocity P-wave (km/s) = 4.20141 6.57348 5.51645
#
# Compressibility (1/GPa) = 0.05473837
#
# Stress axis : x y z
#
# Youngs Moduli (GPa) = 103.82527 24.04826 103.59139
#
# Poissons Ratio (x) = 0.01608 0.34285
# Poissons Ratio (y) = 0.06942 -0.09463
# Poissons Ratio (z) = 0.34363 -0.02197
#
# Static dielectric constant tensor:
#      x y z
#    x 4.527600 -0.059290 -0.114020 
#    y -0.059290 3.939210 -0.068090 
#    z -0.114020 -0.068090 4.819220 
# 
# 
# High freq. dielectric constant tensor:
#      x y z
#    x 1.970460 -0.001760 0.003330 
#    y -0.001760 1.927810 -0.006290 
#    z 0.003330 -0.006290 1.967200 
# 
# From -- ./inp_files/39840.got.cif
#   From: 2010.06.25/outbox.cif.g09.slc.cpg/sg2_20_cif.got.tgz:39840.got - 2010.06.27 13:26:56.
