data_PCOD8004000
_publ_section_title
;
Structure prediction by ZEFSAII (Michael W. Deem and Ramdas Pophale) SiO2 
 PCOD8004000
Probable space group: P -1
;
_chemical_formula_sum "Si O2"
_cell_formula_units_Z 12
_cell_length_a 19.153566
_cell_length_b 12.320093
_cell_length_c 12.495366
_cell_angle_alpha 45.810085
_cell_angle_beta 160.828807
_cell_angle_gamma 138.479446
_cell_volume 641.168708
_symmetry_space_group_name_H-M "P -1"
_symmetry_group_IT_number 2
_symmetry_cell_setting 'triclinic'
loop_
_space_group_symop_operation_xyz
x,y,z
-x,-y,-z
loop_
_atom_site_type_symbol
_atom_site_label
_atom_site_fract_x
_atom_site_fract_y
_atom_site_fract_z
Si Si1 0.738063 0.918043 0.209143
Si Si2 0.647970 0.682090 0.439153
Si Si3 0.379348 0.773277 0.174115
Si Si4 0.023102 0.555937 0.134375
Si Si5 0.525454 0.333071 0.180301
Si Si6 0.467028 0.646728 0.591603
O O1 0.721005 0.816243 0.360708
O O2 0.595624 0.806749 0.982990
O O3 0.000000 0.000000 0.500000
O O4 0.636854 0.054971 0.991835
O O5 0.513692 0.734401 0.299043
O O6 0.475039 0.506193 0.262429
O O7 0.873336 0.666658 0.827861
O O8 0.520407 0.784387 0.482171
O O9 0.128293 0.629988 0.922244
O O10 0.203832 0.634890 0.439757
O O11 0.185200 0.563302 0.259621
O O12 0.407506 0.278850 0.165938
O O13 0.500000 0.500000 0.000000
#
# Coordination Sequence:
#
# PCOD8004000 Si02
#       6
#     2   2   2   2   2   2
#     4  12  23  39  61  83 116 151 194 241 282 337
#     4  11  20  37  60  86 120 151 187 231 289 348
#     4  11  21  35  60  90 117 151 184 234 295 337
#     4   9  19  37  63  86 106 153 199 228 272 340
#     4  10  20  37  63  86 110 145 205 238 272 327
#     4   9  18  35  63  82 112 146 201 226 273 332
#
# _framework density 18.715823
#
# number of rings (size 3 to 8) (size 9 to 14) (size 15 to 20)
#    1.000    0.667    1.667    7.500    0.000    0.667 
#    0.000    1.667    7.333    0.000    0.000    0.000 
#    0.000    0.000    0.000    0.000    0.000    0.000 
#
# Total GULP energy -148705.879085 kJ/mol
# GULP energy per Si atom -12392.156590 kJ/mol
# Density = 1.867323 g / cm^3
# Si number density = 18.715823 Si / 1000 Ang^3
#
#
#
# Elastic Constant Matrix: (Units=GPa)
#
#
# Indices 1 2 3 4 5 6 
#
# 1 94.1998 33.4210 47.8154 0.0310 -5.1543 -11.0284
# 2 33.4210 99.9307 62.3363 -19.0933 -8.7203 -9.4300
# 3 47.8154 62.3363 81.8734 -14.6493 -11.8448 -12.7578
# 4 0.0310 -19.0933 -14.6493 33.9003 -5.1209 -3.4459
# 5 -5.1543 -8.7203 -11.8448 -5.1209 29.5139 -11.1111
# 6 -11.0284 -9.4300 -12.7578 -3.4459 -11.1111 32.8819
#
#
#
# Elastic Compliance Matrix: (Units=1/GPa)
#
#
# Indices 1 2 3 4 5 6 
#
# 1 0.015780 0.000182 -0.010545 -0.004812 -0.002264 -0.000016
# 2 0.000182 0.019931 -0.013643 0.005838 0.002143 0.001820
# 3 -0.010545 -0.013643 0.034609 0.010667 0.014367 0.011951
# 4 -0.004812 0.005838 0.010667 0.041584 0.017876 0.014597
# 5 -0.002264 0.002143 0.014367 0.017876 0.052404 0.025011
# 6 -0.000016 0.001820 0.011951 0.014597 0.025011 0.045546
#
#
# Mechanical properties :
#
#
# Convention : Reuss Voigt Hill
#
# Bulk Modulus (GPa) = 44.82755 62.57214 53.69984
# Shear Modulus (GPa) = 18.84647 28.08799 23.46723
#
# Velocity S-wave (km/s) = 3.17674 3.87817 3.54485
# Velocity P-wave (km/s) = 6.12040 7.31840 6.74604
#
# Compressibility (1/GPa) = 0.02230771
#
# Stress axis : x y z
#
# Youngs Moduli (GPa) = 63.37242 50.17432 28.89402
#
# Poissons Ratio (x) = -0.00915 0.30470
# Poissons Ratio (y) = -0.01155 0.39419
# Poissons Ratio (z) = 0.66829 0.68452
#
# Static dielectric constant tensor:
#      x y z
#    x 3.543050 0.159930 -0.151490 
#    y 0.159930 3.361450 -0.244110 
#    z -0.151490 -0.244110 3.360480 
# 
# 
# High freq. dielectric constant tensor:
#      x y z
#    x 1.737110 -0.001920 -0.016690 
#    y -0.001920 1.711740 -0.021200 
#    z -0.016690 -0.021200 1.720500 
# 
# From -- ./inp_files/150684.got.cif
#   From: 2010.06.25/outbox.cif.g09.slc.cpg/sg2_76_cif.got.tgz:150684.got - 2010.06.27 13:26:56.
