data_PCOD8004358
_publ_section_title
;
Structure prediction by ZEFSAII (Michael W. Deem and Ramdas Pophale) SiO2 
 PCOD8004358
Probable space group: P -1
;
_chemical_formula_sum "Si O2"
_cell_formula_units_Z 16
_cell_length_a 9.044082
_cell_length_b 15.035473
_cell_length_c 7.806461
_cell_angle_alpha 116.905274
_cell_angle_beta 108.036948
_cell_angle_gamma 61.160068
_cell_volume 823.533155
_symmetry_space_group_name_H-M "P -1"
_symmetry_group_IT_number 2
_symmetry_cell_setting 'triclinic'
loop_
_space_group_symop_operation_xyz
x,y,z
-x,-y,-z
loop_
_atom_site_type_symbol
_atom_site_label
_atom_site_fract_x
_atom_site_fract_y
_atom_site_fract_z
Si Si1 0.702282 0.777923 0.914225
Si Si2 0.946620 0.286521 0.132057
Si Si3 0.845629 0.096037 0.940568
Si Si4 0.250027 0.069366 0.397606
Si Si5 0.902896 0.276550 0.476994
Si Si6 0.422436 0.003973 0.749085
Si Si7 0.991323 0.619228 0.080977
Si Si8 0.358751 0.817698 0.726273
O O1 0.561365 0.740692 0.747591
O O2 0.848199 0.762560 0.813531
O O3 0.598228 0.907127 0.032279
O O4 0.795763 0.704847 0.051314
O O5 0.860259 0.337243 0.327949
O O6 0.900472 0.187815 0.961939
O O7 0.893515 0.376586 0.038362
O O8 0.772858 0.044825 0.719864
O O9 0.699934 0.152144 0.074809
O O10 0.000000 0.000000 0.000000
O O11 0.326755 0.075951 0.614534
O O12 0.067147 0.167378 0.398661
O O13 0.380318 0.068719 0.292093
O O14 0.746030 0.246518 0.453039
O O15 0.935103 0.351671 0.694611
O O16 0.330016 0.925196 0.699213
O O17 0.000000 0.500000 0.000000
#
# Coordination Sequence:
#
# PCOD8004358 Si02
#       8
#     2   2   2   2   2   2   2   2
#     4  10  20  38  55  85 117 158 192 238 285 345
#     4   9  21  36  62  83 118 150 196 238 289 343
#     4  11  19  31  52  84 122 155 184 228 279 350
#     4  11  21  33  49  87 124 160 193 226 275 356
#     4  11  22  38  60  89 116 152 202 236 290 352
#     4  11  22  31  53  86 124 163 192 222 279 356
#     4  10  24  44  66  83 107 152 207 258 295 336
#     4  11  22  32  55  87 124 158 184 231 290 353
#
# _framework density 19.428484000000001
#
# number of rings (size 3 to 8) (size 9 to 14) (size 15 to 20)
#    0.750    0.750    5.000    1.875    1.750    1.000 
#    0.000    0.625    0.000    3.000    0.000    0.000 
#    0.000    0.000    0.000    0.000    0.000    0.000 
#
# Total GULP energy -198272.554194 kJ/mol
# GULP energy per Si atom -12392.034637 kJ/mol
# Density = 1.938426 g / cm^3
# Si number density = 19.428484 Si / 1000 Ang^3
#
#
#
# Elastic Constant Matrix: (Units=GPa)
#
#
# Indices 1 2 3 4 5 6 
#
# 1 117.6902 30.3584 31.9665 9.2928 13.3412 20.8393
# 2 30.3584 80.7697 29.9629 9.8175 5.2422 29.6282
# 3 31.9665 29.9629 92.2828 7.5135 16.5060 17.2469
# 4 9.2928 9.8175 7.5135 20.1511 8.2574 1.9063
# 5 13.3412 5.2422 16.5060 8.2574 25.4404 -2.1221
# 6 20.8393 29.6282 17.2469 1.9063 -2.1221 30.7288
#
#
#
# Elastic Compliance Matrix: (Units=1/GPa)
#
#
# Indices 1 2 3 4 5 6 
#
# 1 0.010791 -0.000884 -0.001409 -0.001606 -0.004532 -0.005888
# 2 -0.000884 0.021176 -0.002304 -0.006592 -0.001786 -0.018239
# 3 -0.001409 -0.002304 0.014706 0.000507 -0.008970 -0.005728
# 4 -0.001606 -0.006592 0.000507 0.060367 -0.017538 0.002205
# 5 -0.004532 -0.001786 -0.008970 -0.017538 0.054791 0.014703
# 6 -0.005888 -0.018239 -0.005728 0.002205 0.014703 0.058215
#
#
# Mechanical properties :
#
#
# Convention : Reuss Voigt Hill
#
# Bulk Modulus (GPa) = 26.68217 52.81314 39.74765
# Shear Modulus (GPa) = 20.68408 28.49441 24.58925
#
# Velocity S-wave (km/s) = 3.26640 3.83382 3.56143
# Velocity P-wave (km/s) = 5.29048 6.84397 6.11674
#
# Compressibility (1/GPa) = 0.03747821
#
# Stress axis : x y z
#
# Youngs Moduli (GPa) = 92.67138 47.22424 67.99911
#
# Poissons Ratio (x) = 0.04174 0.09581
# Poissons Ratio (y) = 0.08190 0.15669
# Poissons Ratio (z) = 0.13058 0.10882
#
# Static dielectric constant tensor:
#      x y z
#    x 3.753010 0.140160 0.142220 
#    y 0.140160 3.162560 -0.186410 
#    z 0.142220 -0.186410 3.459360 
# 
# 
# High freq. dielectric constant tensor:
#      x y z
#    x 1.763320 0.014760 0.011540 
#    y 0.014760 1.719890 -0.024930 
#    z 0.011540 -0.024930 1.746110 
# 
# From -- ./inp_files/203751.got.cif
#   From: 2010.06.25/outbox.cif.g09.slc.cpg/sg2_102_cif.got.tgz:203751.got - 2010.06.27 13:26:56.
