data_PCOD8004334
_publ_section_title
;
Structure prediction by ZEFSAII (Michael W. Deem and Ramdas Pophale) SiO2 
 PCOD8004334
Probable space group: P -1
;
_chemical_formula_sum "Si O2"
_cell_formula_units_Z 14
_cell_length_a 5.189016
_cell_length_b 9.136145
_cell_length_c 14.408595
_cell_angle_alpha 74.767863
_cell_angle_beta 99.843949
_cell_angle_gamma 98.588928
_cell_volume 645.446743
_symmetry_space_group_name_H-M "P -1"
_symmetry_group_IT_number 2
_symmetry_cell_setting 'triclinic'
loop_
_space_group_symop_operation_xyz
x,y,z
-x,-y,-z
loop_
_atom_site_type_symbol
_atom_site_label
_atom_site_fract_x
_atom_site_fract_y
_atom_site_fract_z
Si Si1 0.028689 0.393271 0.814659
Si Si2 0.652898 0.035535 0.108888
Si Si3 0.458473 0.279989 0.742074
Si Si4 0.761564 0.904540 0.621672
Si Si5 0.701345 0.898951 0.410056
Si Si6 0.985290 0.723162 0.819535
Si Si7 0.139114 0.163543 0.018528
O O1 0.250737 0.387258 0.751090
O O2 0.746380 0.368874 0.752437
O O3 0.072818 0.556550 0.839090
O O4 0.051294 0.263757 0.913149
O O5 0.421258 0.102981 0.024973
O O6 0.753023 0.154705 0.176719
O O7 0.904790 0.025016 0.055637
O O8 0.554268 0.876827 0.175557
O O9 0.395472 0.244993 0.636338
O O10 0.504044 0.975708 0.629366
O O11 0.011527 0.032408 0.618772
O O12 0.717866 0.837964 0.526363
O O13 0.806989 0.765610 0.715294
O O14 0.823823 0.729329 0.905087
#
# Coordination Sequence:
#
# PCOD8004334 Si02
#       7
#     2   2   2   2   2   2   2
#     4  12  27  37  61  85 132 159 197 234 324 339
#     4  10  22  38  66  79 122 150 213 245 292 330
#     4  12  24  41  57  94 124 157 189 259 297 363
#     4  10  20  37  70  89 114 150 209 239 298 339
#     4  10  20  39  63  96 114 151 194 259 286 354
#     4  10  24  41  62  90 116 163 203 252 276 371
#     4  10  22  40  62  86 114 164 208 252 273 359
#
# _framework density 21.690404000000001
#
# number of rings (size 3 to 8) (size 9 to 14) (size 15 to 20)
#    0.857    0.571    1.429    3.857    2.000    4.000 
#    0.000    1.429    0.000    0.000    0.000    0.000 
#    0.000    0.000    0.000    0.000    0.000    0.000 
#
# Total GULP energy -173644.242078 kJ/mol
# GULP energy per Si atom -12403.160148 kJ/mol
# Density = 2.164104 g / cm^3
# Si number density = 21.690404 Si / 1000 Ang^3
#
#
#
# Elastic Constant Matrix: (Units=GPa)
#
#
# Indices 1 2 3 4 5 6 
#
# 1 117.5351 29.5461 31.0340 15.0216 19.4714 -20.7327
# 2 29.5461 101.0236 26.5416 17.1103 7.8932 -13.7143
# 3 31.0340 26.5416 112.0894 22.9975 9.4184 -10.3702
# 4 15.0216 17.1103 22.9975 28.4367 -2.8904 -2.3885
# 5 19.4714 7.8932 9.4184 -2.8904 28.4220 7.4297
# 6 -20.7327 -13.7143 -10.3702 -2.3885 7.4297 26.3287
#
#
#
# Elastic Compliance Matrix: (Units=1/GPa)
#
#
# Indices 1 2 3 4 5 6 
#
# 1 0.014606 0.000320 0.000272 -0.008374 -0.015025 0.015256
# 2 0.000320 0.012754 -0.000260 -0.007629 -0.006527 0.007943
# 3 0.000272 -0.000260 0.012032 -0.009905 -0.006622 0.005788
# 4 -0.008374 -0.007629 -0.009905 0.052982 0.020569 -0.015467
# 5 -0.015025 -0.006527 -0.006622 0.020569 0.060192 -0.032959
# 6 0.015256 0.007943 0.005788 -0.015467 -0.032959 0.064309
#
#
# Mechanical properties :
#
#
# Convention : Reuss Voigt Hill
#
# Bulk Modulus (GPa) = 24.96496 56.09905 40.53201
# Shear Modulus (GPa) = 21.78059 32.87258 27.32658
#
# Velocity S-wave (km/s) = 3.17228 3.89721 3.55328
# Velocity P-wave (km/s) = 4.99525 6.79490 5.96335
#
# Compressibility (1/GPa) = 0.04005614
#
# Stress axis : x y z
#
# Youngs Moduli (GPa) = 68.46352 78.40848 83.11435
#
# Poissons Ratio (x) = -0.02509 -0.02263
# Poissons Ratio (y) = -0.02191 0.02161
# Poissons Ratio (z) = -0.01864 0.02039
#
# Static dielectric constant tensor:
#      x y z
#    x 4.023890 -0.161940 0.051000 
#    y -0.161940 3.755810 0.421390 
#    z 0.051000 0.421390 4.048920 
# 
# 
# High freq. dielectric constant tensor:
#      x y z
#    x 1.865560 -0.013550 0.008100 
#    y -0.013550 1.838240 0.033890 
#    z 0.008100 0.033890 1.861280 
# 
# From -- ./inp_files/90189.got.cif
#   From: 2010.06.25/outbox.cif.g09.slc.cpg/sg2_46_cif.got.tgz:90189.got - 2010.06.27 13:26:56.
