data_PCOD8004540
_publ_section_title
;
Structure prediction by ZEFSAII (Michael W. Deem and Ramdas Pophale) SiO2 
 PCOD8004540
Probable space group: P -1
;
_chemical_formula_sum "Si O2"
_cell_formula_units_Z 16
_cell_length_a 16.221706
_cell_length_b 16.221708
_cell_length_c 15.896682
_cell_angle_alpha 50.745013
_cell_angle_beta 29.895171
_cell_angle_gamma 27.716087
_cell_volume 789.178301
_symmetry_space_group_name_H-M "P -1"
_symmetry_group_IT_number 2
_symmetry_cell_setting 'triclinic'
loop_
_space_group_symop_operation_xyz
x,y,z
-x,-y,-z
loop_
_atom_site_type_symbol
_atom_site_label
_atom_site_fract_x
_atom_site_fract_y
_atom_site_fract_z
Si Si1 0.270342 0.007493 0.618570
Si Si2 0.900436 0.823785 0.515726
Si Si3 0.594540 0.431068 0.365170
Si Si4 0.653968 0.650272 0.938990
Si Si5 0.272334 0.031905 0.938987
Si Si6 0.292370 0.431856 0.515728
Si Si7 0.200735 0.824874 0.365169
Si Si8 0.928250 0.783139 0.177436
O O1 0.391381 0.816699 0.634911
O O2 0.593574 0.901524 0.404042
O O3 0.046868 0.161264 0.634888
O O4 0.042555 0.156137 0.806805
O O5 0.178518 0.575612 0.448568
O O6 0.936085 0.900690 0.499369
O O7 0.521336 0.992547 0.753584
O O8 0.500000 0.500000 0.500000
O O9 0.401928 0.434839 0.499393
O O10 0.491898 0.591851 0.299980
O O11 0.996865 0.193028 0.152708
O O12 0.985425 0.528461 0.753578
O O13 0.744700 0.477711 0.945995
O O14 0.484037 0.803529 0.909768
O O15 0.387626 0.802278 0.152705
O O16 0.085869 0.136587 0.945925
O O17 0.000000 0.000000 0.500000
#
# Coordination Sequence:
#
# PCOD8004540 Si02
#       8
#     2   2   2   2   2   2   2   2
#     4   9  18  34  63  83 116 149 193 233 287 335
#     4   9  21  38  58  84 117 152 189 235 283 340
#     4  11  23  39  59  85 116 150 193 240 288 343
#     4  10  20  38  60  83 117 153 188 235 285 337
#     4  10  20  38  60  83 117 153 188 235 285 337
#     4   9  21  38  58  84 117 152 189 235 283 340
#     4  11  23  39  59  85 116 150 193 240 288 343
#     4   9  18  36  57  91 112 149 191 239 281 339
#
# _framework density 20.274251
#
# number of rings (size 3 to 8) (size 9 to 14) (size 15 to 20)
#    0.000    2.250    1.250    0.750    3.500    2.000 
#    0.000   11.250    0.000    0.000    0.000    0.000 
#    0.000    0.000    0.000    0.000    0.000    0.000 
#
# Total GULP energy -198409.727527 kJ/mol
# GULP energy per Si atom -12400.607970 kJ/mol
# Density = 2.022811 g / cm^3
# Si number density = 20.274251 Si / 1000 Ang^3
#
#
#
# Elastic Constant Matrix: (Units=GPa)
#
#
# Indices 1 2 3 4 5 6 
#
# 1 146.4607 80.9565 47.0384 1.6811 23.7602 3.3369
# 2 80.9565 143.4708 44.8273 -1.0102 9.4985 1.7357
# 3 47.0384 44.8273 72.3377 1.8999 15.0572 1.7849
# 4 1.6811 -1.0102 1.8999 25.4990 1.6638 3.5040
# 5 23.7602 9.4985 15.0572 1.6638 29.3818 3.2190
# 6 3.3369 1.7357 1.7849 3.5040 3.2190 32.3979
#
#
#
# Elastic Compliance Matrix: (Units=1/GPa)
#
#
# Indices 1 2 3 4 5 6 
#
# 1 0.011724 -0.005247 -0.003075 -0.000334 -0.006178 -0.000107
# 2 -0.005247 0.011008 -0.003991 0.000931 0.002699 -0.000198
# 3 -0.003075 -0.003991 0.019618 -0.001035 -0.006238 0.000181
# 4 -0.000334 0.000931 -0.001035 0.040010 -0.001311 -0.004155
# 5 -0.006178 0.002699 -0.006238 -0.001311 0.041777 -0.003174
# 6 -0.000107 -0.000198 0.000181 -0.004155 -0.003174 0.031643
#
#
# Mechanical properties :
#
#
# Convention : Reuss Voigt Hill
#
# Bulk Modulus (GPa) = 56.41901 78.65708 67.53804
# Shear Modulus (GPa) = 26.83651 30.08553 28.46102
#
# Velocity S-wave (km/s) = 3.64218 3.85636 3.75080
# Velocity P-wave (km/s) = 6.75097 7.66221 7.22098
#
# Compressibility (1/GPa) = 0.01772452
#
# Stress axis : x y z
#
# Youngs Moduli (GPa) = 85.29440 90.84307 50.97383
#
# Poissons Ratio (x) = 0.47664 0.15674
# Poissons Ratio (y) = 0.44753 0.20344
# Poissons Ratio (z) = 0.26227 0.36256
#
# Static dielectric constant tensor:
#      x y z
#    x 4.195940 0.091570 0.320220 
#    y 0.091570 4.007200 0.058020 
#    z 0.320220 0.058020 3.697350 
# 
# 
# High freq. dielectric constant tensor:
#      x y z
#    x 1.777900 -0.009000 -0.002360 
#    y -0.009000 1.807620 -0.003380 
#    z -0.002360 -0.003380 1.783390 
# 
# From -- ./inp_files/207549.got.cif
#   From: 2010.06.25/outbox.cif.g09.slc.cpg/sg2_104_cif.got.tgz:207549.got - 2010.06.27 13:26:56.
