data_PCOD8004053
_publ_section_title
;
Structure prediction by ZEFSAII (Michael W. Deem and Ramdas Pophale) SiO2 
 PCOD8004053
Probable space group: P -1
;
_chemical_formula_sum "Si O2"
_cell_formula_units_Z 14
_cell_length_a 17.874735
_cell_length_b 6.577956
_cell_length_c 9.174741
_cell_angle_alpha 98.284501
_cell_angle_beta 127.791313
_cell_angle_gamma 54.805631
_cell_volume 659.127296
_symmetry_space_group_name_H-M "P -1"
_symmetry_group_IT_number 2
_symmetry_cell_setting 'triclinic'
loop_
_space_group_symop_operation_xyz
x,y,z
-x,-y,-z
loop_
_atom_site_type_symbol
_atom_site_label
_atom_site_fract_x
_atom_site_fract_y
_atom_site_fract_z
Si Si1 0.355989 0.844955 0.814350
Si Si2 0.541213 0.703270 0.230596
Si Si3 0.795951 0.087115 0.086881
Si Si4 0.034124 0.495390 0.335155
Si Si5 0.277105 0.199001 0.493056
Si Si6 0.938742 0.257976 0.353966
Si Si7 0.404415 0.785965 0.348301
O O1 0.431452 0.573120 0.787388
O O2 0.268245 0.865013 0.831133
O O3 0.277014 0.058117 0.620500
O O4 0.448804 0.882081 0.005766
O O5 0.665005 0.662751 0.376824
O O6 0.471411 0.833436 0.312777
O O7 0.908776 0.777544 0.172602
O O8 0.832111 0.280046 0.146515
O O9 0.706778 0.185173 0.854252
O O10 0.131508 0.404812 0.310327
O O11 0.099240 0.509557 0.556974
O O12 0.015585 0.275481 0.322226
O O13 0.351828 0.008774 0.429140
O O14 0.000000 0.000000 0.500000
O O15 0.500000 0.500000 0.500000
#
# Coordination Sequence:
#
# PCOD8004053 Si02
#       7
#     2   2   2   2   2   2   2
#     4  10  20  37  63  92 121 150 204 256 295 360
#     4  10  22  40  61  89 119 161 202 250 308 351
#     4  10  22  41  63  89 126 160 196 252 306 359
#     4  10  21  36  60  97 121 153 202 249 303 366
#     4  12  22  38  64  88 124 159 200 249 303 365
#     4   9  17  36  62  91 126 154 193 247 306 356
#     4  11  24  46  60  84 126 165 208 253 297 362
#
# _framework density 21.240207999999999
#
# number of rings (size 3 to 8) (size 9 to 14) (size 15 to 20)
#    0.000    1.714    1.429    4.286    0.000    1.714 
#   10.286    0.714    0.000    0.000    0.000    0.000 
#    0.000    0.000    0.000    0.000    0.000    0.000 
#
# Total GULP energy -173460.756031 kJ/mol
# GULP energy per Si atom -12390.054002 kJ/mol
# Density = 2.119186 g / cm^3
# Si number density = 21.240208 Si / 1000 Ang^3
#
#
#
# Elastic Constant Matrix: (Units=GPa)
#
#
# Indices 1 2 3 4 5 6 
#
# 1 128.7800 51.9360 47.4753 11.2319 24.8832 -5.2306
# 2 51.9360 74.8276 37.6068 6.2954 6.3094 -6.7690
# 3 47.4753 37.6068 111.0714 4.1186 15.8330 3.8894
# 4 11.2319 6.2954 4.1186 22.9741 -1.4734 13.1586
# 5 24.8832 6.3094 15.8330 -1.4734 35.9796 8.1087
# 6 -5.2306 -6.7690 3.8894 13.1586 8.1087 41.6248
#
#
#
# Elastic Compliance Matrix: (Units=1/GPa)
#
#
# Indices 1 2 3 4 5 6 
#
# 1 0.013938 -0.006588 -0.002328 -0.008159 -0.008971 0.005224
# 2 -0.006588 0.020655 -0.004443 -0.003659 0.001898 0.003733
# 3 -0.002328 -0.004443 0.011857 0.001271 -0.002309 -0.002075
# 4 -0.008159 -0.003659 0.001271 0.063147 0.013808 -0.024391
# 5 -0.008971 0.001898 -0.002309 0.013808 0.038036 -0.012378
# 6 0.005224 0.003733 -0.002075 -0.024391 -0.012378 0.035603
#
#
# Mechanical properties :
#
#
# Convention : Reuss Voigt Hill
#
# Bulk Modulus (GPa) = 50.68167 65.41279 58.04723
# Shear Modulus (GPa) = 23.09119 31.95978 27.52548
#
# Velocity S-wave (km/s) = 3.30077 3.88323 3.60379
# Velocity P-wave (km/s) = 6.19998 7.13929 6.68615
#
# Compressibility (1/GPa) = 0.01973100
#
# Stress axis : x y z
#
# Youngs Moduli (GPa) = 71.74798 48.41391 84.33497
#
# Poissons Ratio (x) = 0.31896 0.19637
# Poissons Ratio (y) = 0.47269 0.37471
# Poissons Ratio (z) = 0.16706 0.21511
#
# Static dielectric constant tensor:
#      x y z
#    x 3.965200 -0.037350 0.286280 
#    y -0.037350 3.796180 0.127240 
#    z 0.286280 0.127240 4.022430 
# 
# 
# High freq. dielectric constant tensor:
#      x y z
#    x 1.837620 -0.006560 0.018350 
#    y -0.006560 1.824230 0.003820 
#    z 0.018350 0.003820 1.825880 
# 
# From -- ./inp_files/84753.got.cif
#   From: 2010.06.25/outbox.cif.g09.slc.cpg/sg2_43_cif.got.tgz:84753.got - 2010.06.27 13:26:56.
