data_PCOD8004964
_publ_section_title
;
Structure prediction by ZEFSAII (Michael W. Deem and Ramdas Pophale) SiO2 
 PCOD8004964
Probable space group: P -1
;
_chemical_formula_sum "Si O2"
_cell_formula_units_Z 16
_cell_length_a 7.531179
_cell_length_b 14.323603
_cell_length_c 25.792738
_cell_angle_alpha 21.328572
_cell_angle_beta 47.341475
_cell_angle_gamma 57.864662
_cell_volume 691.039441
_symmetry_space_group_name_H-M "P -1"
_symmetry_group_IT_number 2
_symmetry_cell_setting 'triclinic'
loop_
_space_group_symop_operation_xyz
x,y,z
-x,-y,-z
loop_
_atom_site_type_symbol
_atom_site_label
_atom_site_fract_x
_atom_site_fract_y
_atom_site_fract_z
Si Si1 0.633438 0.262252 0.789159
Si Si2 0.179411 0.317811 0.306234
Si Si3 0.350704 0.461611 0.461775
Si Si4 0.372912 0.308341 0.913756
Si Si5 0.810904 0.124422 0.160422
Si Si6 0.903964 0.475629 0.364591
Si Si7 0.686773 0.088224 0.693814
Si Si8 0.569307 0.519900 0.035531
O O1 0.690565 0.487009 0.616606
O O2 0.402627 0.298030 0.850865
O O3 0.876233 0.301576 0.759511
O O4 0.561260 0.952152 0.941217
O O5 0.424621 0.398669 0.255697
O O6 0.993461 0.458640 0.296522
O O7 0.305817 0.437618 0.164013
O O8 0.000000 0.000000 0.500000
O O9 0.652348 0.556551 0.369093
O O10 0.228248 0.639692 0.428249
O O11 0.190699 0.140704 0.669976
O O12 0.093418 0.296634 0.992750
O O13 0.620747 0.030813 0.196965
O O14 0.729255 0.319570 0.116292
O O15 0.833486 0.179051 0.562126
O O16 0.747622 0.847500 0.837923
O O17 0.500000 0.500000 0.000000
#
# Coordination Sequence:
#
# PCOD8004964 Si02
#       8
#     2   2   2   2   2   2   2   2
#     4  10  22  40  62  98 133 163 208 261 324 378
#     4  11  22  40  61  83 120 171 212 253 318 377
#     4  11  21  37  68  98 125 166 213 261 317 378
#     4  10  22  40  61  90 132 165 204 270 318 374
#     4  10  21  39  60  90 128 165 211 263 315 379
#     4  10  22  41  65  93 131 167 207 264 316 379
#     4  10  20  38  63  94 126 166 212 259 318 378
#     4  10  22  39  61  88 122 163 210 259 310 375
#
# _framework density 23.153525999999999
#
# number of rings (size 3 to 8) (size 9 to 14) (size 15 to 20)
#    0.000    1.750    0.000    6.000    0.000    5.500 
#    0.000    9.375    0.000   10.500    0.000    1.750 
#    0.000    0.000    0.000    0.000    0.000    0.000 
#
# Total GULP energy -198238.203466 kJ/mol
# GULP energy per Si atom -12389.887717 kJ/mol
# Density = 2.310083 g / cm^3
# Si number density = 23.153526 Si / 1000 Ang^3
#
#
#
# Elastic Constant Matrix: (Units=GPa)
#
#
# Indices 1 2 3 4 5 6 
#
# 1 53.4882 27.5780 34.0558 -1.4544 -6.3700 9.6623
# 2 27.5780 147.5558 71.3029 12.3132 6.1647 6.4627
# 3 34.0558 71.3029 117.2081 -2.7795 0.8634 -1.8555
# 4 -1.4544 12.3132 -2.7795 52.5271 -1.9238 -0.8418
# 5 -6.3700 6.1647 0.8634 -1.9238 38.3139 7.0004
# 6 9.6623 6.4627 -1.8555 -0.8418 7.0004 26.7259
#
#
#
# Elastic Compliance Matrix: (Units=1/GPa)
#
#
# Indices 1 2 3 4 5 6 
#
# 1 0.026993 -0.001407 -0.007207 0.000766 0.007061 -0.011744
# 2 -0.001407 0.010311 -0.005953 -0.002860 -0.001521 -0.002090
# 3 -0.007207 -0.005953 0.014392 0.001992 -0.001468 0.005492
# 4 0.000766 -0.002860 0.001992 0.019899 0.001393 0.000815
# 5 0.007061 -0.001521 -0.001468 0.001393 0.029441 -0.009955
# 6 -0.011744 -0.002090 0.005492 0.000815 -0.009955 0.045182
#
#
# Mechanical properties :
#
#
# Convention : Reuss Voigt Hill
#
# Bulk Modulus (GPa) = 44.32272 64.90282 54.61277
# Shear Modulus (GPa) = 27.34141 35.86776 31.60459
#
# Velocity S-wave (km/s) = 3.44011 3.94017 3.69860
# Velocity P-wave (km/s) = 5.91301 6.98514 6.47132
#
# Compressibility (1/GPa) = 0.02256179
#
# Stress axis : x y z
#
# Youngs Moduli (GPa) = 37.04667 96.98803 69.48069
#
# Poissons Ratio (x) = 0.13646 0.50074
# Poissons Ratio (y) = 0.05212 0.41364
# Poissons Ratio (z) = 0.26699 0.57740
#
# Static dielectric constant tensor:
#      x y z
#    x 3.862140 -0.011810 -0.002680 
#    y -0.011810 4.759020 -0.191350 
#    z -0.002680 -0.191350 4.843340 
# 
# 
# High freq. dielectric constant tensor:
#      x y z
#    x 1.883530 0.012540 -0.017900 
#    y 0.012540 1.923360 0.011900 
#    z -0.017900 0.011900 1.925480 
# 
# From -- ./inp_files/617282.got.cif
#   From: 2010.06.25/outbox.cif.g09.slc.cpg/sg2_309_cif.got.tgz:617282.got - 2010.06.27 13:26:56.
