data_PCOD8004849
_publ_section_title
;
Structure prediction by ZEFSAII (Michael W. Deem and Ramdas Pophale) SiO2 
 PCOD8004849
Probable space group: P -1
;
_chemical_formula_sum "Si O2"
_cell_formula_units_Z 16
_cell_length_a 8.236379
_cell_length_b 9.301734
_cell_length_c 19.033535
_cell_angle_alpha 41.167593
_cell_angle_beta 55.066398
_cell_angle_gamma 64.988984
_cell_volume 786.837588
_symmetry_space_group_name_H-M "P -1"
_symmetry_group_IT_number 2
_symmetry_cell_setting 'triclinic'
loop_
_space_group_symop_operation_xyz
x,y,z
-x,-y,-z
loop_
_atom_site_type_symbol
_atom_site_label
_atom_site_fract_x
_atom_site_fract_y
_atom_site_fract_z
Si Si1 0.289810 0.459866 0.030725
Si Si2 0.883996 0.541991 0.164351
Si Si3 0.943789 0.333050 0.366111
Si Si4 0.346153 0.979081 0.202516
Si Si5 0.677087 0.985879 0.018658
Si Si6 0.768747 0.341015 0.770618
Si Si7 0.716008 0.989505 0.633488
Si Si8 0.587128 0.359573 0.210426
O O1 0.116801 0.557866 0.084749
O O2 0.236578 0.203695 0.130350
O O3 0.500000 0.500000 0.000000
O O4 0.295748 0.573103 0.912982
O O5 0.852115 0.496688 0.271481
O O6 0.798010 0.765528 0.073133
O O7 0.762862 0.341723 0.230541
O O8 0.767709 0.199132 0.496174
O O9 0.057965 0.476544 0.344220
O O10 0.098085 0.172299 0.348521
O O11 0.576681 0.016076 0.108836
O O12 0.242530 0.784680 0.254787
O O13 0.337758 0.926000 0.306705
O O14 0.500000 0.000000 0.000000
O O15 0.819562 0.183876 0.883332
O O16 0.559603 0.452725 0.796461
O O17 0.527737 0.869565 0.688290
#
# Coordination Sequence:
#
# PCOD8004849 Si02
#       8
#     2   2   2   2   2   2   2   2
#     4  12  22  39  64  98 131 161 206 262 319 378
#     4  12  23  39  64  98 127 164 213 257 314 383
#     4  10  23  41  60  92 122 170 224 260 302 373
#     4  11  19  38  67  90 122 170 206 258 322 377
#     4  10  20  38  62  93 129 165 199 250 329 383
#     4  10  20  39  63  89 132 167 200 257 324 370
#     4  10  22  41  65  85 123 174 221 258 311 361
#     4  11  20  38  63  92 127 169 201 260 313 377
#
# _framework density 20.334565999999999
#
# number of rings (size 3 to 8) (size 9 to 14) (size 15 to 20)
#    0.000    1.250    6.250    1.875    0.000    1.500 
#    0.000    1.875    0.000    0.000    0.000    0.000 
#    0.000    0.000    0.000    0.000    0.000    0.000 
#
# Total GULP energy -198317.343087 kJ/mol
# GULP energy per Si atom -12394.833943 kJ/mol
# Density = 2.028828 g / cm^3
# Si number density = 20.334566 Si / 1000 Ang^3
#
#
#
# Elastic Constant Matrix: (Units=GPa)
#
#
# Indices 1 2 3 4 5 6 
#
# 1 90.0324 35.2727 53.7780 0.4285 -4.6279 5.2418
# 2 35.2727 99.3228 47.5422 4.2475 -1.7285 10.9120
# 3 53.7780 47.5422 121.1252 1.2657 -9.1883 4.0250
# 4 0.4285 4.2475 1.2657 30.0779 2.1152 1.8600
# 5 -4.6279 -1.7285 -9.1883 2.1152 19.9187 -1.8486
# 6 5.2418 10.9120 4.0250 1.8600 -1.8486 31.4035
#
#
#
# Elastic Compliance Matrix: (Units=1/GPa)
#
#
# Indices 1 2 3 4 5 6 
#
# 1 0.015746 -0.002690 -0.005864 0.000419 0.000589 -0.000932
# 2 -0.002690 0.013396 -0.004042 -0.001347 -0.001527 -0.003698
# 3 -0.005864 -0.004042 0.012740 -0.000246 0.004284 0.001017
# 4 0.000419 -0.001347 -0.000246 0.033827 -0.003893 -0.001803
# 5 0.000589 -0.001527 0.004284 -0.003893 0.052897 0.003228
# 6 -0.000932 -0.003698 0.001017 -0.001803 0.003228 0.033450
#
#
# Mechanical properties :
#
#
# Convention : Reuss Voigt Hill
#
# Bulk Modulus (GPa) = 59.92096 64.85181 62.38638
# Shear Modulus (GPa) = 25.93190 27.87253 26.90222
#
# Velocity S-wave (km/s) = 3.57496 3.70631 3.64122
# Velocity P-wave (km/s) = 6.82436 7.09065 6.95878
#
# Compressibility (1/GPa) = 0.01668865
#
# Stress axis : x y z
#
# Youngs Moduli (GPa) = 63.50695 74.65008 78.49434
#
# Poissons Ratio (x) = 0.20084 0.46028
# Poissons Ratio (y) = 0.17086 0.31730
# Poissons Ratio (z) = 0.37240 0.30176
#
# Static dielectric constant tensor:
#      x y z
#    x 3.982880 0.281390 -0.075380 
#    y 0.281390 3.780060 -0.020540 
#    z -0.075380 -0.020540 3.885330 
# 
# 
# High freq. dielectric constant tensor:
#      x y z
#    x 1.780820 0.015660 -0.009150 
#    y 0.015660 1.788060 -0.002090 
#    z -0.009150 -0.002090 1.790350 
# 
# From -- ./inp_files/587746.got.cif
#   From: 2010.06.25/outbox.cif.g09.slc.cpg/sg2_294_cif.got.tgz:587746.got - 2010.06.27 13:26:56.
