data_PCOD8004214
_publ_section_title
;
Structure prediction by ZEFSAII (Michael W. Deem and Ramdas Pophale) SiO2 
 PCOD8004214
Probable space group: P -1
;
_chemical_formula_sum "Si O2"
_cell_formula_units_Z 16
_cell_length_a 11.952096
_cell_length_b 9.117346
_cell_length_c 9.017702
_cell_angle_alpha 49.208449
_cell_angle_beta 79.325401
_cell_angle_gamma 75.593032
_cell_volume 720.231606
_symmetry_space_group_name_H-M "P -1"
_symmetry_group_IT_number 2
_symmetry_cell_setting 'triclinic'
loop_
_space_group_symop_operation_xyz
x,y,z
-x,-y,-z
loop_
_atom_site_type_symbol
_atom_site_label
_atom_site_fract_x
_atom_site_fract_y
_atom_site_fract_z
Si Si1 0.522324 0.774747 0.295584
Si Si2 0.269291 0.711208 0.050190
Si Si3 0.763066 0.655164 0.868429
Si Si4 0.866453 0.545305 0.226761
Si Si5 0.515070 0.787237 0.947544
Si Si6 0.689993 0.404735 0.562097
Si Si7 0.051064 0.178432 0.441841
Si Si8 0.906741 0.906779 0.175265
O O1 0.607904 0.614348 0.474091
O O2 0.388909 0.752823 0.364142
O O3 0.536224 0.984489 0.215494
O O4 0.557591 0.747660 0.132101
O O5 0.407652 0.678078 0.008317
O O6 0.210160 0.934449 0.883985
O O7 0.211290 0.564964 0.058771
O O8 0.242858 0.663077 0.258737
O O9 0.624406 0.721846 0.858266
O O10 0.818861 0.812287 0.652990
O O11 0.817743 0.653542 0.018429
O O12 0.778978 0.413211 0.402872
O O13 0.882392 0.712298 0.229389
O O14 0.982222 0.391434 0.267377
O O15 0.044647 0.156326 0.633636
O O16 0.000000 0.000000 0.500000
O O17 0.000000 0.000000 0.000000
#
# Coordination Sequence:
#
# PCOD8004214 Si02
#       8
#     2   2   2   2   2   2   2   2
#     4   9  19  37  62  97 127 167 224 271 304 387
#     4  11  24  42  66  97 139 171 217 275 329 389
#     4  12  25  43  64  99 138 175 211 271 340 391
#     4  12  24  42  72  95 127 176 224 268 328 392
#     4  10  21  39  66  94 136 176 218 263 332 387
#     4  10  20  37  65  94 127 168 220 267 319 379
#     4  12  27  46  67  99 135 169 219 277 336 392
#     4  12  25  46  71  97 127 175 228 274 323 387
#
# _framework density 22.215077000000001
#
# number of rings (size 3 to 8) (size 9 to 14) (size 15 to 20)
#    0.000    1.000    1.250    5.625    5.250    0.000 
#    0.000    1.250    0.000    0.000    0.000    0.000 
#    0.000    0.000    0.000    0.000    0.000    0.000 
#
# Total GULP energy -198478.399377 kJ/mol
# GULP energy per Si atom -12404.899961 kJ/mol
# Density = 2.216451 g / cm^3
# Si number density = 22.215077 Si / 1000 Ang^3
#
#
#
# Elastic Constant Matrix: (Units=GPa)
#
#
# Indices 1 2 3 4 5 6 
#
# 1 83.8313 35.0858 34.4655 5.7102 -15.0620 -4.4856
# 2 35.0858 98.8083 17.1501 -11.7829 -5.3629 19.5885
# 3 34.4655 17.1501 90.6049 4.8495 -20.1225 9.4023
# 4 5.7102 -11.7829 4.8495 34.6077 -4.2378 -1.7186
# 5 -15.0620 -5.3629 -20.1225 -4.2378 48.0583 4.5023
# 6 -4.4856 19.5885 9.4023 -1.7186 4.5023 37.1326
#
#
#
# Elastic Compliance Matrix: (Units=1/GPa)
#
#
# Indices 1 2 3 4 5 6 
#
# 1 0.018303 -0.007338 -0.005769 -0.004175 0.001462 0.007172
# 2 -0.007338 0.015126 0.000773 0.005941 0.001071 -0.008917
# 3 -0.005769 0.000773 0.014776 -0.000523 0.004931 -0.005468
# 4 -0.004175 0.005941 -0.000523 0.031830 0.002157 -0.002294
# 5 0.001462 0.001071 0.004931 0.002157 0.024058 -0.004454
# 6 0.007172 -0.008917 -0.005468 -0.002294 -0.004454 0.034319
#
#
# Mechanical properties :
#
#
# Convention : Reuss Voigt Hill
#
# Bulk Modulus (GPa) = 42.48716 49.62749 46.05732
# Shear Modulus (GPa) = 29.25237 36.39591 32.82414
#
# Velocity S-wave (km/s) = 3.63268 4.05204 3.84808
# Velocity P-wave (km/s) = 6.06317 6.65433 6.36562
#
# Compressibility (1/GPa) = 0.02353652
#
# Stress axis : x y z
#
# Youngs Moduli (GPa) = 54.63678 66.10968 67.67821
#
# Poissons Ratio (x) = 0.48512 0.39047
# Poissons Ratio (y) = 0.40093 -0.05235
# Poissons Ratio (z) = 0.31523 -0.05113
#
# Static dielectric constant tensor:
#      x y z
#    x 4.104380 -0.010220 -0.197090 
#    y -0.010220 3.820840 -0.106560 
#    z -0.197090 -0.106560 4.118510 
# 
# 
# High freq. dielectric constant tensor:
#      x y z
#    x 1.884840 -0.000150 -0.010780 
#    y -0.000150 1.863920 -0.009660 
#    z -0.010780 -0.009660 1.880530 
# 
# From -- ./inp_files/242000.got.cif
#   From: 2010.06.25/outbox.cif.g09.slc.cpg/sg2_121_cif.got.tgz:242000.got - 2010.06.27 13:26:56.
