data_PCOD8004454
_publ_section_title
;
Structure prediction by ZEFSAII (Michael W. Deem and Ramdas Pophale) SiO2 
 PCOD8004454
Probable space group: P -1
;
_chemical_formula_sum "Si O2"
_cell_formula_units_Z 16
_cell_length_a 6.863578
_cell_length_b 16.651641
_cell_length_c 8.189032
_cell_angle_alpha 103.891142
_cell_angle_beta 124.209838
_cell_angle_gamma 76.640265
_cell_volume 745.955779
_symmetry_space_group_name_H-M "P -1"
_symmetry_group_IT_number 2
_symmetry_cell_setting 'triclinic'
loop_
_space_group_symop_operation_xyz
x,y,z
-x,-y,-z
loop_
_atom_site_type_symbol
_atom_site_label
_atom_site_fract_x
_atom_site_fract_y
_atom_site_fract_z
Si Si1 0.736017 0.517920 0.526439
Si Si2 0.408808 0.842200 0.275736
Si Si3 0.421930 0.092000 0.943371
Si Si4 0.630138 0.708714 0.544242
Si Si5 0.883381 0.273940 0.106722
Si Si6 0.291691 0.784531 0.675817
Si Si7 0.935966 0.088327 0.596449
Si Si8 0.757449 0.457165 0.159232
O O1 0.500000 0.500000 0.500000
O O2 0.692369 0.612058 0.478541
O O3 0.759498 0.454360 0.355296
O O4 0.987538 0.505811 0.744281
O O5 0.507919 0.898249 0.209849
O O6 0.601934 0.768423 0.400152
O O7 0.307110 0.902573 0.406551
O O8 0.196980 0.796672 0.079567
O O9 0.139020 0.107060 0.826684
O O10 0.516255 0.159533 0.136020
O O11 0.500000 0.000000 0.000000
O O12 0.396393 0.721391 0.552868
O O13 0.833968 0.736871 0.770271
O O14 0.806393 0.268502 0.255515
O O15 0.773881 0.365824 0.041868
O O16 0.079244 0.845784 0.525966
O O17 0.000000 0.000000 0.500000
O O18 0.500000 0.500000 0.000000
#
# Coordination Sequence:
#
# PCOD8004454 Si02
#       8
#     2   2   2   2   2   2   2   2
#     4  10  21  37  59  90 121 156 198 243 294 347
#     4  10  23  38  59  83 112 152 193 236 290 343
#     4  11  22  39  56  83 112 144 190 240 288 342
#     4  10  20  38  59  82 115 153 193 235 285 349
#     4  10  20  38  59  82 113 154 190 235 289 344
#     4  10  21  38  57  81 112 147 192 236 286 344
#     4  11  22  39  56  83 111 144 190 239 289 343
#     4  10  21  37  59  88 122 154 198 243 292 349
#
# _framework density 21.448993000000002
#
# number of rings (size 3 to 8) (size 9 to 14) (size 15 to 20)
#    0.000    1.750    1.250    3.000    0.000    1.500 
#    2.250    6.250    0.000    0.000    0.000    0.000 
#    0.000    0.000    0.000    0.000    0.000    0.000 
#
# Total GULP energy -198256.119350 kJ/mol
# GULP energy per Si atom -12391.007459 kJ/mol
# Density = 2.140017 g / cm^3
# Si number density = 21.448993 Si / 1000 Ang^3
#
#
#
# Elastic Constant Matrix: (Units=GPa)
#
#
# Indices 1 2 3 4 5 6 
#
# 1 78.3833 29.2926 13.6114 -6.6447 8.7932 -1.0632
# 2 29.2926 84.0933 29.7011 -14.4819 6.0069 -3.7254
# 3 13.6114 29.7011 82.4968 -27.7559 17.6610 -4.8101
# 4 -6.6447 -14.4819 -27.7559 35.0878 -7.8871 -3.6276
# 5 8.7932 6.0069 17.6610 -7.8871 40.5811 0.1105
# 6 -1.0632 -3.7254 -4.8101 -3.6276 0.1105 24.8556
#
#
#
# Elastic Compliance Matrix: (Units=1/GPa)
#
#
# Indices 1 2 3 4 5 6 
#
# 1 0.014914 -0.004963 -0.000119 0.000128 -0.002420 -0.000099
# 2 -0.004963 0.015493 -0.003958 0.002735 0.001032 0.001738
# 3 -0.000119 -0.003958 0.019371 0.012999 -0.005306 0.005071
# 4 0.000128 0.002735 0.012999 0.041290 0.001911 0.008949
# 5 -0.002420 0.001032 -0.005306 0.001911 0.027697 -0.000820
# 6 -0.000099 0.001738 0.005071 0.008949 -0.000820 0.042780
#
#
# Mechanical properties :
#
#
# Convention : Reuss Voigt Hill
#
# Bulk Modulus (GPa) = 31.54679 43.35373 37.45026
# Shear Modulus (GPa) = 26.28948 31.59614 28.94281
#
# Velocity S-wave (km/s) = 3.50476 3.84224 3.67737
# Velocity P-wave (km/s) = 5.57831 6.31982 5.96061
#
# Compressibility (1/GPa) = 0.03169894
#
# Stress axis : x y z
#
# Youngs Moduli (GPa) = 67.05096 64.54707 51.62230
#
# Poissons Ratio (x) = 0.32033 0.00613
# Poissons Ratio (y) = 0.33275 0.20433
# Poissons Ratio (z) = 0.00796 0.25549
#
# Static dielectric constant tensor:
#      x y z
#    x 3.762660 -0.005990 0.253500 
#    y -0.005990 3.812820 -0.072470 
#    z 0.253500 -0.072470 3.886080 
# 
# 
# High freq. dielectric constant tensor:
#      x y z
#    x 1.835330 -0.013460 0.011050 
#    y -0.013460 1.839630 -0.000810 
#    z 0.011050 -0.000810 1.848840 
# 
# From -- ./inp_files/52389.got.cif
#   From: 2010.06.25/outbox.cif.g09.slc.cpg/sg2_27_cif.got.tgz:52389.got - 2010.06.27 13:26:56.
