data_PCOD8004753
_publ_section_title
;
Structure prediction by ZEFSAII (Michael W. Deem and Ramdas Pophale) SiO2 
 PCOD8004753
Probable space group: P -1
;
_chemical_formula_sum "Si O2"
_cell_formula_units_Z 16
_cell_length_a 13.150282
_cell_length_b 19.939613
_cell_length_c 12.450570
_cell_angle_alpha 28.422728
_cell_angle_beta 40.676575
_cell_angle_gamma 32.783152
_cell_volume 839.083474
_symmetry_space_group_name_H-M "P -1"
_symmetry_group_IT_number 2
_symmetry_cell_setting 'triclinic'
loop_
_space_group_symop_operation_xyz
x,y,z
-x,-y,-z
loop_
_atom_site_type_symbol
_atom_site_label
_atom_site_fract_x
_atom_site_fract_y
_atom_site_fract_z
Si Si1 0.017512 0.707326 0.672988
Si Si2 0.726996 0.053202 0.486418
Si Si3 0.443171 0.870518 0.252326
Si Si4 0.840598 0.591602 0.353444
Si Si5 0.107848 0.473004 0.118499
Si Si6 0.098566 0.970208 0.236868
Si Si7 0.578431 0.842978 0.579031
Si Si8 0.113201 0.235206 0.725737
O O1 0.120694 0.797185 0.420445
O O2 0.995521 0.612763 0.725310
O O3 0.134471 0.578311 0.858473
O O4 0.812186 0.852637 0.681871
O O5 0.620838 0.117519 0.591840
O O6 0.584384 0.154546 0.359796
O O7 0.900214 0.078326 0.309554
O O8 0.628210 0.678957 0.355730
O O9 0.276473 0.910944 0.251275
O O10 0.500000 0.000000 0.000000
O O11 0.826734 0.711082 0.292024
O O12 0.976128 0.591694 0.154517
O O13 0.923077 0.400173 0.596918
O O14 0.315674 0.331500 0.192921
O O15 0.082021 0.087097 0.987065
O O16 0.720973 0.846028 0.378869
O O17 0.500000 0.000000 0.500000
#
# Coordination Sequence:
#
# PCOD8004753 Si02
#       8
#     2   2   2   2   2   2   2   2
#     4   9  21  38  58  85 119 152 194 236 294 334
#     4  10  21  36  57  88 117 150 196 239 288 343
#     4  12  20  36  61  89 115 157 198 236 291 348
#     4  10  21  35  60  86 115 155 197 236 285 348
#     4  10  20  38  62  85 119 156 194 238 289 348
#     4  10  22  39  58  88 121 152 189 249 292 338
#     4  11  19  38  63  87 108 154 201 235 283 352
#     4  10  21  39  59  85 119 151 193 242 293 345
#
# _framework density 19.068424
#
# number of rings (size 3 to 8) (size 9 to 14) (size 15 to 20)
#    0.750    1.000    3.750    1.125    0.000    0.000 
#    2.250    6.875    0.000    0.000    0.000    0.000 
#    0.000    0.000    0.000    0.000    0.000    0.000 
#
# Total GULP energy -198319.585430 kJ/mol
# GULP energy per Si atom -12394.974089 kJ/mol
# Density = 1.902502 g / cm^3
# Si number density = 19.068424 Si / 1000 Ang^3
#
#
#
# Elastic Constant Matrix: (Units=GPa)
#
#
# Indices 1 2 3 4 5 6 
#
# 1 79.6132 28.5738 46.0161 -11.5634 6.6846 -28.5184
# 2 28.5738 106.8753 30.0072 -4.8906 5.0257 -16.1570
# 3 46.0161 30.0072 120.4116 -14.8653 -1.5594 -13.4321
# 4 -11.5634 -4.8906 -14.8653 20.8039 -4.4450 5.1011
# 5 6.6846 5.0257 -1.5594 -4.4450 28.8064 -4.6160
# 6 -28.5184 -16.1570 -13.4321 5.1011 -4.6160 40.5818
#
#
#
# Elastic Compliance Matrix: (Units=1/GPa)
#
#
# Indices 1 2 3 4 5 6 
#
# 1 0.021764 -0.002053 -0.006055 0.003875 -0.002548 0.011696
# 2 -0.002053 0.010758 -0.001749 -0.000668 -0.001245 0.002204
# 3 -0.006055 -0.001749 0.011610 0.005509 0.002954 -0.001466
# 4 0.003875 -0.000668 0.005509 0.056146 0.007878 -0.001881
# 5 -0.002548 -0.001245 0.002954 0.007878 0.037208 0.001934
# 6 0.011696 0.002204 -0.001466 -0.001881 0.001934 0.033709
#
#
# Mechanical properties :
#
#
# Convention : Reuss Voigt Hill
#
# Bulk Modulus (GPa) = 40.95674 57.34381 49.15028
# Shear Modulus (GPa) = 25.11941 31.52529 28.32235
#
# Velocity S-wave (km/s) = 3.63344 4.07046 3.85814
# Velocity P-wave (km/s) = 6.25524 7.22699 6.75860
#
# Compressibility (1/GPa) = 0.02441600
#
# Stress axis : x y z
#
# Youngs Moduli (GPa) = 45.94722 92.95551 86.13443
#
# Poissons Ratio (x) = 0.19087 0.52159
# Poissons Ratio (y) = 0.09434 0.15065
# Poissons Ratio (z) = 0.27823 0.16258
#
# Static dielectric constant tensor:
#      x y z
#    x 3.470000 -0.147850 0.248640 
#    y -0.147850 3.537930 -0.130320 
#    z 0.248640 -0.130320 3.462990 
# 
# 
# High freq. dielectric constant tensor:
#      x y z
#    x 1.733950 -0.008780 0.025750 
#    y -0.008780 1.742540 -0.007060 
#    z 0.025750 -0.007060 1.733620 
# 
# From -- ./inp_files/457415.got.cif
#   From: 2010.06.25/outbox.cif.g09.slc.cpg/sg2_229_cif.got.tgz:457415.got - 2010.06.27 13:26:56.
