data_PCOD8004167
_publ_section_title
;
Structure prediction by ZEFSAII (Michael W. Deem and Ramdas Pophale) SiO2 
 PCOD8004167
Probable space group: P -1
;
_chemical_formula_sum "Si O2"
_cell_formula_units_Z 16
_cell_length_a 16.923498
_cell_length_b 9.647188
_cell_length_c 11.749301
_cell_angle_alpha 131.628421
_cell_angle_beta 28.944653
_cell_angle_gamma 119.280419
_cell_volume 670.985871
_symmetry_space_group_name_H-M "P -1"
_symmetry_group_IT_number 2
_symmetry_cell_setting 'triclinic'
loop_
_space_group_symop_operation_xyz
x,y,z
-x,-y,-z
loop_
_atom_site_type_symbol
_atom_site_label
_atom_site_fract_x
_atom_site_fract_y
_atom_site_fract_z
Si Si1 0.387672 0.393573 0.156976
Si Si2 0.627989 0.677899 0.606919
Si Si3 0.062133 0.193638 0.737962
Si Si4 0.479182 0.032813 0.290369
Si Si5 0.983757 0.495482 0.384779
Si Si6 0.317831 0.689490 0.802676
Si Si7 0.116548 0.134214 0.888386
Si Si8 0.874716 0.157817 0.669313
O O1 0.443944 0.374990 0.210211
O O2 0.197903 0.513949 0.439057
O O3 0.500000 0.500000 0.000000
O O4 0.402506 0.179905 0.977133
O O5 0.825492 0.668981 0.378731
O O6 0.559910 0.886215 0.746066
O O7 0.599970 0.529352 0.461082
O O8 0.043059 0.229277 0.914930
O O9 0.152971 0.965267 0.473587
O O10 0.876186 0.259721 0.959409
O O11 0.581199 0.166881 0.301511
O O12 0.312353 0.022961 0.564929
O O13 0.000000 0.500000 0.500000
O O14 0.027572 0.683757 0.388622
O O15 0.114155 0.302291 0.072744
O O16 0.304066 0.736923 0.984107
O O17 0.000000 0.000000 0.000000
O O18 0.000000 0.000000 0.500000
#
# Coordination Sequence:
#
# PCOD8004167 Si02
#       8
#     2   2   2   2   2   2   2   2
#     4  12  26  46  68  98 135 178 225 278 335 395
#     4  11  23  42  67  98 135 179 222 272 334 405
#     4  10  20  38  66  96 132 180 224 269 327 400
#     4  11  25  43  68 101 136 173 221 281 337 391
#     4  12  26  45  68  97 133 179 225 273 333 402
#     4  11  21  38  66 101 133 170 222 281 330 387
#     4  11  24  45  67  96 134 179 225 273 333 403
#     4  10  20  37  64  97 131 168 216 271 327 389
#
# _framework density 23.845510999999998
#
# number of rings (size 3 to 8) (size 9 to 14) (size 15 to 20)
#    0.000    1.000    0.000    8.625    0.000    4.000 
#    0.000    1.875    0.000    0.000    0.000    0.000 
#    0.000    0.000    0.000    0.000    0.000    0.000 
#
# Total GULP energy -198322.531011 kJ/mol
# GULP energy per Si atom -12395.158188 kJ/mol
# Density = 2.379124 g / cm^3
# Si number density = 23.845511 Si / 1000 Ang^3
#
#
#
# Elastic Constant Matrix: (Units=GPa)
#
#
# Indices 1 2 3 4 5 6 
#
# 1 62.9051 23.6020 11.6356 -0.2800 28.3413 5.0933
# 2 23.6020 157.5536 35.3675 -17.1123 13.7909 14.1237
# 3 11.6356 35.3675 87.7082 -3.7698 24.7762 -7.7866
# 4 -0.2800 -17.1123 -3.7698 50.4212 6.7957 0.5555
# 5 28.3413 13.7909 24.7762 6.7957 39.7330 -0.5408
# 6 5.0933 14.1237 -7.7866 0.5555 -0.5408 39.6128
#
#
#
# Elastic Compliance Matrix: (Units=1/GPa)
#
#
# Indices 1 2 3 4 5 6 
#
# 1 0.025128 -0.002305 0.002981 0.002217 -0.019390 -0.002119
# 2 -0.002305 0.007918 -0.003186 0.002414 0.000427 -0.003181
# 3 0.002981 -0.003186 0.015823 0.001575 -0.011106 0.003689
# 4 0.002217 0.002414 0.001575 0.021758 -0.007139 -0.001239
# 5 -0.019390 0.000427 -0.011106 -0.007139 0.047009 0.000900
# 6 -0.002119 -0.003181 0.003689 -0.001239 0.000900 0.027406
#
#
# Mechanical properties :
#
#
# Convention : Reuss Voigt Hill
#
# Bulk Modulus (GPa) = 22.80640 49.93076 36.36858
# Shear Modulus (GPa) = 30.36200 41.79085 36.07643
#
# Velocity S-wave (km/s) = 3.57218 4.19091 3.89385
# Velocity P-wave (km/s) = 5.15741 6.66356 5.95827
#
# Compressibility (1/GPa) = 0.04384735
#
# Stress axis : x y z
#
# Youngs Moduli (GPa) = 39.79606 126.30203 63.19773
#
# Poissons Ratio (x) = 0.29118 -0.18837
# Poissons Ratio (y) = 0.09175 0.20135
# Poissons Ratio (z) = -0.11862 0.40241
#
# Static dielectric constant tensor:
#      x y z
#    x 4.616920 0.242680 0.489420 
#    y 0.242680 3.854680 0.113680 
#    z 0.489420 0.113680 5.008150 
# 
# 
# High freq. dielectric constant tensor:
#      x y z
#    x 1.941770 0.025310 -0.001320 
#    y 0.025310 1.950070 -0.003280 
#    z -0.001320 -0.003280 1.962230 
# 
# From -- ./inp_files/462390.got.cif
#   From: 2010.06.25/outbox.cif.g09.slc.cpg/sg2_232_cif.got.tgz:462390.got - 2010.06.27 13:26:56.
