data_PCOD8004391
_publ_section_title
;
Structure prediction by ZEFSAII (Michael W. Deem and Ramdas Pophale) SiO2 
 PCOD8004391
Probable space group: P -1
;
_chemical_formula_sum "Si O2"
_cell_formula_units_Z 16
_cell_length_a 9.974930
_cell_length_b 13.465830
_cell_length_c 16.988000
_cell_angle_alpha 49.201515
_cell_angle_beta 107.881598
_cell_angle_gamma 147.092334
_cell_volume 759.616521
_symmetry_space_group_name_H-M "P -1"
_symmetry_group_IT_number 2
_symmetry_cell_setting 'triclinic'
loop_
_space_group_symop_operation_xyz
x,y,z
-x,-y,-z
loop_
_atom_site_type_symbol
_atom_site_label
_atom_site_fract_x
_atom_site_fract_y
_atom_site_fract_z
Si Si1 0.656608 0.638914 0.832437
Si Si2 0.869952 0.506044 0.576683
Si Si3 0.362619 0.583947 0.924182
Si Si4 0.678996 0.094588 0.675643
Si Si5 0.363715 0.274405 0.647628
Si Si6 0.529505 0.362361 0.809045
Si Si7 0.916189 0.351747 0.293839
Si Si8 0.798504 0.163520 0.957817
O O1 0.453600 0.591559 0.852708
O O2 0.564482 0.517638 0.791168
O O3 0.575676 0.451442 0.971138
O O4 0.007453 0.969514 0.725439
O O5 0.821126 0.313992 0.648141
O O6 0.533625 0.283522 0.646051
O O7 0.047307 0.727360 0.424221
O O8 0.088612 0.703443 0.589420
O O9 0.003824 0.324003 0.991254
O O10 0.564331 0.879952 0.818717
O O11 0.410125 0.937193 0.656209
O O12 0.500000 0.500000 0.500000
O O13 0.421223 0.335893 0.720133
O O14 0.842095 0.538071 0.767470
O O15 0.284379 0.057039 0.962050
O O16 0.000000 0.577778 0.197634
O O17 0.500000 0.000000 0.000000
#
# Coordination Sequence:
#
# PCOD8004391 Si02
#       8
#     2   2   2   2   2   2   2   2
#     4  11  23  40  60  88 123 159 205 244 297 361
#     4  10  21  36  61  86 117 155 199 241 299 355
#     4  10  22  40  59  88 125 160 198 254 296 349
#     4  10  20  38  57  87 117 155 197 242 300 349
#     4  11  23  42  61  86 122 158 199 252 296 359
#     4  10  21  38  60  88 118 158 200 245 299 359
#     4   9  19  35  57  86 119 149 193 249 296 347
#     4   9  18  37  58  87 119 152 193 242 301 351
#
# _framework density 21.06326
#
# number of rings (size 3 to 8) (size 9 to 14) (size 15 to 20)
#    0.000    2.000    1.250    1.875    1.750    1.000 
#    0.000    8.750    0.000    0.000    0.000    0.000 
#    0.000    0.000    0.000    0.000    0.000    0.000 
#
# Total GULP energy -198240.727722 kJ/mol
# GULP energy per Si atom -12390.045483 kJ/mol
# Density = 2.101532 g / cm^3
# Si number density = 21.063260 Si / 1000 Ang^3
#
#
#
# Elastic Constant Matrix: (Units=GPa)
#
#
# Indices 1 2 3 4 5 6 
#
# 1 29.3819 13.1254 12.7578 9.1018 -1.9958 -1.6639
# 2 13.1254 74.2368 22.1294 -2.8858 -6.2481 -8.1652
# 3 12.7578 22.1294 75.4305 -7.0215 2.5694 -6.9068
# 4 9.1018 -2.8858 -7.0215 29.7986 2.7471 -3.6977
# 5 -1.9958 -6.2481 2.5694 2.7471 28.8688 0.4561
# 6 -1.6639 -8.1652 -6.9068 -3.6977 0.4561 30.1053
#
#
#
# Elastic Compliance Matrix: (Units=1/GPa)
#
#
# Indices 1 2 3 4 5 6 
#
# 1 0.045773 -0.006409 -0.007902 -0.017246 0.004172 -0.003203
# 2 -0.006409 0.016330 -0.003200 0.002959 0.003037 0.003658
# 3 -0.007902 -0.003200 0.016586 0.006746 -0.003410 0.003381
# 4 -0.017246 0.002959 0.006746 0.042010 -0.005255 0.006637
# 5 0.004172 0.003037 -0.003410 -0.005255 0.036403 -0.000925
# 6 -0.003203 0.003658 0.003381 0.006637 -0.000925 0.035637
#
#
# Mechanical properties :
#
#
# Convention : Reuss Voigt Hill
#
# Bulk Modulus (GPa) = 22.90030 30.56383 26.73207
# Shear Modulus (GPa) = 20.63403 26.49031 23.56217
#
# Velocity S-wave (km/s) = 3.13329 3.55019 3.34823
# Velocity P-wave (km/s) = 4.89752 5.59885 5.25989
#
# Compressibility (1/GPa) = 0.04366754
#
# Stress axis : x y z
#
# Youngs Moduli (GPa) = 21.84694 61.23558 60.29081
#
# Poissons Ratio (x) = 0.39244 0.47644
# Poissons Ratio (y) = 0.14001 0.19293
# Poissons Ratio (z) = 0.17264 0.19596
#
# Static dielectric constant tensor:
#      x y z
#    x 3.849750 0.161960 -0.037450 
#    y 0.161960 3.733840 -0.173230 
#    z -0.037450 -0.173230 4.125430 
# 
# 
# High freq. dielectric constant tensor:
#      x y z
#    x 1.816880 0.012780 0.000510 
#    y 0.012780 1.816830 -0.010090 
#    z 0.000510 -0.010090 1.832180 
# 
# From -- ./inp_files/273552.got.cif
#   From: 2010.06.25/outbox.cif.g09.slc.cpg/sg2_137_cif.got.tgz:273552.got - 2010.06.27 13:26:56.
