data_PCOD8004658
_publ_section_title
;
Structure prediction by ZEFSAII (Michael W. Deem and Ramdas Pophale) SiO2 
 PCOD8004658
Probable space group: P -1
;
_chemical_formula_sum "Si O2"
_cell_formula_units_Z 16
_cell_length_a 15.395400
_cell_length_b 22.656647
_cell_length_c 10.173902
_cell_angle_alpha 126.216770
_cell_angle_beta 112.699616
_cell_angle_gamma 19.886690
_cell_volume 765.369562
_symmetry_space_group_name_H-M "P -1"
_symmetry_group_IT_number 2
_symmetry_cell_setting 'triclinic'
loop_
_space_group_symop_operation_xyz
x,y,z
-x,-y,-z
loop_
_atom_site_type_symbol
_atom_site_label
_atom_site_fract_x
_atom_site_fract_y
_atom_site_fract_z
Si Si1 0.981603 0.204591 0.052716
Si Si2 0.773155 0.572191 0.219415
Si Si3 0.668864 0.851605 0.219665
Si Si4 0.300981 0.034700 0.442765
Si Si5 0.230049 0.879840 0.653230
Si Si6 0.706320 0.410729 0.437913
Si Si7 0.434211 0.686364 0.232439
Si Si8 0.216563 0.194529 0.188509
O O1 0.872478 0.256136 0.199574
O O2 0.667725 0.445199 0.090600
O O3 0.149182 0.158286 0.104943
O O4 0.234183 0.959551 0.814859
O O5 0.488617 0.842903 0.401669
O O6 0.624838 0.602328 0.141431
O O7 0.907374 0.469836 0.314702
O O8 0.057068 0.377387 0.024033
O O9 0.554044 0.865837 0.252186
O O10 0.806468 0.811797 0.342974
O O11 0.341468 0.125417 0.314703
O O12 0.979437 0.233914 0.466547
O O13 0.479608 0.647900 0.580761
O O14 0.322643 0.811303 0.464244
O O15 0.867235 0.117816 0.770985
O O16 0.500000 0.500000 0.500000
O O17 0.500000 0.000000 0.000000
#
# Coordination Sequence:
#
# PCOD8004658 Si02
#       8
#     2   2   2   2   2   2   2   2
#     4  10  20  38  61  85 122 160 199 256 302 360
#     4  10  21  37  63  88 120 156 200 254 309 357
#     4  10  22  41  60  86 123 159 206 255 302 362
#     4  11  23  40  60  87 123 164 204 249 305 364
#     4  10  21  38  61  88 120 164 199 247 314 356
#     4  11  24  40  59  88 126 160 207 252 293 369
#     4   9  20  37  59  92 121 150 203 253 300 366
#     4   9  19  39  60  89 117 152 204 252 299 358
#
# _framework density 20.904933
#
# number of rings (size 3 to 8) (size 9 to 14) (size 15 to 20)
#    0.000    2.000    1.250    1.500    0.000    6.000 
#    9.000    0.000    0.000    0.000    0.000    0.000 
#    0.000    0.000    0.000    0.000    0.000    0.000 
#
# Total GULP energy -198349.483877 kJ/mol
# GULP energy per Si atom -12396.842742 kJ/mol
# Density = 2.085735 g / cm^3
# Si number density = 20.904933 Si / 1000 Ang^3
#
#
#
# Elastic Constant Matrix: (Units=GPa)
#
#
# Indices 1 2 3 4 5 6 
#
# 1 105.1766 38.3632 23.9329 -3.2073 -9.9320 -5.3840
# 2 38.3632 125.3735 14.9959 5.8730 12.6770 -1.0060
# 3 23.9329 14.9959 61.4369 3.5244 9.2949 4.5190
# 4 -3.2073 5.8730 3.5244 22.8543 1.6931 -0.2247
# 5 -9.9320 12.6770 9.2949 1.6931 25.1154 5.2208
# 6 -5.3840 -1.0060 4.5190 -0.2247 5.2208 36.1027
#
#
#
# Elastic Compliance Matrix: (Units=1/GPa)
#
#
# Indices 1 2 3 4 5 6 
#
# 1 0.013540 -0.004528 -0.005864 0.003290 0.009318 0.001300
# 2 -0.004528 0.010150 0.000467 -0.002791 -0.007012 0.000546
# 3 -0.005864 0.000467 0.020211 -0.003385 -0.009379 -0.002056
# 4 0.003290 -0.002791 -0.003385 0.045415 0.000689 0.001020
# 5 0.009318 -0.007012 -0.009379 0.000689 0.051521 -0.005078
# 6 0.001300 0.000546 -0.002056 0.001020 -0.005078 0.028906
#
#
# Mechanical properties :
#
#
# Convention : Reuss Voigt Hill
#
# Bulk Modulus (GPa) = 41.57457 49.61901 45.59679
# Shear Modulus (GPa) = 25.30237 31.12746 28.21492
#
# Velocity S-wave (km/s) = 3.48279 3.86294 3.67778
# Velocity P-wave (km/s) = 6.00864 6.60935 6.31614
#
# Compressibility (1/GPa) = 0.02405317
#
# Stress axis : x y z
#
# Youngs Moduli (GPa) = 73.85296 98.52349 49.47689
#
# Poissons Ratio (x) = 0.44609 0.29012
# Poissons Ratio (y) = 0.33439 -0.02311
# Poissons Ratio (z) = 0.43305 -0.04603
#
# Static dielectric constant tensor:
#      x y z
#    x 3.800970 0.041620 -0.232250 
#    y 0.041620 4.428890 -0.056000 
#    z -0.232250 -0.056000 3.424980 
# 
# 
# High freq. dielectric constant tensor:
#      x y z
#    x 1.826630 -0.003060 -0.014570 
#    y -0.003060 1.833210 0.003380 
#    z -0.014570 0.003380 1.787650 
# 
# From -- ./inp_files/319445.got.cif
#   From: 2010.06.25/outbox.cif.g09.slc.cpg/sg2_160_cif.got.tgz:319445.got - 2010.06.27 13:26:56.
