data_PCOD8004913
_publ_section_title
;
Structure prediction by ZEFSAII (Michael W. Deem and Ramdas Pophale) SiO2 
 PCOD8004913
Probable space group: P -1
;
_chemical_formula_sum "Si O2"
_cell_formula_units_Z 16
_cell_length_a 14.009022
_cell_length_b 13.712970
_cell_length_c 11.265722
_cell_angle_alpha 137.729842
_cell_angle_beta 30.136891
_cell_angle_gamma 139.742805
_cell_volume 680.494983
_symmetry_space_group_name_H-M "P -1"
_symmetry_group_IT_number 2
_symmetry_cell_setting 'triclinic'
loop_
_space_group_symop_operation_xyz
x,y,z
-x,-y,-z
loop_
_atom_site_type_symbol
_atom_site_label
_atom_site_fract_x
_atom_site_fract_y
_atom_site_fract_z
Si Si1 0.816789 0.212541 0.314824
Si Si2 0.617457 0.840055 0.862335
Si Si3 0.879342 0.447909 0.724830
Si Si4 0.946336 0.091162 0.841434
Si Si5 0.238517 0.641442 0.973835
Si Si6 0.170553 0.340610 0.656640
Si Si7 0.500884 0.738791 0.151599
Si Si8 0.959690 0.821394 0.748185
O O1 0.584549 0.179326 0.577905
O O2 0.944498 0.395631 0.366789
O O3 0.923493 0.118225 0.197347
O O4 0.824803 0.165803 0.128124
O O5 0.434164 0.801811 0.929243
O O6 0.712693 0.705157 0.617926
O O7 0.797281 0.009775 0.815937
O O8 0.535477 0.837787 0.082018
O O9 0.677934 0.424814 0.839103
O O10 0.948956 0.300398 0.512892
O O11 0.825469 0.462236 0.932158
O O12 0.146884 0.223590 0.689589
O O13 0.008910 0.963556 0.730631
O O14 0.291188 0.523075 0.720923
O O15 0.061019 0.689633 0.156589
O O16 0.716755 0.733103 0.954646
#
# Coordination Sequence:
#
# PCOD8004913 Si02
#       8
#     2   2   2   2   2   2   2   2
#     4  11  22  39  61  89 125 160 203 246 299 361
#     4  10  22  39  62  90 123 157 201 250 303 360
#     4  10  20  38  63  89 121 159 204 248 297 364
#     4  11  23  41  62  93 126 160 199 253 305 361
#     4  10  21  40  65  89 118 163 200 251 303 355
#     4  11  22  41  65  88 121 159 205 250 301 359
#     4   9  20  37  61  89 120 158 202 248 295 357
#     4  10  21  38  61  87 123 164 198 245 306 355
#
# _framework density 23.512295000000002
#
# number of rings (size 3 to 8) (size 9 to 14) (size 15 to 20)
#    0.000    1.750    1.250    4.125    0.000    4.500 
#    0.000    8.750    0.000    0.000    0.000    0.000 
#    0.000    0.000    0.000    0.000    0.000    0.000 
#
# Total GULP energy -198243.059313 kJ/mol
# GULP energy per Si atom -12390.191207 kJ/mol
# Density = 2.345878 g / cm^3
# Si number density = 23.512295 Si / 1000 Ang^3
#
#
#
# Elastic Constant Matrix: (Units=GPa)
#
#
# Indices 1 2 3 4 5 6 
#
# 1 60.0911 10.9833 0.0552 -5.6190 -8.6716 9.5114
# 2 10.9833 58.6934 0.1126 -2.7822 -2.6965 -2.5024
# 3 0.0552 0.1126 79.5901 -13.2552 -1.1579 4.6020
# 4 -5.6190 -2.7822 -13.2552 19.9470 3.4496 2.2632
# 5 -8.6716 -2.6965 -1.1579 3.4496 34.1525 -1.6667
# 6 9.5114 -2.5024 4.6020 2.2632 -1.6667 35.2930
#
#
#
# Elastic Compliance Matrix: (Units=1/GPa)
#
#
# Indices 1 2 3 4 5 6 
#
# 1 0.019278 -0.003406 0.001359 0.005861 0.003796 -0.005811
# 2 -0.003406 0.017848 0.000070 0.001245 0.000524 0.002119
# 3 0.001359 0.000070 0.014459 0.010394 -0.000352 -0.002930
# 4 0.005861 0.001245 0.010394 0.060430 -0.004503 -0.006934
# 5 0.003796 0.000524 -0.000352 -0.004503 0.030768 0.000802
# 6 -0.005811 0.002119 -0.002930 -0.006934 0.000802 0.030915
#
#
# Mechanical properties :
#
#
# Convention : Reuss Voigt Hill
#
# Bulk Modulus (GPa) = 20.99483 24.51965 22.75724
# Shear Modulus (GPa) = 25.83586 30.36008 28.09797
#
# Velocity S-wave (km/s) = 3.31845 3.59728 3.46068
# Velocity P-wave (km/s) = 4.86122 5.26356 5.06638
#
# Compressibility (1/GPa) = 0.04763078
#
# Stress axis : x y z
#
# Youngs Moduli (GPa) = 51.87184 56.02763 69.16287
#
# Poissons Ratio (x) = 0.19081 -0.09398
# Poissons Ratio (y) = 0.17666 -0.00481
# Poissons Ratio (z) = -0.07048 -0.00390
#
# Static dielectric constant tensor:
#      x y z
#    x 4.278140 0.366840 0.116670 
#    y 0.366840 4.192700 -0.123340 
#    z 0.116670 -0.123340 4.222130 
# 
# 
# High freq. dielectric constant tensor:
#      x y z
#    x 1.918910 0.018290 0.015220 
#    y 0.018290 1.920880 -0.002360 
#    z 0.015220 -0.002360 1.936290 
# 
# From -- ./inp_files/455036.got.cif
#   From: 2010.06.25/outbox.cif.g09.slc.cpg/sg2_228_cif.got.tgz:455036.got - 2010.06.27 13:26:56.
