data_PCOD8004096
_publ_section_title
;
Structure prediction by ZEFSAII (Michael W. Deem and Ramdas Pophale) SiO2 
 PCOD8004096
Probable space group: P -1
;
_chemical_formula_sum "Si O2"
_cell_formula_units_Z 14
_cell_length_a 13.707017
_cell_length_b 7.408231
_cell_length_c 10.427776
_cell_angle_alpha 103.695384
_cell_angle_beta 54.659697
_cell_angle_gamma 135.029471
_cell_volume 582.505234
_symmetry_space_group_name_H-M "P -1"
_symmetry_group_IT_number 2
_symmetry_cell_setting 'triclinic'
loop_
_space_group_symop_operation_xyz
x,y,z
-x,-y,-z
loop_
_atom_site_type_symbol
_atom_site_label
_atom_site_fract_x
_atom_site_fract_y
_atom_site_fract_z
Si Si1 0.380580 0.604210 0.997285
Si Si2 0.189081 0.155579 0.484930
Si Si3 0.941563 0.185518 0.700882
Si Si4 0.676729 0.903235 0.319719
Si Si5 0.007689 0.350780 0.286966
Si Si6 0.645438 0.863950 0.051264
Si Si7 0.529358 0.365018 0.333711
O O1 0.382150 0.385396 0.961573
O O2 0.446512 0.740613 0.826617
O O3 0.511011 0.815915 0.047270
O O4 0.193876 0.482279 0.130462
O O5 0.177829 0.100138 0.331613
O O6 0.065603 0.854034 0.577992
O O7 0.383317 0.358643 0.415020
O O8 0.124500 0.287120 0.599847
O O9 0.975091 0.416683 0.641501
O O10 0.840791 0.119834 0.897981
O O11 0.624119 0.920034 0.221381
O O12 0.688412 0.687409 0.286558
O O13 0.538949 0.823470 0.520272
O O14 0.870950 0.190607 0.246511
#
# Coordination Sequence:
#
# PCOD8004096 Si02
#       7
#     2   2   2   2   2   2   2
#     4  10  20  38  67  93 127 165 221 262 314 375
#     4  10  21  41  63  94 124 170 213 270 306 383
#     4  11  22  38  67  94 129 165 216 265 322 369
#     4   9  21  38  64  93 133 165 215 256 323 385
#     4  11  23  40  65  96 128 169 212 263 318 389
#     4  10  20  37  63  97 126 169 211 266 315 377
#     4   9  18  39  65  89 126 178 209 258 322 381
#
# _framework density 24.034119
#
# number of rings (size 3 to 8) (size 9 to 14) (size 15 to 20)
#    0.000    2.000    2.857    0.429    0.000    3.429 
#    2.571    0.714    6.286    0.000    0.000    0.000 
#    0.000    0.000    0.000    0.000    0.000    0.000 
#
# Total GULP energy -173447.075061 kJ/mol
# GULP energy per Si atom -12389.076790 kJ/mol
# Density = 2.397942 g / cm^3
# Si number density = 24.034119 Si / 1000 Ang^3
#
#
#
# Elastic Constant Matrix: (Units=GPa)
#
#
# Indices 1 2 3 4 5 6 
#
# 1 46.1749 20.4350 36.0255 1.3134 12.4921 5.9267
# 2 20.4350 57.7167 30.3982 3.5379 -9.8899 12.6372
# 3 36.0255 30.3982 108.9396 -13.3178 7.7689 1.0891
# 4 1.3134 3.5379 -13.3178 19.5887 11.2794 4.3827
# 5 12.4921 -9.8899 7.7689 11.2794 33.9358 -0.4380
# 6 5.9267 12.6372 1.0891 4.3827 -0.4380 31.3785
#
#
#
# Elastic Compliance Matrix: (Units=1/GPa)
#
#
# Indices 1 2 3 4 5 6 
#
# 1 0.037642 -0.012486 -0.006918 0.006019 -0.017950 -0.002932
# 2 -0.012486 0.034835 -0.010479 -0.025660 0.025581 -0.007366
# 3 -0.006918 -0.010479 0.017685 0.020487 -0.011341 0.001893
# 4 0.006019 -0.025660 0.020487 0.097486 -0.046860 -0.005784
# 5 -0.017950 0.025581 -0.011341 -0.046860 0.061713 0.000888
# 6 -0.002932 -0.007366 0.001893 -0.005784 0.000888 0.036144
#
#
# Mechanical properties :
#
#
# Convention : Reuss Voigt Hill
#
# Bulk Modulus (GPa) = 32.89976 42.94983 37.92479
# Shear Modulus (GPa) = 14.06855 25.37877 19.72366
#
# Velocity S-wave (km/s) = 2.42204 3.25306 2.86781
# Velocity P-wave (km/s) = 4.64114 5.65854 5.17490
#
# Compressibility (1/GPa) = 0.03039536
#
# Stress axis : x y z
#
# Youngs Moduli (GPa) = 26.56636 28.70703 56.54353
#
# Poissons Ratio (x) = 0.35844 0.39119
# Poissons Ratio (y) = 0.33171 0.59250
# Poissons Ratio (z) = 0.18380 0.30081
#
# Static dielectric constant tensor:
#      x y z
#    x 4.331640 0.260050 0.438220 
#    y 0.260050 4.118560 -0.065480 
#    z 0.438220 -0.065480 4.628960 
# 
# 
# High freq. dielectric constant tensor:
#      x y z
#    x 1.932960 0.014750 0.018580 
#    y 0.014750 1.938090 -0.006160 
#    z 0.018580 -0.006160 1.959380 
# 
# From -- ./inp_files/447797.got.cif
#   From: 2010.06.25/outbox.cif.g09.slc.cpg/sg2_224_cif.got.tgz:447797.got - 2010.06.27 13:26:56.
