data_PCOD8004491
_publ_section_title
;
Structure prediction by ZEFSAII (Michael W. Deem and Ramdas Pophale) SiO2 
 PCOD8004491
Probable space group: P -1
;
_chemical_formula_sum "Si O2"
_cell_formula_units_Z 16
_cell_length_a 13.511919
_cell_length_b 11.296381
_cell_length_c 16.756614
_cell_angle_alpha 51.528771
_cell_angle_beta 159.906712
_cell_angle_gamma 127.616460
_cell_volume 684.688301
_symmetry_space_group_name_H-M "P -1"
_symmetry_group_IT_number 2
_symmetry_cell_setting 'triclinic'
loop_
_space_group_symop_operation_xyz
x,y,z
-x,-y,-z
loop_
_atom_site_type_symbol
_atom_site_label
_atom_site_fract_x
_atom_site_fract_y
_atom_site_fract_z
Si Si1 0.224493 0.064695 0.864220
Si Si2 0.923636 0.119529 0.014461
Si Si3 0.601675 0.642683 0.722208
Si Si4 0.069975 0.662423 0.523741
Si Si5 0.690659 0.646310 0.967162
Si Si6 0.122359 0.890135 0.702300
Si Si7 0.780339 0.124465 0.734667
Si Si8 0.125756 0.404165 0.429702
O O1 0.025571 0.205034 0.663242
O O2 0.093607 0.952939 0.742771
O O3 0.548405 0.132597 0.061095
O O4 0.224571 0.965907 0.986327
O O5 0.062285 0.293783 0.069274
O O6 0.200948 0.037594 0.225651
O O7 0.694641 0.120333 0.766641
O O8 0.567753 0.596210 0.808112
O O9 0.426731 0.783609 0.511090
O O10 0.446087 0.495021 0.618948
O O11 0.413543 0.679125 0.796761
O O12 0.000000 0.500000 0.500000
O O13 0.890814 0.679873 0.462041
O O14 0.887566 0.803165 0.046713
O O15 0.873543 0.516495 0.194695
O O16 0.933204 0.725531 0.627456
O O17 0.000000 0.000000 0.500000
#
# Coordination Sequence:
#
# PCOD8004491 Si02
#       8
#     2   2   2   2   2   2   2   2
#     4  11  26  42  66  94 127 165 217 261 313 368
#     4  10  21  37  59  91 128 163 207 259 309 380
#     4  10  20  38  59  87 128 165 201 254 311 372
#     4  12  22  37  62  99 132 164 201 262 324 379
#     4  10  21  35  59  96 133 163 202 253 319 379
#     4  11  25  47  64  89 122 174 217 265 306 362
#     4   9  20  35  58  91 128 172 201 247 316 385
#     4  11  23  39  64  91 128 172 211 253 311 379
#
# _framework density 23.368300000000001
#
# number of rings (size 3 to 8) (size 9 to 14) (size 15 to 20)
#    0.000    1.500    2.500    2.250    3.500    3.000 
#    0.000    0.625    0.000    7.500    0.000    0.000 
#    0.000    0.000    0.000    0.000    0.000    0.000 
#
# Total GULP energy -198283.649804 kJ/mol
# GULP energy per Si atom -12392.728113 kJ/mol
# Density = 2.331511 g / cm^3
# Si number density = 23.368300 Si / 1000 Ang^3
#
#
#
# Elastic Constant Matrix: (Units=GPa)
#
#
# Indices 1 2 3 4 5 6 
#
# 1 80.0400 31.1725 6.7644 9.5434 -15.5043 5.3731
# 2 31.1725 125.7797 14.8779 26.3852 -0.8758 -5.9908
# 3 6.7644 14.8779 55.7368 5.9091 -5.7950 -1.7656
# 4 9.5434 26.3852 5.9091 34.9133 -2.8806 -8.5134
# 5 -15.5043 -0.8758 -5.7950 -2.8806 25.7783 -3.0982
# 6 5.3731 -5.9908 -1.7656 -8.5134 -3.0982 30.7548
#
#
#
# Elastic Compliance Matrix: (Units=1/GPa)
#
#
# Indices 1 2 3 4 5 6 
#
# 1 0.016089 -0.003746 0.000055 -0.001580 0.009017 -0.003066
# 2 -0.003746 0.010523 -0.001941 -0.006748 -0.003035 0.000419
# 3 0.000055 -0.001941 0.019046 -0.001232 0.004206 0.000788
# 4 -0.001580 -0.006748 -0.001232 0.037021 0.003825 0.009524
# 5 0.009017 -0.003035 0.004206 0.003825 0.045937 0.003761
# 6 -0.003066 0.000419 0.000788 0.009524 0.003761 0.036193
#
#
# Mechanical properties :
#
#
# Convention : Reuss Voigt Hill
#
# Bulk Modulus (GPa) = 29.07492 40.79846 34.93669
# Shear Modulus (GPa) = 26.66152 32.20539 29.43345
#
# Velocity S-wave (km/s) = 3.38143 3.71639 3.55286
# Velocity P-wave (km/s) = 5.26445 5.99268 5.64033
#
# Compressibility (1/GPa) = 0.03439390
#
# Stress axis : x y z
#
# Youngs Moduli (GPa) = 62.15538 95.03230 52.50492
#
# Poissons Ratio (x) = 0.35596 -0.00289
# Poissons Ratio (y) = 0.23281 0.10192
# Poissons Ratio (z) = -0.00342 0.18447
#
# Static dielectric constant tensor:
#      x y z
#    x 3.981560 0.125630 -0.343080 
#    y 0.125630 4.541420 0.338620 
#    z -0.343080 0.338620 4.305120 
# 
# 
# High freq. dielectric constant tensor:
#      x y z
#    x 1.886980 0.014500 -0.031930 
#    y 0.014500 1.937970 0.015390 
#    z -0.031930 0.015390 1.927060 
# 
# From -- ./inp_files/564570.got.cif
#   From: 2010.06.25/outbox.cif.g09.slc.cpg/sg2_283_cif.got.tgz:564570.got - 2010.06.27 13:26:56.
