data_PCOD8004783
_publ_section_title
;
Structure prediction by ZEFSAII (Michael W. Deem and Ramdas Pophale) SiO2 
 PCOD8004783
Probable space group: P -1
;
_chemical_formula_sum "Si O2"
_cell_formula_units_Z 14
_cell_length_a 11.169772
_cell_length_b 10.481427
_cell_length_c 9.330927
_cell_angle_alpha 127.382586
_cell_angle_beta 59.973621
_cell_angle_gamma 138.586582
_cell_volume 572.079629
_symmetry_space_group_name_H-M "P -1"
_symmetry_group_IT_number 2
_symmetry_cell_setting 'triclinic'
loop_
_space_group_symop_operation_xyz
x,y,z
-x,-y,-z
loop_
_atom_site_type_symbol
_atom_site_label
_atom_site_fract_x
_atom_site_fract_y
_atom_site_fract_z
Si Si1 0.460420 0.722429 0.752844
Si Si2 0.035040 0.203117 0.061409
Si Si3 0.865379 0.922075 0.324793
Si Si4 0.244877 0.294756 0.457242
Si Si5 0.312979 0.967691 0.707881
Si Si6 0.362491 0.829254 0.158861
Si Si7 0.823687 0.400104 0.629667
O O1 0.315882 0.529671 0.600318
O O2 0.600843 0.693509 0.709562
O O3 0.575550 0.943055 0.750495
O O4 0.346905 0.717225 0.945962
O O5 0.188776 0.416748 0.207438
O O6 0.846701 0.159817 0.161508
O O7 0.099187 0.224735 0.873966
O O8 0.000000 0.000000 0.000000
O O9 0.775546 0.814789 0.455329
O O10 0.734457 0.936493 0.319613
O O11 0.058107 0.160090 0.389567
O O12 0.335144 0.807442 0.509323
O O13 0.494472 0.152023 0.807724
O O14 0.176225 0.681679 0.264184
O O15 0.000000 0.500000 0.500000
#
# Coordination Sequence:
#
# PCOD8004783 Si02
#       7
#     2   2   2   2   2   2   2
#     4  10  23  40  61  89 123 166 206 247 304 362
#     4   9  19  35  54  82 119 155 195 241 296 361
#     4  10  20  38  62  88 122 161 204 254 302 359
#     4  10  21  39  61  87 121 163 210 250 297 363
#     4  10  21  37  60  91 122 156 199 251 310 362
#     4  11  22  40  62  89 126 160 201 254 305 368
#     4  10  21  37  59  86 121 158 199 249 304 363
#
# _framework density 24.472117000000001
#
# number of rings (size 3 to 8) (size 9 to 14) (size 15 to 20)
#    0.000    2.000    0.000    3.000    0.000    4.571 
#    0.000   12.143    0.000   14.571    0.000    0.000 
#    0.000    0.000    0.000    0.000    0.000    0.000 
#
# Total GULP energy -173433.127387 kJ/mol
# GULP energy per Si atom -12388.080528 kJ/mol
# Density = 2.441642 g / cm^3
# Si number density = 24.472117 Si / 1000 Ang^3
#
#
#
# Elastic Constant Matrix: (Units=GPa)
#
#
# Indices 1 2 3 4 5 6 
#
# 1 60.8966 6.1839 18.3817 9.8238 3.9832 -8.6354
# 2 6.1839 109.3031 49.3200 10.5547 -10.9529 -19.4079
# 3 18.3817 49.3200 155.0222 18.8245 -24.0850 -14.0688
# 4 9.8238 10.5547 18.8245 54.1445 -5.9846 -1.0022
# 5 3.9832 -10.9529 -24.0850 -5.9846 21.9901 1.4747
# 6 -8.6354 -19.4079 -14.0688 -1.0022 1.4747 23.9402
#
#
#
# Elastic Compliance Matrix: (Units=1/GPa)
#
#
# Indices 1 2 3 4 5 6 
#
# 1 0.019062 0.000843 -0.002683 -0.003382 -0.007314 0.006291
# 2 0.000843 0.012141 -0.002749 -0.001188 0.002000 0.008358
# 3 -0.002683 -0.002749 0.009324 -0.001205 0.008887 0.001685
# 4 -0.003382 -0.001188 -0.001205 0.020171 0.004345 -0.002315
# 5 -0.007314 0.002000 0.008887 0.004345 0.058661 0.000774
# 6 0.006291 0.008358 0.001685 -0.002315 0.000774 0.051661
#
#
# Mechanical properties :
#
#
# Convention : Reuss Voigt Hill
#
# Bulk Modulus (GPa) = 31.90036 52.55480 42.22758
# Shear Modulus (GPa) = 26.22661 36.77072 31.49867
#
# Velocity S-wave (km/s) = 3.27722 3.88049 3.59154
# Velocity P-wave (km/s) = 5.23297 6.44977 5.87297
#
# Compressibility (1/GPa) = 0.03134760
#
# Stress axis : x y z
#
# Youngs Moduli (GPa) = 52.46123 82.36711 107.25577
#
# Poissons Ratio (x) = -0.06944 0.28778
# Poissons Ratio (y) = -0.04423 0.29485
# Poissons Ratio (z) = 0.14076 0.22643
#
# Static dielectric constant tensor:
#      x y z
#    x 3.721240 -0.004190 -0.238930 
#    y -0.004190 4.844820 -0.134010 
#    z -0.238930 -0.134010 5.782900 
# 
# 
# High freq. dielectric constant tensor:
#      x y z
#    x 1.914220 -0.004830 -0.012520 
#    y -0.004830 1.984240 -0.003860 
#    z -0.012520 -0.003860 2.005470 
# 
# From -- ./inp_files/263400.got.cif
#   From: 2010.06.25/outbox.cif.g09.slc.cpg/sg2_132_cif.got.tgz:263400.got - 2010.06.27 13:26:56.
