data_PCOD8004439
_publ_section_title
;
Structure prediction by ZEFSAII (Michael W. Deem and Ramdas Pophale) SiO2 
 PCOD8004439
Probable space group: P -1
;
_chemical_formula_sum "Si O2"
_cell_formula_units_Z 12
_cell_length_a 12.000749
_cell_length_b 14.228169
_cell_length_c 9.183417
_cell_angle_alpha 65.011163
_cell_angle_beta 51.874679
_cell_angle_gamma 28.945144
_cell_volume 567.688319
_symmetry_space_group_name_H-M "P -1"
_symmetry_group_IT_number 2
_symmetry_cell_setting 'triclinic'
loop_
_space_group_symop_operation_xyz
x,y,z
-x,-y,-z
loop_
_atom_site_type_symbol
_atom_site_label
_atom_site_fract_x
_atom_site_fract_y
_atom_site_fract_z
Si Si1 0.625301 0.725191 0.691871
Si Si2 0.707906 0.981869 0.006884
Si Si3 0.480839 0.928210 0.391271
Si Si4 0.327687 0.313574 0.857864
Si Si5 0.961226 0.377054 0.468552
Si Si6 0.741063 0.426470 0.314227
O O1 0.583145 0.842387 0.528467
O O2 0.868121 0.620347 0.670356
O O3 0.702968 0.564026 0.666274
O O4 0.349715 0.890856 0.908717
O O5 0.021784 0.788008 0.821079
O O6 0.489400 0.133933 0.952253
O O7 0.653176 0.908087 0.180489
O O8 0.538765 0.787678 0.344257
O O9 0.151479 0.162442 0.511518
O O10 0.377583 0.403951 0.799711
O O11 0.000000 0.500000 0.000000
O O12 0.861674 0.409894 0.367798
O O13 0.500000 0.500000 0.500000
#
# Coordination Sequence:
#
# PCOD8004439 Si02
#       6
#     2   2   2   2   2   2
#     4  10  22  35  66  96 129 158 200 267 325 365
#     4  11  23  38  61  98 128 160 213 262 309 370
#     4  11  20  36  65  99 127 158 200 266 324 370
#     4  12  22  37  68  96 125 160 213 266 314 366
#     4  10  20  38  58  91 125 161 203 252 311 371
#     4  12  26  43  63  90 130 175 215 254 307 376
#
# _framework density 21.138359000000001
#
# number of rings (size 3 to 8) (size 9 to 14) (size 15 to 20)
#    0.000    1.000    5.000    4.500    2.333    2.000 
#    0.000    0.833    0.000    7.000    0.000    0.000 
#    0.000    0.000    0.000    0.000    0.000    0.000 
#
# Total GULP energy -148684.852092 kJ/mol
# GULP energy per Si atom -12390.404341 kJ/mol
# Density = 2.109025 g / cm^3
# Si number density = 21.138359 Si / 1000 Ang^3
#
#
#
# Elastic Constant Matrix: (Units=GPa)
#
#
# Indices 1 2 3 4 5 6 
#
# 1 54.9604 37.3670 51.0799 13.9970 17.6665 10.3310
# 2 37.3670 133.3898 62.7829 32.8096 1.9980 20.9225
# 3 51.0799 62.7829 112.9246 26.1585 9.8991 6.1373
# 4 13.9970 32.8096 26.1585 40.3080 16.2216 20.1423
# 5 17.6665 1.9980 9.8991 16.2216 38.6963 4.4489
# 6 10.3310 20.9225 6.1373 20.1423 4.4489 33.6267
#
#
#
# Elastic Compliance Matrix: (Units=1/GPa)
#
#
# Indices 1 2 3 4 5 6 
#
# 1 0.043169 -0.005101 -0.017790 0.015393 -0.019801 -0.013443
# 2 -0.005101 0.012609 -0.003306 -0.007909 0.006039 -0.001736
# 3 -0.017790 -0.003306 0.020426 -0.012361 0.007069 0.010264
# 4 0.015393 -0.007909 -0.012361 0.058478 -0.024600 -0.029325
# 5 -0.019801 0.006039 0.007069 -0.024600 0.041899 0.010228
# 6 -0.013443 -0.001736 0.010264 -0.029325 0.010228 0.049288
#
#
# Mechanical properties :
#
#
# Convention : Reuss Voigt Hill
#
# Bulk Modulus (GPa) = 41.99807 67.08159 54.53983
# Shear Modulus (GPa) = 17.47039 32.52921 24.99980
#
# Velocity S-wave (km/s) = 2.87797 3.92710 3.44273
# Velocity P-wave (km/s) = 5.56372 7.23645 6.45450
#
# Compressibility (1/GPa) = 0.02381062
#
# Stress axis : x y z
#
# Youngs Moduli (GPa) = 23.16504 79.30860 48.95607
#
# Poissons Ratio (x) = 0.40453 0.87094
# Poissons Ratio (y) = 0.11816 0.16184
# Poissons Ratio (z) = 0.41211 0.26218
#
# Static dielectric constant tensor:
#      x y z
#    x 3.698500 0.500290 0.612450 
#    y 0.500290 4.589560 0.200310 
#    z 0.612450 0.200310 3.784810 
# 
# 
# High freq. dielectric constant tensor:
#      x y z
#    x 1.788540 0.025260 0.059100 
#    y 0.025260 1.862630 0.005970 
#    z 0.059100 0.005970 1.799390 
# 
# From -- ./inp_files/272072.got.cif
#   From: 2010.06.25/outbox.cif.g09.slc.cpg/sg2_137_cif.got.tgz:272072.got - 2010.06.27 13:26:56.
