data_PCOD8004733
_publ_section_title
;
Structure prediction by ZEFSAII (Michael W. Deem and Ramdas Pophale) SiO2 
 PCOD8004733
Probable space group: P -1
;
_chemical_formula_sum "Si O2"
_cell_formula_units_Z 14
_cell_length_a 8.513540
_cell_length_b 8.191246
_cell_length_c 9.515322
_cell_angle_alpha 104.581353
_cell_angle_beta 88.781004
_cell_angle_gamma 104.301174
_cell_volume 621.698955
_symmetry_space_group_name_H-M "P -1"
_symmetry_group_IT_number 2
_symmetry_cell_setting 'triclinic'
loop_
_space_group_symop_operation_xyz
x,y,z
-x,-y,-z
loop_
_atom_site_type_symbol
_atom_site_label
_atom_site_fract_x
_atom_site_fract_y
_atom_site_fract_z
Si Si1 0.553712 0.265757 0.055470
Si Si2 0.761129 0.807533 0.621200
Si Si3 0.623636 0.505643 0.754511
Si Si4 0.005680 0.934424 0.145339
Si Si5 0.493243 0.986739 0.756634
Si Si6 0.704213 0.801938 0.312008
Si Si7 0.159539 0.623748 0.078519
O O1 0.400707 0.346606 0.101160
O O2 0.592495 0.160708 0.164895
O O3 0.539912 0.164163 0.885412
O O4 0.719463 0.408946 0.054263
O O5 0.679572 0.609414 0.630937
O O6 0.803185 0.800342 0.454148
O O7 0.637975 0.931309 0.664442
O O8 0.924986 0.893537 0.723052
O O9 0.449156 0.368034 0.717821
O O10 0.772013 0.426762 0.784335
O O11 0.831264 0.822183 0.183186
O O12 0.136895 0.819378 0.127747
O O13 0.000000 0.000000 0.000000
O O14 0.366786 0.025262 0.653240
O O15 0.000000 0.500000 0.000000
#
# Coordination Sequence:
#
# PCOD8004733 Si02
#       7
#     2   2   2   2   2   2   2
#     4  10  20  38  61  96 127 160 218 273 316 368
#     4  11  24  45  64  96 133 171 217 264 325 388
#     4  11  24  40  66  94 132 172 216 267 322 385
#     4  12  26  43  67  97 131 171 218 269 322 384
#     4  10  21  37  68  90 123 166 220 267 313 379
#     4  12  24  42  67  96 131 175 212 268 325 389
#     4  12  23  37  60  97 132 163 209 272 328 371
#
# _framework density 22.518939
#
# number of rings (size 3 to 8) (size 9 to 14) (size 15 to 20)
#    0.000    0.857    2.857    4.286    6.000    0.000 
#    0.000    0.714    0.000    0.000    0.000    0.000 
#    0.000    0.000    0.000    0.000    0.000    0.000 
#
# Total GULP energy -173438.919669 kJ/mol
# GULP energy per Si atom -12388.494262 kJ/mol
# Density = 2.246768 g / cm^3
# Si number density = 22.518939 Si / 1000 Ang^3
#
#
#
# Elastic Constant Matrix: (Units=GPa)
#
#
# Indices 1 2 3 4 5 6 
#
# 1 89.8232 38.6300 36.5146 -19.4252 12.2363 -0.6444
# 2 38.6300 109.1525 50.4900 -26.7300 13.8858 -5.3982
# 3 36.5146 50.4900 119.6318 -29.3428 14.3213 7.1776
# 4 -19.4252 -26.7300 -29.3428 30.1860 1.6245 -0.3316
# 5 12.2363 13.8858 14.3213 1.6245 34.8212 -0.4832
# 6 -0.6444 -5.3982 7.1776 -0.3316 -0.4832 49.3027
#
#
#
# Elastic Compliance Matrix: (Units=1/GPa)
#
#
# Indices 1 2 3 4 5 6 
#
# 1 0.014632 -0.002553 -0.001495 0.005908 -0.003783 0.000132
# 2 -0.002553 0.013945 -0.002719 0.008294 -0.003906 0.001907
# 3 -0.001495 -0.002719 0.012885 0.009356 -0.004157 -0.002171
# 4 0.005908 0.008294 0.009356 0.054000 -0.011752 -0.000129
# 5 -0.003783 -0.003906 -0.004157 -0.011752 0.033868 0.000381
# 6 0.000132 0.001907 -0.002171 -0.000129 0.000381 0.020812
#
#
# Mechanical properties :
#
#
# Convention : Reuss Voigt Hill
#
# Bulk Modulus (GPa) = 35.80361 63.31964 49.56163
# Shear Modulus (GPa) = 28.90429 35.72685 32.31557
#
# Velocity S-wave (km/s) = 3.58656 3.98744 3.79230
# Velocity P-wave (km/s) = 5.75196 7.02702 6.42122
#
# Compressibility (1/GPa) = 0.02793015
#
# Stress axis : x y z
#
# Youngs Moduli (GPa) = 68.34179 71.71168 77.60808
#
# Poissons Ratio (x) = 0.18304 0.11602
# Poissons Ratio (y) = 0.17444 0.21099
# Poissons Ratio (z) = 0.10216 0.19496
#
# Static dielectric constant tensor:
#      x y z
#    x -5.015670 2.207160 6.012760 
#    y 2.207160 3.896960 -1.652290 
#    z 6.012760 -1.652290 -0.067930 
# 
# 
# High freq. dielectric constant tensor:
#      x y z
#    x 1.884690 0.001230 0.001610 
#    y 0.001230 1.903150 -0.021730 
#    z 0.001610 -0.021730 1.868550 
# 
# From -- ./inp_files/155483.got.cif
#   From: 2010.06.25/outbox.cif.g09.slc.cpg/sg2_78_cif.got.tgz:155483.got - 2010.06.27 13:26:56.
