data_PCOD8004150
_publ_section_title
;
Structure prediction by ZEFSAII (Michael W. Deem and Ramdas Pophale) SiO2 
 PCOD8004150
Probable space group: P -1
;
_chemical_formula_sum "Si O2"
_cell_formula_units_Z 16
_cell_length_a 8.759057
_cell_length_b 18.272661
_cell_length_c 11.630821
_cell_angle_alpha 132.779406
_cell_angle_beta 41.141256
_cell_angle_gamma 135.966024
_cell_volume 811.748280
_symmetry_space_group_name_H-M "P -1"
_symmetry_group_IT_number 2
_symmetry_cell_setting 'triclinic'
loop_
_space_group_symop_operation_xyz
x,y,z
-x,-y,-z
loop_
_atom_site_type_symbol
_atom_site_label
_atom_site_fract_x
_atom_site_fract_y
_atom_site_fract_z
Si Si1 0.213719 0.991074 0.447070
Si Si2 0.492431 0.758892 0.823970
Si Si3 0.809576 0.379809 0.939904
Si Si4 0.460839 0.234191 0.570469
Si Si5 0.118522 0.241108 0.565077
Si Si6 0.132414 0.765809 0.836278
Si Si7 0.616784 0.991075 0.044005
Si Si8 0.549725 0.620055 0.060028
O O1 0.360250 0.110964 0.552363
O O2 0.408689 0.963887 0.231943
O O3 0.000000 0.000000 0.500000
O O4 0.076810 0.885264 0.494886
O O5 0.664263 0.711598 0.605799
O O6 0.262434 0.759035 0.875879
O O7 0.376361 0.682822 0.917513
O O8 0.681318 0.885264 0.890378
O O9 0.640604 0.390617 0.945308
O O10 0.971437 0.317179 0.734690
O O11 0.000000 0.500000 0.000000
O O12 0.244842 0.240965 0.616845
O O13 0.722143 0.262922 0.381461
O O14 0.514045 0.318904 0.733459
O O15 0.145989 0.889036 0.941399
O O16 0.837940 0.681097 0.914556
O O17 0.500000 0.000000 0.000000
O O18 0.500000 0.500000 0.000000
#
# Coordination Sequence:
#
# PCOD8004150 Si02
#       8
#     2   2   2   2   2   2   2   2
#     4   9  16  29  57  94 125 157 197 244 293 354
#     4  10  20  37  64  94 123 160 202 252 301 358
#     4  12  26  44  62  86 122 162 209 258 305 368
#     4   9  20  37  62  94 123 156 202 249 298 358
#     4  10  20  37  64  94 123 160 202 252 301 358
#     4   9  20  37  62  94 123 156 202 249 298 358
#     4   9  16  29  57  94 125 157 197 244 293 354
#     4  12  26  42  64  86 116 168 205 254 309 360
#
# _framework density 19.710543999999999
#
# number of rings (size 3 to 8) (size 9 to 14) (size 15 to 20)
#    0.000    2.000    1.250    4.500    7.000    2.000 
#    0.000    1.250    0.000    0.000    0.000    0.000 
#    0.000    0.000    0.000    0.000    0.000    0.000 
#
# Total GULP energy -198298.858068 kJ/mol
# GULP energy per Si atom -12393.678629 kJ/mol
# Density = 1.966568 g / cm^3
# Si number density = 19.710544 Si / 1000 Ang^3
#
#
#
# Elastic Constant Matrix: (Units=GPa)
#
#
# Indices 1 2 3 4 5 6 
#
# 1 99.8562 64.7323 60.2503 2.3931 -0.0162 -0.6166
# 2 64.7323 162.5041 79.0687 11.3821 -2.2434 -0.3477
# 3 60.2503 79.0687 122.7818 8.7775 1.7312 -1.1674
# 4 2.3931 11.3821 8.7775 31.9179 1.7841 -1.1186
# 5 -0.0162 -2.2434 1.7312 1.7841 29.2046 -0.7851
# 6 -0.6166 -0.3477 -1.1674 -1.1186 -0.7851 27.5550
#
#
#
# Elastic Compliance Matrix: (Units=1/GPa)
#
#
# Indices 1 2 3 4 5 6 
#
# 1 0.015644 -0.003722 -0.005395 0.001646 -0.000054 0.000140
# 2 -0.003722 0.009971 -0.004461 -0.002121 0.001153 -0.000200
# 3 -0.005395 -0.004461 0.013806 -0.001732 -0.001050 0.000308
# 4 0.001646 -0.002121 -0.001732 0.032595 -0.002018 0.001202
# 5 -0.000054 0.001153 -0.001050 -0.002018 0.034539 0.000871
# 6 0.000140 -0.000200 0.000308 0.001202 0.000871 0.036378
#
#
# Mechanical properties :
#
#
# Convention : Reuss Voigt Hill
#
# Bulk Modulus (GPa) = 81.53701 88.13830 84.83765
# Shear Modulus (GPa) = 28.70615 29.80822 29.25719
#
# Velocity S-wave (km/s) = 3.82040 3.89305 3.85690
# Velocity P-wave (km/s) = 7.80497 8.06357 7.93533
#
# Compressibility (1/GPa) = 0.01226437
#
# Stress axis : x y z
#
# Youngs Moduli (GPa) = 63.92165 100.28940 72.43018
#
# Poissons Ratio (x) = 0.37331 0.39078
# Poissons Ratio (y) = 0.23794 0.32312
# Poissons Ratio (z) = 0.34487 0.44740
#
# Static dielectric constant tensor:
#      x y z
#    x 3.219390 -0.027830 0.000650 
#    y -0.027830 4.071070 -0.034200 
#    z 0.000650 -0.034200 4.139170 
# 
# 
# High freq. dielectric constant tensor:
#      x y z
#    x 1.723930 -0.002530 -0.000270 
#    y -0.002530 1.781130 -0.001060 
#    z -0.000270 -0.001060 1.783300 
# 
# From -- ./inp_files/283209.got.cif
#   From: 2010.06.25/outbox.cif.g09.slc.cpg/sg2_142_cif.got.tgz:283209.got - 2010.06.27 13:26:56.
