data_PCOD8004901
_publ_section_title
;
Structure prediction by ZEFSAII (Michael W. Deem and Ramdas Pophale) SiO2 
 PCOD8004901
Probable space group: P -1
;
_chemical_formula_sum "Si O2"
_cell_formula_units_Z 16
_cell_length_a 14.716317
_cell_length_b 9.141414
_cell_length_c 12.200398
_cell_angle_alpha 75.751255
_cell_angle_beta 59.266091
_cell_angle_gamma 123.696612
_cell_volume 788.635132
_symmetry_space_group_name_H-M "P -1"
_symmetry_group_IT_number 2
_symmetry_cell_setting 'triclinic'
loop_
_space_group_symop_operation_xyz
x,y,z
-x,-y,-z
loop_
_atom_site_type_symbol
_atom_site_label
_atom_site_fract_x
_atom_site_fract_y
_atom_site_fract_z
Si Si1 0.131104 0.503221 0.346247
Si Si2 0.152973 0.616405 0.538228
Si Si3 0.769375 0.575117 0.903845
Si Si4 0.178820 0.380845 0.731589
Si Si5 0.598265 0.819890 0.681722
Si Si6 0.442290 0.281675 0.518067
Si Si7 0.950710 0.108606 0.138444
Si Si8 0.852501 0.939116 0.654266
O O1 0.249859 0.685272 0.347875
O O2 0.235864 0.523740 0.189018
O O3 0.051677 0.558663 0.325658
O O4 0.958409 0.216524 0.563798
O O5 0.122741 0.438498 0.667054
O O6 0.270344 0.883815 0.475062
O O7 0.773511 0.760288 0.842026
O O8 0.943778 0.733888 0.841797
O O9 0.583045 0.322534 0.126715
O O10 0.400675 0.655553 0.556796
O O11 0.112295 0.139360 0.776778
O O12 0.081377 0.303380 0.921298
O O13 0.547777 0.682386 0.624460
O O14 0.686647 0.788104 0.703362
O O15 0.500000 0.500000 0.500000
O O16 0.231830 0.997776 0.734759
O O17 0.000000 0.000000 0.500000
#
# Coordination Sequence:
#
# PCOD8004901 Si02
#       8
#     2   2   2   2   2   2   2   2
#     4   9  20  38  59  85 114 154 197 241 291 351
#     4  10  21  39  59  81 120 158 195 235 296 355
#     4  11  20  36  60  88 119 151 197 246 293 350
#     4  10  21  39  62  88 114 157 198 244 291 352
#     4  11  22  37  55  88 123 154 193 245 292 357
#     4  10  21  39  60  86 120 150 195 252 293 337
#     4  10  20  38  63  88 117 147 201 248 296 338
#     4   9  18  34  60  85 109 150 196 242 296 337
#
# _framework density 20.288215999999998
#
# number of rings (size 3 to 8) (size 9 to 14) (size 15 to 20)
#    0.000    2.000    1.250    3.375    0.000    4.000 
#    2.250    1.250    0.000    0.000    0.000    0.000 
#    0.000    0.000    0.000    0.000    0.000    0.000 
#
# Total GULP energy -198270.796588 kJ/mol
# GULP energy per Si atom -12391.924787 kJ/mol
# Density = 2.024204 g / cm^3
# Si number density = 20.288216 Si / 1000 Ang^3
#
#
#
# Elastic Constant Matrix: (Units=GPa)
#
#
# Indices 1 2 3 4 5 6 
#
# 1 122.4182 29.0398 48.2136 -3.2036 3.5109 3.4102
# 2 29.0398 85.2502 32.2089 22.2269 2.3236 14.8905
# 3 48.2136 32.2089 88.5104 12.9942 -2.8186 -6.1844
# 4 -3.2036 22.2269 12.9942 26.7430 0.7074 0.8345
# 5 3.5109 2.3236 -2.8186 0.7074 31.7350 3.4156
# 6 3.4102 14.8905 -6.1844 0.8345 3.4156 23.2250
#
#
#
# Elastic Compliance Matrix: (Units=1/GPa)
#
#
# Indices 1 2 3 4 5 6 
#
# 1 0.011741 -0.003150 -0.006468 0.007256 -0.001649 -0.001445
# 2 -0.003150 0.020835 -0.004602 -0.015039 0.000215 -0.013612
# 3 -0.006468 -0.004602 0.018046 -0.006037 0.001859 0.008649
# 4 0.007256 -0.015039 -0.006037 0.053581 -0.002007 0.005339
# 5 -0.001649 0.000215 0.001859 -0.002007 0.032327 -0.004083
# 6 -0.001445 -0.013612 0.008649 0.005339 -0.004083 0.054708
#
#
# Mechanical properties :
#
#
# Convention : Reuss Voigt Hill
#
# Bulk Modulus (GPa) = 45.08400 57.23373 51.15886
# Shear Modulus (GPa) = 22.01946 28.78835 25.40390
#
# Velocity S-wave (km/s) = 3.29801 3.77101 3.54241
# Velocity P-wave (km/s) = 6.06403 6.87257 6.48092
#
# Compressibility (1/GPa) = 0.02218082
#
# Stress axis : x y z
#
# Youngs Moduli (GPa) = 85.17347 47.99661 55.41454
#
# Poissons Ratio (x) = 0.15121 0.35841
# Poissons Ratio (y) = 0.26833 0.25503
# Poissons Ratio (z) = 0.55088 0.22089
#
# Static dielectric constant tensor:
#      x y z
#    x 3.883710 0.081040 -0.091780 
#    y 0.081040 3.755020 -0.040420 
#    z -0.091780 -0.040420 3.761920 
# 
# 
# High freq. dielectric constant tensor:
#      x y z
#    x 1.791450 0.010140 -0.007040 
#    y 0.010140 1.793370 0.011810 
#    z -0.007040 0.011810 1.775630 
# 
# From -- ./inp_files/425651.got.cif
#   From: 2010.06.25/outbox.cif.g09.slc.cpg/sg2_213_cif.got.tgz:425651.got - 2010.06.27 13:26:56.
