data_PCOD8004867
_publ_section_title
;
Structure prediction by ZEFSAII (Michael W. Deem and Ramdas Pophale) SiO2 
 PCOD8004867
Probable space group: P -1
;
_chemical_formula_sum "Si O2"
_cell_formula_units_Z 16
_cell_length_a 12.138351
_cell_length_b 21.173507
_cell_length_c 8.986586
_cell_angle_alpha 144.709843
_cell_angle_beta 133.264925
_cell_angle_gamma 34.722579
_cell_volume 759.300646
_symmetry_space_group_name_H-M "P -1"
_symmetry_group_IT_number 2
_symmetry_cell_setting 'triclinic'
loop_
_space_group_symop_operation_xyz
x,y,z
-x,-y,-z
loop_
_atom_site_type_symbol
_atom_site_label
_atom_site_fract_x
_atom_site_fract_y
_atom_site_fract_z
Si Si1 0.638076 0.591486 0.567270
Si Si2 0.349948 0.580621 0.146857
Si Si3 0.992419 0.112018 0.543245
Si Si4 0.794418 0.576957 0.378780
Si Si5 0.942209 0.692286 0.551554
Si Si6 0.474599 0.882244 0.072703
Si Si7 0.157244 0.054131 0.885972
Si Si8 0.211234 0.115755 0.497171
O O1 0.485276 0.558474 0.368969
O O2 0.641848 0.640596 0.496244
O O3 0.849258 0.458910 0.560814
O O4 0.558225 0.722131 0.852350
O O5 0.199594 0.745821 0.293941
O O6 0.500000 0.500000 0.000000
O O7 0.229896 0.521088 0.935799
O O8 0.163026 0.053293 0.709865
O O9 0.039104 0.143082 0.486939
O O10 0.959168 0.999407 0.268668
O O11 0.778360 0.686004 0.459806
O O12 0.000000 0.500000 0.500000
O O13 0.872250 0.755902 0.445174
O O14 0.962065 0.788235 0.860537
O O15 0.644787 0.892350 0.269294
O O16 0.316795 0.970132 0.226468
O O17 0.374797 0.953093 0.957598
#
# Coordination Sequence:
#
# PCOD8004867 Si02
#       8
#     2   2   2   2   2   2   2   2
#     4  10  20  39  66  90 131 162 213 266 314 364
#     4  10  20  38  62  97 130 154 207 268 316 360
#     4  11  22  41  68  93 119 176 205 263 319 382
#     4   9  19  35  63  94 123 163 206 261 313 367
#     4  10  22  42  63  95 124 174 205 264 314 389
#     4  10  22  44  59  94 127 169 207 272 304 374
#     4  10  22  41  67  92 124 155 225 254 323 375
#     4  10  25  43  64  87 134 170 214 256 319 382
#
# _framework density 21.072022
#
# number of rings (size 3 to 8) (size 9 to 14) (size 15 to 20)
#    0.000    2.000    1.250    2.250    5.250    3.000 
#    4.500    1.875    0.000    0.000    0.000    0.000 
#    0.000    0.000    0.000    0.000    0.000    0.000 
#
# Total GULP energy -198294.304651 kJ/mol
# GULP energy per Si atom -12393.394041 kJ/mol
# Density = 2.102406 g / cm^3
# Si number density = 21.072022 Si / 1000 Ang^3
#
#
#
# Elastic Constant Matrix: (Units=GPa)
#
#
# Indices 1 2 3 4 5 6 
#
# 1 101.1648 48.5528 43.1423 1.3869 10.7245 14.7309
# 2 48.5528 110.6815 58.4041 2.7202 3.8217 1.9470
# 3 43.1423 58.4041 147.5723 13.1931 11.1824 -8.8163
# 4 1.3869 2.7202 13.1931 41.2544 -6.8646 -2.0353
# 5 10.7245 3.8217 11.1824 -6.8646 20.8609 1.1699
# 6 14.7309 1.9470 -8.8163 -2.0353 1.1699 32.0389
#
#
#
# Elastic Compliance Matrix: (Units=1/GPa)
#
#
# Indices 1 2 3 4 5 6 
#
# 1 0.014856 -0.004960 -0.002340 -0.000651 -0.005295 -0.007021
# 2 -0.004960 0.013230 -0.004059 0.001046 0.002627 0.000330
# 3 -0.002340 -0.004059 0.009975 -0.003437 -0.004757 0.004023
# 4 -0.000651 0.001046 -0.003437 0.027133 0.010879 0.000617
# 5 -0.005295 0.002627 -0.004757 0.010879 0.056329 -0.000400
# 6 -0.007021 0.000330 0.004023 0.000617 -0.000400 0.035581
#
#
# Mechanical properties :
#
#
# Convention : Reuss Voigt Hill
#
# Bulk Modulus (GPa) = 65.17519 73.29077 69.23298
# Shear Modulus (GPa) = 27.03642 32.78548 29.91095
#
# Velocity S-wave (km/s) = 3.58585 3.94874 3.77166
# Velocity P-wave (km/s) = 6.93839 7.45967 7.20375
#
# Compressibility (1/GPa) = 0.01534326
#
# Stress axis : x y z
#
# Youngs Moduli (GPa) = 67.31416 75.58473 100.25127
#
# Poissons Ratio (x) = 0.37487 0.23461
# Poissons Ratio (y) = 0.33385 0.40692
# Poissons Ratio (z) = 0.15753 0.30680
#
# Static dielectric constant tensor:
#      x y z
#    x 3.742440 -0.065670 0.280230 
#    y -0.065670 3.808500 -0.192390 
#    z 0.280230 -0.192390 4.307100 
# 
# 
# High freq. dielectric constant tensor:
#      x y z
#    x 1.795840 -0.012100 0.010270 
#    y -0.012100 1.820650 -0.004880 
#    z 0.010270 -0.004880 1.845360 
# 
# From -- ./inp_files/283512.got.cif
#   From: 2010.06.25/outbox.cif.g09.slc.cpg/sg2_142_cif.got.tgz:283512.got - 2010.06.27 13:26:56.
