data_PCOD8004595
_publ_section_title
;
Structure prediction by ZEFSAII (Michael W. Deem and Ramdas Pophale) SiO2 
 PCOD8004595
Probable space group: P -1
;
_chemical_formula_sum "Si O2"
_cell_formula_units_Z 16
_cell_length_a 19.670967
_cell_length_b 11.015606
_cell_length_c 7.960688
_cell_angle_alpha 37.101397
_cell_angle_beta 135.546889
_cell_angle_gamma 135.231858
_cell_volume 687.161290
_symmetry_space_group_name_H-M "P -1"
_symmetry_group_IT_number 2
_symmetry_cell_setting 'triclinic'
loop_
_space_group_symop_operation_xyz
x,y,z
-x,-y,-z
loop_
_atom_site_type_symbol
_atom_site_label
_atom_site_fract_x
_atom_site_fract_y
_atom_site_fract_z
Si Si1 0.943657 0.255559 0.548654
Si Si2 0.068327 0.152625 0.177140
Si Si3 0.409235 0.245097 0.949675
Si Si4 0.265942 0.824313 0.119849
Si Si5 0.231595 0.596286 0.955717
Si Si6 0.947154 0.363957 0.901614
Si Si7 0.462915 0.735822 0.525429
Si Si8 0.464348 0.703949 0.195492
O O1 0.840288 0.294845 0.392848
O O2 0.021838 0.483652 0.374840
O O3 0.914441 0.077297 0.541360
O O4 0.996277 0.161141 0.885259
O O5 0.178471 0.340825 0.158024
O O6 0.999068 0.177661 0.185417
O O7 0.442630 0.217858 0.231013
O O8 0.293359 0.083030 0.887851
O O9 0.409876 0.484347 0.664838
O O10 0.481117 0.179450 0.008472
O O11 0.175908 0.725595 0.203656
O O12 0.375290 0.802585 0.393087
O O13 0.235786 0.706151 0.022183
O O14 0.342151 0.642763 0.015296
O O15 0.000000 0.500000 0.000000
O O16 0.495873 0.838582 0.280572
O O17 0.500000 0.500000 0.500000
#
# Coordination Sequence:
#
# PCOD8004595 Si02
#       8
#     2   2   2   2   2   2   2   2
#     4  10  22  40  62  89 126 167 207 260 314 376
#     4  10  22  41  61  89 124 165 212 256 314 381
#     4  10  21  40  61  86 125 163 203 254 310 367
#     4  11  22  37  60  90 117 159 206 245 312 369
#     4  10  20  38  60  89 124 159 206 260 310 375
#     4  11  21  40  59  90 123 155 205 259 311 365
#     4   9  21  39  59  87 127 157 202 262 302 371
#     4   9  20  39  62  91 122 163 204 254 317 376
#
# _framework density 23.284199999999998
#
# number of rings (size 3 to 8) (size 9 to 14) (size 15 to 20)
#    0.000    2.000    2.500    1.875    0.000    8.500 
#    0.000   10.000    0.000    0.000    0.000    0.000 
#    0.000    0.000    0.000    0.000    0.000    0.000 
#
# Total GULP energy -198229.100251 kJ/mol
# GULP energy per Si atom -12389.318766 kJ/mol
# Density = 2.323120 g / cm^3
# Si number density = 23.284200 Si / 1000 Ang^3
#
#
#
# Elastic Constant Matrix: (Units=GPa)
#
#
# Indices 1 2 3 4 5 6 
#
# 1 135.8361 34.0327 24.8257 1.1415 11.7444 18.0767
# 2 34.0327 117.3599 5.8213 -5.3376 11.2379 1.3929
# 3 24.8257 5.8213 40.7842 3.8120 3.9141 7.0600
# 4 1.1415 -5.3376 3.8120 24.2131 -11.2829 9.2662
# 5 11.7444 11.2379 3.9141 -11.2829 33.3867 1.7508
# 6 18.0767 1.3929 7.0600 9.2662 1.7508 44.1377
#
#
#
# Elastic Compliance Matrix: (Units=1/GPa)
#
#
# Indices 1 2 3 4 5 6 
#
# 1 0.009331 -0.002263 -0.004684 0.000096 -0.001784 -0.002950
# 2 -0.002263 0.009412 0.000051 0.001029 -0.002056 0.000487
# 3 -0.004684 0.000051 0.028427 -0.005311 -0.003425 -0.001379
# 4 0.000096 0.001029 -0.005311 0.056106 0.019821 -0.011787
# 5 -0.001784 -0.002056 -0.003425 0.019821 0.038600 -0.004349
# 6 -0.002950 0.000487 -0.001379 -0.011787 -0.004349 0.026717
#
#
# Mechanical properties :
#
#
# Convention : Reuss Voigt Hill
#
# Bulk Modulus (GPa) = 29.95970 47.03771 38.49870
# Shear Modulus (GPa) = 25.83826 35.63421 30.73623
#
# Velocity S-wave (km/s) = 3.33482 3.91628 3.63719
# Velocity P-wave (km/s) = 5.26525 6.37927 5.84885
#
# Compressibility (1/GPa) = 0.03337818
#
# Stress axis : x y z
#
# Youngs Moduli (GPa) = 107.17013 106.24210 35.17776
#
# Poissons Ratio (x) = 0.24046 0.16477
# Poissons Ratio (y) = 0.24256 -0.00179
# Poissons Ratio (z) = 0.50197 -0.00541
#
# Static dielectric constant tensor:
#      x y z
#    x 4.248600 -0.321430 0.168510 
#    y -0.321430 4.558830 -0.209890 
#    z 0.168510 -0.209890 4.239600 
# 
# 
# High freq. dielectric constant tensor:
#      x y z
#    x 1.916020 -0.025230 0.013880 
#    y -0.025230 1.937810 -0.004100 
#    z 0.013880 -0.004100 1.911400 
# 
# From -- ./inp_files/345901.got.cif
#   From: 2010.06.25/outbox.cif.g09.slc.cpg/sg2_173_cif.got.tgz:345901.got - 2010.06.27 13:26:56.
