data_PCOD8004912
_publ_section_title
;
Structure prediction by ZEFSAII (Michael W. Deem and Ramdas Pophale) SiO2 
 PCOD8004912
Probable space group: P -1
;
_chemical_formula_sum "Si O2"
_cell_formula_units_Z 14
_cell_length_a 11.455265
_cell_length_b 20.073523
_cell_length_c 8.739493
_cell_angle_alpha 144.345943
_cell_angle_beta 137.698957
_cell_angle_gamma 34.278377
_cell_volume 645.350738
_symmetry_space_group_name_H-M "P -1"
_symmetry_group_IT_number 2
_symmetry_cell_setting 'triclinic'
loop_
_space_group_symop_operation_xyz
x,y,z
-x,-y,-z
loop_
_atom_site_type_symbol
_atom_site_label
_atom_site_fract_x
_atom_site_fract_y
_atom_site_fract_z
Si Si1 0.043357 0.798216 0.459315
Si Si2 0.441182 0.286474 0.886047
Si Si3 0.547003 0.008068 0.386771
Si Si4 0.720538 0.573301 0.498712
Si Si5 0.298730 0.610476 0.616827
Si Si6 0.592612 0.172579 0.152574
Si Si7 0.137154 0.547493 0.903207
O O1 0.090418 0.715468 0.510136
O O2 0.166568 0.873731 0.718607
O O3 0.795927 0.912805 0.413977
O O4 0.132379 0.682382 0.195972
O O5 0.222827 0.435118 0.914715
O O6 0.460590 0.168766 0.573250
O O7 0.635362 0.298924 0.060789
O O8 0.449841 0.251092 0.008993
O O9 0.500000 0.000000 0.500000
O O10 0.420497 0.959478 0.074692
O O11 0.765085 0.459884 0.455318
O O12 0.503877 0.721870 0.601560
O O13 0.707207 0.523173 0.223882
O O14 0.902723 0.598950 0.728346
O O15 0.500000 0.500000 0.500000
#
# Coordination Sequence:
#
# PCOD8004912 Si02
#       7
#     2   2   2   2   2   2   2
#     4  11  21  39  65  89 123 157 204 248 310 349
#     4  10  21  39  57  92 120 154 203 244 305 352
#     4  10  23  38  59  90 127 160 198 251 301 362
#     4  11  22  37  60  95 123 153 212 244 310 357
#     4  11  20  36  62  96 116 151 203 256 297 361
#     4  10  20  38  63  89 120 160 201 249 296 366
#     4  11  23  37  63  89 122 166 196 257 298 365
#
# _framework density 21.693629000000001
#
# number of rings (size 3 to 8) (size 9 to 14) (size 15 to 20)
#    0.000    1.429    5.714    0.000    4.000    8.571 
#    0.000    0.714    0.000    1.714    0.000    0.000 
#    0.000    0.000    0.000    0.000    0.000    0.000 
#
# Total GULP energy -173536.462393 kJ/mol
# GULP energy per Si atom -12395.461599 kJ/mol
# Density = 2.164425 g / cm^3
# Si number density = 21.693629 Si / 1000 Ang^3
#
#
#
# Elastic Constant Matrix: (Units=GPa)
#
#
# Indices 1 2 3 4 5 6 
#
# 1 71.4603 5.6067 41.0495 4.6728 7.2332 -13.4910
# 2 5.6067 52.1529 22.8245 10.0674 6.8836 -14.0912
# 3 41.0495 22.8245 130.1500 16.4115 22.5288 -10.2818
# 4 4.6728 10.0674 16.4115 31.2361 1.1820 -1.0926
# 5 7.2332 6.8836 22.5288 1.1820 36.4843 0.3245
# 6 -13.4910 -14.0912 -10.2818 -1.0926 0.3245 20.6830
#
#
#
# Elastic Compliance Matrix: (Units=1/GPa)
#
#
# Indices 1 2 3 4 5 6 
#
# 1 0.019419 0.004084 -0.005508 -0.000834 -0.001305 0.012688
# 2 0.004084 0.027144 -0.002931 -0.006987 -0.004067 0.019394
# 3 -0.005508 -0.002931 0.011336 -0.003992 -0.005225 -0.000083
# 4 -0.000834 -0.006987 -0.003992 0.036192 0.002825 -0.005422
# 5 -0.001305 -0.004067 -0.005225 0.002825 0.031628 -0.006567
# 6 0.012688 0.019394 -0.000083 -0.005422 -0.006567 0.069613
#
#
# Mechanical properties :
#
#
# Convention : Reuss Voigt Hill
#
# Bulk Modulus (GPa) = 20.32947 43.63608 31.98277
# Shear Modulus (GPa) = 22.68210 29.96618 26.32414
#
# Velocity S-wave (km/s) = 3.23703 3.72066 3.48724
# Velocity P-wave (km/s) = 4.83349 6.21419 5.56681
#
# Compressibility (1/GPa) = 0.04918969
#
# Stress axis : x y z
#
# Youngs Moduli (GPa) = 51.49576 36.84069 88.21581
#
# Poissons Ratio (x) = -0.15046 0.48585
# Poissons Ratio (y) = -0.21031 0.25857
# Poissons Ratio (z) = 0.28362 0.10798
#
# Static dielectric constant tensor:
#      x y z
#    x 3.934600 0.038400 0.401980 
#    y 0.038400 3.617230 0.244460 
#    z 0.401980 0.244460 4.697310 
# 
# 
# High freq. dielectric constant tensor:
#      x y z
#    x 1.830470 -0.013520 0.020430 
#    y -0.013520 1.819410 0.006440 
#    z 0.020430 0.006440 1.872980 
# 
# From -- ./inp_files/154799.got.cif
#   From: 2010.06.25/outbox.cif.g09.slc.cpg/sg2_78_cif.got.tgz:154799.got - 2010.06.27 13:26:56.
