data_PCOD8004632
_publ_section_title
;
Structure prediction by ZEFSAII (Michael W. Deem and Ramdas Pophale) SiO2 
 PCOD8004632
Probable space group: P -1
;
_chemical_formula_sum "Si O2"
_cell_formula_units_Z 16
_cell_length_a 17.514039
_cell_length_b 6.345695
_cell_length_c 8.155522
_cell_angle_alpha 104.720375
_cell_angle_beta 117.427712
_cell_angle_gamma 63.497016
_cell_volume 718.618160
_symmetry_space_group_name_H-M "P -1"
_symmetry_group_IT_number 2
_symmetry_cell_setting 'triclinic'
loop_
_space_group_symop_operation_xyz
x,y,z
-x,-y,-z
loop_
_atom_site_type_symbol
_atom_site_label
_atom_site_fract_x
_atom_site_fract_y
_atom_site_fract_z
Si Si1 0.240496 0.304146 0.360307
Si Si2 0.253755 0.505129 0.077560
Si Si3 0.634527 0.216095 0.593627
Si Si4 0.775890 0.249887 0.369232
Si Si5 0.113638 0.218011 0.451635
Si Si6 0.091400 0.663524 0.719111
Si Si7 0.617881 0.549602 0.075252
Si Si8 0.527145 0.569454 0.296082
O O1 0.247359 0.328472 0.176341
O O2 0.257334 0.516488 0.506081
O O3 0.141129 0.304133 0.322678
O O4 0.320449 0.060852 0.447478
O O5 0.297854 0.691495 0.216490
O O6 0.148678 0.646836 0.939949
O O7 0.317870 0.354167 0.956669
O O8 0.611145 0.357506 0.426865
O O9 0.537702 0.250990 0.599036
O O10 0.871389 0.210577 0.358913
O O11 0.691192 0.291669 0.164019
O O12 0.800216 0.024171 0.464948
O O13 0.103465 0.401136 0.623957
O O14 0.017211 0.181503 0.323041
O O15 0.570541 0.692351 0.224777
O O16 0.534839 0.546376 0.881928
#
# Coordination Sequence:
#
# PCOD8004632 Si02
#       8
#     2   2   2   2   2   2   2   2
#     4  11  22  36  56  82 113 156 190 220 279 338
#     4  10  21  37  56  83 117 148 184 229 278 336
#     4  10  21  39  58  80 116 151 184 231 282 333
#     4  10  20  38  61  82 113 150 187 230 279 332
#     4  10  20  38  61  84 113 146 185 234 278 329
#     4   9  21  37  59  89 111 142 189 231 280 331
#     4   9  18  35  57  83 110 143 188 233 279 327
#     4   9  18  36  61  82 108 147 187 235 286 327
#
# _framework density 22.264952000000001
#
# number of rings (size 3 to 8) (size 9 to 14) (size 15 to 20)
#    0.000    2.250    0.000    2.625    0.000    3.500 
#    0.000   18.750    0.000    0.000    0.000    0.000 
#    0.000    0.000    0.000    0.000    0.000    0.000 
#
# Total GULP energy -198220.377212 kJ/mol
# GULP energy per Si atom -12388.773576 kJ/mol
# Density = 2.221428 g / cm^3
# Si number density = 22.264952 Si / 1000 Ang^3
#
#
#
# Elastic Constant Matrix: (Units=GPa)
#
#
# Indices 1 2 3 4 5 6 
#
# 1 117.0620 19.9122 62.0691 -14.5917 -22.1615 -0.0303
# 2 19.9122 81.5640 25.7648 -11.3473 -4.0737 -6.2199
# 3 62.0691 25.7648 121.6518 -25.0070 -2.7053 0.4154
# 4 -14.5917 -11.3473 -25.0070 19.4400 -1.4574 0.0846
# 5 -22.1615 -4.0737 -2.7053 -1.4574 47.1330 -4.7420
# 6 -0.0303 -6.2199 0.4154 0.0846 -4.7420 22.9793
#
#
#
# Elastic Compliance Matrix: (Units=1/GPa)
#
#
# Indices 1 2 3 4 5 6 
#
# 1 0.013281 -0.000623 -0.006046 0.002274 0.006034 0.001195
# 2 -0.000623 0.014082 -0.001406 0.006033 0.001444 0.004112
# 3 -0.006046 -0.001406 0.014187 0.012756 -0.001864 -0.001077
# 4 0.002274 0.006033 0.012756 0.073428 0.004807 0.002127
# 5 0.006034 0.001444 -0.001864 0.004807 0.024776 0.005527
# 6 0.001195 0.004112 -0.001077 0.002127 0.005527 0.045784
#
#
# Mechanical properties :
#
#
# Convention : Reuss Voigt Hill
#
# Bulk Modulus (GPa) = 39.37359 59.53004 49.45182
# Shear Modulus (GPa) = 23.79186 32.07925 27.93555
#
# Velocity S-wave (km/s) = 3.27246 3.79990 3.54600
# Velocity P-wave (km/s) = 5.65696 6.78583 6.24694
#
# Compressibility (1/GPa) = 0.02539773
#
# Stress axis : x y z
#
# Youngs Moduli (GPa) = 75.29808 71.01438 70.48542
#
# Poissons Ratio (x) = 0.04427 0.42619
# Poissons Ratio (y) = 0.04694 0.09910
# Poissons Ratio (z) = 0.45529 0.09985
#
# Static dielectric constant tensor:
#      x y z
#    x 4.666190 -0.141930 -0.192380 
#    y -0.141930 3.460450 -0.167580 
#    z -0.192380 -0.167580 4.093300 
# 
# 
# High freq. dielectric constant tensor:
#      x y z
#    x 1.912970 -0.010370 -0.007820 
#    y -0.010370 1.820790 -0.017670 
#    z -0.007820 -0.017670 1.876280 
# 
# From -- ./inp_files/317635.got.cif
#   From: 2010.06.25/outbox.cif.g09.slc.cpg/sg2_159_cif.got.tgz:317635.got - 2010.06.27 13:26:56.
