data_PCOD8004564
_publ_section_title
;
Structure prediction by ZEFSAII (Michael W. Deem and Ramdas Pophale) SiO2 
 PCOD8004564
Probable space group: P -1
;
_chemical_formula_sum "Si O2"
_cell_formula_units_Z 14
_cell_length_a 8.226580
_cell_length_b 15.465865
_cell_length_c 12.280787
_cell_angle_alpha 71.252998
_cell_angle_beta 124.754935
_cell_angle_gamma 63.002662
_cell_volume 697.585574
_symmetry_space_group_name_H-M "P -1"
_symmetry_group_IT_number 2
_symmetry_cell_setting 'triclinic'
loop_
_space_group_symop_operation_xyz
x,y,z
-x,-y,-z
loop_
_atom_site_type_symbol
_atom_site_label
_atom_site_fract_x
_atom_site_fract_y
_atom_site_fract_z
Si Si1 0.198569 0.041754 0.856171
Si Si2 0.962554 0.453814 0.334761
Si Si3 0.663137 0.722839 0.241200
Si Si4 0.121491 0.382953 0.183893
Si Si5 0.452413 0.568700 0.787465
Si Si6 0.159952 0.870426 0.528294
Si Si7 0.722430 0.373894 0.542557
O O1 0.142721 0.036649 0.710785
O O2 0.853646 0.223917 0.692312
O O3 0.500000 0.000000 0.000000
O O4 0.294236 0.913748 0.011917
O O5 0.677265 0.632147 0.200073
O O6 0.789170 0.420801 0.268047
O O7 0.282148 0.330299 0.592089
O O8 0.109699 0.428508 0.283837
O O9 0.962059 0.679207 0.340127
O O10 0.511764 0.205383 0.376436
O O11 0.000000 0.500000 0.000000
O O12 0.831494 0.412659 0.050321
O O13 0.277243 0.731929 0.688360
O O14 0.502338 0.551766 0.682563
O O15 0.000000 0.000000 0.500000
O O16 0.500000 0.500000 0.500000
#
# Coordination Sequence:
#
# PCOD8004564 Si02
#       7
#     2   2   2   2   2   2   2
#     4   9  19  36  57  87 115 154 199 245 299 347
#     4  10  20  38  60  86 123 156 203 247 300 365
#     4   9  20  34  61  83 118 162 193 243 311 350
#     4  10  22  36  61  85 113 156 204 246 292 360
#     4   9  20  38  58  88 116 160 197 244 303 355
#     4  10  22  38  61  88 121 155 203 251 301 356
#     4   9  18  32  60  90 119 147 202 252 289 354
#
# _framework density 20.069223000000001
#
# number of rings (size 3 to 8) (size 9 to 14) (size 15 to 20)
#    0.000    2.571    0.000    1.286   10.000    1.143 
#    0.000    1.429    0.000    0.000    0.000    0.000 
#    0.000    0.000    0.000    0.000    0.000    0.000 
#
# Total GULP energy -173480.905165 kJ/mol
# GULP energy per Si atom -12391.493226 kJ/mol
# Density = 2.002354 g / cm^3
# Si number density = 20.069223 Si / 1000 Ang^3
#
#
#
# Elastic Constant Matrix: (Units=GPa)
#
#
# Indices 1 2 3 4 5 6 
#
# 1 56.5688 46.9975 30.5606 -0.2853 -14.1195 -10.4431
# 2 46.9975 174.8358 65.1293 0.0927 -10.6815 -12.2052
# 3 30.5606 65.1293 111.5509 4.7600 -8.2782 -8.8590
# 4 -0.2853 0.0927 4.7600 27.7065 8.1313 -5.0420
# 5 -14.1195 -10.6815 -8.2782 8.1313 30.7939 4.7759
# 6 -10.4431 -12.2052 -8.8590 -5.0420 4.7759 35.6625
#
#
#
# Elastic Compliance Matrix: (Units=1/GPa)
#
#
# Indices 1 2 3 4 5 6 
#
# 1 0.026740 -0.005126 -0.003286 -0.001176 0.009314 0.003846
# 2 -0.005126 0.008425 -0.003548 0.000872 -0.000724 0.000721
# 3 -0.003286 -0.003548 0.012147 -0.002365 0.001097 0.000360
# 4 -0.001176 0.000872 -0.002365 0.041546 -0.012924 0.006971
# 5 0.009314 -0.000724 0.001097 -0.012924 0.040907 -0.004553
# 6 0.003846 0.000721 0.000360 0.006971 -0.004553 0.031098
#
#
# Mechanical properties :
#
#
# Convention : Reuss Voigt Hill
#
# Bulk Modulus (GPa) = 42.74991 69.81448 56.28220
# Shear Modulus (GPa) = 25.96302 32.18378 29.07340
#
# Velocity S-wave (km/s) = 3.60067 4.00889 3.81025
# Velocity P-wave (km/s) = 6.21562 7.50271 6.88929
#
# Compressibility (1/GPa) = 0.02339186
#
# Stress axis : x y z
#
# Youngs Moduli (GPa) = 37.39688 118.69484 82.32183
#
# Poissons Ratio (x) = 0.60839 0.27054
# Poissons Ratio (y) = 0.19168 0.29211
# Poissons Ratio (z) = 0.12290 0.42117
#
# Static dielectric constant tensor:
#      x y z
#    x 3.678160 0.229280 0.088080 
#    y 0.229280 4.093030 -0.170230 
#    z 0.088080 -0.170230 4.397690 
# 
# 
# High freq. dielectric constant tensor:
#      x y z
#    x 1.760700 0.011740 -0.001230 
#    y 0.011740 1.778740 0.016290 
#    z -0.001230 0.016290 1.792040 
# 
# From -- ./inp_files/172194.got.cif
#   From: 2010.06.25/outbox.cif.g09.slc.cpg/sg2_87_cif.got.tgz:172194.got - 2010.06.27 13:26:56.
