data_PCOD8004832
_publ_section_title
;
Structure prediction by ZEFSAII (Michael W. Deem and Ramdas Pophale) SiO2 
 PCOD8004832
Probable space group: P -1
;
_chemical_formula_sum "Si O2"
_cell_formula_units_Z 16
_cell_length_a 20.635760
_cell_length_b 9.157341
_cell_length_c 23.824773
_cell_angle_alpha 42.003825
_cell_angle_beta 21.976383
_cell_angle_gamma 29.781745
_cell_volume 789.298606
_symmetry_space_group_name_H-M "P -1"
_symmetry_group_IT_number 2
_symmetry_cell_setting 'triclinic'
loop_
_space_group_symop_operation_xyz
x,y,z
-x,-y,-z
loop_
_atom_site_type_symbol
_atom_site_label
_atom_site_fract_x
_atom_site_fract_y
_atom_site_fract_z
Si Si1 0.935985 0.680493 0.184813
Si Si2 0.708080 0.777096 0.157793
Si Si3 0.453830 0.346331 0.886785
Si Si4 0.815872 0.892213 0.930489
Si Si5 0.864461 0.740503 0.349536
Si Si6 0.290064 0.667454 0.666368
Si Si7 0.580565 0.756173 0.932738
Si Si8 0.507136 0.214475 0.301111
O O1 0.869960 0.636062 0.311872
O O2 0.015918 0.420011 0.152589
O O3 0.710420 0.016456 0.243535
O O4 0.160226 0.645430 0.027045
O O5 0.617424 0.610921 0.287861
O O6 0.609739 0.023589 0.215223
O O7 0.641928 0.930310 0.106209
O O8 0.000000 0.500000 0.000000
O O9 0.577676 0.458697 0.733908
O O10 0.544967 0.048344 0.866344
O O11 0.519984 0.239544 0.928513
O O12 0.014844 0.877930 0.801514
O O13 0.603179 0.200895 0.975750
O O14 0.734960 0.693665 0.510083
O O15 0.130973 0.553386 0.216268
O O16 0.716577 0.101398 0.360097
O O17 0.500000 0.500000 0.500000
#
# Coordination Sequence:
#
# PCOD8004832 Si02
#       8
#     2   2   2   2   2   2   2   2
#     4  10  20  38  62  92 116 150 199 246 300 352
#     4  10  21  36  61  87 120 150 196 241 294 350
#     4   9  21  37  63  84 118 153 201 252 284 343
#     4  10  21  40  65  83 121 159 200 241 285 355
#     4  11  24  37  62  88 125 156 193 243 297 353
#     4  11  21  40  60  90 124 154 184 249 304 348
#     4   9  21  42  56  86 115 162 205 233 288 355
#     4  12  21  38  59  94 120 151 196 250 303 346
#
# _framework density 20.271160999999999
#
# number of rings (size 3 to 8) (size 9 to 14) (size 15 to 20)
#    0.000    1.750    3.750    1.500    7.000    3.000 
#    0.000    1.875    0.000    0.000    0.000    0.000 
#    0.000    0.000    0.000    0.000    0.000    0.000 
#
# Total GULP energy -198258.266224 kJ/mol
# GULP energy per Si atom -12391.141639 kJ/mol
# Density = 2.022502 g / cm^3
# Si number density = 20.271161 Si / 1000 Ang^3
#
#
#
# Elastic Constant Matrix: (Units=GPa)
#
#
# Indices 1 2 3 4 5 6 
#
# 1 87.9355 13.7211 29.8203 2.5834 10.2497 -10.0185
# 2 13.7211 77.9056 25.9926 -13.8883 3.1553 0.5774
# 3 29.8203 25.9926 92.9835 -12.1226 20.4007 1.3735
# 4 2.5834 -13.8883 -12.1226 31.8881 0.3583 -4.6823
# 5 10.2497 3.1553 20.4007 0.3583 27.9109 7.7689
# 6 -10.0185 0.5774 1.3735 -4.6823 7.7689 29.7356
#
#
#
# Elastic Compliance Matrix: (Units=1/GPa)
#
#
# Indices 1 2 3 4 5 6 
#
# 1 0.013981 -0.001565 -0.003586 -0.002320 -0.003851 0.005547
# 2 -0.001565 0.015128 -0.003288 0.005431 0.001236 -0.000137
# 3 -0.003586 -0.003288 0.015748 0.005204 -0.010349 0.001651
# 4 -0.002320 0.005431 0.005204 0.036864 -0.005760 0.006182
# 5 -0.003851 0.001236 -0.010349 -0.005760 0.048775 -0.014494
# 6 0.005547 -0.000137 0.001651 0.006182 -0.014494 0.040185
#
#
# Mechanical properties :
#
#
# Convention : Reuss Voigt Hill
#
# Bulk Modulus (GPa) = 35.73986 44.21030 39.97508
# Shear Modulus (GPa) = 25.39545 30.52630 27.96087
#
# Velocity S-wave (km/s) = 3.54331 3.88480 3.71798
# Velocity P-wave (km/s) = 5.86594 6.47912 6.18014
#
# Compressibility (1/GPa) = 0.02797997
#
# Stress axis : x y z
#
# Youngs Moduli (GPa) = 71.52481 66.10310 63.49860
#
# Poissons Ratio (x) = 0.10343 0.22770
# Poissons Ratio (y) = 0.11191 0.20879
# Poissons Ratio (z) = 0.25648 0.21735
#
# Static dielectric constant tensor:
#      x y z
#    x 5.336490 -1.892340 1.744050 
#    y -1.892340 6.321210 -2.206350 
#    z 1.744050 -2.206350 5.554540 
# 
# 
# High freq. dielectric constant tensor:
#      x y z
#    x 1.790680 -0.002990 0.011110 
#    y -0.002990 1.783930 -0.000750 
#    z 0.011110 -0.000750 1.781150 
# 
# From -- ./inp_files/175172.got.cif
#   From: 2010.06.25/outbox.cif.g09.slc.cpg/sg2_88_cif.got.tgz:175172.got - 2010.06.27 13:26:56.
