data_PCOD8004968
_publ_section_title
;
Structure prediction by ZEFSAII (Michael W. Deem and Ramdas Pophale) SiO2 
 PCOD8004968
Probable space group: P -1
;
_chemical_formula_sum "Si O2"
_cell_formula_units_Z 16
_cell_length_a 8.710860
_cell_length_b 14.648611
_cell_length_c 26.681527
_cell_angle_alpha 22.723845
_cell_angle_beta 137.767919
_cell_angle_gamma 124.280382
_cell_volume 784.405253
_symmetry_space_group_name_H-M "P -1"
_symmetry_group_IT_number 2
_symmetry_cell_setting 'triclinic'
loop_
_space_group_symop_operation_xyz
x,y,z
-x,-y,-z
loop_
_atom_site_type_symbol
_atom_site_label
_atom_site_fract_x
_atom_site_fract_y
_atom_site_fract_z
Si Si1 0.779600 0.007339 0.330182
Si Si2 0.249265 0.103920 0.818230
Si Si3 0.208220 0.552867 0.402153
Si Si4 0.655518 0.135084 0.445016
Si Si5 0.420222 0.682898 0.158673
Si Si6 0.710387 0.216981 0.308703
Si Si7 0.491934 0.816802 0.924620
Si Si8 0.074743 0.020150 0.063061
O O1 0.821912 0.708497 0.484486
O O2 0.036674 0.037613 0.388064
O O3 0.610751 0.129428 0.278588
O O4 0.649049 0.187420 0.158852
O O5 0.428188 0.246514 0.797469
O O6 0.949221 0.308934 0.654625
O O7 0.277026 0.998753 0.821150
O O8 0.365159 0.850191 0.010246
O O9 0.500000 0.500000 0.500000
O O10 0.074826 0.763270 0.219198
O O11 0.601519 0.384725 0.339428
O O12 0.558309 0.211410 0.325128
O O13 0.500000 0.000000 0.500000
O O14 0.151274 0.717279 0.099140
O O15 0.670025 0.518496 0.138665
O O16 0.000000 0.000000 0.500000
O O17 0.660887 0.964927 0.876404
O O18 0.000000 0.000000 0.000000
#
# Coordination Sequence:
#
# PCOD8004968 Si02
#       8
#     2   2   2   2   2   2   2   2
#     4  11  25  45  67  96 140 177 219 283 336 401
#     4  10  21  39  68  93 132 174 212 277 337 390
#     4  11  23  45  63  99 140 171 215 271 348 398
#     4  11  24  45  66  96 125 178 233 279 327 398
#     4  10  20  38  63  94 130 169 221 280 321 390
#     4  10  25  44  70  90 127 183 228 279 327 391
#     4  12  23  45  66 102 136 177 225 274 347 397
#     4  11  24  35  66 101 130 174 222 270 326 406
#
# _framework density 20.39762
#
# number of rings (size 3 to 8) (size 9 to 14) (size 15 to 20)
#    0.000    1.250    5.000    0.375    7.000    0.500 
#    4.500    0.625    0.000    0.000    0.000    0.000 
#    0.000    0.000    0.000    0.000    0.000    0.000 
#
# Total GULP energy -198303.266502 kJ/mol
# GULP energy per Si atom -12393.954156 kJ/mol
# Density = 2.035119 g / cm^3
# Si number density = 20.397620 Si / 1000 Ang^3
#
#
#
# Elastic Constant Matrix: (Units=GPa)
#
#
# Indices 1 2 3 4 5 6 
#
# 1 131.3906 58.1698 44.8192 4.4857 -3.0110 -11.9399
# 2 58.1698 96.0312 28.0467 6.3949 -6.0290 -15.4582
# 3 44.8192 28.0467 77.9618 -5.2058 -6.0427 -8.4224
# 4 4.4857 6.3949 -5.2058 36.0161 -0.3423 -2.3688
# 5 -3.0110 -6.0290 -6.0427 -0.3423 34.5445 2.5419
# 6 -11.9399 -15.4582 -8.4224 -2.3688 2.5419 46.6435
#
#
#
# Elastic Compliance Matrix: (Units=1/GPa)
#
#
# Indices 1 2 3 4 5 6 
#
# 1 0.011830 -0.005677 -0.004874 -0.001161 -0.000842 0.000254
# 2 -0.005677 0.015118 -0.001861 -0.002032 0.001575 0.003032
# 3 -0.004874 -0.001861 0.016829 0.003471 0.002138 0.001234
# 4 -0.001161 -0.002032 0.003471 0.028848 0.000356 0.001102
# 5 -0.000842 0.001575 0.002138 0.000356 0.029594 -0.000902
# 6 0.000254 0.003032 0.001234 0.001102 -0.000902 0.022837
#
#
# Mechanical properties :
#
#
# Convention : Reuss Voigt Hill
#
# Bulk Modulus (GPa) = 52.76275 63.05057 57.90666
# Shear Modulus (GPa) = 32.01046 35.06400 33.53723
#
# Velocity S-wave (km/s) = 3.96577 4.15061 4.05924
# Velocity P-wave (km/s) = 6.84785 7.34493 7.10074
#
# Compressibility (1/GPa) = 0.01895276
#
# Stress axis : x y z
#
# Youngs Moduli (GPa) = 84.52773 66.14633 59.42051
#
# Poissons Ratio (x) = 0.37554 0.28963
# Poissons Ratio (y) = 0.47989 0.11058
# Poissons Ratio (z) = 0.41200 0.12309
#
# Static dielectric constant tensor:
#      x y z
#    x 3.958550 -0.253270 -0.010370 
#    y -0.253270 3.917920 -0.185930 
#    z -0.010370 -0.185930 3.723420 
# 
# 
# High freq. dielectric constant tensor:
#      x y z
#    x 1.811500 -0.018060 0.002160 
#    y -0.018060 1.779500 -0.006240 
#    z 0.002160 -0.006240 1.798210 
# 
# From -- ./inp_files/218042.got.cif
#   From: 2010.06.25/outbox.cif.g09.slc.cpg/sg2_110_cif.got.tgz:218042.got - 2010.06.27 13:26:56.
