data_PCOD8004048
_publ_section_title
;
Structure prediction by ZEFSAII (Michael W. Deem and Ramdas Pophale) SiO2 
 PCOD8004048
Probable space group: P -1
;
_chemical_formula_sum "Si O2"
_cell_formula_units_Z 12
_cell_length_a 6.618708
_cell_length_b 11.891856
_cell_length_c 24.587632
_cell_angle_alpha 22.198876
_cell_angle_beta 56.601995
_cell_angle_gamma 54.141498
_cell_volume 592.394384
_symmetry_space_group_name_H-M "P -1"
_symmetry_group_IT_number 2
_symmetry_cell_setting 'triclinic'
loop_
_space_group_symop_operation_xyz
x,y,z
-x,-y,-z
loop_
_atom_site_type_symbol
_atom_site_label
_atom_site_fract_x
_atom_site_fract_y
_atom_site_fract_z
Si Si1 0.652809 0.269078 0.422418
Si Si2 0.669212 0.660689 0.831592
Si Si3 0.837666 0.600008 0.719685
Si Si4 0.278690 0.682527 0.486744
Si Si5 0.877802 0.297077 0.069015
Si Si6 0.857552 0.361861 0.710717
O O1 0.629693 0.386869 0.434600
O O2 0.426843 0.476364 0.330547
O O3 0.905956 0.318286 0.336092
O O4 0.657511 0.907282 0.582262
O O5 0.717015 0.495046 0.839283
O O6 0.374120 0.752716 0.844667
O O7 0.777929 0.960881 0.679484
O O8 0.818525 0.446811 0.951751
O O9 0.885908 0.338746 0.782865
O O10 0.500000 0.500000 0.500000
O O11 0.028477 0.566439 0.566704
O O12 0.072748 0.973125 0.176356
O O13 0.000000 0.500000 0.000000
#
# Coordination Sequence:
#
# PCOD8004048 Si02
#       6
#     2   2   2   2   2   2
#     4   9  20  35  61  95 125 147 196 257 302 358
#     4  10  23  44  61  84 128 159 199 251 300 360
#     4   9  20  40  62  88 121 161 195 249 310 348
#     4  10  20  37  63  92 118 155 198 247 307 348
#     4  11  26  41  59  88 125 165 201 247 299 357
#     4  11  22  38  66  94 120 156 205 249 298 363
#
# _framework density 20.256774
#
# number of rings (size 3 to 8) (size 9 to 14) (size 15 to 20)
#    0.000    2.000    1.667    1.500    2.333    6.667 
#    0.000    1.667    0.000    0.000    0.000    0.000 
#    0.000    0.000    0.000    0.000    0.000    0.000 
#
# Total GULP energy -148795.194733 kJ/mol
# GULP energy per Si atom -12399.599561 kJ/mol
# Density = 2.021067 g / cm^3
# Si number density = 20.256774 Si / 1000 Ang^3
#
#
#
# Elastic Constant Matrix: (Units=GPa)
#
#
# Indices 1 2 3 4 5 6 
#
# 1 87.5201 38.1337 47.3681 -10.3465 6.0688 -8.0918
# 2 38.1337 137.9210 52.3292 4.6720 0.2862 1.8684
# 3 47.3681 52.3292 86.7831 1.7122 -2.2086 2.3110
# 4 -10.3465 4.6720 1.7122 37.2157 8.7631 -0.2242
# 5 6.0688 0.2862 -2.2086 8.7631 18.5457 -9.2330
# 6 -8.0918 1.8684 2.3110 -0.2242 -9.2330 28.7036
#
#
#
# Elastic Compliance Matrix: (Units=1/GPa)
#
#
# Indices 1 2 3 4 5 6 
#
# 1 0.019783 -0.001936 -0.010145 0.008595 -0.010042 0.003357
# 2 -0.001936 0.009629 -0.004690 -0.001616 0.000343 -0.000697
# 3 -0.010145 -0.004690 0.020217 -0.004853 0.007134 -0.001925
# 4 0.008595 -0.001616 -0.004853 0.034767 -0.021677 -0.003782
# 5 -0.010042 0.000343 0.007134 -0.021677 0.079183 0.021874
# 6 0.003357 -0.000697 -0.001925 -0.003782 0.021874 0.042992
#
#
# Mechanical properties :
#
#
# Convention : Reuss Voigt Hill
#
# Bulk Modulus (GPa) = 62.16502 65.32068 63.74285
# Shear Modulus (GPa) = 20.36855 28.51921 24.44388
#
# Velocity S-wave (km/s) = 3.17443 3.75625 3.47753
# Velocity P-wave (km/s) = 6.64764 7.15045 6.90362
#
# Compressibility (1/GPa) = 0.01608622
#
# Stress axis : x y z
#
# Youngs Moduli (GPa) = 50.54822 103.85456 49.46368
#
# Poissons Ratio (x) = 0.20111 0.50180
# Poissons Ratio (y) = 0.09788 0.23198
# Poissons Ratio (z) = 0.51281 0.48707
#
# Static dielectric constant tensor:
#      x y z
#    x 3.542180 0.061620 -0.131150 
#    y 0.061620 4.111300 0.041330 
#    z -0.131150 0.041330 3.576200 
# 
# 
# High freq. dielectric constant tensor:
#      x y z
#    x 1.779570 -0.000490 -0.001990 
#    y -0.000490 1.816900 0.004820 
#    z -0.001990 0.004820 1.771570 
# 
# From -- ./inp_files/28994.got.cif
#   From: 2010.06.25/outbox.cif.g09.slc.cpg/sg2_15_cif.got.tgz:28994.got - 2010.06.27 13:26:56.
