data_PCOD8004004
_publ_section_title
;
Structure prediction by ZEFSAII (Michael W. Deem and Ramdas Pophale) SiO2 
 PCOD8004004
Probable space group: P -1
;
_chemical_formula_sum "Si O2"
_cell_formula_units_Z 16
_cell_length_a 11.556722
_cell_length_b 13.918682
_cell_length_c 15.347636
_cell_angle_alpha 117.478689
_cell_angle_beta 45.371009
_cell_angle_gamma 150.270771
_cell_volume 790.230442
_symmetry_space_group_name_H-M "P -1"
_symmetry_group_IT_number 2
_symmetry_cell_setting 'triclinic'
loop_
_space_group_symop_operation_xyz
x,y,z
-x,-y,-z
loop_
_atom_site_type_symbol
_atom_site_label
_atom_site_fract_x
_atom_site_fract_y
_atom_site_fract_z
Si Si1 0.896445 0.257637 0.639978
Si Si2 0.674932 0.298074 0.389486
Si Si3 0.627055 0.990880 0.053180
Si Si4 0.119178 0.187572 0.997919
Si Si5 0.233645 0.041710 0.359923
Si Si6 0.868173 0.639084 0.786669
Si Si7 0.345127 0.754323 0.929498
Si Si8 0.769573 0.096997 0.452199
O O1 0.602923 0.146797 0.798375
O O2 0.821219 0.196188 0.553238
O O3 0.209021 0.512663 0.583217
O O4 0.969407 0.186793 0.622428
O O5 0.556018 0.212820 0.318230
O O6 0.948264 0.368609 0.298790
O O7 0.361654 0.098031 0.533584
O O8 0.689133 0.145400 0.048394
O O9 0.464936 0.823249 0.994586
O O10 0.969145 0.140443 0.965654
O O11 0.015634 0.210721 0.138466
O O12 0.498378 0.399966 0.882810
O O13 0.000000 0.000000 0.000000
O O14 0.375226 0.146522 0.232496
O O15 0.000000 0.000000 0.500000
O O16 0.923419 0.727405 0.699654
O O17 0.000000 0.500000 0.000000
O O18 0.500000 0.000000 0.500000
#
# Coordination Sequence:
#
# PCOD8004004 Si02
#       8
#     2   2   2   2   2   2   2   2
#     4  10  20  37  63  86 117 159 201 247 305 363
#     4  10  20  38  64  83 116 163 199 249 306 365
#     4  10  21  39  61  94 117 155 214 248 297 371
#     4  11  23  39  59  89 127 166 201 255 303 366
#     4  10  22  41  59  90 123 155 202 260 313 365
#     4  10  22  38  58  88 123 162 206 245 305 361
#     4  10  21  40  67  87 120 163 205 255 309 368
#     4   9  19  35  55  86 115 150 198 244 289 358
#
# _framework density 20.247257999999999
#
# number of rings (size 3 to 8) (size 9 to 14) (size 15 to 20)
#    0.000    2.000    0.000    4.500    0.000    5.500 
#   11.250    0.000    0.000    0.000    0.000    0.000 
#    0.000    0.000    0.000    0.000    0.000    0.000 
#
# Total GULP energy -198318.089246 kJ/mol
# GULP energy per Si atom -12394.880578 kJ/mol
# Density = 2.020117 g / cm^3
# Si number density = 20.247258 Si / 1000 Ang^3
#
#
#
# Elastic Constant Matrix: (Units=GPa)
#
#
# Indices 1 2 3 4 5 6 
#
# 1 76.8302 45.5411 43.6767 5.1209 5.8819 9.6840
# 2 45.5411 158.0785 61.0981 -7.2761 17.5731 -7.3117
# 3 43.6767 61.0981 123.7158 6.4583 16.7209 0.2368
# 4 5.1209 -7.2761 6.4583 20.2918 -2.0366 7.8290
# 5 5.8819 17.5731 16.7209 -2.0366 35.2438 3.4087
# 6 9.6840 -7.3117 0.2368 7.8290 3.4087 36.2788
#
#
#
# Elastic Compliance Matrix: (Units=1/GPa)
#
#
# Indices 1 2 3 4 5 6 
#
# 1 0.018882 -0.004172 -0.004670 -0.002519 0.001526 -0.005450
# 2 -0.004172 0.009258 -0.002985 0.004173 -0.002488 0.002332
# 3 -0.004670 -0.002985 0.011982 -0.004860 -0.003889 0.001981
# 4 -0.002519 0.004173 -0.004860 0.057879 0.005095 -0.011424
# 5 0.001526 -0.002488 -0.003889 0.005095 0.031982 -0.004988
# 6 -0.005450 0.002332 0.001981 -0.011424 -0.004988 0.032410
#
#
# Mechanical properties :
#
#
# Convention : Reuss Voigt Hill
#
# Bulk Modulus (GPa) = 60.72951 73.25070 66.99010
# Shear Modulus (GPa) = 26.10472 32.25011 29.17742
#
# Velocity S-wave (km/s) = 3.59457 3.99534 3.80024
# Velocity P-wave (km/s) = 6.87655 7.58553 7.23973
#
# Compressibility (1/GPa) = 0.01646646
#
# Stress axis : x y z
#
# Youngs Moduli (GPa) = 52.96141 108.00938 83.46190
#
# Poissons Ratio (x) = 0.45067 0.38975
# Poissons Ratio (y) = 0.22098 0.24916
# Poissons Ratio (z) = 0.24732 0.32245
#
# Static dielectric constant tensor:
#      x y z
#    x 3.775360 -0.049140 0.478270 
#    y -0.049140 3.823490 -0.150930 
#    z 0.478270 -0.150930 4.045030 
# 
# 
# High freq. dielectric constant tensor:
#      x y z
#    x 1.784760 0.001810 0.018610 
#    y 0.001810 1.801420 -0.004950 
#    z 0.018610 -0.004950 1.786300 
# 
# From -- ./inp_files/521618.got.cif
#   From: 2010.06.25/outbox.cif.g09.slc.cpg/sg2_261_cif.got.tgz:521618.got - 2010.06.27 13:26:56.
