data_PCOD8004650
_publ_section_title
;
Structure prediction by ZEFSAII (Michael W. Deem and Ramdas Pophale) SiO2 
 PCOD8004650
Probable space group: P -1
;
_chemical_formula_sum "Si O2"
_cell_formula_units_Z 14
_cell_length_a 8.911034
_cell_length_b 15.005936
_cell_length_c 9.915491
_cell_angle_alpha 49.768410
_cell_angle_beta 133.906218
_cell_angle_gamma 109.200201
_cell_volume 712.006966
_symmetry_space_group_name_H-M "P -1"
_symmetry_group_IT_number 2
_symmetry_cell_setting 'triclinic'
loop_
_space_group_symop_operation_xyz
x,y,z
-x,-y,-z
loop_
_atom_site_type_symbol
_atom_site_label
_atom_site_fract_x
_atom_site_fract_y
_atom_site_fract_z
Si Si1 0.708999 0.092113 0.300937
Si Si2 0.031890 0.152902 0.257283
Si Si3 0.041329 0.329731 0.864866
Si Si4 0.969658 0.263375 0.381737
Si Si5 0.716563 0.746380 0.177797
Si Si6 0.672012 0.516482 0.982487
Si Si7 0.594465 0.506540 0.406053
O O1 0.798498 0.178948 0.377262
O O2 0.826726 0.097373 0.223609
O O3 0.760957 0.955947 0.520211
O O4 0.455499 0.134672 0.086182
O O5 0.065474 0.245369 0.306610
O O6 0.986178 0.220031 0.021074
O O7 0.113021 0.288052 0.800946
O O8 0.836052 0.435392 0.618139
O O9 0.228819 0.373081 0.018648
O O10 0.162530 0.223951 0.643922
O O11 0.861966 0.400736 0.204191
O O12 0.586497 0.643073 0.225951
O O13 0.555472 0.547257 0.736660
O O14 0.500000 0.500000 0.000000
O O15 0.500000 0.500000 0.500000
#
# Coordination Sequence:
#
# PCOD8004650 Si02
#       7
#     2   2   2   2   2   2   2
#     4   9  20  44  62  82 118 157 205 239 299 342
#     4   9  22  43  62  82 121 157 198 253 283 355
#     4  12  24  39  58  95 124 153 200 242 299 359
#     4  10  20  38  61  85 113 157 199 238 292 348
#     4  12  22  37  62  88 120 154 197 248 294 349
#     4  12  22  38  60  87 127 160 189 242 307 353
#     4  12  24  37  59  90 122 160 196 240 295 357
#
# _framework density 19.662727
#
# number of rings (size 3 to 8) (size 9 to 14) (size 15 to 20)
#    0.857    0.286    4.286    3.000    2.000    2.286 
#    0.000    0.714    0.000    0.000    0.000    0.000 
#    0.000    0.000    0.000    0.000    0.000    0.000 
#
# Total GULP energy -173614.641783 kJ/mol
# GULP energy per Si atom -12401.045842 kJ/mol
# Density = 1.961797 g / cm^3
# Si number density = 19.662727 Si / 1000 Ang^3
#
#
#
# Elastic Constant Matrix: (Units=GPa)
#
#
# Indices 1 2 3 4 5 6 
#
# 1 48.2296 11.1577 10.6138 -4.3509 8.4531 -19.0717
# 2 11.1577 33.5134 21.2570 3.7681 -4.4131 -7.1420
# 3 10.6138 21.2570 89.4264 -0.0773 17.8757 -5.4466
# 4 -4.3509 3.7681 -0.0773 44.1463 0.9089 2.3319
# 5 8.4531 -4.4131 17.8757 0.9089 32.1644 0.9624
# 6 -19.0717 -7.1420 -5.4466 2.3319 0.9624 28.6571
#
#
#
# Elastic Compliance Matrix: (Units=1/GPa)
#
#
# Indices 1 2 3 4 5 6 
#
# 1 0.032799 -0.009891 0.002029 0.003273 -0.011792 0.019878
# 2 -0.009891 0.043952 -0.012265 -0.005170 0.015534 0.001939
# 3 0.002029 -0.012265 0.016221 0.001422 -0.011320 0.001641
# 4 0.003273 -0.005170 0.001422 0.023515 -0.003005 -0.000653
# 5 -0.011792 0.015534 -0.011320 -0.003005 0.042916 -0.007325
# 6 0.019878 0.001939 0.001641 -0.000653 -0.007325 0.049219
#
#
# Mechanical properties :
#
#
# Convention : Reuss Voigt Hill
#
# Bulk Modulus (GPa) = 18.96941 28.58071 23.77506
# Shear Modulus (GPa) = 18.76541 29.53628 24.15084
#
# Velocity S-wave (km/s) = 3.09263 3.87996 3.50845
# Velocity P-wave (km/s) = 4.73506 5.88550 5.34135
#
# Compressibility (1/GPa) = 0.05271647
#
# Stress axis : x y z
#
# Youngs Moduli (GPa) = 30.48918 22.75229 61.64827
#
# Poissons Ratio (x) = 0.22505 -0.12509
# Poissons Ratio (y) = 0.30158 0.75612
# Poissons Ratio (z) = -0.06186 0.27906
#
# Static dielectric constant tensor:
#      x y z
#    x 3.377050 -0.117500 0.043020 
#    y -0.117500 3.579000 0.008810 
#    z 0.043020 0.008810 3.542900 
# 
# 
# High freq. dielectric constant tensor:
#      x y z
#    x 1.752230 -0.012980 0.008420 
#    y -0.012980 1.755830 -0.001210 
#    z 0.008420 -0.001210 1.773330 
# 
# From -- ./inp_files/200412.got.cif
#   From: 2010.06.25/outbox.cif.g09.slc.cpg/sg2_101_cif.got.tgz:200412.got - 2010.06.27 13:26:56.
