data_PCOD8004528
_publ_section_title
;
Structure prediction by ZEFSAII (Michael W. Deem and Ramdas Pophale) SiO2 
 PCOD8004528
Probable space group: P -1
;
_chemical_formula_sum "Si O2"
_cell_formula_units_Z 12
_cell_length_a 11.323742
_cell_length_b 8.896005
_cell_length_c 9.795514
_cell_angle_alpha 107.833290
_cell_angle_beta 86.405874
_cell_angle_gamma 138.638886
_cell_volume 598.404703
_symmetry_space_group_name_H-M "P -1"
_symmetry_group_IT_number 2
_symmetry_cell_setting 'triclinic'
loop_
_space_group_symop_operation_xyz
x,y,z
-x,-y,-z
loop_
_atom_site_type_symbol
_atom_site_label
_atom_site_fract_x
_atom_site_fract_y
_atom_site_fract_z
Si Si1 0.587475 0.752129 0.276905
Si Si2 0.224912 0.974590 0.374031
Si Si3 0.775540 0.801326 0.810314
Si Si4 0.902475 0.098556 0.146983
Si Si5 0.507246 0.012580 0.341493
Si Si6 0.092565 0.553869 0.650847
O O1 0.435780 0.459467 0.212062
O O2 0.672597 0.869546 0.452163
O O3 0.750858 0.866833 0.195519
O O4 0.495757 0.818572 0.239860
O O5 0.016201 0.701336 0.341973
O O6 0.214164 0.113702 0.316502
O O7 0.338191 0.948033 0.284298
O O8 0.898718 0.770028 0.792088
O O9 0.850332 0.004444 0.969649
O O10 0.914826 0.299587 0.212425
O O11 0.697233 0.285214 0.347015
O O12 0.500000 0.000000 0.500000
O O13 0.000000 0.500000 0.500000
#
# Coordination Sequence:
#
# PCOD8004528 Si02
#       6
#     2   2   2   2   2   2
#     4  10  20  38  60  82 112 155 191 229 283 341
#     4  11  22  35  59  93 112 145 192 244 280 325
#     4  11  24  38  56  86 123 149 186 233 288 346
#     4  10  23  41  59  80 115 163 186 225 292 341
#     4   9  18  33  59  85 107 147 190 232 282 322
#     4  11  19  38  62  83 111 149 197 234 274 339
#
# _framework density 20.053315999999999
#
# number of rings (size 3 to 8) (size 9 to 14) (size 15 to 20)
#    0.000    1.667    5.000    2.000    2.333    2.667 
#    0.000    3.333    0.000    0.000    0.000    0.000 
#    0.000    0.000    0.000    0.000    0.000    0.000 
#
# Total GULP energy -148803.638155 kJ/mol
# GULP energy per Si atom -12400.303180 kJ/mol
# Density = 2.000767 g / cm^3
# Si number density = 20.053316 Si / 1000 Ang^3
#
#
#
# Elastic Constant Matrix: (Units=GPa)
#
#
# Indices 1 2 3 4 5 6 
#
# 1 45.2150 14.9121 22.2804 -2.8303 1.3284 13.7266
# 2 14.9121 114.2973 1.0972 3.6407 13.9536 17.2032
# 3 22.2804 1.0972 37.2627 -1.5314 -2.9575 4.9373
# 4 -2.8303 3.6407 -1.5314 24.4530 -1.7800 -4.5469
# 5 1.3284 13.9536 -2.9575 -1.7800 22.4632 -6.5569
# 6 13.7266 17.2032 4.9373 -4.5469 -6.5569 25.9361
#
#
#
# Elastic Compliance Matrix: (Units=1/GPa)
#
#
# Indices 1 2 3 4 5 6 
#
# 1 0.038967 -0.000778 -0.021644 -0.000957 -0.010216 -0.018737
# 2 -0.000778 0.012047 0.000537 -0.004756 -0.011044 -0.011307
# 3 -0.021644 0.000537 0.039688 0.001569 0.008001 0.005842
# 4 -0.000957 -0.004756 0.001569 0.044984 0.010868 0.013997
# 5 -0.010216 -0.011044 0.008001 0.010868 0.062323 0.028870
# 6 -0.018737 -0.011307 0.005842 0.013997 0.028870 0.064613
#
#
# Mechanical properties :
#
#
# Convention : Reuss Voigt Hill
#
# Bulk Modulus (GPa) = 21.30797 30.37270 25.84034
# Shear Modulus (GPa) = 15.52610 25.13615 20.33112
#
# Velocity S-wave (km/s) = 2.78554 3.54427 3.18756
# Velocity P-wave (km/s) = 4.58196 5.65049 5.14404
#
# Compressibility (1/GPa) = 0.04693079
#
# Stress axis : x y z
#
# Youngs Moduli (GPa) = 25.66251 83.00740 25.19657
#
# Poissons Ratio (x) = 0.06461 0.54536
# Poissons Ratio (y) = 0.01997 -0.01353
# Poissons Ratio (z) = 0.55545 -0.04456
#
# Static dielectric constant tensor:
#      x y z
#    x 3.941930 0.369320 -0.246230 
#    y 0.369320 3.670490 0.044440 
#    z -0.246230 0.044440 3.429650 
# 
# 
# High freq. dielectric constant tensor:
#      x y z
#    x 1.774140 0.016400 -0.016910 
#    y 0.016400 1.793620 0.000710 
#    z -0.016910 0.000710 1.762880 
# 
# From -- ./inp_files/154694.got.cif
#   From: 2010.06.25/outbox.cif.g09.slc.cpg/sg2_78_cif.got.tgz:154694.got - 2010.06.27 13:26:56.
