data_PCOD8004137
_publ_section_title
;
Structure prediction by ZEFSAII (Michael W. Deem and Ramdas Pophale) SiO2 
 PCOD8004137
Probable space group: P -1
;
_chemical_formula_sum "Si O2"
_cell_formula_units_Z 16
_cell_length_a 10.245369
_cell_length_b 16.581560
_cell_length_c 11.017486
_cell_angle_alpha 22.052096
_cell_angle_beta 68.405379
_cell_angle_gamma 70.185922
_cell_volume 653.391551
_symmetry_space_group_name_H-M "P -1"
_symmetry_group_IT_number 2
_symmetry_cell_setting 'triclinic'
loop_
_space_group_symop_operation_xyz
x,y,z
-x,-y,-z
loop_
_atom_site_type_symbol
_atom_site_label
_atom_site_fract_x
_atom_site_fract_y
_atom_site_fract_z
Si Si1 0.426881 0.294039 0.678839
Si Si2 0.277374 0.685441 0.090980
Si Si3 0.900255 0.332660 0.604531
Si Si4 0.916701 0.137848 0.478235
Si Si5 0.280220 0.902640 0.173241
Si Si6 0.244160 0.253640 0.020850
Si Si7 0.835685 0.520246 0.810960
Si Si8 0.768133 0.845786 0.573291
O O1 0.396195 0.543797 0.313602
O O2 0.592066 0.263391 0.654977
O O3 0.377591 0.226549 0.924804
O O4 0.340263 0.145903 0.819136
O O5 0.129466 0.650593 0.264325
O O6 0.265450 0.616835 0.050530
O O7 0.316433 0.936942 0.732457
O O8 0.824713 0.116381 0.879470
O O9 0.064369 0.336196 0.511552
O O10 0.830851 0.525132 0.286701
O O11 0.800497 0.165212 0.583357
O O12 0.066188 0.100723 0.542624
O O13 0.873449 0.934961 0.692655
O O14 0.923447 0.356928 0.092786
O O15 0.296492 0.249006 0.148206
O O16 0.744154 0.676658 0.708795
#
# Coordination Sequence:
#
# PCOD8004137 Si02
#       8
#     2   2   2   2   2   2   2   2
#     4   9  23  45  67  91 130 169 224 265 311 376
#     4  11  26  40  60 100 138 167 203 271 329 379
#     4  11  22  39  64  95 131 166 217 264 319 382
#     4  11  20  39  66  97 129 165 221 265 313 384
#     4  10  21  42  73  92 119 178 227 261 305 382
#     4  10  20  37  64  92 126 169 211 266 310 376
#     4  12  23  39  63  99 136 169 206 263 330 390
#     4  12  22  38  66  96 131 167 209 262 331 381
#
# _framework density 24.487615000000002
#
# number of rings (size 3 to 8) (size 9 to 14) (size 15 to 20)
#    0.000    1.250    3.750    2.625    1.750    4.500 
#    0.000    0.625    0.000    2.250    0.000    0.000 
#    0.000    0.000    0.000    0.000    0.000    0.000 
#
# Total GULP energy -198440.677087 kJ/mol
# GULP energy per Si atom -12402.542318 kJ/mol
# Density = 2.443188 g / cm^3
# Si number density = 24.487615 Si / 1000 Ang^3
#
#
#
# Elastic Constant Matrix: (Units=GPa)
#
#
# Indices 1 2 3 4 5 6 
#
# 1 27.4585 7.1976 -0.4668 -1.0438 -7.6767 -4.3009
# 2 7.1976 135.8993 32.1745 -9.6952 2.1032 15.3121
# 3 -0.4668 32.1745 101.1427 -10.8310 18.7487 3.1763
# 4 -1.0438 -9.6952 -10.8310 37.8885 0.7870 -6.1617
# 5 -7.6767 2.1032 18.7487 0.7870 24.7504 -4.3619
# 6 -4.3009 15.3121 3.1763 -6.1617 -4.3619 32.3675
#
#
#
# Elastic Compliance Matrix: (Units=1/GPa)
#
#
# Indices 1 2 3 4 5 6 
#
# 1 0.043604 -0.003106 -0.002197 0.001047 0.017181 0.009994
# 2 -0.003106 0.008636 -0.002434 0.000759 -0.000618 -0.004198
# 3 -0.002197 -0.002434 0.012988 0.003044 -0.010634 -0.001269
# 4 0.001047 0.000759 0.003044 0.028275 -0.002138 0.004576
# 5 0.017181 -0.000618 -0.010634 -0.002138 0.055799 0.010731
# 6 0.009994 -0.004198 -0.001269 0.004576 0.010731 0.036651
#
#
# Mechanical properties :
#
#
# Convention : Reuss Voigt Hill
#
# Bulk Modulus (GPa) = 20.09931 38.03455 29.06693
# Shear Modulus (GPa) = 22.93456 34.04098 28.48777
#
# Velocity S-wave (km/s) = 3.06368 3.73249 3.41450
# Velocity P-wave (km/s) = 4.55418 5.84305 5.23840
#
# Compressibility (1/GPa) = 0.04975296
#
# Stress axis : x y z
#
# Youngs Moduli (GPa) = 22.93373 115.79648 76.99367
#
# Poissons Ratio (x) = 0.35972 0.16916
# Poissons Ratio (y) = 0.07124 0.18740
# Poissons Ratio (z) = 0.05039 0.28184
#
# Static dielectric constant tensor:
#      x y z
#    x 3.809890 0.046720 -0.150200 
#    y 0.046720 4.779230 -0.093490 
#    z -0.150200 -0.093490 4.392580 
# 
# 
# High freq. dielectric constant tensor:
#      x y z
#    x 1.928470 0.002530 -0.003690 
#    y 0.002530 1.998190 -0.006030 
#    z -0.003690 -0.006030 1.974700 
# 
# From -- ./inp_files/436287.got.cif
#   From: 2010.06.25/outbox.cif.g09.slc.cpg/sg2_219_cif.got.tgz:436287.got - 2010.06.27 13:26:56.
