data_PCOD8004164
_publ_section_title
;
Structure prediction by ZEFSAII (Michael W. Deem and Ramdas Pophale) SiO2 
 PCOD8004164
Probable space group: P -1
;
_chemical_formula_sum "Si O2"
_cell_formula_units_Z 14
_cell_length_a 12.711680
_cell_length_b 17.122578
_cell_length_c 8.759013
_cell_angle_alpha 143.336685
_cell_angle_beta 143.710466
_cell_angle_gamma 29.446001
_cell_volume 520.746796
_symmetry_space_group_name_H-M "P -1"
_symmetry_group_IT_number 2
_symmetry_cell_setting 'triclinic'
loop_
_space_group_symop_operation_xyz
x,y,z
-x,-y,-z
loop_
_atom_site_type_symbol
_atom_site_label
_atom_site_fract_x
_atom_site_fract_y
_atom_site_fract_z
Si Si1 0.718412 0.464458 0.282616
Si Si2 0.586532 0.379160 0.558658
Si Si3 0.183219 0.482214 0.824392
Si Si4 0.640585 0.118422 0.855192
Si Si5 0.351174 0.938669 0.900051
Si Si6 0.997162 0.176133 0.368269
Si Si7 0.159128 0.242807 0.949085
O O1 0.627132 0.563852 0.492447
O O2 0.920852 0.271157 0.264511
O O3 0.500000 0.500000 0.000000
O O4 0.845783 0.506268 0.377911
O O5 0.500000 0.500000 0.500000
O O6 0.752462 0.397371 0.873819
O O7 0.719806 0.181844 0.369216
O O8 0.956858 0.575943 0.816258
O O9 0.380126 0.287076 0.788946
O O10 0.747100 0.002206 0.645061
O O11 0.629124 0.026341 0.843465
O O12 0.805765 0.159949 0.161401
O O13 0.170139 0.114683 0.878283
O O14 0.592425 0.833349 0.932518
O O15 0.004967 0.271985 0.669470
#
# Coordination Sequence:
#
# PCOD8004164 Si02
#       7
#     2   2   2   2   2   2   2
#     4  10  20  37  64  96 135 164 208 278 330 390
#     4  11  20  39  70  99 130 167 221 280 328 383
#     4  11  22  41  67 103 132 170 221 279 336 390
#     4  11  23  40  69 101 134 169 223 283 332 392
#     4  11  25  46  65  94 137 182 223 272 330 397
#     4  11  23  41  68 101 131 175 219 276 336 395
#     4  11  27  44  67  94 137 182 226 265 332 403
#
# _framework density 26.884466
#
# number of rings (size 3 to 8) (size 9 to 14) (size 15 to 20)
#    0.000    1.143    4.286    2.571    2.000    4.571 
#    0.000    0.714    0.000    0.000    0.000    0.000 
#    0.000    0.000    0.000    0.000    0.000    0.000 
#
# Total GULP energy -173475.604994 kJ/mol
# GULP energy per Si atom -12391.114642 kJ/mol
# Density = 2.682328 g / cm^3
# Si number density = 26.884466 Si / 1000 Ang^3
#
#
#
# Elastic Constant Matrix: (Units=GPa)
#
#
# Indices 1 2 3 4 5 6 
#
# 1 140.5556 37.7442 18.4355 -16.8623 -43.1399 3.5169
# 2 37.7442 150.9654 25.6428 -8.2057 -28.7966 -1.4477
# 3 18.4355 25.6428 75.5693 6.0693 -37.2692 5.6803
# 4 -16.8623 -8.2057 6.0693 23.6983 0.3745 -7.0638
# 5 -43.1399 -28.7966 -37.2692 0.3745 42.7631 1.1013
# 6 3.5169 -1.4477 5.6803 -7.0638 1.1013 52.9897
#
#
#
# Elastic Compliance Matrix: (Units=1/GPa)
#
#
# Indices 1 2 3 4 5 6 
#
# 1 0.012495 -0.000420 0.004623 0.007085 0.016307 -0.000731
# 2 -0.000420 0.007799 -0.000782 0.002716 0.004107 0.000601
# 3 0.004623 -0.000782 0.026808 -0.005634 0.027667 -0.004528
# 4 0.007085 0.002716 -0.005634 0.051661 0.003433 0.007023
# 5 0.016307 0.004107 0.027667 0.003433 0.066809 -0.004867
# 6 -0.000731 0.000601 -0.004528 0.007023 -0.004867 0.020459
#
#
# Mechanical properties :
#
#
# Convention : Reuss Voigt Hill
#
# Bulk Modulus (GPa) = 18.53810 58.97061 38.75436
# Shear Modulus (GPa) = 25.35885 42.90808 34.13347
#
# Velocity S-wave (km/s) = 3.07457 3.99935 3.56706
# Velocity P-wave (km/s) = 4.41752 6.58095 5.60461
#
# Compressibility (1/GPa) = 0.05394295
#
# Stress axis : x y z
#
# Youngs Moduli (GPa) = 80.03477 128.22637 37.30242
#
# Poissons Ratio (x) = 0.05390 -0.17244
# Poissons Ratio (y) = 0.03364 0.02915
# Poissons Ratio (z) = -0.36998 0.10021
#
# Static dielectric constant tensor:
#      x y z
#    x 5.717180 -0.326400 -0.342620 
#    y -0.326400 4.961570 0.255230 
#    z -0.342620 0.255230 4.817980 
# 
# 
# High freq. dielectric constant tensor:
#      x y z
#    x 2.110410 -0.021420 -0.013360 
#    y -0.021420 2.074260 0.000690 
#    z -0.013360 0.000690 2.080970 
# 
# From -- ./inp_files/279968.got.cif
#   From: 2010.06.25/outbox.cif.g09.slc.cpg/sg2_140_cif.got.tgz:279968.got - 2010.06.27 13:26:56.
