data_PCOD8004971
_publ_section_title
;
Structure prediction by ZEFSAII (Michael W. Deem and Ramdas Pophale) SiO2 
 PCOD8004971
Probable space group: P -1
;
_chemical_formula_sum "Si O2"
_cell_formula_units_Z 14
_cell_length_a 22.738686
_cell_length_b 16.633531
_cell_length_c 5.532022
_cell_angle_alpha 76.654308
_cell_angle_beta 77.383216
_cell_angle_gamma 18.214657
_cell_volume 636.357333
_symmetry_space_group_name_H-M "P -1"
_symmetry_group_IT_number 2
_symmetry_cell_setting 'triclinic'
loop_
_space_group_symop_operation_xyz
x,y,z
-x,-y,-z
loop_
_atom_site_type_symbol
_atom_site_label
_atom_site_fract_x
_atom_site_fract_y
_atom_site_fract_z
Si Si1 0.506865 0.713457 0.991917
Si Si2 0.814922 0.858439 0.379781
Si Si3 0.266603 0.452799 0.352136
Si Si4 0.584439 0.030115 0.722129
Si Si5 0.924554 0.842606 0.658651
Si Si6 0.177403 0.428371 0.097944
Si Si7 0.446365 0.614529 0.218587
O O1 0.666104 0.541989 0.784453
O O2 0.307919 0.956948 0.869677
O O3 0.487406 0.806567 0.149402
O O4 0.559340 0.555407 0.159116
O O5 0.785720 0.966396 0.535570
O O6 0.034423 0.572033 0.316002
O O7 0.751031 0.851664 0.532460
O O8 0.408894 0.229815 0.577291
O O9 0.273879 0.383635 0.159905
O O10 0.054715 0.733776 0.453104
O O11 0.664667 0.845387 0.916441
O O12 0.782616 0.079172 0.789993
O O13 0.066413 0.598247 0.841471
O O14 0.500000 0.500000 0.500000
O O15 0.500000 0.500000 0.000000
#
# Coordination Sequence:
#
# PCOD8004971 Si02
#       7
#     2   2   2   2   2   2   2
#     4  11  23  44  67 100 136 177 228 289 344 413
#     4  10  20  38  63  94 142 177 230 279 339 396
#     4  10  25  40  66  92 152 178 224 270 351 404
#     4  11  22  38  64 100 140 186 228 272 335 414
#     4  11  23  44  67 100 136 177 228 289 344 413
#     4  11  22  38  64 100 140 186 228 272 335 414
#     4  12  27  48  80 104 131 177 240 299 364 420
#
# _framework density 22.000216999999999
#
# number of rings (size 3 to 8) (size 9 to 14) (size 15 to 20)
#    0.000    1.143    2.857    2.571    4.000    9.143 
#    0.000    1.429    0.000    0.000    0.000    0.000 
#    0.000    0.000    0.000    0.000    0.000    0.000 
#
# Total GULP energy -173580.077850 kJ/mol
# GULP energy per Si atom -12398.576989 kJ/mol
# Density = 2.195014 g / cm^3
# Si number density = 22.000217 Si / 1000 Ang^3
#
#
#
# Elastic Constant Matrix: (Units=GPa)
#
#
# Indices 1 2 3 4 5 6 
#
# 1 111.8000 47.2413 34.4341 3.5009 -8.3841 -5.9261
# 2 47.2413 51.0614 13.1681 5.7005 -23.2833 3.2460
# 3 34.4341 13.1681 85.6262 -12.0650 -3.6315 11.3662
# 4 3.5009 5.7005 -12.0650 33.7990 0.4203 5.4967
# 5 -8.3841 -23.2833 -3.6315 0.4203 42.9176 -3.5896
# 6 -5.9261 3.2460 11.3662 5.4967 -3.5896 36.3845
#
#
#
# Elastic Compliance Matrix: (Units=1/GPa)
#
#
# Indices 1 2 3 4 5 6 
#
# 1 0.018673 -0.018943 -0.005953 -0.001792 -0.006596 0.006211
# 2 -0.018943 0.047703 0.001110 -0.005189 0.021927 -0.004741
# 3 -0.005953 0.001110 0.015872 0.007250 0.000117 -0.007111
# 4 -0.001792 -0.005189 0.007250 0.034525 -0.003530 -0.007658
# 5 -0.006596 0.021927 0.000117 -0.003530 0.034021 0.000823
# 6 0.006211 -0.004741 -0.007111 -0.007658 0.000823 0.032378
#
#
# Mechanical properties :
#
#
# Convention : Reuss Voigt Hill
#
# Bulk Modulus (GPa) = 28.83813 48.68607 38.76210
# Shear Modulus (GPa) = 20.63520 32.86316 26.74918
#
# Velocity S-wave (km/s) = 3.06593 3.86912 3.49070
# Velocity P-wave (km/s) = 5.06653 6.49138 5.82270
#
# Compressibility (1/GPa) = 0.03467632
#
# Stress axis : x y z
#
# Youngs Moduli (GPa) = 53.55238 20.96290 63.00284
#
# Poissons Ratio (x) = 0.39711 0.37505
# Poissons Ratio (y) = 1.01447 -0.06993
# Poissons Ratio (z) = 0.31879 -0.02327
#
# Static dielectric constant tensor:
#      x y z
#    x 4.120260 -0.262790 -0.206310 
#    y -0.262790 3.852270 0.191060 
#    z -0.206310 0.191060 4.131990 
# 
# 
# High freq. dielectric constant tensor:
#      x y z
#    x 1.866610 -0.023730 -0.008940 
#    y -0.023730 1.843240 0.014100 
#    z -0.008940 0.014100 1.881780 
# 
# From -- ./inp_files/32105.got.cif
#   From: 2010.06.25/outbox.cif.g09.slc.cpg/sg2_17_cif.got.tgz:32105.got - 2010.06.27 13:26:56.
