data_PCOD8004045
_publ_section_title
;
Structure prediction by ZEFSAII (Michael W. Deem and Ramdas Pophale) SiO2 
 PCOD8004045
Probable space group: P -1
;
_chemical_formula_sum "Si O2"
_cell_formula_units_Z 10
_cell_length_a 15.454338
_cell_length_b 12.866733
_cell_length_c 15.389278
_cell_angle_alpha 153.013361
_cell_angle_beta 160.761566
_cell_angle_gamma 27.681752
_cell_volume 437.110052
_symmetry_space_group_name_H-M "P -1"
_symmetry_group_IT_number 2
_symmetry_cell_setting 'triclinic'
loop_
_space_group_symop_operation_xyz
x,y,z
-x,-y,-z
loop_
_atom_site_type_symbol
_atom_site_label
_atom_site_fract_x
_atom_site_fract_y
_atom_site_fract_z
Si Si1 0.691386 0.159464 0.324756
Si Si2 0.229054 0.618877 0.778473
Si Si3 0.123671 0.147726 0.047457
Si Si4 0.872113 0.396386 0.521547
Si Si5 0.703101 0.103453 0.480887
O O1 0.669793 0.366896 0.386928
O O2 0.620366 0.260077 0.430509
O O3 0.000000 0.000000 0.500000
O O4 0.500000 0.000000 0.000000
O O5 0.295100 0.577406 0.707539
O O6 0.000000 0.500000 0.500000
O O7 0.500000 0.500000 0.000000
O O8 0.113299 0.902531 0.900977
O O9 0.040034 0.364342 0.198457
O O10 0.433042 0.108451 0.280507
O O11 0.907809 0.211594 0.810755
O O12 0.146129 0.173281 0.607671
#
# Coordination Sequence:
#
# PCOD8004045 Si02
#       5
#     2   2   2   2   2
#     4  10  20  37  63  91 127 167 197 241 304 363
#     4  11  24  43  63  87 122 159 206 265 311 358
#     4  11  24  41  66  94 122 163 207 250 309 369
#     4  10  24  42  66  92 125 164 207 254 304 365
#     4  10  22  41  62  95 133 159 198 250 300 367
#
# _framework density 22.877533
#
# number of rings (size 3 to 8) (size 9 to 14) (size 15 to 20)
#    0.000    1.600    0.000    6.000    0.000   12.800 
#    0.000    0.000    0.000    0.000    0.000    0.000 
#    0.000    0.000    0.000    0.000    0.000    0.000 
#
# Total GULP energy -123982.990148 kJ/mol
# GULP energy per Si atom -12398.299015 kJ/mol
# Density = 2.282546 g / cm^3
# Si number density = 22.877533 Si / 1000 Ang^3
#
#
#
# Elastic Constant Matrix: (Units=GPa)
#
#
# Indices 1 2 3 4 5 6 
#
# 1 88.1341 53.2102 40.5040 -2.2133 -14.4130 26.7785
# 2 53.2102 82.0522 66.7025 22.6000 -15.6991 10.1587
# 3 40.5040 66.7025 168.2791 -1.7176 -12.2281 6.5120
# 4 -2.2133 22.6000 -1.7176 50.5605 -1.6369 -6.3905
# 5 -14.4130 -15.6991 -12.2281 -1.6369 49.0411 -4.1938
# 6 26.7785 10.1587 6.5120 -6.3905 -4.1938 42.3699
#
#
#
# Elastic Compliance Matrix: (Units=1/GPa)
#
#
# Indices 1 2 3 4 5 6 
#
# 1 0.025393 -0.018746 0.001904 0.008275 0.001318 -0.010468
# 2 -0.018746 0.038522 -0.010746 -0.018044 0.003704 0.001908
# 3 0.001904 -0.010746 0.009757 0.005294 -0.000215 0.000651
# 4 0.008275 -0.018044 0.005294 0.028677 -0.000851 0.002524
# 5 0.001318 0.003704 -0.000215 -0.000851 0.021912 0.000353
# 6 -0.010468 0.001908 0.000651 0.002524 0.000353 0.030076
#
#
# Mechanical properties :
#
#
# Convention : Reuss Voigt Hill
#
# Bulk Modulus (GPa) = 54.06705 73.25543 63.66124
# Shear Modulus (GPa) = 23.18258 40.26420 31.72339
#
# Velocity S-wave (km/s) = 3.18674 4.19977 3.72783
# Velocity P-wave (km/s) = 6.10123 7.45705 6.81295
#
# Compressibility (1/GPa) = 0.01849555
#
# Stress axis : x y z
#
# Youngs Moduli (GPa) = 39.38069 25.95911 102.49010
#
# Poissons Ratio (x) = 0.48663 -0.19513
# Poissons Ratio (y) = 0.73823 1.10138
# Poissons Ratio (z) = -0.07498 0.27896
#
# Static dielectric constant tensor:
#      x y z
#    x 4.848610 0.485200 -0.082680 
#    y 0.485200 4.230340 0.188380 
#    z -0.082680 0.188380 4.339510 
# 
# 
# High freq. dielectric constant tensor:
#      x y z
#    x 1.902830 0.009380 -0.006200 
#    y 0.009380 1.896710 -0.000090 
#    z -0.006200 -0.000090 1.916790 
# 
# From -- ./inp_files/19987.got.cif
#   From: 2010.06.25/outbox.cif.g09.slc.cpg/sg2_10_cif.got.tgz:19987.got - 2010.06.27 13:26:56.
