data_PCOD8004002
_publ_section_title
;
Structure prediction by ZEFSAII (Michael W. Deem and Ramdas Pophale) SiO2 
 PCOD8004002
Probable space group: P -1
;
_chemical_formula_sum "Si O2"
_cell_formula_units_Z 16
_cell_length_a 13.231022
_cell_length_b 21.330566
_cell_length_c 9.277085
_cell_angle_alpha 29.307395
_cell_angle_beta 134.440317
_cell_angle_gamma 136.350272
_cell_volume 865.871961
_symmetry_space_group_name_H-M "P -1"
_symmetry_group_IT_number 2
_symmetry_cell_setting 'triclinic'
loop_
_space_group_symop_operation_xyz
x,y,z
-x,-y,-z
loop_
_atom_site_type_symbol
_atom_site_label
_atom_site_fract_x
_atom_site_fract_y
_atom_site_fract_z
Si Si1 0.410273 0.874691 0.567370
Si Si2 0.142863 0.455466 0.251378
Si Si3 0.426789 0.236285 0.263351
Si Si4 0.822601 0.992314 0.992513
Si Si5 0.625793 0.777608 0.432254
Si Si6 0.593476 0.343851 0.770345
Si Si7 0.146282 0.173015 0.911913
Si Si8 0.628626 0.527274 0.794427
O O1 0.498013 0.867996 0.521365
O O2 0.249153 0.888649 0.343467
O O3 0.500000 0.000000 0.500000
O O4 0.396132 0.738568 0.911793
O O5 0.242279 0.544014 0.304635
O O6 0.096164 0.297332 0.557212
O O7 0.231898 0.487039 0.125414
O O8 0.000000 0.500000 0.000000
O O9 0.396258 0.192449 0.485424
O O10 0.269374 0.221762 0.060479
O O11 0.538254 0.388896 0.060614
O O12 0.000155 0.059005 0.057809
O O13 0.751361 0.908585 0.231110
O O14 0.785274 0.888518 0.028505
O O15 0.465371 0.750275 0.241287
O O16 0.679351 0.644809 0.732868
O O17 0.475530 0.424591 0.519814
#
# Coordination Sequence:
#
# PCOD8004002 Si02
#       8
#     2   2   2   2   2   2   2   2
#     4  12  20  36  60  89 114 150 196 251 280 336
#     4  12  21  35  64  94 114 144 199 252 299 340
#     4  12  22  37  65  86 116 160 200 233 297 351
#     4  11  23  39  58  85 125 152 197 243 289 343
#     4  10  22  38  62  86 118 160 195 238 286 359
#     4  10  20  37  63  86 117 148 193 248 291 337
#     4  11  22  39  60  86 115 162 193 240 295 349
#     4  10  20  38  61  88 117 148 194 245 289 348
#
# _framework density 18.478483000000001
#
# number of rings (size 3 to 8) (size 9 to 14) (size 15 to 20)
#    0.750    0.250    6.250    2.250    0.000    1.000 
#    0.000    0.000    2.750    1.500    0.000    0.000 
#    0.000    0.000    0.000    0.000    0.000    0.000 
#
# Total GULP energy -198331.033217 kJ/mol
# GULP energy per Si atom -12395.689576 kJ/mol
# Density = 1.843642 g / cm^3
# Si number density = 18.478483 Si / 1000 Ang^3
#
#
#
# Elastic Constant Matrix: (Units=GPa)
#
#
# Indices 1 2 3 4 5 6 
#
# 1 116.5699 57.8078 75.2756 5.5604 1.3927 -5.4167
# 2 57.8078 61.4504 10.9551 3.2890 -11.5620 -8.7366
# 3 75.2756 10.9551 64.2531 1.4827 -6.7656 -11.3047
# 4 5.5604 3.2890 1.4827 25.3702 6.2233 -2.6973
# 5 1.3927 -11.5620 -6.7656 6.2233 38.5056 1.5107
# 6 -5.4167 -8.7366 -11.3047 -2.6973 1.5107 29.1273
#
#
#
# Elastic Compliance Matrix: (Units=1/GPa)
#
#
# Indices 1 2 3 4 5 6 
#
# 1 -0.048566 0.043755 0.056331 -0.001619 0.024091 0.024556
# 2 0.043755 -0.021013 -0.052479 -0.001740 -0.016131 -0.017858
# 3 0.056331 -0.052479 -0.048165 0.001147 -0.025560 -0.022527
# 4 -0.001619 -0.001740 0.001147 0.042116 -0.007222 0.003897
# 5 0.024091 -0.016131 -0.025560 -0.007222 0.017396 -0.011850
# 6 0.024556 -0.017858 -0.022527 0.003897 -0.011850 0.025775
#
#
# Mechanical properties :
#
#
# Convention : Reuss Voigt Hill
#
# Bulk Modulus (GPa) = -44.38727 58.92782 7.27028
# Shear Modulus (GPa) = -36.98699 25.14962 -5.91869
#
# Velocity S-wave (km/s) = -4.47881 3.69321 -1.79164
# Velocity P-wave (km/s) = 7.12878 7.08135 0.58048
#
# Compressibility (1/GPa) = -0.02252898
#
# Stress axis : x y z
#
# Youngs Moduli (GPa) = -20.59065 -47.58861 -20.76191
#
# Poissons Ratio (x) = 2.08224 1.16955
# Poissons Ratio (y) = 0.90095 -1.08956
# Poissons Ratio (z) = 1.15990 -2.49739
#
# Static dielectric constant tensor:
#      x y z
#    x 3.318820 0.077750 0.109230 
#    y 0.077750 3.412350 -0.289180 
#    z 0.109230 -0.289180 3.515380 
# 
# 
# High freq. dielectric constant tensor:
#      x y z
#    x 1.702360 0.007050 0.004700 
#    y 0.007050 1.713270 -0.023760 
#    z 0.004700 -0.023760 1.713650 
# 
# From -- ./inp_files/280799.got.cif
#   From: 2010.06.25/outbox.cif.g09.slc.cpg/sg2_141_cif.got.tgz:280799.got - 2010.06.27 13:26:56.
