data_PCOD8004642
_publ_section_title
;
Structure prediction by ZEFSAII (Michael W. Deem and Ramdas Pophale) SiO2 
 PCOD8004642
Probable space group: P -1
;
_chemical_formula_sum "Si O2"
_cell_formula_units_Z 10
_cell_length_a 11.357299
_cell_length_b 13.087276
_cell_length_c 6.860473
_cell_angle_alpha 94.224936
_cell_angle_beta 55.344722
_cell_angle_gamma 48.677277
_cell_volume 432.513270
_symmetry_space_group_name_H-M "P -1"
_symmetry_group_IT_number 2
_symmetry_cell_setting 'triclinic'
loop_
_space_group_symop_operation_xyz
x,y,z
-x,-y,-z
loop_
_atom_site_type_symbol
_atom_site_label
_atom_site_fract_x
_atom_site_fract_y
_atom_site_fract_z
Si Si1 0.808491 0.347157 0.146160
Si Si2 0.202400 0.794340 0.187603
Si Si3 0.025479 0.217436 0.343989
Si Si4 0.078375 0.545116 0.233487
Si Si5 0.564372 0.752841 0.836650
O O1 0.500000 0.500000 0.500000
O O2 0.999172 0.240749 0.140316
O O3 0.932371 0.181329 0.867902
O O4 0.816505 0.451804 0.044547
O O5 0.237827 0.686319 0.308688
O O6 0.481451 0.684906 0.847998
O O7 0.000000 0.000000 0.500000
O O8 0.031365 0.323061 0.457141
O O9 0.309508 0.985936 0.098201
O O10 0.810208 0.639704 0.443549
O O11 0.326127 0.321849 0.051976
#
# Coordination Sequence:
#
# PCOD8004642 Si02
#       5
#     2   2   2   2   2
#     4  11  22  38  62  89 119 156 199 245 295 351
#     4   9  20  38  60  86 116 153 196 242 291 348
#     4  10  21  39  62  86 117 157 198 242 294 352
#     4  10  22  40  58  85 122 157 193 244 298 349
#     4  10  20  38  61  84 118 158 195 240 297 352
#
# _framework density 23.120678999999999
#
# number of rings (size 3 to 8) (size 9 to 14) (size 15 to 20)
#    0.000    2.000    0.000    3.000    0.000    7.200 
#    0.000   21.000    0.000    0.000    0.000    0.000 
#    0.000    0.000    0.000    0.000    0.000    0.000 
#
# Total GULP energy -123896.930545 kJ/mol
# GULP energy per Si atom -12389.693054 kJ/mol
# Density = 2.306806 g / cm^3
# Si number density = 23.120679 Si / 1000 Ang^3
#
#
#
# Elastic Constant Matrix: (Units=GPa)
#
#
# Indices 1 2 3 4 5 6 
#
# 1 75.5292 39.6167 33.7765 -23.1027 -20.8018 -2.6495
# 2 39.6167 149.1537 63.6423 -17.4629 -12.2626 -12.0974
# 3 33.7765 63.6423 89.4970 -24.5585 -27.3786 -3.1164
# 4 -23.1027 -17.4629 -24.5585 41.5529 4.4245 -7.1893
# 5 -20.8018 -12.2626 -27.3786 4.4245 52.6293 -11.0985
# 6 -2.6495 -12.0974 -3.1164 -7.1893 -11.0985 31.2662
#
#
#
# Elastic Compliance Matrix: (Units=1/GPa)
#
#
# Indices 1 2 3 4 5 6 
#
# 1 0.020254 -0.003040 -0.000271 0.009972 0.007469 0.005457
# 2 -0.003040 0.010422 -0.006997 -0.000863 -0.001874 0.002214
# 3 -0.000271 -0.006997 0.022261 0.009915 0.010142 0.005369
# 4 0.009972 -0.000863 0.009915 0.036430 0.008559 0.012914
# 5 0.007469 -0.001874 0.010142 0.008559 0.028840 0.013124
# 6 0.005457 0.002214 0.005369 0.012914 0.013124 0.041466
#
#
# Mechanical properties :
#
#
# Convention : Reuss Voigt Hill
#
# Bulk Modulus (GPa) = 30.93826 65.36123 48.14974
# Shear Modulus (GPa) = 26.16927 36.89929 31.53428
#
# Velocity S-wave (km/s) = 3.36796 3.99926 3.69711
# Velocity P-wave (km/s) = 5.34176 7.04673 6.25263
#
# Compressibility (1/GPa) = 0.03232244
#
# Stress axis : x y z
#
# Youngs Moduli (GPa) = 49.37204 95.95254 44.92061
#
# Poissons Ratio (x) = 0.29168 0.01218
# Poissons Ratio (y) = 0.15008 0.31429
# Poissons Ratio (z) = 0.01338 0.67135
#
# Static dielectric constant tensor:
#      x y z
#    x 4.795330 0.284070 -0.495700 
#    y 0.284070 4.191370 -0.220640 
#    z -0.495700 -0.220640 4.451980 
# 
# 
# High freq. dielectric constant tensor:
#      x y z
#    x 1.919310 0.023090 -0.022150 
#    y 0.023090 1.915050 -0.005910 
#    z -0.022150 -0.005910 1.902660 
# 
# From -- ./inp_files/16054.got.cif
#   From: 2010.06.25/outbox.cif.g09.slc.cpg/sg2_9_cif.got.tgz:16054.got - 2010.06.27 13:26:56.
