data_PCOD8004165
_publ_section_title
;
Structure prediction by ZEFSAII (Michael W. Deem and Ramdas Pophale) SiO2 
 PCOD8004165
Probable space group: P -1
;
_chemical_formula_sum "Si O2"
_cell_formula_units_Z 14
_cell_length_a 21.862688
_cell_length_b 19.273034
_cell_length_c 12.505075
_cell_angle_alpha 153.553154
_cell_angle_beta 154.276060
_cell_angle_gamma 17.268791
_cell_volume 653.284696
_symmetry_space_group_name_H-M "P -1"
_symmetry_group_IT_number 2
_symmetry_cell_setting 'triclinic'
loop_
_space_group_symop_operation_xyz
x,y,z
-x,-y,-z
loop_
_atom_site_type_symbol
_atom_site_label
_atom_site_fract_x
_atom_site_fract_y
_atom_site_fract_z
Si Si1 0.858186 0.675033 0.920342
Si Si2 0.007964 0.967697 0.341589
Si Si3 0.390539 0.367481 0.634389
Si Si4 0.446852 0.584873 0.861075
Si Si5 0.618681 0.955338 0.284125
Si Si6 0.362163 0.813058 0.543996
Si Si7 0.192027 0.521032 0.090335
O O1 0.820448 0.564480 0.623135
O O2 0.620337 0.931086 0.943967
O O3 0.000000 0.500000 0.000000
O O4 0.989455 0.701865 0.105536
O O5 0.151444 0.973780 0.511300
O O6 0.130848 0.695461 0.141482
O O7 0.000000 0.000000 0.500000
O O8 0.759259 0.170524 0.189451
O O9 0.349842 0.556041 0.760528
O O10 0.607825 0.090446 0.549786
O O11 0.423779 0.382616 0.831975
O O12 0.619240 0.348850 0.731593
O O13 0.667360 0.001401 0.312709
O O14 0.791793 0.671683 0.190920
O O15 0.587762 0.616273 0.692794
#
# Coordination Sequence:
#
# PCOD8004165 Si02
#       7
#     2   2   2   2   2   2   2
#     4  10  20  37  64  97 121 161 207 260 319 356
#     4  12  28  39  62  93 132 172 209 251 321 379
#     4   8  20  41  67  93 123 165 204 269 308 361
#     4  10  20  45  62  90 132 161 214 254 314 373
#     4   9  22  37  64  95 128 152 210 263 310 363
#     4  11  23  40  65  96 122 168 212 264 307 367
#     4  12  23  37  61  95 128 162 204 262 315 372
#
# _framework density 21.430164999999999
#
# number of rings (size 3 to 8) (size 9 to 14) (size 15 to 20)
#    0.857    0.857    2.857    0.857    4.000    0.000 
#    2.571    3.571    0.000    0.000    0.000    0.000 
#    0.000    0.000    0.000    0.000    0.000    0.000 
#
# Total GULP energy -173480.168784 kJ/mol
# GULP energy per Si atom -12391.440627 kJ/mol
# Density = 2.138139 g / cm^3
# Si number density = 21.430165 Si / 1000 Ang^3
#
#
#
# Elastic Constant Matrix: (Units=GPa)
#
#
# Indices 1 2 3 4 5 6 
#
# 1 75.9847 22.2016 22.9074 -4.1032 2.9977 -14.4528
# 2 22.2016 88.6878 33.0733 12.9329 -3.5758 7.2382
# 3 22.9074 33.0733 73.9080 -8.8130 -17.9389 1.7069
# 4 -4.1032 12.9329 -8.8130 40.1105 3.0719 4.8252
# 5 2.9977 -3.5758 -17.9389 3.0719 36.6907 -1.8977
# 6 -14.4528 7.2382 1.7069 4.8252 -1.8977 33.5748
#
#
#
# Elastic Compliance Matrix: (Units=1/GPa)
#
#
# Indices 1 2 3 4 5 6 
#
# 1 0.017394 -0.003571 -0.004754 0.001199 -0.003774 0.008113
# 2 -0.003571 0.016007 -0.007049 -0.006528 -0.001243 -0.003762
# 3 -0.004754 -0.007049 0.021212 0.005953 0.009474 -0.001925
# 4 0.001199 -0.006528 0.005953 0.028800 -0.000366 -0.002539
# 5 -0.003774 -0.001243 0.009474 -0.000366 0.032106 0.000029
# 6 0.008113 -0.003762 -0.001925 -0.002539 0.000029 0.034552
#
#
# Mechanical properties :
#
#
# Convention : Reuss Voigt Hill
#
# Bulk Modulus (GPa) = 41.90168 43.88280 42.89224
# Shear Modulus (GPa) = 26.48662 32.76843 29.62753
#
# Velocity S-wave (km/s) = 3.51942 3.91459 3.72225
# Velocity P-wave (km/s) = 6.00918 6.39950 6.20741
#
# Compressibility (1/GPa) = 0.02386539
#
# Stress axis : x y z
#
# Youngs Moduli (GPa) = 57.49168 62.47245 47.14256
#
# Poissons Ratio (x) = 0.22307 0.22410
# Poissons Ratio (y) = 0.20529 0.33233
# Poissons Ratio (z) = 0.27330 0.44040
#
# Static dielectric constant tensor:
#      x y z
#    x 3.981320 -0.124720 0.140430 
#    y -0.124720 3.919230 0.225960 
#    z 0.140430 0.225960 4.077540 
# 
# 
# High freq. dielectric constant tensor:
#      x y z
#    x 1.822430 -0.010340 0.005490 
#    y -0.010340 1.833080 0.020990 
#    z 0.005490 0.020990 1.838580 
# 
# From -- ./inp_files/472515.got.cif
#   From: 2010.06.25/outbox.cif.g09.slc.cpg/sg2_237_cif.got.tgz:472515.got - 2010.06.27 13:26:56.
