data_PCOD8004103
_publ_section_title
;
Structure prediction by ZEFSAII (Michael W. Deem and Ramdas Pophale) SiO2 
 PCOD8004103
Probable space group: P -1
;
_chemical_formula_sum "Si O2"
_cell_formula_units_Z 16
_cell_length_a 13.849661
_cell_length_b 8.857993
_cell_length_c 10.701659
_cell_angle_alpha 44.426963
_cell_angle_beta 124.515538
_cell_angle_gamma 103.852404
_cell_volume 725.506491
_symmetry_space_group_name_H-M "P -1"
_symmetry_group_IT_number 2
_symmetry_cell_setting 'triclinic'
loop_
_space_group_symop_operation_xyz
x,y,z
-x,-y,-z
loop_
_atom_site_type_symbol
_atom_site_label
_atom_site_fract_x
_atom_site_fract_y
_atom_site_fract_z
Si Si1 0.848990 0.337073 0.669753
Si Si2 0.329805 0.091337 0.610404
Si Si3 0.424664 0.436487 0.596980
Si Si4 0.735930 0.664931 0.825124
Si Si5 0.073152 0.102003 0.140094
Si Si6 0.431448 0.575239 0.033845
Si Si7 0.082588 0.778382 0.821944
Si Si8 0.096466 0.231324 0.502105
O O1 0.712723 0.394687 0.592816
O O2 0.892679 0.555899 0.532547
O O3 0.865054 0.168378 0.662774
O O4 0.942754 0.187306 0.926600
O O5 0.418962 0.184779 0.709609
O O6 0.345702 0.154156 0.439796
O O7 0.190528 0.218244 0.466192
O O8 0.351088 0.829203 0.803929
O O9 0.500000 0.500000 0.500000
O O10 0.484449 0.439297 0.774205
O O11 0.827339 0.773714 0.904403
O O12 0.651347 0.592446 0.907594
O O13 0.808659 0.441270 0.932360
O O14 0.040487 0.177802 0.213203
O O15 0.500000 0.500000 0.000000
O O16 0.039009 0.737764 0.672983
O O17 0.132783 0.997534 0.744140
#
# Coordination Sequence:
#
# PCOD8004103 Si02
#       8
#     2   2   2   2   2   2   2   2
#     4  10  24  42  63 101 143 183 232 294 363 416
#     4  11  23  44  72  99 139 187 240 296 354 424
#     4  11  24  47  75 100 140 198 249 287 350 438
#     4  12  23  43  74 103 142 187 243 292 362 439
#     4  11  23  40  67 104 145 180 229 300 364 431
#     4  12  29  47  70 108 143 186 244 307 358 415
#     4  11  20  36  68 100 135 179 233 288 353 431
#     4  10  20  37  64 100 134 177 232 291 345 431
#
# _framework density 22.053559
#
# number of rings (size 3 to 8) (size 9 to 14) (size 15 to 20)
#    0.000    1.000    5.000    2.250    1.750    2.000 
#    0.000    5.000    0.000    0.000    0.000    0.000 
#    0.000    0.000    0.000    0.000    0.000    0.000 
#
# Total GULP energy -198278.818356 kJ/mol
# GULP energy per Si atom -12392.426147 kJ/mol
# Density = 2.200336 g / cm^3
# Si number density = 22.053559 Si / 1000 Ang^3
#
#
#
# Elastic Constant Matrix: (Units=GPa)
#
#
# Indices 1 2 3 4 5 6 
#
# 1 113.8211 46.5275 35.0517 1.3095 -5.6477 12.9011
# 2 46.5275 93.4156 42.0639 -11.2996 -0.3538 11.0160
# 3 35.0517 42.0639 101.8491 -8.4379 -6.8187 7.3330
# 4 1.3095 -11.2996 -8.4379 38.6662 1.5698 -7.4345
# 5 -5.6477 -0.3538 -6.8187 1.5698 31.5881 -3.5171
# 6 12.9011 11.0160 7.3330 -7.4345 -3.5171 34.7962
#
#
#
# Elastic Compliance Matrix: (Units=1/GPa)
#
#
# Indices 1 2 3 4 5 6 
#
# 1 0.011880 -0.005053 -0.001938 -0.002913 0.001474 -0.002870
# 2 -0.005053 0.015888 -0.004546 0.003591 -0.002068 -0.001640
# 3 -0.001938 -0.004546 0.012629 0.001406 0.002262 0.000025
# 4 -0.002913 0.003591 0.001406 0.028438 -0.000964 0.005626
# 5 0.001474 -0.002068 0.002262 -0.000964 0.032738 0.002735
# 6 -0.002870 -0.001640 0.000025 0.005626 0.002735 0.031795
#
#
# Mechanical properties :
#
#
# Convention : Reuss Voigt Hill
#
# Bulk Modulus (GPa) = 57.72211 61.81911 59.77061
# Shear Modulus (GPa) = 30.82298 33.37296 32.09797
#
# Velocity S-wave (km/s) = 3.74256 3.89430 3.81918
# Velocity P-wave (km/s) = 6.70120 6.95075 6.82712
#
# Compressibility (1/GPa) = 0.01732439
#
# Stress axis : x y z
#
# Youngs Moduli (GPa) = 84.17558 62.93883 79.18388
#
# Poissons Ratio (x) = 0.31802 0.15343
# Poissons Ratio (y) = 0.42533 0.35996
# Poissons Ratio (z) = 0.16311 0.28611
#
# Static dielectric constant tensor:
#      x y z
#    x 3.892340 0.114710 0.052470 
#    y 0.114710 4.422580 -0.300210 
#    z 0.052470 -0.300210 3.861970 
# 
# 
# High freq. dielectric constant tensor:
#      x y z
#    x 1.856460 0.018950 0.003080 
#    y 0.018950 1.874800 -0.013370 
#    z 0.003080 -0.013370 1.859270 
# 
# From -- ./inp_files/446704.got.cif
#   From: 2010.06.25/outbox.cif.g09.slc.cpg/sg2_224_cif.got.tgz:446704.got - 2010.06.27 13:26:56.
