data_PCOD8004427
_publ_section_title
;
Structure prediction by ZEFSAII (Michael W. Deem and Ramdas Pophale) SiO2 
 PCOD8004427
Probable space group: P -1
;
_chemical_formula_sum "Si O2"
_cell_formula_units_Z 16
_cell_length_a 24.130527
_cell_length_b 5.183052
_cell_length_c 16.465850
_cell_angle_alpha 109.264352
_cell_angle_beta 155.737293
_cell_angle_gamma 73.665063
_cell_volume 797.845082
_symmetry_space_group_name_H-M "P -1"
_symmetry_group_IT_number 2
_symmetry_cell_setting 'triclinic'
loop_
_space_group_symop_operation_xyz
x,y,z
-x,-y,-z
loop_
_atom_site_type_symbol
_atom_site_label
_atom_site_fract_x
_atom_site_fract_y
_atom_site_fract_z
Si Si1 0.230806 0.108792 0.941834
Si Si2 0.252294 0.094818 0.436776
Si Si3 0.693895 0.769521 0.112872
Si Si4 0.865718 0.713129 0.008547
Si Si5 0.029811 0.273078 0.450388
Si Si6 0.160315 0.484033 0.215762
Si Si7 0.970850 0.722735 0.732850
Si Si8 0.563000 0.209275 0.896656
O O1 0.080798 0.973438 0.716672
O O2 0.254530 0.313537 0.917986
O O3 0.240872 0.267756 0.057531
O O4 0.345780 0.884909 0.067761
O O5 0.197528 0.239262 0.298887
O O6 0.408479 0.172548 0.663805
O O7 0.176147 0.196326 0.425397
O O8 0.232259 0.768416 0.368829
O O9 0.823362 0.844382 0.349323
O O10 0.601253 0.523726 0.000946
O O11 0.602014 0.033140 0.010036
O O12 0.982717 0.514903 0.170564
O O13 0.928133 0.011079 0.099009
O O14 0.788079 0.589161 0.813315
O O15 0.000000 0.500000 0.500000
O O16 0.034023 0.394679 0.377413
O O17 0.000000 0.500000 0.000000
#
# Coordination Sequence:
#
# PCOD8004427 Si02
#       8
#     2   2   2   2   2   2   2   2
#     4   9  22  36  62  87 124 151 197 243 298 344
#     4  12  23  43  60  88 122 159 196 238 300 360
#     4  10  20  38  58  87 117 160 203 230 294 347
#     4  11  22  37  60  94 115 149 191 261 300 336
#     4  11  19  37  63  95 115 154 199 257 288 333
#     4  12  22  40  66  89 116 150 204 250 295 350
#     4  11  23  36  60  90 123 146 196 247 305 339
#     4  10  23  38  60  81 123 172 186 233 295 362
#
# _framework density 20.054020000000001
#
# number of rings (size 3 to 8) (size 9 to 14) (size 15 to 20)
#    0.750    0.500    3.750    3.000    1.750    3.000 
#    0.000    2.500    0.000    0.000    0.000    0.000 
#    0.000    0.000    0.000    0.000    0.000    0.000 
#
# Total GULP energy -198344.653425 kJ/mol
# GULP energy per Si atom -12396.540839 kJ/mol
# Density = 2.000838 g / cm^3
# Si number density = 20.054020 Si / 1000 Ang^3
#
#
#
# Elastic Constant Matrix: (Units=GPa)
#
#
# Indices 1 2 3 4 5 6 
#
# 1 68.7361 24.7018 21.8808 9.6206 -12.8726 -5.4551
# 2 24.7018 84.4868 13.8947 3.8315 -1.6758 11.5410
# 3 21.8808 13.8947 87.0486 -6.5582 11.4737 3.2005
# 4 9.6206 3.8315 -6.5582 25.6165 4.0227 -4.6116
# 5 -12.8726 -1.6758 11.4737 4.0227 31.9408 3.3305
# 6 -5.4551 11.5410 3.2005 -4.6116 3.3305 31.7195
#
#
#
# Elastic Compliance Matrix: (Units=1/GPa)
#
#
# Indices 1 2 3 4 5 6 
#
# 1 0.023130 -0.005245 -0.007647 -0.011211 0.012821 0.003682
# 2 -0.005245 0.014427 -0.000839 -0.001496 -0.000214 -0.006262
# 3 -0.007647 -0.000839 0.015470 0.008424 -0.009710 -0.000327
# 4 -0.011211 -0.001496 0.008424 0.049056 -0.014470 0.006418
# 5 0.012821 -0.000214 -0.009710 -0.014470 0.042114 -0.003263
# 6 0.003682 -0.006262 -0.000327 0.006418 -0.003263 0.035746
#
#
# Mechanical properties :
#
#
# Convention : Reuss Voigt Hill
#
# Bulk Modulus (GPa) = 39.11468 40.13621 39.62545
# Shear Modulus (GPa) = 23.15604 29.84163 26.49883
#
# Velocity S-wave (km/s) = 3.40175 3.86173 3.63901
# Velocity P-wave (km/s) = 5.91407 6.31992 6.12036
#
# Compressibility (1/GPa) = 0.02556585
#
# Stress axis : x y z
#
# Youngs Moduli (GPa) = 43.23387 69.31644 64.64010
#
# Poissons Ratio (x) = 0.36358 0.49428
# Poissons Ratio (y) = 0.22677 0.05420
# Poissons Ratio (z) = 0.33060 0.05812
#
# Static dielectric constant tensor:
#      x y z
#    x 3.900710 -0.074570 -0.208040 
#    y -0.074570 3.708180 0.025490 
#    z -0.208040 0.025490 3.524920 
# 
# 
# High freq. dielectric constant tensor:
#      x y z
#    x 1.781700 0.009800 -0.005560 
#    y 0.009800 1.787680 -0.005490 
#    z -0.005560 -0.005490 1.760760 
# 
# From -- ./inp_files/579547.got.cif
#   From: 2010.06.25/outbox.cif.g09.slc.cpg/sg2_290_cif.got.tgz:579547.got - 2010.06.27 13:26:56.
