data_PCOD8004118
_publ_section_title
;
Structure prediction by ZEFSAII (Michael W. Deem and Ramdas Pophale) SiO2 
 PCOD8004118
Probable space group: P -1
;
_chemical_formula_sum "Si O2"
_cell_formula_units_Z 16
_cell_length_a 12.148052
_cell_length_b 17.868697
_cell_length_c 11.141530
_cell_angle_alpha 124.122938
_cell_angle_beta 34.420264
_cell_angle_gamma 141.471695
_cell_volume 826.749084
_symmetry_space_group_name_H-M "P -1"
_symmetry_group_IT_number 2
_symmetry_cell_setting 'triclinic'
loop_
_space_group_symop_operation_xyz
x,y,z
-x,-y,-z
loop_
_atom_site_type_symbol
_atom_site_label
_atom_site_fract_x
_atom_site_fract_y
_atom_site_fract_z
Si Si1 0.620060 0.115744 0.077287
Si Si2 0.483041 0.398182 0.985145
Si Si3 0.321685 0.229621 0.785448
Si Si4 0.473500 0.084697 0.450441
Si Si5 0.069096 0.850182 0.749830
Si Si6 0.372230 0.681129 0.770967
Si Si7 0.802411 0.495530 0.024139
Si Si8 0.768050 0.682124 0.279161
O O1 0.554196 0.074193 0.237983
O O2 0.507486 0.179535 0.200344
O O3 0.930159 0.212132 0.855641
O O4 0.500000 0.000000 0.000000
O O5 0.542698 0.339424 0.778385
O O6 0.500000 0.500000 0.000000
O O7 0.697715 0.451877 0.944306
O O8 0.175152 0.286960 0.208424
O O9 0.423193 0.175955 0.572622
O O10 0.259915 0.290830 0.805472
O O11 0.050836 0.124285 0.011940
O O12 0.704399 0.142404 0.391636
O O13 0.198934 0.950129 0.617040
O O14 0.280278 0.618555 0.928324
O O15 0.593149 0.681941 0.529302
O O16 0.124773 0.604206 0.830342
O O17 0.683156 0.549731 0.237739
#
# Coordination Sequence:
#
# PCOD8004118 Si02
#       8
#     2   2   2   2   2   2   2   2
#     4  11  24  40  60  89 122 157 210 258 296 363
#     4  10  20  38  61  93 126 149 194 260 301 357
#     4  10  20  37  64  90 116 165 194 248 309 365
#     4  11  20  42  62  84 124 164 204 243 312 368
#     4   9  22  38  61  90 121 160 198 256 303 357
#     4  10  23  41  64  86 118 172 200 248 318 358
#     4  10  21  42  61  90 125 154 208 254 298 378
#     4  11  20  40  65  84 123 161 203 249 312 366
#
# _framework density 19.352906999999998
#
# number of rings (size 3 to 8) (size 9 to 14) (size 15 to 20)
#    0.750    1.000    3.750    0.750    1.750    1.500 
#    9.000    1.250    0.000    0.000    0.000    0.000 
#    0.000    0.000    0.000    0.000    0.000    0.000 
#
# Total GULP energy -198320.840705 kJ/mol
# GULP energy per Si atom -12395.052544 kJ/mol
# Density = 1.930886 g / cm^3
# Si number density = 19.352907 Si / 1000 Ang^3
#
#
#
# Elastic Constant Matrix: (Units=GPa)
#
#
# Indices 1 2 3 4 5 6 
#
# 1 88.5979 39.2832 4.2609 6.4367 -3.8511 0.0879
# 2 39.2832 107.0392 21.2521 10.7776 1.8467 -0.6456
# 3 4.2609 21.2521 77.4740 8.4379 -1.7662 1.7401
# 4 6.4367 10.7776 8.4379 26.1823 -4.2406 0.5443
# 5 -3.8511 1.8467 -1.7662 -4.2406 24.4911 -1.5481
# 6 0.0879 -0.6456 1.7401 0.5443 -1.5481 29.1376
#
#
#
# Elastic Compliance Matrix: (Units=1/GPa)
#
#
# Indices 1 2 3 4 5 6 
#
# 1 0.013705 -0.005122 0.000831 -0.001139 0.002400 -0.000056
# 2 -0.005122 0.012142 -0.002759 -0.003256 -0.002460 0.000379
# 3 0.000831 -0.002759 0.014029 -0.003460 0.000701 -0.000800
# 4 -0.001139 -0.003256 -0.003460 0.042082 0.007086 -0.000272
# 5 0.002400 -0.002460 0.000701 0.007086 0.042800 0.002038
# 6 -0.000056 0.000379 -0.000800 -0.000272 0.002038 0.034490
#
#
# Mechanical properties :
#
#
# Convention : Reuss Voigt Hill
#
# Bulk Modulus (GPa) = 38.79336 44.74483 41.76909
# Shear Modulus (GPa) = 27.48138 29.84987 28.66563
#
# Velocity S-wave (km/s) = 3.77239 3.93160 3.85282
# Velocity P-wave (km/s) = 6.25007 6.61669 6.43599
#
# Compressibility (1/GPa) = 0.02577761
#
# Stress axis : x y z
#
# Youngs Moduli (GPa) = 72.96570 82.35557 71.27869
#
# Poissons Ratio (x) = 0.42181 -0.05925
# Poissons Ratio (y) = 0.37372 0.19666
# Poissons Ratio (z) = -0.06065 0.22723
#
# Static dielectric constant tensor:
#      x y z
#    x 3.445070 -0.141050 -0.062970 
#    y -0.141050 3.534910 -0.071660 
#    z -0.062970 -0.071660 3.415590 
# 
# 
# High freq. dielectric constant tensor:
#      x y z
#    x 1.751100 -0.015920 -0.003490 
#    y -0.015920 1.749660 -0.004140 
#    z -0.003490 -0.004140 1.746640 
# 
# From -- ./inp_files/436853.got.cif
#   From: 2010.06.25/outbox.cif.g09.slc.cpg/sg2_219_cif.got.tgz:436853.got - 2010.06.27 13:26:56.
