data_PCOD8004681
_publ_section_title
;
Structure prediction by ZEFSAII (Michael W. Deem and Ramdas Pophale) SiO2 
 PCOD8004681
Probable space group: P -1
;
_chemical_formula_sum "Si O2"
_cell_formula_units_Z 14
_cell_length_a 9.698811
_cell_length_b 10.343584
_cell_length_c 12.079987
_cell_angle_alpha 103.559063
_cell_angle_beta 35.107220
_cell_angle_gamma 104.597882
_cell_volume 673.587346
_symmetry_space_group_name_H-M "P -1"
_symmetry_group_IT_number 2
_symmetry_cell_setting 'triclinic'
loop_
_space_group_symop_operation_xyz
x,y,z
-x,-y,-z
loop_
_atom_site_type_symbol
_atom_site_label
_atom_site_fract_x
_atom_site_fract_y
_atom_site_fract_z
Si Si1 0.392546 0.129229 0.730971
Si Si2 0.886521 0.401656 0.901838
Si Si3 0.572749 0.798345 0.838190
Si Si4 0.003028 0.315914 0.041821
Si Si5 0.573599 0.087465 0.832178
Si Si6 0.085895 0.213279 0.572905
Si Si7 0.458501 0.834565 0.596699
O O1 0.568124 0.149496 0.726108
O O2 0.511371 0.204425 0.560043
O O3 0.337604 0.972689 0.708589
O O4 0.146464 0.187837 0.938658
O O5 0.885466 0.561646 0.928647
O O6 0.018675 0.352511 0.696071
O O7 0.616630 0.331308 0.075293
O O8 0.034900 0.362662 0.903567
O O9 0.816314 0.761441 0.611617
O O10 0.485838 0.928345 0.857036
O O11 0.604040 0.838941 0.955116
O O12 0.722573 0.280288 0.250473
O O13 0.846400 0.107906 0.705078
O O14 0.283717 0.152037 0.507600
#
# Coordination Sequence:
#
# PCOD8004681 Si02
#       7
#     2   2   2   2   2   2   2
#     4  11  23  40  58  93 126 152 193 252 301 357
#     4  10  22  37  61  89 117 160 203 240 291 353
#     4  10  20  38  61  89 117 155 200 245 290 349
#     4  11  22  39  59  88 123 160 196 243 297 355
#     4  10  22  37  63  92 120 154 199 242 307 348
#     4  11  20  38  61  92 119 151 200 247 288 361
#     4  11  23  37  63  93 122 152 194 249 309 343
#
# _framework density 20.784237999999998
#
# number of rings (size 3 to 8) (size 9 to 14) (size 15 to 20)
#    0.000    1.429    4.286    0.857    0.000    2.857 
#    5.143    2.857    0.000    5.143    0.000    0.000 
#    0.000    0.000    0.000    0.000    0.000    0.000 
#
# Total GULP energy -173561.816990 kJ/mol
# GULP energy per Si atom -12397.272642 kJ/mol
# Density = 2.073693 g / cm^3
# Si number density = 20.784238 Si / 1000 Ang^3
#
#
#
# Elastic Constant Matrix: (Units=GPa)
#
#
# Indices 1 2 3 4 5 6 
#
# 1 88.0688 16.6365 43.6770 -6.3426 16.0523 -2.2017
# 2 16.6365 66.6437 39.4766 -2.7229 -0.2540 13.4582
# 3 43.6770 39.4766 144.0210 0.7621 25.2019 9.0424
# 4 -6.3426 -2.7229 0.7621 24.4745 5.4005 -0.5322
# 5 16.0523 -0.2540 25.2019 5.4005 35.1103 2.7412
# 6 -2.2017 13.4582 9.0424 -0.5322 2.7412 23.0473
#
#
#
# Elastic Compliance Matrix: (Units=1/GPa)
#
#
# Indices 1 2 3 4 5 6 
#
# 1 0.014964 -0.002721 -0.003122 0.005060 -0.005792 0.005049
# 2 -0.002721 0.021140 -0.005326 0.000231 0.006061 -0.011230
# 3 -0.003122 -0.005326 0.010438 -0.000417 -0.005994 -0.000580
# 4 0.005060 0.000231 -0.000417 0.044257 -0.009024 0.002607
# 5 -0.005792 0.006061 -0.005994 -0.009024 0.037363 -0.006393
# 6 0.005049 -0.011230 -0.000580 0.002607 -0.006393 0.051477
#
#
# Mechanical properties :
#
#
# Convention : Reuss Voigt Hill
#
# Bulk Modulus (GPa) = 41.31818 55.36819 48.34318
# Shear Modulus (GPa) = 23.80452 29.78933 26.79692
#
# Velocity S-wave (km/s) = 3.38792 3.78996 3.59456
# Velocity P-wave (km/s) = 5.93521 6.77119 6.36694
#
# Compressibility (1/GPa) = 0.02420242
#
# Stress axis : x y z
#
# Youngs Moduli (GPa) = 66.82832 47.30447 95.80660
#
# Poissons Ratio (x) = 0.12871 0.29915
# Poissons Ratio (y) = 0.18183 0.51027
# Poissons Ratio (z) = 0.20867 0.25195
#
# Static dielectric constant tensor:
#      x y z
#    x 3.636030 0.200500 0.386060 
#    y 0.200500 3.540830 0.133110 
#    z 0.386060 0.133110 3.984380 
# 
# 
# High freq. dielectric constant tensor:
#      x y z
#    x 1.794480 0.020050 0.023420 
#    y 0.020050 1.789090 0.007530 
#    z 0.023420 0.007530 1.827390 
# 
# From -- ./inp_files/269725.got.cif
#   From: 2010.06.25/outbox.cif.g09.slc.cpg/sg2_135_cif.got.tgz:269725.got - 2010.06.27 13:26:56.
