data_PCOD8004761
_publ_section_title
;
Structure prediction by ZEFSAII (Michael W. Deem and Ramdas Pophale) SiO2 
 PCOD8004761
Probable space group: P -1
;
_chemical_formula_sum "Si O2"
_cell_formula_units_Z 16
_cell_length_a 9.355067
_cell_length_b 11.705382
_cell_length_c 14.565179
_cell_angle_alpha 151.399636
_cell_angle_beta 91.059621
_cell_angle_gamma 81.307664
_cell_volume 732.424511
_symmetry_space_group_name_H-M "P -1"
_symmetry_group_IT_number 2
_symmetry_cell_setting 'triclinic'
loop_
_space_group_symop_operation_xyz
x,y,z
-x,-y,-z
loop_
_atom_site_type_symbol
_atom_site_label
_atom_site_fract_x
_atom_site_fract_y
_atom_site_fract_z
Si Si1 0.445906 0.550979 0.430629
Si Si2 0.856674 0.467800 0.864690
Si Si3 0.717641 0.129303 0.115204
Si Si4 0.397136 0.075436 0.850667
Si Si5 0.944268 0.194534 0.853146
Si Si6 0.868607 0.339320 0.570577
Si Si7 0.725936 0.996123 0.824382
Si Si8 0.098834 0.506051 0.592444
O O1 0.500000 0.500000 0.500000
O O2 0.573709 0.351931 0.235785
O O3 0.284473 0.511233 0.377969
O O4 0.427599 0.841225 0.615838
O O5 0.872934 0.265143 0.801629
O O6 0.843562 0.329024 0.671700
O O7 0.706024 0.687381 0.034772
O O8 0.995029 0.585861 0.951017
O O9 0.850749 0.244389 0.227184
O O10 0.681486 0.971459 0.087878
O O11 0.770992 0.954972 0.904021
O O12 0.551448 0.133241 0.914317
O O13 0.815876 0.170645 0.903584
O O14 0.076201 0.937504 0.666615
O O15 0.996284 0.481664 0.660564
O O16 0.757472 0.734003 0.585854
O O17 0.000000 0.500000 0.500000
#
# Coordination Sequence:
#
# PCOD8004761 Si02
#       8
#     2   2   2   2   2   2   2   2
#     4  10  20  38  62  86 127 161 198 247 298 365
#     4  11  23  42  68  89 117 166 211 255 306 357
#     4  11  23  39  61  89 126 162 201 244 302 382
#     4  11  22  39  63  88 123 162 202 249 302 365
#     4  10  24  44  63  90 125 156 209 267 299 355
#     4  11  22  40  65  92 122 163 208 245 312 366
#     4  11  24  40  61  90 122 160 205 249 310 362
#     4  11  24  36  58  89 129 161 190 252 303 362
#
# _framework density 21.845255999999999
#
# number of rings (size 3 to 8) (size 9 to 14) (size 15 to 20)
#    0.000    1.250    2.500    3.750    5.250    1.000 
#    0.000    0.000    0.000    1.500    0.000    0.000 
#    0.000    0.000    0.000    0.000    0.000    0.000 
#
# Total GULP energy -198390.181610 kJ/mol
# GULP energy per Si atom -12399.386351 kJ/mol
# Density = 2.179554 g / cm^3
# Si number density = 21.845256 Si / 1000 Ang^3
#
#
#
# Elastic Constant Matrix: (Units=GPa)
#
#
# Indices 1 2 3 4 5 6 
#
# 1 107.4921 29.4087 11.1689 -2.5726 3.1033 -11.2126
# 2 29.4087 75.7320 3.7009 -3.4872 -6.8168 -10.3477
# 3 11.1689 3.7009 39.6943 -9.1215 4.3674 -1.3080
# 4 -2.5726 -3.4872 -9.1215 30.7003 -1.9679 1.5078
# 5 3.1033 -6.8168 4.3674 -1.9679 20.7387 1.8746
# 6 -11.2126 -10.3477 -1.3080 1.5078 1.8746 28.5620
#
#
#
# Elastic Compliance Matrix: (Units=1/GPa)
#
#
# Indices 1 2 3 4 5 6 
#
# 1 0.011040 -0.004039 -0.002461 -0.000589 -0.002786 0.002972
# 2 -0.004039 0.015888 -0.000510 0.001502 0.005743 0.003691
# 3 -0.002461 -0.000510 0.028282 0.007814 -0.005019 0.000061
# 4 -0.000589 0.001502 0.007814 0.035236 0.002402 -0.001347
# 5 -0.002786 0.005743 -0.005019 0.002402 0.052060 -0.002786
# 6 0.002972 0.003691 0.000061 -0.001347 -0.002786 0.037772
#
#
# Mechanical properties :
#
#
# Convention : Reuss Voigt Hill
#
# Bulk Modulus (GPa) = 24.27692 34.60836 29.44264
# Shear Modulus (GPa) = 24.03512 27.90951 25.97232
#
# Velocity S-wave (km/s) = 3.32059 3.57823 3.45182
# Velocity P-wave (km/s) = 5.08321 5.74008 5.42160
#
# Compressibility (1/GPa) = 0.04119139
#
# Stress axis : x y z
#
# Youngs Moduli (GPa) = 90.57996 62.94009 35.35763
#
# Poissons Ratio (x) = 0.25419 0.08701
# Poissons Ratio (y) = 0.36582 0.01804
# Poissons Ratio (z) = 0.22290 0.03211
#
# Static dielectric constant tensor:
#      x y z
#    x 4.141630 -0.012950 -0.263530 
#    y -0.012950 3.777160 0.035410 
#    z -0.263530 0.035410 4.330940 
# 
# 
# High freq. dielectric constant tensor:
#      x y z
#    x 1.868930 -0.010650 -0.003460 
#    y -0.010650 1.826100 -0.001220 
#    z -0.003460 -0.001220 1.866610 
# 
# From -- ./inp_files/331981.got.cif
#   From: 2010.06.25/outbox.cif.g09.slc.cpg/sg2_166_cif.got.tgz:331981.got - 2010.06.27 13:26:56.
