data_PCOD8004559
_publ_section_title
;
Structure prediction by ZEFSAII (Michael W. Deem and Ramdas Pophale) SiO2 
 PCOD8004559
Probable space group: P -1
;
_chemical_formula_sum "Si O2"
_cell_formula_units_Z 16
_cell_length_a 11.962414
_cell_length_b 10.833864
_cell_length_c 7.011907
_cell_angle_alpha 79.599781
_cell_angle_beta 69.441805
_cell_angle_gamma 64.315758
_cell_volume 766.364403
_symmetry_space_group_name_H-M "P -1"
_symmetry_group_IT_number 2
_symmetry_cell_setting 'triclinic'
loop_
_space_group_symop_operation_xyz
x,y,z
-x,-y,-z
loop_
_atom_site_type_symbol
_atom_site_label
_atom_site_fract_x
_atom_site_fract_y
_atom_site_fract_z
Si Si1 0.064669 0.349165 0.213924
Si Si2 0.486709 0.043603 0.708107
Si Si3 0.127980 0.601901 0.028236
Si Si4 0.454223 0.715447 0.456259
Si Si5 0.714847 0.926657 0.893520
Si Si6 0.435690 0.528209 0.826180
Si Si7 0.179450 0.919891 0.458495
Si Si8 0.013277 0.799560 0.384162
O O1 0.096405 0.482637 0.180658
O O2 0.194462 0.231654 0.084375
O O3 0.039578 0.303638 0.452225
O O4 0.943168 0.369235 0.141900
O O5 0.453361 0.206384 0.673226
O O6 0.500000 0.000000 0.500000
O O7 0.616575 0.948862 0.769016
O O8 0.365779 0.020864 0.879291
O O9 0.072439 0.735830 0.161561
O O10 0.282073 0.559970 0.914842
O O11 0.467363 0.649678 0.676942
O O12 0.481312 0.605018 0.307053
O O13 0.309610 0.831664 0.513364
O O14 0.799453 0.014287 0.772619
O O15 0.500000 0.500000 0.000000
O O16 0.116176 0.815176 0.466466
O O17 0.096510 0.044924 0.616507
#
# Coordination Sequence:
#
# PCOD8004559 Si02
#       8
#     2   2   2   2   2   2   2   2
#     4  10  22  39  58  85 121 155 196 244 290 351
#     4  10  21  36  59  87 119 158 198 243 293 349
#     4  11  23  38  60  87 116 157 200 241 295 349
#     4  10  22  40  58  85 118 150 197 246 292 350
#     4   9  20  38  57  84 121 156 197 244 293 347
#     4  11  24  41  63  87 116 157 200 247 298 348
#     4   9  19  38  61  84 118 153 190 244 294 349
#     4  10  20  38  60  86 117 152 192 239 294 349
#
# _framework density 20.877796
#
# number of rings (size 3 to 8) (size 9 to 14) (size 15 to 20)
#    0.000    2.000    0.000    2.625    0.000    9.000 
#    0.000   10.000    0.000    0.000    0.000    0.000 
#    0.000    0.000    0.000    0.000    0.000    0.000 
#
# Total GULP energy -198290.325705 kJ/mol
# GULP energy per Si atom -12393.145357 kJ/mol
# Density = 2.083028 g / cm^3
# Si number density = 20.877796 Si / 1000 Ang^3
#
#
#
# Elastic Constant Matrix: (Units=GPa)
#
#
# Indices 1 2 3 4 5 6 
#
# 1 67.5192 27.6615 27.4845 0.7794 -8.5061 -9.9561
# 2 27.6615 102.8144 32.5901 -2.1806 3.2395 -4.2627
# 3 27.4845 32.5901 96.2240 0.6980 6.0862 -11.3279
# 4 0.7794 -2.1806 0.6980 27.9018 0.3976 -6.1678
# 5 -8.5061 3.2395 6.0862 0.3976 24.6711 -0.1840
# 6 -9.9561 -4.2627 -11.3279 -6.1678 -0.1840 28.6833
#
#
#
# Elastic Compliance Matrix: (Units=1/GPa)
#
#
# Indices 1 2 3 4 5 6 
#
# 1 0.020011 -0.004085 -0.004317 0.000152 0.008534 0.004721
# 2 -0.004085 0.011767 -0.002745 0.001013 -0.002297 -0.000550
# 3 -0.004317 -0.002745 0.013226 0.000383 -0.004372 0.003371
# 4 0.000152 0.001013 0.000383 0.037789 -0.000721 0.008476
# 5 0.008534 -0.002297 -0.004372 -0.000721 0.044875 0.001027
# 6 0.004721 -0.000550 0.003371 0.008476 0.001027 0.039581
#
#
# Mechanical properties :
#
#
# Convention : Reuss Voigt Hill
#
# Bulk Modulus (GPa) = 44.03688 49.11441 46.57565
# Shear Modulus (GPa) = 25.36609 28.17267 26.76938
#
# Velocity S-wave (km/s) = 3.48944 3.67741 3.58466
# Velocity P-wave (km/s) = 6.11338 6.45035 6.28412
#
# Compressibility (1/GPa) = 0.02270824
#
# Stress axis : x y z
#
# Youngs Moduli (GPa) = 49.97208 84.98629 75.60920
#
# Poissons Ratio (x) = 0.34720 0.32642
# Poissons Ratio (y) = 0.20415 0.20756
# Poissons Ratio (z) = 0.21574 0.23330
#
# Static dielectric constant tensor:
#      x y z
#    x 3.869630 0.032110 -0.331210 
#    y 0.032110 3.958510 -0.141370 
#    z -0.331210 -0.141370 3.716980 
# 
# 
# High freq. dielectric constant tensor:
#      x y z
#    x 1.813350 -0.003710 -0.020120 
#    y -0.003710 1.829070 -0.008170 
#    z -0.020120 -0.008170 1.815060 
# 
# From -- ./inp_files/69768.got.cif
#   From: 2010.06.25/outbox.cif.g09.slc.cpg/sg2_35_cif.got.tgz:69768.got - 2010.06.27 13:26:56.
