data_PCOD8004911
_publ_section_title
;
Structure prediction by ZEFSAII (Michael W. Deem and Ramdas Pophale) SiO2 
 PCOD8004911
Probable space group: P -1
;
_chemical_formula_sum "Si O2"
_cell_formula_units_Z 10
_cell_length_a 8.622519
_cell_length_b 12.017438
_cell_length_c 13.410118
_cell_angle_alpha 148.690872
_cell_angle_beta 35.670423
_cell_angle_gamma 125.674169
_cell_volume 391.852691
_symmetry_space_group_name_H-M "P -1"
_symmetry_group_IT_number 2
_symmetry_cell_setting 'triclinic'
loop_
_space_group_symop_operation_xyz
x,y,z
-x,-y,-z
loop_
_atom_site_type_symbol
_atom_site_label
_atom_site_fract_x
_atom_site_fract_y
_atom_site_fract_z
Si Si1 0.865571 0.288852 0.742820
Si Si2 0.627979 0.251046 0.038124
Si Si3 0.544592 0.662647 0.517807
Si Si4 0.591871 0.214381 0.629367
Si Si5 0.153357 0.069318 0.131329
O O1 0.745353 0.194255 0.640093
O O2 0.192428 0.259865 0.531610
O O3 0.826338 0.159539 0.765772
O O4 0.685368 0.558271 0.059330
O O5 0.595579 0.518001 0.278118
O O6 0.310458 0.251866 0.187322
O O7 0.776483 0.086057 0.924599
O O8 0.500000 0.500000 0.500000
O O9 0.261597 0.898017 0.847800
O O10 0.500000 0.000000 0.500000
O O11 0.813267 0.209082 0.419699
#
# Coordination Sequence:
#
# PCOD8004911 Si02
#       5
#     2   2   2   2   2
#     4  11  24  39  62  90 120 158 200 242 296 357
#     4  10  21  39  63  91 119 152 200 249 293 350
#     4  10  20  38  63  89 118 154 195 245 296 348
#     4  11  24  42  59  85 123 161 197 245 298 349
#     4  10  22  39  63  88 119 157 198 245 296 350
#
# _framework density 25.519793
#
# number of rings (size 3 to 8) (size 9 to 14) (size 15 to 20)
#    0.000    1.600    0.000    6.600    0.000    7.200 
#    0.000    2.000    0.000    0.000    0.000    0.000 
#    0.000    0.000    0.000    0.000    0.000    0.000 
#
# Total GULP energy -123996.592517 kJ/mol
# GULP energy per Si atom -12399.659252 kJ/mol
# Density = 2.546171 g / cm^3
# Si number density = 25.519793 Si / 1000 Ang^3
#
#
#
# Elastic Constant Matrix: (Units=GPa)
#
#
# Indices 1 2 3 4 5 6 
#
# 1 39.1941 37.1279 22.9638 -1.6187 24.9730 8.2293
# 2 37.1279 121.2439 18.7759 -19.8008 3.4278 28.2856
# 3 22.9638 18.7759 135.5955 -22.4489 13.7844 15.0141
# 4 -1.6187 -19.8008 -22.4489 47.6932 3.7949 7.8449
# 5 24.9730 3.4278 13.7844 3.7949 43.5603 3.5967
# 6 8.2293 28.2856 15.0141 7.8449 3.5967 37.2172
#
#
#
# Elastic Compliance Matrix: (Units=1/GPa)
#
#
# Indices 1 2 3 4 5 6 
#
# 1 0.077282 -0.025860 -0.008667 -0.011053 -0.039574 0.012216
# 2 -0.025860 0.020466 0.003727 0.010830 0.012315 -0.014813
# 3 -0.008667 0.003727 0.010062 0.006958 0.001429 -0.006580
# 4 -0.011053 0.010830 0.006958 0.030723 0.001865 -0.015250
# 5 -0.039574 0.012315 0.001429 0.001865 0.044546 -0.005884
# 6 0.012216 -0.014813 -0.006580 -0.015250 -0.005884 0.041863
#
#
# Mechanical properties :
#
#
# Convention : Reuss Voigt Hill
#
# Bulk Modulus (GPa) = 21.64046 50.41874 36.02960
# Shear Modulus (GPa) = 16.55920 40.17187 28.36554
#
# Velocity S-wave (km/s) = 2.55007 3.97185 3.33755
# Velocity P-wave (km/s) = 4.14352 6.39013 5.38528
#
# Compressibility (1/GPa) = 0.04620974
#
# Stress axis : x y z
#
# Youngs Moduli (GPa) = 12.93958 48.86171 99.38496
#
# Poissons Ratio (x) = 1.26356 0.86137
# Poissons Ratio (y) = 0.33462 -0.37039
# Poissons Ratio (z) = 0.11215 -0.18210
#
# Static dielectric constant tensor:
#      x y z
#    x 4.624040 0.341390 0.717370 
#    y 0.341390 4.753610 0.366250 
#    z 0.717370 0.366250 5.968470 
# 
# 
# High freq. dielectric constant tensor:
#      x y z
#    x 1.995420 0.010030 0.021740 
#    y 0.010030 2.024110 0.003750 
#    z 0.021740 0.003750 2.056020 
# 
# From -- ./inp_files/148169.got.cif
#   From: 2010.06.25/outbox.cif.g09.slc.cpg/sg2_75_cif.got.tgz:148169.got - 2010.06.27 13:26:56.
