data_PCOD8004271
_publ_section_title
;
Structure prediction by ZEFSAII (Michael W. Deem and Ramdas Pophale) SiO2 
 PCOD8004271
Probable space group: P -1
;
_chemical_formula_sum "Si O2"
_cell_formula_units_Z 16
_cell_length_a 11.828403
_cell_length_b 12.396792
_cell_length_c 11.830188
_cell_angle_alpha 72.847328
_cell_angle_beta 103.604963
_cell_angle_gamma 40.500369
_cell_volume 723.560254
_symmetry_space_group_name_H-M "P -1"
_symmetry_group_IT_number 2
_symmetry_cell_setting 'triclinic'
loop_
_space_group_symop_operation_xyz
x,y,z
-x,-y,-z
loop_
_atom_site_type_symbol
_atom_site_label
_atom_site_fract_x
_atom_site_fract_y
_atom_site_fract_z
Si Si1 0.346247 0.616979 0.139962
Si Si2 0.641368 0.290112 0.520348
Si Si3 0.151483 0.814295 0.696293
Si Si4 0.622579 0.069318 0.671852
Si Si5 0.213868 0.241095 0.569672
Si Si6 0.179948 0.014686 0.026058
Si Si7 0.435500 0.943873 0.934425
Si Si8 0.941728 0.360175 0.259639
O O1 0.571431 0.394901 0.349785
O O2 0.539221 0.422667 0.137518
O O3 0.255840 0.823832 0.064166
O O4 0.109900 0.736248 0.066081
O O5 0.500000 0.500000 0.500000
O O6 0.531305 0.259730 0.523215
O O7 0.960434 0.009865 0.698979
O O8 0.156808 0.676608 0.717860
O O9 0.000000 0.000000 0.500000
O O10 0.414680 0.151598 0.586535
O O11 0.642451 0.089111 0.801359
O O12 0.884375 0.793133 0.764908
O O13 0.000000 0.500000 0.500000
O O14 0.097492 0.268950 0.433028
O O15 0.344977 0.045956 0.753812
O O16 0.207843 0.072326 0.906688
O O17 0.697863 0.646822 0.082603
O O18 0.500000 0.000000 0.000000
#
# Coordination Sequence:
#
# PCOD8004271 Si02
#       8
#     2   2   2   2   2   2   2   2
#     4  10  21  39  65  95 135 178 223 282 343 413
#     4  10  20  37  66  96 131 177 227 279 346 414
#     4   9  20  41  66  95 135 177 220 288 342 406
#     4  11  24  44  67  98 138 182 227 289 347 413
#     4  12  26  44  73 100 133 187 233 286 350 413
#     4  11  22  42  65  98 139 176 228 282 343 416
#     4  12  24  46  71  98 137 187 230 288 342 404
#     4  11  24  47  68 101 142 174 238 290 343 421
#
# _framework density 22.112879
#
# number of rings (size 3 to 8) (size 9 to 14) (size 15 to 20)
#    0.000    1.250    5.000    0.375    1.750    0.500 
#    6.750    2.500    0.000    0.000    0.000    0.000 
#    0.000    0.000    0.000    0.000    0.000    0.000 
#
# Total GULP energy -198210.347993 kJ/mol
# GULP energy per Si atom -12388.146750 kJ/mol
# Density = 2.206255 g / cm^3
# Si number density = 22.112879 Si / 1000 Ang^3
#
#
#
# Elastic Constant Matrix: (Units=GPa)
#
#
# Indices 1 2 3 4 5 6 
#
# 1 146.7673 46.8105 37.8786 -31.5843 -4.5524 -18.6152
# 2 46.8105 109.4100 35.4479 -29.0921 -1.1297 -3.6389
# 3 37.8786 35.4479 78.5744 -21.6642 -7.4104 -2.5568
# 4 -31.5843 -29.0921 -21.6642 42.5105 -4.1136 2.3729
# 5 -4.5524 -1.1297 -7.4104 -4.1136 38.4353 -8.1570
# 6 -18.6152 -3.6389 -2.5568 2.3729 -8.1570 35.1850
#
#
#
# Elastic Compliance Matrix: (Units=1/GPa)
#
#
# Indices 1 2 3 4 5 6 
#
# 1 0.009717 -0.002042 -0.002095 0.004694 0.002247 0.004982
# 2 -0.002042 0.012467 -0.003154 0.005430 0.000017 -0.000382
# 3 -0.002095 -0.003154 0.016950 0.005252 0.003546 0.000265
# 4 0.004694 0.005430 0.005252 0.033833 0.005882 0.002509
# 5 0.002247 0.000017 0.003546 0.005882 0.029260 0.007835
# 6 0.004982 -0.000382 0.000265 0.002509 0.007835 0.032684
#
#
# Mechanical properties :
#
#
# Convention : Reuss Voigt Hill
#
# Bulk Modulus (GPa) = 40.72712 63.89173 52.30943
# Shear Modulus (GPa) = 31.71058 37.53382 34.62220
#
# Velocity S-wave (km/s) = 3.79097 4.12439 3.96119
# Velocity P-wave (km/s) = 6.13349 7.18589 6.68045
#
# Compressibility (1/GPa) = 0.02455366
#
# Stress axis : x y z
#
# Youngs Moduli (GPa) = 102.91152 80.21458 58.99537
#
# Poissons Ratio (x) = 0.16376 0.12360
# Poissons Ratio (y) = 0.21010 0.18605
# Poissons Ratio (z) = 0.21561 0.25296
#
# Static dielectric constant tensor:
#      x y z
#    x 4.256540 -0.296860 -0.041570 
#    y -0.296860 4.270190 -0.204250 
#    z -0.041570 -0.204250 3.985830 
# 
# 
# High freq. dielectric constant tensor:
#      x y z
#    x 1.884150 -0.018410 -0.008070 
#    y -0.018410 1.885340 -0.018410 
#    z -0.008070 -0.018410 1.863460 
# 
# From -- ./inp_files/428194.got.cif
#   From: 2010.06.25/outbox.cif.g09.slc.cpg/sg2_215_cif.got.tgz:428194.got - 2010.06.27 13:26:56.
