data_PCOD8004810
_publ_section_title
;
Structure prediction by ZEFSAII (Michael W. Deem and Ramdas Pophale) SiO2 
 PCOD8004810
Probable space group: P -1
;
_chemical_formula_sum "Si O2"
_cell_formula_units_Z 16
_cell_length_a 25.815666
_cell_length_b 13.383076
_cell_length_c 6.441841
_cell_angle_alpha 125.920811
_cell_angle_beta 53.158925
_cell_angle_gamma 155.207354
_cell_volume 740.937628
_symmetry_space_group_name_H-M "P -1"
_symmetry_group_IT_number 2
_symmetry_cell_setting 'triclinic'
loop_
_space_group_symop_operation_xyz
x,y,z
-x,-y,-z
loop_
_atom_site_type_symbol
_atom_site_label
_atom_site_fract_x
_atom_site_fract_y
_atom_site_fract_z
Si Si1 0.259003 0.289317 0.131259
Si Si2 0.241829 0.098441 0.312612
Si Si3 0.481719 0.377863 0.084665
Si Si4 0.337542 0.683823 0.320170
Si Si5 0.935199 0.174180 0.217352
Si Si6 0.791781 0.363248 0.736477
Si Si7 0.120785 0.716713 0.832783
Si Si8 0.607336 0.030472 0.134669
O O1 0.257834 0.252909 0.335244
O O2 0.265850 0.446828 0.289284
O O3 0.381846 0.421675 0.890250
O O4 0.131638 0.040413 0.019551
O O5 0.368465 0.264510 0.341593
O O6 0.123542 0.916305 0.523200
O O7 0.222033 0.960613 0.016609
O O8 0.500000 0.500000 0.000000
O O9 0.430871 0.157492 0.882543
O O10 0.273613 0.622886 0.186083
O O11 0.321175 0.763236 0.627588
O O12 0.483286 0.895066 0.179411
O O13 0.920836 0.282440 0.275517
O O14 0.081784 0.383139 0.144875
O O15 0.819340 0.313369 0.422481
O O16 0.699387 0.149912 0.867174
O O17 0.000000 0.500000 0.000000
#
# Coordination Sequence:
#
# PCOD8004810 Si02
#       8
#     2   2   2   2   2   2   2   2
#     4   9  22  41  58  88 125 164 212 256 304 364
#     4  10  20  38  62  90 125 162 206 256 314 369
#     4   9  18  37  65  90 120 158 200 254 315 365
#     4  10  23  43  64  90 125 166 212 260 305 362
#     4  11  24  38  60  92 125 164 207 254 312 372
#     4  12  24  37  65  94 125 165 207 254 312 373
#     4  11  23  38  61  91 128 157 199 257 313 373
#     4  10  22  41  66  94 125 158 211 261 309 366
#
# _framework density 21.594260999999999
#
# number of rings (size 3 to 8) (size 9 to 14) (size 15 to 20)
#    0.000    1.750    1.250    2.250    3.500    2.000 
#    0.000   13.750    0.000    0.000    0.000    0.000 
#    0.000    0.000    0.000    0.000    0.000    0.000 
#
# Total GULP energy -198300.438176 kJ/mol
# GULP energy per Si atom -12393.777386 kJ/mol
# Density = 2.154511 g / cm^3
# Si number density = 21.594261 Si / 1000 Ang^3
#
#
#
# Elastic Constant Matrix: (Units=GPa)
#
#
# Indices 1 2 3 4 5 6 
#
# 1 132.5535 62.1568 24.6674 1.8102 0.6667 -6.1953
# 2 62.1568 120.1874 38.3990 -8.9256 -4.7790 -17.3301
# 3 24.6674 38.3990 73.0685 -14.6868 -5.3928 -12.1140
# 4 1.8102 -8.9256 -14.6868 33.5559 -2.5230 -6.7829
# 5 0.6667 -4.7790 -5.3928 -2.5230 19.9394 1.1594
# 6 -6.1953 -17.3301 -12.1140 -6.7829 1.1594 35.9448
#
#
#
# Elastic Compliance Matrix: (Units=1/GPa)
#
#
# Indices 1 2 3 4 5 6 
#
# 1 0.010399 -0.005425 -0.001861 -0.003412 -0.002466 -0.002015
# 2 -0.005425 0.013297 -0.003450 0.003503 0.002594 0.004890
# 3 -0.001861 -0.003450 0.019411 0.009320 0.005307 0.006145
# 4 -0.003412 0.003503 0.009320 0.037819 0.007612 0.011133
# 5 -0.002466 0.002594 0.005307 0.007612 0.053119 0.002338
# 6 -0.002015 0.004890 0.006145 0.011133 0.002338 0.033927
#
#
# Mechanical properties :
#
#
# Convention : Reuss Voigt Hill
#
# Bulk Modulus (GPa) = 46.22346 64.02842 55.12594
# Shear Modulus (GPa) = 25.42497 31.26041 28.34269
#
# Velocity S-wave (km/s) = 3.43504 3.80890 3.62679
# Velocity P-wave (km/s) = 6.09792 7.00419 6.56670
#
# Compressibility (1/GPa) = 0.02163403
#
# Stress axis : x y z
#
# Youngs Moduli (GPa) = 96.15896 75.20559 51.51743
#
# Poissons Ratio (x) = 0.40803 0.09589
# Poissons Ratio (y) = 0.52171 0.17772
# Poissons Ratio (z) = 0.17898 0.25944
#
# Static dielectric constant tensor:
#      x y z
#    x 4.049070 0.099030 -0.043540 
#    y 0.099030 4.196270 -0.051250 
#    z -0.043540 -0.051250 3.475980 
# 
# 
# High freq. dielectric constant tensor:
#      x y z
#    x 1.857970 0.001510 -0.001840 
#    y 0.001510 1.868660 -0.005230 
#    z -0.001840 -0.005230 1.811510 
# 
# From -- ./inp_files/123763.got.cif
#   From: 2010.06.25/outbox.cif.g09.slc.cpg/sg2_62_cif.got.tgz:123763.got - 2010.06.27 13:26:56.
