data_PCOD8004742
_publ_section_title
;
Structure prediction by ZEFSAII (Michael W. Deem and Ramdas Pophale) SiO2 
 PCOD8004742
Probable space group: P -1
;
_chemical_formula_sum "Si O2"
_cell_formula_units_Z 14
_cell_length_a 5.285100
_cell_length_b 16.333439
_cell_length_c 16.151529
_cell_angle_alpha 153.307045
_cell_angle_beta 86.722150
_cell_angle_gamma 87.181393
_cell_volume 609.465477
_symmetry_space_group_name_H-M "P -1"
_symmetry_group_IT_number 2
_symmetry_cell_setting 'triclinic'
loop_
_space_group_symop_operation_xyz
x,y,z
-x,-y,-z
loop_
_atom_site_type_symbol
_atom_site_label
_atom_site_fract_x
_atom_site_fract_y
_atom_site_fract_z
Si Si1 0.789427 0.487079 0.893223
Si Si2 0.198167 0.196927 0.712668
Si Si3 0.588695 0.162739 0.538876
Si Si4 0.823916 0.779999 0.842004
Si Si5 0.433983 0.669546 0.470801
Si Si6 0.338482 0.781676 0.758979
Si Si7 0.003290 0.464041 0.237844
O O1 0.596425 0.378595 0.753854
O O2 0.971821 0.547724 0.873150
O O3 0.926588 0.334065 0.820369
O O4 0.653437 0.676666 0.116568
O O5 0.339817 0.128024 0.561288
O O6 0.170772 0.007246 0.590406
O O7 0.554115 0.157490 0.435905
O O8 0.589110 0.690955 0.730027
O O9 0.872161 0.731508 0.894686
O O10 0.092655 0.695342 0.710441
O O11 0.742458 0.998616 0.026417
O O12 0.427219 0.744875 0.630722
O O13 0.164739 0.608690 0.401820
O O14 0.699112 0.514664 0.311903
#
# Coordination Sequence:
#
# PCOD8004742 Si02
#       7
#     2   2   2   2   2   2   2
#     4  10  21  37  59  88 121 157 207 251 302 366
#     4  10  20  38  62  82 120 166 198 254 308 360
#     4  10  21  37  59  88 121 157 207 251 302 366
#     4  10  22  40  62  87 121 158 200 245 299 368
#     4  11  23  39  61  90 124 154 201 254 299 360
#     4  10  22  40  62  87 121 158 200 245 299 368
#     4  11  23  39  61  90 124 154 201 254 299 360
#
# _framework density 22.970946000000001
#
# number of rings (size 3 to 8) (size 9 to 14) (size 15 to 20)
#    0.000    1.714    1.429    2.571    2.000    3.429 
#    0.000    0.000    0.000    0.000    0.000    0.000 
#    0.000    0.000    0.000    0.000    0.000    0.000 
#
# Total GULP energy -173451.687408 kJ/mol
# GULP energy per Si atom -12389.406243 kJ/mol
# Density = 2.291866 g / cm^3
# Si number density = 22.970946 Si / 1000 Ang^3
#
#
#
# Elastic Constant Matrix: (Units=GPa)
#
#
# Indices 1 2 3 4 5 6 
#
# 1 95.9767 14.7001 15.4782 8.0413 -8.8722 -3.1405
# 2 14.7001 118.6565 26.7507 8.2579 -13.2894 -16.0529
# 3 15.4782 26.7507 48.6909 -15.0379 -6.8733 5.7156
# 4 8.0413 8.2579 -15.0379 20.4297 0.7294 2.1454
# 5 -8.8722 -13.2894 -6.8733 0.7294 24.5206 -0.5062
# 6 -3.1405 -16.0529 5.7156 2.1454 -0.5062 27.1348
#
#
#
# Elastic Compliance Matrix: (Units=1/GPa)
#
#
# Indices 1 2 3 4 5 6 
#
# 1 0.013778 0.003576 -0.011699 -0.016426 0.004289 0.007553
# 2 0.003576 0.016795 -0.018815 -0.023980 0.006173 0.016324
# 3 -0.011699 -0.018815 0.054962 0.055704 -0.001269 -0.028490
# 4 -0.016426 -0.023980 0.055704 0.110223 -0.007362 -0.036673
# 5 0.004289 0.006173 -0.001269 -0.007362 0.045663 0.005849
# 6 0.007553 0.016324 -0.028490 -0.036673 0.005849 0.056394
#
#
# Mechanical properties :
#
#
# Convention : Reuss Voigt Hill
#
# Bulk Modulus (GPa) = 31.58567 41.90912 36.74740
# Shear Modulus (GPa) = 13.80281 28.17670 20.98976
#
# Velocity S-wave (km/s) = 2.45395 3.50612 3.02611
# Velocity P-wave (km/s) = 4.67004 5.88851 5.31431
#
# Compressibility (1/GPa) = 0.03165993
#
# Stress axis : x y z
#
# Youngs Moduli (GPa) = 72.57973 59.54074 18.19425
#
# Poissons Ratio (x) = -0.21291 0.21285
# Poissons Ratio (y) = -0.25953 0.34233
# Poissons Ratio (z) = 0.84908 1.12026
#
# Static dielectric constant tensor:
#      x y z
#    x 4.139840 -0.072780 -0.030670 
#    y -0.072780 4.676280 0.035260 
#    z -0.030670 0.035260 4.128450 
# 
# 
# High freq. dielectric constant tensor:
#      x y z
#    x 1.894140 -0.004310 -0.005960 
#    y -0.004310 1.932130 0.002160 
#    z -0.005960 0.002160 1.880260 
# 
# From -- ./inp_files/34744.got.cif
#   From: 2010.06.25/outbox.cif.g09.slc.cpg/sg2_18_cif.got.tgz:34744.got - 2010.06.27 13:26:56.
