data_PCOD8004330
_publ_section_title
;
Structure prediction by ZEFSAII (Michael W. Deem and Ramdas Pophale) SiO2 
 PCOD8004330
Probable space group: P -1
;
_chemical_formula_sum "Si O2"
_cell_formula_units_Z 14
_cell_length_a 8.110391
_cell_length_b 14.561240
_cell_length_c 10.985055
_cell_angle_alpha 101.520355
_cell_angle_beta 54.426172
_cell_angle_gamma 59.446941
_cell_volume 642.331480
_symmetry_space_group_name_H-M "P -1"
_symmetry_group_IT_number 2
_symmetry_cell_setting 'triclinic'
loop_
_space_group_symop_operation_xyz
x,y,z
-x,-y,-z
loop_
_atom_site_type_symbol
_atom_site_label
_atom_site_fract_x
_atom_site_fract_y
_atom_site_fract_z
Si Si1 0.782860 0.560484 0.442832
Si Si2 0.897996 0.390428 0.944207
Si Si3 0.764079 0.641694 0.007798
Si Si4 0.263102 0.534752 0.337694
Si Si5 0.832447 0.809795 0.450797
Si Si6 0.060088 0.929470 0.325780
Si Si7 0.765918 0.087664 0.241155
O O1 0.720889 0.490771 0.532506
O O2 0.453736 0.739993 0.627025
O O3 0.094229 0.506362 0.341302
O O4 0.893268 0.480372 0.244398
O O5 0.191317 0.294827 0.890569
O O6 0.062583 0.306476 0.723866
O O7 0.709932 0.558023 0.064701
O O8 0.631804 0.408042 0.095316
O O9 0.447744 0.779975 0.100581
O O10 0.057761 0.704672 0.443925
O O11 0.454458 0.926870 0.675573
O O12 0.874571 0.897576 0.403495
O O13 0.000000 0.000000 0.500000
O O14 0.944797 0.026052 0.279805
O O15 0.000000 0.000000 0.000000
#
# Coordination Sequence:
#
# PCOD8004330 Si02
#       7
#     2   2   2   2   2   2   2
#     4  10  23  41  66  98 133 172 222 277 330 395
#     4  11  21  38  69 102 125 168 225 285 323 384
#     4  11  23  40  69  96 135 168 225 278 328 387
#     4  10  20  37  69  96 127 163 230 270 328 379
#     4  11  22  43  70  97 129 176 231 270 330 406
#     4  12  27  45  69 100 138 178 221 280 336 399
#     4  11  26  43  67 100 141 179 219 270 344 403
#
# _framework density 21.795601000000001
#
# number of rings (size 3 to 8) (size 9 to 14) (size 15 to 20)
#    0.000    1.143    4.286    2.571   10.000    0.571 
#    0.000    0.714    0.000    0.000    0.000    0.000 
#    0.000    0.000    0.000    0.000    0.000    0.000 
#
# Total GULP energy -173562.048693 kJ/mol
# GULP energy per Si atom -12397.289192 kJ/mol
# Density = 2.174599 g / cm^3
# Si number density = 21.795601 Si / 1000 Ang^3
#
#
#
# Elastic Constant Matrix: (Units=GPa)
#
#
# Indices 1 2 3 4 5 6 
#
# 1 84.8223 50.1027 48.6661 0.3226 -4.3991 -16.2873
# 2 50.1027 115.9637 53.1337 -17.7729 0.7688 -24.2449
# 3 48.6661 53.1337 146.4374 -14.3648 -8.9054 -9.7058
# 4 0.3226 -17.7729 -14.3648 33.2145 -1.4233 1.3738
# 5 -4.3991 0.7688 -8.9054 -1.4233 36.1048 0.1899
# 6 -16.2873 -24.2449 -9.7058 1.3738 0.1899 29.4936
#
#
#
# Elastic Compliance Matrix: (Units=1/GPa)
#
#
# Indices 1 2 3 4 5 6 
#
# 1 0.018674 -0.006124 -0.004168 -0.005383 0.001144 0.004151
# 2 -0.006124 0.015021 -0.002320 0.006706 -0.001415 0.007899
# 3 -0.004168 -0.002320 0.009386 0.002996 0.001981 -0.001272
# 4 -0.005383 0.006706 0.002996 0.035022 0.001311 0.001886
# 5 0.001144 -0.001415 0.001981 0.001311 0.028408 -0.000124
# 6 0.004151 0.007899 -0.001272 0.001886 -0.000124 0.042186
#
#
# Mechanical properties :
#
#
# Convention : Reuss Voigt Hill
#
# Bulk Modulus (GPa) = 55.99460 72.33646 64.16553
# Shear Modulus (GPa) = 27.79770 32.78398 30.29084
#
# Velocity S-wave (km/s) = 3.57512 3.88255 3.73200
# Velocity P-wave (km/s) = 6.54130 7.30476 6.93355
#
# Compressibility (1/GPa) = 0.01785886
#
# Stress axis : x y z
#
# Youngs Moduli (GPa) = 53.54936 66.57443 106.54552
#
# Poissons Ratio (x) = 0.40768 0.44404
# Poissons Ratio (y) = 0.32792 0.24716
# Poissons Ratio (z) = 0.22317 0.15443
#
# Static dielectric constant tensor:
#      x y z
#    x 3.849270 -0.193960 -0.125240 
#    y -0.193960 4.102650 -0.184050 
#    z -0.125240 -0.184050 3.913670 
# 
# 
# High freq. dielectric constant tensor:
#      x y z
#    x 1.845510 -0.014700 -0.012840 
#    y -0.014700 1.857210 -0.010490 
#    z -0.012840 -0.010490 1.855660 
# 
# From -- ./inp_files/243489.got.cif
#   From: 2010.06.25/outbox.cif.g09.slc.cpg/sg2_122_cif.got.tgz:243489.got - 2010.06.27 13:26:56.
