data_PCOD8004874
_publ_section_title
;
Structure prediction by ZEFSAII (Michael W. Deem and Ramdas Pophale) SiO2 
 PCOD8004874
Probable space group: P -1
;
_chemical_formula_sum "Si O2"
_cell_formula_units_Z 14
_cell_length_a 11.876661
_cell_length_b 15.963955
_cell_length_c 15.689925
_cell_angle_alpha 25.677328
_cell_angle_beta 126.212141
_cell_angle_gamma 142.629375
_cell_volume 687.600712
_symmetry_space_group_name_H-M "P -1"
_symmetry_group_IT_number 2
_symmetry_cell_setting 'triclinic'
loop_
_space_group_symop_operation_xyz
x,y,z
-x,-y,-z
loop_
_atom_site_type_symbol
_atom_site_label
_atom_site_fract_x
_atom_site_fract_y
_atom_site_fract_z
Si Si1 0.284849 0.539955 0.833311
Si Si2 0.370819 0.305254 0.537126
Si Si3 0.288903 0.934918 0.550822
Si Si4 0.440707 0.603443 0.126990
Si Si5 0.796467 0.676666 0.179277
Si Si6 0.480154 0.875604 0.343114
Si Si7 0.113991 0.148823 0.265740
O O1 0.189228 0.633761 0.747724
O O2 0.146540 0.349016 0.863841
O O3 0.526307 0.813362 0.662497
O O4 0.263109 0.349578 0.067743
O O5 0.500000 0.500000 0.500000
O O6 0.413254 0.514160 0.294337
O O7 0.441040 0.166384 0.663765
O O8 0.121930 0.027402 0.697813
O O9 0.364348 0.984456 0.635651
O O10 0.110689 0.913971 0.491468
O O11 0.596935 0.614736 0.140026
O O12 0.214920 0.356922 0.203748
O O13 0.539123 0.920429 0.878004
O O14 0.745979 0.448252 0.431480
O O15 0.000000 0.000000 0.000000
#
# Coordination Sequence:
#
# PCOD8004874 Si02
#       7
#     2   2   2   2   2   2   2
#     4  10  21  35  63  96 131 155 207 254 314 369
#     4  11  27  45  62  89 130 166 213 266 318 377
#     4  10  20  38  63 100 127 154 208 267 306 370
#     4  11  23  43  68  92 122 170 215 259 317 363
#     4  10  23  41  64  94 138 168 199 255 317 381
#     4  10  22  43  65  92 128 161 215 263 311 370
#     4  12  22  39  69  92 120 171 213 262 311 365
#
# _framework density 20.360655000000001
#
# number of rings (size 3 to 8) (size 9 to 14) (size 15 to 20)
#    0.000    1.429    5.714    0.857    4.000    2.857 
#    2.571    0.000    0.000    0.000    0.000    0.000 
#    0.000    0.000    0.000    0.000    0.000    0.000 
#
# Total GULP energy -173578.622061 kJ/mol
# GULP energy per Si atom -12398.473004 kJ/mol
# Density = 2.031431 g / cm^3
# Si number density = 20.360655 Si / 1000 Ang^3
#
#
#
# Elastic Constant Matrix: (Units=GPa)
#
#
# Indices 1 2 3 4 5 6 
#
# 1 79.1944 42.7554 36.8070 -3.5888 13.8906 -28.9309
# 2 42.7554 118.3853 44.5173 -21.0708 -10.6116 -21.2824
# 3 36.8070 44.5173 111.1540 2.0755 20.1772 -6.3624
# 4 -3.5888 -21.0708 2.0755 34.9159 -7.5680 1.9320
# 5 13.8906 -10.6116 20.1772 -7.5680 31.6214 -0.4733
# 6 -28.9309 -21.2824 -6.3624 1.9320 -0.4733 29.7999
#
#
#
# Elastic Compliance Matrix: (Units=1/GPa)
#
#
# Indices 1 2 3 4 5 6 
#
# 1 0.027893 -0.007910 -0.002066 -0.006150 -0.014744 0.021154
# 2 -0.007910 0.020050 -0.009087 0.015913 0.019870 0.003984
# 3 -0.002066 -0.009087 0.015885 -0.009551 -0.014634 -0.004717
# 4 -0.006150 0.015913 -0.009551 0.043449 0.024549 0.000928
# 5 -0.014744 0.019870 -0.014634 0.024549 0.059924 -0.003888
# 6 0.021154 0.003984 -0.004717 0.000928 -0.003888 0.055811
#
#
# Mechanical properties :
#
#
# Convention : Reuss Voigt Hill
#
# Bulk Modulus (GPa) = 38.90747 61.87701 50.39224
# Shear Modulus (GPa) = 18.53878 31.57772 25.05825
#
# Velocity S-wave (km/s) = 3.02076 3.94244 3.51197
# Velocity P-wave (km/s) = 5.59618 7.15404 6.42252
#
# Compressibility (1/GPa) = 0.02570201
#
# Stress axis : x y z
#
# Youngs Moduli (GPa) = 35.85079 49.87469 62.95341
#
# Poissons Ratio (x) = 0.39451 0.13009
# Poissons Ratio (y) = 0.28358 0.57204
# Poissons Ratio (z) = 0.07408 0.45320
#
# Static dielectric constant tensor:
#      x y z
#    x 3.845860 -0.240630 0.050320 
#    y -0.240630 3.515760 -0.005100 
#    z 0.050320 -0.005100 3.963950 
# 
# 
# High freq. dielectric constant tensor:
#      x y z
#    x 1.793010 -0.022090 0.008550 
#    y -0.022090 1.776340 0.003670 
#    z 0.008550 0.003670 1.805030 
# 
# From -- ./inp_files/315915.got.cif
#   From: 2010.06.25/outbox.cif.g09.slc.cpg/sg2_158_cif.got.tgz:315915.got - 2010.06.27 13:26:56.
