data_PCOD8004877
_publ_section_title
;
Structure prediction by ZEFSAII (Michael W. Deem and Ramdas Pophale) SiO2 
 PCOD8004877
Probable space group: P -1
;
_chemical_formula_sum "Si O2"
_cell_formula_units_Z 16
_cell_length_a 9.641525
_cell_length_b 9.103397
_cell_length_c 13.100937
_cell_angle_alpha 70.047461
_cell_angle_beta 58.061321
_cell_angle_gamma 102.724136
_cell_volume 793.053770
_symmetry_space_group_name_H-M "P -1"
_symmetry_group_IT_number 2
_symmetry_cell_setting 'triclinic'
loop_
_space_group_symop_operation_xyz
x,y,z
-x,-y,-z
loop_
_atom_site_type_symbol
_atom_site_label
_atom_site_fract_x
_atom_site_fract_y
_atom_site_fract_z
Si Si1 0.423730 0.464884 0.278679
Si Si2 0.792206 0.332157 0.629809
Si Si3 0.159814 0.937361 0.195162
Si Si4 0.542714 0.804029 0.533873
Si Si5 0.774265 0.804912 0.049372
Si Si6 0.163335 0.083348 0.776132
Si Si7 0.112622 0.157151 0.337916
Si Si8 0.247565 0.834458 0.532401
O O1 0.352169 0.598640 0.311345
O O2 0.439250 0.364527 0.396615
O O3 0.634851 0.596426 0.120100
O O4 0.293114 0.328442 0.275428
O O5 0.778784 0.204139 0.759676
O O6 0.739662 0.214287 0.576895
O O7 0.000000 0.500000 0.500000
O O8 0.938908 0.826327 0.270722
O O9 0.183270 0.079406 0.240017
O O10 0.282997 0.061736 0.021305
O O11 0.672088 0.906849 0.360384
O O12 0.326178 0.737907 0.601357
O O13 0.612574 0.948937 0.564036
O O14 0.746028 0.812395 0.179506
O O15 0.995431 0.875570 0.917853
O O16 0.966649 0.220494 0.340048
O O17 0.000000 0.000000 0.500000
#
# Coordination Sequence:
#
# PCOD8004877 Si02
#       8
#     2   2   2   2   2   2   2   2
#     4  12  24  38  61  98 122 155 208 259 292 361
#     4  12  22  34  59  94 122 151 202 253 298 359
#     4  10  20  38  63  80 123 170 192 237 319 355
#     4  11  22  39  67  87 119 162 208 251 299 354
#     4   9  22  38  60  89 122 163 206 242 304 373
#     4   9  18  41  60  84 120 170 195 243 308 360
#     4  12  19  40  63  88 126 160 194 253 311 358
#     4  11  22  37  59  96 119 157 200 250 307 364
#
# _framework density 20.175177999999999
#
# number of rings (size 3 to 8) (size 9 to 14) (size 15 to 20)
#    0.750    0.500    5.000    1.500    0.000    4.000 
#    0.000    0.000    0.000    8.250    0.000    0.000 
#    0.000    0.000    0.000    0.000    0.000    0.000 
#
# Total GULP energy -198242.108469 kJ/mol
# GULP energy per Si atom -12390.131779 kJ/mol
# Density = 2.012926 g / cm^3
# Si number density = 20.175178 Si / 1000 Ang^3
#
#
#
# Elastic Constant Matrix: (Units=GPa)
#
#
# Indices 1 2 3 4 5 6 
#
# 1 134.7005 59.2785 46.9219 -15.7600 4.6831 0.7736
# 2 59.2785 96.6159 42.5588 -6.2335 13.7938 -2.5049
# 3 46.9219 42.5588 78.4329 -17.3808 1.1256 5.7106
# 4 -15.7600 -6.2335 -17.3808 23.8135 5.2065 -4.9931
# 5 4.6831 13.7938 1.1256 5.2065 33.0746 -3.1168
# 6 0.7736 -2.5049 5.7106 -4.9931 -3.1168 39.6658
#
#
#
# Elastic Compliance Matrix: (Units=1/GPa)
#
#
# Indices 1 2 3 4 5 6 
#
# 1 0.011278 -0.005357 -0.003002 0.003915 0.000159 0.000379
# 2 -0.005357 0.017303 -0.006733 -0.002383 -0.005720 0.001417
# 3 -0.003002 -0.006733 0.020732 0.010837 0.000639 -0.001937
# 4 0.003915 -0.002383 0.010837 0.054573 -0.008101 0.004446
# 5 0.000159 -0.005720 0.000639 -0.008101 0.033964 0.001193
# 6 0.000379 0.001417 -0.001937 0.004446 0.001193 0.026225
#
#
# Mechanical properties :
#
#
# Convention : Reuss Voigt Hill
#
# Bulk Modulus (GPa) = 52.27890 67.47419 59.87654
# Shear Modulus (GPa) = 24.92093 30.04346 27.48219
#
# Velocity S-wave (km/s) = 3.51839 3.86311 3.69477
# Velocity P-wave (km/s) = 6.51722 7.30855 6.92420
#
# Compressibility (1/GPa) = 0.01912818
#
# Stress axis : x y z
#
# Youngs Moduli (GPa) = 88.67154 57.79511 48.23354
#
# Poissons Ratio (x) = 0.30962 0.14481
# Poissons Ratio (y) = 0.47503 0.32475
# Poissons Ratio (z) = 0.26621 0.38912
#
# Static dielectric constant tensor:
#      x y z
#    x 4.129330 0.054170 0.024740 
#    y 0.054170 3.576610 0.015500 
#    z 0.024740 0.015500 3.597780 
# 
# 
# High freq. dielectric constant tensor:
#      x y z
#    x 1.809590 0.016080 0.003900 
#    y 0.016080 1.768820 -0.001090 
#    z 0.003900 -0.001090 1.762440 
# 
# From -- ./inp_files/492264.got.cif
#   From: 2010.06.25/outbox.cif.g09.slc.cpg/sg2_247_cif.got.tgz:492264.got - 2010.06.27 13:26:56.
