data_PCOD8004105
_publ_section_title
;
Structure prediction by ZEFSAII (Michael W. Deem and Ramdas Pophale) SiO2 
 PCOD8004105
Probable space group: P -1
;
_chemical_formula_sum "Si O2"
_cell_formula_units_Z 16
_cell_length_a 12.503690
_cell_length_b 8.099804
_cell_length_c 13.602095
_cell_angle_alpha 44.874003
_cell_angle_beta 88.781503
_cell_angle_gamma 61.994930
_cell_volume 743.160814
_symmetry_space_group_name_H-M "P -1"
_symmetry_group_IT_number 2
_symmetry_cell_setting 'triclinic'
loop_
_space_group_symop_operation_xyz
x,y,z
-x,-y,-z
loop_
_atom_site_type_symbol
_atom_site_label
_atom_site_fract_x
_atom_site_fract_y
_atom_site_fract_z
Si Si1 0.647148 0.665065 0.644654
Si Si2 0.799798 0.139712 0.997070
Si Si3 0.835651 0.777690 0.497735
Si Si4 0.568128 0.341196 0.666849
Si Si5 0.991183 0.811535 0.956252
Si Si6 0.174546 0.133152 0.234080
Si Si7 0.277476 0.673676 0.603102
Si Si8 0.166546 0.331422 0.681758
O O1 0.677137 0.502409 0.820621
O O2 0.769559 0.675606 0.613534
O O3 0.644858 0.466146 0.648505
O O4 0.500000 0.000000 0.500000
O O5 0.929562 0.054148 0.094593
O O6 0.748989 0.985105 0.123786
O O7 0.856121 0.984600 0.954639
O O8 0.794229 0.763264 0.393210
O O9 0.000892 0.545356 0.609704
O O10 0.775040 0.123293 0.381209
O O11 0.500000 0.500000 0.500000
O O12 0.448167 0.413979 0.712319
O O13 0.695177 0.981548 0.792737
O O14 0.104608 0.463506 0.137347
O O15 0.945174 0.842948 0.831523
O O16 0.228600 0.907861 0.417904
O O17 0.214391 0.508116 0.654296
#
# Coordination Sequence:
#
# PCOD8004105 Si02
#       8
#     2   2   2   2   2   2   2   2
#     4  12  23  43  73  94 124 170 231 277 327 388
#     4  11  23  41  62  99 130 175 213 278 334 385
#     4  11  23  42  70  99 130 183 222 272 331 391
#     4  10  21  37  65  96 127 165 224 276 322 386
#     4  10  21  37  66  94 138 158 222 281 331 378
#     4  10  20  37  64 102 122 171 221 280 325 383
#     4  11  22  42  66  93 137 180 222 261 330 403
#     4  11  26  41  65  98 143 175 220 270 332 409
#
# _framework density 21.529661000000001
#
# number of rings (size 3 to 8) (size 9 to 14) (size 15 to 20)
#    0.000    1.250    2.500    4.875    5.250    0.000 
#    2.250    1.250    0.000    0.000    0.000    0.000 
#    0.000    0.000    0.000    0.000    0.000    0.000 
#
# Total GULP energy -198267.335610 kJ/mol
# GULP energy per Si atom -12391.708476 kJ/mol
# Density = 2.148066 g / cm^3
# Si number density = 21.529661 Si / 1000 Ang^3
#
#
#
# Elastic Constant Matrix: (Units=GPa)
#
#
# Indices 1 2 3 4 5 6 
#
# 1 106.0757 40.9956 35.2402 -4.8688 -11.0693 9.2543
# 2 40.9956 84.9481 26.8259 -12.1783 -1.3219 9.6605
# 3 35.2402 26.8259 79.1012 -15.3982 -0.6881 -6.8968
# 4 -4.8688 -12.1783 -15.3982 28.1899 -1.0365 10.9028
# 5 -11.0693 -1.3219 -0.6881 -1.0365 27.0058 -4.9929
# 6 9.2543 9.6605 -6.8968 10.9028 -4.9929 39.3312
#
#
#
# Elastic Compliance Matrix: (Units=1/GPa)
#
#
# Indices 1 2 3 4 5 6 
#
# 1 0.013505 -0.004968 -0.004745 -0.001552 0.004788 -0.001751
# 2 -0.004968 0.016573 -0.002550 0.006977 -0.002047 -0.005543
# 3 -0.004745 -0.002550 0.017084 0.006260 -0.000859 0.002894
# 4 -0.001552 0.006977 0.006260 0.046759 -0.000802 -0.013315
# 5 0.004788 -0.002047 -0.000859 -0.000802 0.039668 0.004483
# 6 -0.001751 -0.005543 0.002894 -0.013315 0.004483 0.031966
#
#
# Mechanical properties :
#
#
# Convention : Reuss Voigt Hill
#
# Bulk Modulus (GPa) = 44.17639 52.91650 48.54644
# Shear Modulus (GPa) = 25.30018 30.04292 27.67155
#
# Velocity S-wave (km/s) = 3.43174 3.73958 3.58896
# Velocity P-wave (km/s) = 6.02211 6.57858 6.30649
#
# Compressibility (1/GPa) = 0.02263653
#
# Stress axis : x y z
#
# Youngs Moduli (GPa) = 74.04856 60.33736 58.53344
#
# Poissons Ratio (x) = 0.29974 0.27773
# Poissons Ratio (y) = 0.36785 0.14928
# Poissons Ratio (z) = 0.35135 0.15388
#
# Static dielectric constant tensor:
#      x y z
#    x 4.267350 -0.005570 0.103180 
#    y -0.005570 4.436930 -0.250000 
#    z 0.103180 -0.250000 3.755780 
# 
# 
# High freq. dielectric constant tensor:
#      x y z
#    x 1.845180 0.019910 0.021280 
#    y 0.019910 1.851840 -0.014230 
#    z 0.021280 -0.014230 1.828570 
# 
# From -- ./inp_files/514906.got.cif
#   From: 2010.06.25/outbox.cif.g09.slc.cpg/sg2_258_cif.got.tgz:514906.got - 2010.06.27 13:26:56.
