data_PCOD8004041
_publ_section_title
;
Structure prediction by ZEFSAII (Michael W. Deem and Ramdas Pophale) SiO2 
 PCOD8004041
Probable space group: P -1
;
_chemical_formula_sum "Si O2"
_cell_formula_units_Z 16
_cell_length_a 16.139966
_cell_length_b 19.417341
_cell_length_c 8.439013
_cell_angle_alpha 73.816417
_cell_angle_beta 105.264519
_cell_angle_gamma 160.967797
_cell_volume 828.274548
_symmetry_space_group_name_H-M "P -1"
_symmetry_group_IT_number 2
_symmetry_cell_setting 'triclinic'
loop_
_space_group_symop_operation_xyz
x,y,z
-x,-y,-z
loop_
_atom_site_type_symbol
_atom_site_label
_atom_site_fract_x
_atom_site_fract_y
_atom_site_fract_z
Si Si1 0.597499 0.916250 0.777871
Si Si2 0.619210 0.785659 0.027237
Si Si3 0.063680 0.477682 0.634518
Si Si4 0.097278 0.339301 0.198475
Si Si5 0.129792 0.221987 0.122286
Si Si6 0.280731 0.864672 0.075909
Si Si7 0.939787 0.672765 0.444487
Si Si8 0.559422 0.453263 0.185781
O O1 0.349112 0.707605 0.686544
O O2 0.578884 0.974751 0.829900
O O3 0.632808 0.880743 0.942962
O O4 0.829935 0.100493 0.655084
O O5 0.389882 0.588970 0.156073
O O6 0.590195 0.718343 0.894751
O O7 0.889399 0.981022 0.121483
O O8 0.038813 0.392553 0.555559
O O9 0.000000 0.500000 0.500000
O O10 0.878746 0.321332 0.792215
O O11 0.056199 0.222900 0.216721
O O12 0.036208 0.306401 0.369551
O O13 0.914056 0.243314 0.059547
O O14 0.360316 0.354252 0.218619
O O15 0.216686 0.330945 0.935682
O O16 0.500000 0.000000 0.000000
O O17 0.677754 0.501913 0.359580
#
# Coordination Sequence:
#
# PCOD8004041 Si02
#       8
#     2   2   2   2   2   2   2   2
#     4  11  21  42  66  81 121 159 194 242 291 348
#     4  11  18  40  63  88 114 158 201 239 289 347
#     4  11  25  42  62  89 117 155 202 241 288 355
#     4  11  24  39  58  90 124 153 194 245 295 347
#     4  10  20  38  63  88 118 158 197 241 292 347
#     4  11  25  41  61  89 120 154 197 244 294 349
#     4  11  24  40  60  89 124 155 192 245 297 345
#     4  10  20  37  63  91 116 154 203 240 286 353
#
# _framework density 19.317267000000001
#
# number of rings (size 3 to 8) (size 9 to 14) (size 15 to 20)
#    0.000    1.250    5.000    1.875    3.500    4.000 
#    0.000    0.625    0.000    0.000    0.000    0.000 
#    0.000    0.000    0.000    0.000    0.000    0.000 
#
# Total GULP energy -198442.913879 kJ/mol
# GULP energy per Si atom -12402.682117 kJ/mol
# Density = 1.927330 g / cm^3
# Si number density = 19.317267 Si / 1000 Ang^3
#
#
#
# Elastic Constant Matrix: (Units=GPa)
#
#
# Indices 1 2 3 4 5 6 
#
# 1 101.6914 32.9958 41.5508 -6.2034 -0.2219 10.8371
# 2 32.9958 113.7999 24.7339 1.7066 -13.3296 -3.4193
# 3 41.5508 24.7339 88.1912 -5.4801 -13.1823 2.7213
# 4 -6.2034 1.7066 -5.4801 10.1519 -6.7404 2.1328
# 5 -0.2219 -13.3296 -13.1823 -6.7404 28.6036 -0.7666
# 6 10.8371 -3.4193 2.7213 2.1328 -0.7666 27.9562
#
#
#
# Elastic Compliance Matrix: (Units=1/GPa)
#
#
# Indices 1 2 3 4 5 6 
#
# 1 0.014238 -0.003511 -0.005647 0.005496 -0.002991 -0.005900
# 2 -0.003511 0.010611 -0.000975 -0.002461 0.003970 0.003050
# 3 -0.005647 -0.000975 0.016546 0.012350 0.010032 -0.000208
# 4 0.005496 -0.002461 0.012350 0.135722 0.036222 -0.012994
# 5 -0.002991 0.003970 0.010032 0.036222 0.049927 -0.000726
# 6 -0.005900 0.003050 -0.000208 -0.012994 -0.000726 0.039422
#
#
# Mechanical properties :
#
#
# Convention : Reuss Voigt Hill
#
# Bulk Modulus (GPa) = 47.32926 55.80485 51.56705
# Shear Modulus (GPa) = 17.01981 26.96911 21.99446
#
# Velocity S-wave (km/s) = 2.97150 3.74051 3.37796
# Velocity P-wave (km/s) = 6.02721 6.89975 6.47819
#
# Compressibility (1/GPa) = 0.02112858
#
# Stress axis : x y z
#
# Youngs Moduli (GPa) = 70.23631 94.24294 60.43613
#
# Poissons Ratio (x) = 0.33088 0.34128
# Poissons Ratio (y) = 0.24659 0.05895
# Poissons Ratio (z) = 0.39662 0.09192
#
# Static dielectric constant tensor:
#      x y z
#    x 3.523060 -0.137650 -0.021180 
#    y -0.137650 3.586350 -0.086410 
#    z -0.021180 -0.086410 3.269090 
# 
# 
# High freq. dielectric constant tensor:
#      x y z
#    x 1.758790 -0.000780 0.004490 
#    y -0.000780 1.769800 0.006210 
#    z 0.004490 0.006210 1.731710 
# 
# From -- ./inp_files/38597.got.cif
#   From: 2010.06.25/outbox.cif.g09.slc.cpg/sg2_20_cif.got.tgz:38597.got - 2010.06.27 13:26:56.
