data_PCOD8004268
_publ_section_title
;
Structure prediction by ZEFSAII (Michael W. Deem and Ramdas Pophale) SiO2 
 PCOD8004268
Probable space group: P -1
;
_chemical_formula_sum "Si O2"
_cell_formula_units_Z 16
_cell_length_a 12.442938
_cell_length_b 10.960394
_cell_length_c 9.205098
_cell_angle_alpha 119.019235
_cell_angle_beta 99.654644
_cell_angle_gamma 46.342737
_cell_volume 765.994226
_symmetry_space_group_name_H-M "P -1"
_symmetry_group_IT_number 2
_symmetry_cell_setting 'triclinic'
loop_
_space_group_symop_operation_xyz
x,y,z
-x,-y,-z
loop_
_atom_site_type_symbol
_atom_site_label
_atom_site_fract_x
_atom_site_fract_y
_atom_site_fract_z
Si Si1 0.152257 0.626533 0.278209
Si Si2 0.670720 0.789192 0.425471
Si Si3 0.326864 0.474686 0.934748
Si Si4 0.324685 0.248996 0.259139
Si Si5 0.617551 0.356665 0.571806
Si Si6 0.601570 0.325935 0.074937
Si Si7 0.197334 0.089360 0.656427
Si Si8 0.652053 0.028905 0.094128
O O1 0.182346 0.455517 0.271285
O O2 0.234531 0.675671 0.414526
O O3 0.971392 0.822067 0.347923
O O4 0.211890 0.551220 0.084970
O O5 0.694932 0.625886 0.246633
O O6 0.711141 0.721847 0.561973
O O7 0.781255 0.809372 0.399030
O O8 0.500000 0.000000 0.500000
O O9 0.283020 0.668623 0.972267
O O10 0.505912 0.312916 0.935069
O O11 0.482230 0.187195 0.218877
O O12 0.337913 0.081390 0.104342
O O13 0.500000 0.500000 0.500000
O O14 0.527593 0.457030 0.759029
O O15 0.673533 0.147171 0.461419
O O16 0.689006 0.150949 0.111580
O O17 0.222765 0.128744 0.847525
#
# Coordination Sequence:
#
# PCOD8004268 Si02
#       8
#     2   2   2   2   2   2   2   2
#     4  11  25  44  62  94 138 174 207 260 334 395
#     4  12  24  38  66 100 127 165 228 276 311 372
#     4  10  22  39  62  95 131 166 209 270 321 381
#     4  11  23  40  64  95 131 169 218 273 313 383
#     4  11  21  41  70  96 122 167 217 267 315 380
#     4  10  20  37  66  96 124 161 219 270 319 368
#     4  12  25  41  66  96 131 174 213 264 331 388
#     4  11  21  40  65  93 127 171 218 262 324 382
#
# _framework density 20.887885000000001
#
# number of rings (size 3 to 8) (size 9 to 14) (size 15 to 20)
#    0.000    1.000    5.000    2.625    1.750    4.500 
#    0.000    0.625    0.000    0.000    0.000    0.000 
#    0.000    0.000    0.000    0.000    0.000    0.000 
#
# Total GULP energy -198395.407572 kJ/mol
# GULP energy per Si atom -12399.712973 kJ/mol
# Density = 2.084034 g / cm^3
# Si number density = 20.887885 Si / 1000 Ang^3
#
#
#
# Elastic Constant Matrix: (Units=GPa)
#
#
# Indices 1 2 3 4 5 6 
#
# 1 97.0320 50.0620 53.2036 -10.5394 1.5014 14.8456
# 2 50.0620 106.5200 44.9104 -16.1924 -8.5014 16.3209
# 3 53.2036 44.9104 126.2902 -20.2206 5.7206 12.8288
# 4 -10.5394 -16.1924 -20.2206 29.1207 10.3266 -1.6853
# 5 1.5014 -8.5014 5.7206 10.3266 25.4757 -8.3234
# 6 14.8456 16.3209 12.8288 -1.6853 -8.3234 44.7968
#
#
#
# Elastic Compliance Matrix: (Units=1/GPa)
#
#
# Indices 1 2 3 4 5 6 
#
# 1 0.015980 -0.005431 -0.004300 0.000658 -0.002905 -0.002601
# 2 -0.005431 0.013860 -0.002170 0.002820 0.003689 -0.001837
# 3 -0.004300 -0.002170 0.012421 0.008360 -0.007435 -0.002409
# 4 0.000658 0.002820 0.008360 0.049807 -0.023146 -0.006066
# 5 -0.002905 0.003689 -0.007435 -0.023146 0.055354 0.011162
# 6 -0.002601 -0.001837 -0.002409 -0.006066 0.011162 0.026390
#
#
# Mechanical properties :
#
#
# Convention : Reuss Voigt Hill
#
# Bulk Modulus (GPa) = 54.17074 69.57713 61.87393
# Shear Modulus (GPa) = 24.53805 31.98971 28.26388
#
# Velocity S-wave (km/s) = 3.43118 3.91768 3.68247
# Velocity P-wave (km/s) = 6.45660 7.33801 6.91137
#
# Compressibility (1/GPa) = 0.01846015
#
# Stress axis : x y z
#
# Youngs Moduli (GPa) = 62.58016 72.15249 80.50757
#
# Poissons Ratio (x) = 0.39183 0.34615
# Poissons Ratio (y) = 0.33985 0.17469
# Poissons Ratio (z) = 0.26907 0.15656
#
# Static dielectric constant tensor:
#      x y z
#    x 3.733430 0.235980 0.069900 
#    y 0.235980 3.737550 -0.290490 
#    z 0.069900 -0.290490 4.083010 
# 
# 
# High freq. dielectric constant tensor:
#      x y z
#    x 1.808600 0.028240 0.011770 
#    y 0.028240 1.806190 -0.016320 
#    z 0.011770 -0.016320 1.825290 
# 
# From -- ./inp_files/263089.got.cif
#   From: 2010.06.25/outbox.cif.g09.slc.cpg/sg2_132_cif.got.tgz:263089.got - 2010.06.27 13:26:56.
