data_PCOD8004388
_publ_section_title
;
Structure prediction by ZEFSAII (Michael W. Deem and Ramdas Pophale) SiO2 
 PCOD8004388
Probable space group: P -1
;
_chemical_formula_sum "Si O2"
_cell_formula_units_Z 16
_cell_length_a 7.343186
_cell_length_b 17.434417
_cell_length_c 5.960677
_cell_angle_alpha 104.794919
_cell_angle_beta 90.490410
_cell_angle_gamma 79.201934
_cell_volume 724.126374
_symmetry_space_group_name_H-M "P -1"
_symmetry_group_IT_number 2
_symmetry_cell_setting 'triclinic'
loop_
_space_group_symop_operation_xyz
x,y,z
-x,-y,-z
loop_
_atom_site_type_symbol
_atom_site_label
_atom_site_fract_x
_atom_site_fract_y
_atom_site_fract_z
Si Si1 0.198379 0.698306 0.685546
Si Si2 0.044946 0.374727 0.706632
Si Si3 0.743276 0.897174 0.892981
Si Si4 0.938896 0.772967 0.116541
Si Si5 0.500677 0.565903 0.734023
Si Si6 0.598001 0.039701 0.331846
Si Si7 0.908869 0.139156 0.443872
Si Si8 0.767856 0.507452 0.044345
O O1 0.411030 0.653611 0.694292
O O2 0.200937 0.775590 0.588651
O O3 0.079904 0.637212 0.518043
O O4 0.110804 0.723894 0.944181
O O5 0.129390 0.287532 0.752623
O O6 0.208739 0.426407 0.705388
O O7 0.944307 0.436938 0.941088
O O8 0.565559 0.894539 0.733379
O O9 0.928292 0.901736 0.754674
O O10 0.775768 0.814577 0.977855
O O11 0.696827 0.975406 0.105686
O O12 0.001896 0.846428 0.305648
O O13 0.500000 0.500000 0.500000
O O14 0.372087 0.547971 0.922033
O O15 0.700122 0.559013 0.852378
O O16 0.760440 0.083144 0.454115
O O17 0.500000 0.000000 0.500000
#
# Coordination Sequence:
#
# PCOD8004388 Si02
#       8
#     2   2   2   2   2   2   2   2
#     4  10  21  38  60  85 121 163 206 248 306 372
#     4  10  20  38  57  86 114 155 201 252 301 356
#     4  10  23  42  66  96 128 165 208 255 307 381
#     4  10  21  40  63  87 125 163 206 251 305 369
#     4  11  21  37  55  85 120 157 200 254 306 363
#     4  11  24  42  67  99 130 160 207 259 309 377
#     4  10  23  42  66  92 128 171 205 257 315 369
#     4  10  22  34  58  84 116 152 202 253 304 355
#
# _framework density 22.095590000000001
#
# number of rings (size 3 to 8) (size 9 to 14) (size 15 to 20)
#    0.000    1.750    2.500    1.125    0.000    8.500 
#    0.000    7.500    0.000    0.000    0.000    0.000 
#    0.000    0.000    0.000    0.000    0.000    0.000 
#
# Total GULP energy -198252.470229 kJ/mol
# GULP energy per Si atom -12390.779389 kJ/mol
# Density = 2.204530 g / cm^3
# Si number density = 22.095590 Si / 1000 Ang^3
#
#
#
# Elastic Constant Matrix: (Units=GPa)
#
#
# Indices 1 2 3 4 5 6 
#
# 1 82.4385 45.4777 28.1284 6.1551 10.5008 -2.5482
# 2 45.4777 97.2987 27.2234 -2.2064 4.3114 -22.9212
# 3 28.1284 27.2234 98.7401 9.2955 7.3116 0.1547
# 4 6.1551 -2.2064 9.2955 32.8510 -1.5129 8.7485
# 5 10.5008 4.3114 7.3116 -1.5129 29.0624 2.2716
# 6 -2.5482 -22.9212 0.1547 8.7485 2.2716 44.0313
#
#
#
# Elastic Compliance Matrix: (Units=1/GPa)
#
#
# Indices 1 2 3 4 5 6 
#
# 1 0.018243 -0.008323 -0.002274 -0.002900 -0.004744 -0.002448
# 2 -0.008323 0.016718 -0.002414 0.001276 0.000580 0.007946
# 3 -0.002274 -0.002414 0.011864 -0.002984 -0.001903 -0.000739
# 4 -0.002900 0.001276 -0.002984 0.033799 0.003870 -0.006408
# 5 -0.004744 0.000580 -0.001903 0.003870 0.036923 -0.002640
# 6 -0.002448 0.007946 -0.000739 -0.006408 -0.002640 0.028118
#
#
# Mechanical properties :
#
#
# Convention : Reuss Voigt Hill
#
# Bulk Modulus (GPa) = 48.06851 53.34848 50.70849
# Shear Modulus (GPa) = 27.99231 33.03213 30.51222
#
# Velocity S-wave (km/s) = 3.56318 3.87067 3.72010
# Velocity P-wave (km/s) = 6.22337 6.64627 6.43830
#
# Compressibility (1/GPa) = 0.02080364
#
# Stress axis : x y z
#
# Youngs Moduli (GPa) = 54.81693 59.81491 84.28920
#
# Poissons Ratio (x) = 0.49781 0.19168
# Poissons Ratio (y) = 0.45621 0.20347
# Poissons Ratio (z) = 0.12466 0.14439
#
# Static dielectric constant tensor:
#      x y z
#    x 4.609360 0.008100 0.294070 
#    y 0.008100 4.284180 -0.022110 
#    z 0.294070 -0.022110 4.103030 
# 
# 
# High freq. dielectric constant tensor:
#      x y z
#    x 1.850400 -0.019490 0.006950 
#    y -0.019490 1.875150 -0.000600 
#    z 0.006950 -0.000600 1.875580 
# 
# From -- ./inp_files/45469.got.cif
#   From: 2010.06.25/outbox.cif.g09.slc.cpg/sg2_23_cif.got.tgz:45469.got - 2010.06.27 13:26:56.
