data_PCOD8004365
_publ_section_title
;
Structure prediction by ZEFSAII (Michael W. Deem and Ramdas Pophale) SiO2 
 PCOD8004365
Probable space group: P -1
;
_chemical_formula_sum "Si O2"
_cell_formula_units_Z 16
_cell_length_a 17.421273
_cell_length_b 18.030463
_cell_length_c 8.132938
_cell_angle_alpha 52.592047
_cell_angle_beta 55.430899
_cell_angle_gamma 23.592401
_cell_volume 811.702010
_symmetry_space_group_name_H-M "P -1"
_symmetry_group_IT_number 2
_symmetry_cell_setting 'triclinic'
loop_
_space_group_symop_operation_xyz
x,y,z
-x,-y,-z
loop_
_atom_site_type_symbol
_atom_site_label
_atom_site_fract_x
_atom_site_fract_y
_atom_site_fract_z
Si Si1 0.100788 0.667217 0.035640
Si Si2 0.171259 0.268476 0.258882
Si Si3 0.540792 0.020712 0.260153
Si Si4 0.483914 0.363344 0.157200
Si Si5 0.819678 0.227110 0.420940
Si Si6 0.562273 0.474055 0.705039
Si Si7 0.752308 0.970691 0.272587
Si Si8 0.908461 0.663454 0.103727
O O1 0.302922 0.475370 0.137498
O O2 0.946454 0.836053 0.131508
O O3 0.045362 0.617579 0.088857
O O4 0.114794 0.733216 0.790456
O O5 0.353762 0.179683 0.157625
O O6 0.199577 0.155887 0.493567
O O7 0.994423 0.484532 0.246397
O O8 0.131088 0.266774 0.127148
O O9 0.500000 0.000000 0.500000
O O10 0.606291 0.067181 0.172919
O O11 0.711082 0.822158 0.223811
O O12 0.421019 0.451487 0.296022
O O13 0.654110 0.138956 0.268512
O O14 0.569903 0.372921 0.935769
O O15 0.747337 0.311511 0.580108
O O16 0.640293 0.338086 0.395016
O O17 0.000000 0.000000 0.500000
#
# Coordination Sequence:
#
# PCOD8004365 Si02
#       8
#     2   2   2   2   2   2   2   2
#     4  10  22  36  55  82 110 144 179 223 275 315
#     4  10  21  36  56  79 107 146 182 223 274 317
#     4   9  19  35  55  77 104 143 181 218 269 318
#     4  10  20  38  56  79 113 141 181 226 261 319
#     4  10  20  38  60  83 112 142 177 220 269 322
#     4   9  21  37  58  83 108 146 180 214 271 323
#     4  10  21  35  56  82 107 142 186 223 266 321
#     4  10  21  37  54  79 112 139 181 229 268 325
#
# _framework density 19.711668
#
# number of rings (size 3 to 8) (size 9 to 14) (size 15 to 20)
#    0.000    2.250    0.000    1.875    0.000    9.500 
#    0.000   10.000    0.000    0.000    0.000    0.000 
#    0.000    0.000    0.000    0.000    0.000    0.000 
#
# Total GULP energy -198392.783856 kJ/mol
# GULP energy per Si atom -12399.548991 kJ/mol
# Density = 1.966680 g / cm^3
# Si number density = 19.711668 Si / 1000 Ang^3
#
#
#
# Elastic Constant Matrix: (Units=GPa)
#
#
# Indices 1 2 3 4 5 6 
#
# 1 77.5924 43.6306 31.7533 3.1529 19.0344 18.9849
# 2 43.6306 137.2940 61.7031 15.4782 10.0450 23.9517
# 3 31.7533 61.7031 85.1799 11.5586 11.0549 14.9750
# 4 3.1529 15.4782 11.5586 32.9638 -1.1220 3.6920
# 5 19.0344 10.0450 11.0549 -1.1220 21.8661 5.4279
# 6 18.9849 23.9517 14.9750 3.6920 5.4279 29.4550
#
#
#
# Elastic Compliance Matrix: (Units=1/GPa)
#
#
# Indices 1 2 3 4 5 6 
#
# 1 0.020789 -0.003400 -0.002401 0.000775 -0.013539 -0.007016
# 2 -0.003400 0.012336 -0.006769 -0.002545 0.001674 -0.004388
# 3 -0.002401 -0.006769 0.018731 -0.003152 -0.004104 -0.001319
# 4 0.000775 -0.002545 -0.003152 0.032899 0.004205 -0.001726
# 5 -0.013539 0.001674 -0.004104 0.004205 0.059549 -0.002048
# 6 -0.007016 -0.004388 -0.001319 -0.001726 -0.002048 0.043305
#
#
# Mechanical properties :
#
#
# Convention : Reuss Voigt Hill
#
# Bulk Modulus (GPa) = 37.43234 63.80448 50.61841
# Shear Modulus (GPa) = 22.55760 27.72228 25.13994
#
# Velocity S-wave (km/s) = 3.38654 3.75425 3.57513
# Velocity P-wave (km/s) = 5.85855 7.15763 6.54043
#
# Compressibility (1/GPa) = 0.02671487
#
# Stress axis : x y z
#
# Youngs Moduli (GPa) = 48.10258 81.06075 53.38819
#
# Poissons Ratio (x) = 0.27562 0.12820
# Poissons Ratio (y) = 0.16356 0.36140
# Poissons Ratio (z) = 0.11550 0.54872
#
# Static dielectric constant tensor:
#      x y z
#    x 3.898170 -0.151670 0.124650 
#    y -0.151670 3.726040 0.182160 
#    z 0.124650 0.182160 3.446230 
# 
# 
# High freq. dielectric constant tensor:
#      x y z
#    x 1.771430 -0.000360 0.007170 
#    y -0.000360 1.780190 0.010780 
#    z 0.007170 0.010780 1.758300 
# 
# From -- ./inp_files/45046.got.cif
#   From: 2010.06.25/outbox.cif.g09.slc.cpg/sg2_23_cif.got.tgz:45046.got - 2010.06.27 13:26:56.
