data_PCOD8004855
_publ_section_title
;
Structure prediction by ZEFSAII (Michael W. Deem and Ramdas Pophale) SiO2 
 PCOD8004855
Probable space group: P -1
;
_chemical_formula_sum "Si O2"
_cell_formula_units_Z 16
_cell_length_a 12.114018
_cell_length_b 11.668846
_cell_length_c 8.688226
_cell_angle_alpha 54.204128
_cell_angle_beta 130.791458
_cell_angle_gamma 105.368836
_cell_volume 740.341698
_symmetry_space_group_name_H-M "P -1"
_symmetry_group_IT_number 2
_symmetry_cell_setting 'triclinic'
loop_
_space_group_symop_operation_xyz
x,y,z
-x,-y,-z
loop_
_atom_site_type_symbol
_atom_site_label
_atom_site_fract_x
_atom_site_fract_y
_atom_site_fract_z
Si Si1 0.553332 0.846003 0.087544
Si Si2 0.930023 0.752250 0.150381
Si Si3 0.996261 0.875238 0.423242
Si Si4 0.171732 0.831575 0.089199
Si Si5 0.842322 0.698148 0.615836
Si Si6 0.645045 0.969544 0.762536
Si Si7 0.266012 0.725703 0.935260
Si Si8 0.107522 0.477071 0.908060
O O1 0.672211 0.735361 0.380266
O O2 0.428984 0.749951 0.030575
O O3 0.500000 0.000000 0.000000
O O4 0.617999 0.874110 0.959034
O O5 0.974134 0.758374 0.364410
O O6 0.887566 0.596935 0.197678
O O7 0.077136 0.760332 0.179425
O O8 0.790274 0.879797 0.879494
O O9 0.909008 0.840670 0.524779
O O10 0.166331 0.855660 0.646072
O O11 0.938039 0.032267 0.187337
O O12 0.231422 0.725409 0.086799
O O13 0.313426 0.879443 0.263257
O O14 0.852330 0.661915 0.833449
O O15 0.942108 0.563437 0.723850
O O16 0.500000 0.000000 0.500000
O O17 0.233415 0.574631 0.959937
#
# Coordination Sequence:
#
# PCOD8004855 Si02
#       8
#     2   2   2   2   2   2   2   2
#     4  12  24  43  67  96 131 168 207 269 326 376
#     4  11  23  41  66  92 132 169 208 266 321 378
#     4  10  20  38  62  95 122 161 217 267 316 365
#     4  11  21  40  63  97 123 166 214 270 318 369
#     4  10  20  42  64  90 127 165 221 259 306 373
#     4  11  25  42  63 100 134 164 205 260 341 386
#     4  11  24  39  64  94 125 169 219 257 312 378
#     4  10  24  42  65  93 124 178 218 260 306 374
#
# _framework density 21.611643000000001
#
# number of rings (size 3 to 8) (size 9 to 14) (size 15 to 20)
#    0.000    1.250    3.750    4.125    5.250    3.500 
#    0.000    1.875    0.000    0.000    0.000    0.000 
#    0.000    0.000    0.000    0.000    0.000    0.000 
#
# Total GULP energy -198318.420343 kJ/mol
# GULP energy per Si atom -12394.901271 kJ/mol
# Density = 2.156245 g / cm^3
# Si number density = 21.611643 Si / 1000 Ang^3
#
#
#
# Elastic Constant Matrix: (Units=GPa)
#
#
# Indices 1 2 3 4 5 6 
#
# 1 88.4419 34.1060 15.5259 11.9656 8.5383 19.6444
# 2 34.1060 123.5184 12.4954 19.6427 6.9495 0.3981
# 3 15.5259 12.4954 108.8263 19.6823 21.4346 6.9166
# 4 11.9656 19.6427 19.6823 25.2653 10.0338 -1.2961
# 5 8.5383 6.9495 21.4346 10.0338 37.0574 5.7009
# 6 19.6444 0.3981 6.9166 -1.2961 5.7009 30.7775
#
#
#
# Elastic Compliance Matrix: (Units=1/GPa)
#
#
# Indices 1 2 3 4 5 6 
#
# 1 0.015598 -0.003450 -0.000305 -0.005043 0.000146 -0.010082
# 2 -0.003450 0.010018 0.000359 -0.006422 0.000188 0.001686
# 3 -0.000305 0.000359 0.011521 -0.007484 -0.004341 -0.001910
# 4 -0.005043 -0.006422 -0.007484 0.057344 -0.010262 0.009299
# 5 0.000146 0.000188 -0.004341 -0.010262 0.033079 -0.005679
# 6 -0.010082 0.001686 -0.001910 0.009299 -0.005679 0.040777
#
#
# Mechanical properties :
#
#
# Convention : Reuss Voigt Hill
#
# Bulk Modulus (GPa) = 32.95390 49.44903 41.20147
# Shear Modulus (GPa) = 26.99127 35.86398 31.42763
#
# Velocity S-wave (km/s) = 3.53784 4.07808 3.81753
# Velocity P-wave (km/s) = 5.65418 6.71601 6.20784
#
# Compressibility (1/GPa) = 0.03034542
#
# Stress axis : x y z
#
# Youngs Moduli (GPa) = 64.10904 99.82501 86.79649
#
# Poissons Ratio (x) = 0.34439 0.02649
# Poissons Ratio (y) = 0.22118 -0.03119
# Poissons Ratio (z) = 0.01957 -0.03587
#
# Static dielectric constant tensor:
#      x y z
#    x 3.913540 -0.040200 -0.084160 
#    y -0.040200 4.000900 0.240800 
#    z -0.084160 0.240800 4.070660 
# 
# 
# High freq. dielectric constant tensor:
#      x y z
#    x 1.839790 0.005700 -0.004050 
#    y 0.005700 1.849590 0.014980 
#    z -0.004050 0.014980 1.847720 
# 
# From -- ./inp_files/244210.got.cif
#   From: 2010.06.25/outbox.cif.g09.slc.cpg/sg2_123_cif.got.tgz:244210.got - 2010.06.27 13:26:56.
