data_PCOD8004953
_publ_section_title
;
Structure prediction by ZEFSAII (Michael W. Deem and Ramdas Pophale) SiO2 
 PCOD8004953
Probable space group: P -1
;
_chemical_formula_sum "Si O2"
_cell_formula_units_Z 14
_cell_length_a 11.504621
_cell_length_b 20.391715
_cell_length_c 14.594952
_cell_angle_alpha 31.206241
_cell_angle_beta 144.967822
_cell_angle_gamma 157.519300
_cell_volume 671.272394
_symmetry_space_group_name_H-M "P -1"
_symmetry_group_IT_number 2
_symmetry_cell_setting 'triclinic'
loop_
_space_group_symop_operation_xyz
x,y,z
-x,-y,-z
loop_
_atom_site_type_symbol
_atom_site_label
_atom_site_fract_x
_atom_site_fract_y
_atom_site_fract_z
Si Si1 0.000023 0.251866 0.499524
Si Si2 0.354793 0.077968 0.720160
Si Si3 0.661572 0.216132 0.940223
Si Si4 0.478128 0.182086 0.321445
Si Si5 0.582074 0.412757 0.770231
Si Si6 0.627857 0.743572 0.650105
Si Si7 0.638434 0.465256 0.957104
O O1 0.773936 0.236371 0.427227
O O2 0.270667 0.343104 0.634835
O O3 0.131889 0.385175 0.336495
O O4 0.827021 0.046081 0.597972
O O5 0.515448 0.199369 0.771915
O O6 0.476784 0.223930 0.543514
O O7 0.992107 0.919867 0.687442
O O8 0.450914 0.978854 0.877432
O O9 0.547121 0.252513 0.904386
O O10 0.026113 0.391573 0.953586
O O11 0.535743 0.276990 0.341844
O O12 0.423037 0.262156 0.111731
O O13 0.655695 0.442897 0.888172
O O14 0.509452 0.545065 0.796052
#
# Coordination Sequence:
#
# PCOD8004953 Si02
#       7
#     2   2   2   2   2   2   2
#     4  10  25  40  67  90 126 165 216 252 319 363
#     4   9  21  38  64  98 118 165 216 252 311 371
#     4  10  20  38  63  93 126 155 210 266 298 366
#     4  11  23  43  60  96 131 164 200 268 314 367
#     4  11  23  42  67  92 122 169 212 259 299 384
#     4  10  22  39  65  89 129 166 207 258 311 375
#     4  11  24  38  64  95 127 166 209 252 320 368
#
# _framework density 20.855915
#
# number of rings (size 3 to 8) (size 9 to 14) (size 15 to 20)
#    0.000    1.714    1.429    1.714   10.000    1.714 
#    0.000    7.143    0.000    0.000    0.000    0.000 
#    0.000    0.000    0.000    0.000    0.000    0.000 
#
# Total GULP energy -173679.558558 kJ/mol
# GULP energy per Si atom -12405.682754 kJ/mol
# Density = 2.080845 g / cm^3
# Si number density = 20.855915 Si / 1000 Ang^3
#
#
#
# Elastic Constant Matrix: (Units=GPa)
#
#
# Indices 1 2 3 4 5 6 
#
# 1 142.5249 40.0602 59.5656 -8.9203 1.6796 -22.8440
# 2 40.0602 67.5866 34.9574 -1.6471 1.4204 -12.9021
# 3 59.5656 34.9574 124.7373 -5.9473 -2.0436 -12.6688
# 4 -8.9203 -1.6471 -5.9473 30.1720 -12.3371 0.4370
# 5 1.6796 1.4204 -2.0436 -12.3371 27.2497 -1.6497
# 6 -22.8440 -12.9021 -12.6688 0.4370 -1.6497 32.0169
#
#
#
# Elastic Compliance Matrix: (Units=1/GPa)
#
#
# Indices 1 2 3 4 5 6 
#
# 1 0.010259 -0.003424 -0.003346 0.002388 0.000656 0.004617
# 2 -0.003424 0.019374 -0.003478 -0.001268 -0.001396 0.003933
# 3 -0.003346 -0.003478 0.010762 0.001763 0.002026 0.000550
# 4 0.002388 -0.001268 0.001763 0.041935 0.019177 0.002306
# 5 0.000656 -0.001396 0.002026 0.019177 0.045733 0.002802
# 6 0.004617 0.003933 0.000550 0.002306 0.002802 0.036443
#
#
# Mechanical properties :
#
#
# Convention : Reuss Voigt Hill
#
# Bulk Modulus (GPa) = 50.25477 67.11280 58.68379
# Shear Modulus (GPa) = 26.09110 31.23876 28.66493
#
# Velocity S-wave (km/s) = 3.54081 3.87439 3.71135
# Velocity P-wave (km/s) = 6.39257 7.22936 6.82380
#
# Compressibility (1/GPa) = 0.01989861
#
# Stress axis : x y z
#
# Youngs Moduli (GPa) = 97.47688 51.61628 92.91649
#
# Poissons Ratio (x) = 0.17676 0.31087
# Poissons Ratio (y) = 0.33380 0.32317
# Poissons Ratio (z) = 0.32613 0.17952
#
# Static dielectric constant tensor:
#      x y z
#    x 3.648740 -0.116230 0.158370 
#    y -0.116230 3.721960 -0.146240 
#    z 0.158370 -0.146240 4.055390 
# 
# 
# High freq. dielectric constant tensor:
#      x y z
#    x 1.815310 -0.013240 0.010620 
#    y -0.013240 1.805710 -0.004640 
#    z 0.010620 -0.004640 1.833110 
# 
# From -- ./inp_files/181150.got.cif
#   From: 2010.06.25/outbox.cif.g09.slc.cpg/sg2_91_cif.got.tgz:181150.got - 2010.06.27 13:26:56.
