data_PCOD8004565
_publ_section_title
;
Structure prediction by ZEFSAII (Michael W. Deem and Ramdas Pophale) SiO2 
 PCOD8004565
Probable space group: P -1
;
_chemical_formula_sum "Si O2"
_cell_formula_units_Z 14
_cell_length_a 12.582568
_cell_length_b 14.848389
_cell_length_c 8.191099
_cell_angle_alpha 40.801202
_cell_angle_beta 83.596503
_cell_angle_gamma 58.207857
_cell_volume 727.421089
_symmetry_space_group_name_H-M "P -1"
_symmetry_group_IT_number 2
_symmetry_cell_setting 'triclinic'
loop_
_space_group_symop_operation_xyz
x,y,z
-x,-y,-z
loop_
_atom_site_type_symbol
_atom_site_label
_atom_site_fract_x
_atom_site_fract_y
_atom_site_fract_z
Si Si1 0.956712 0.878776 0.684458
Si Si2 0.366922 0.422306 0.641090
Si Si3 0.451932 0.587029 0.622630
Si Si4 0.576444 0.789184 0.775655
Si Si5 0.362724 0.771459 0.713117
Si Si6 0.118487 0.499403 0.045356
Si Si7 0.088113 0.550670 0.336615
O O1 0.783724 0.024885 0.481199
O O2 0.000000 0.000000 0.500000
O O3 0.047346 0.716443 0.751727
O O4 0.986962 0.772042 0.998639
O O5 0.355456 0.576807 0.531657
O O6 0.478302 0.344749 0.578026
O O7 0.209621 0.503368 0.502778
O O8 0.440971 0.246393 0.987533
O O9 0.343982 0.729644 0.590128
O O10 0.594000 0.386409 0.950746
O O11 0.494213 0.764733 0.694602
O O12 0.745069 0.638560 0.906104
O O13 0.500000 0.000000 0.500000
O O14 0.160626 0.428382 0.324269
O O15 0.000000 0.500000 0.000000
O O16 0.000000 0.500000 0.500000
#
# Coordination Sequence:
#
# PCOD8004565 Si02
#       7
#     2   2   2   2   2   2   2
#     4  10  23  38  66  90 124 163 213 254 307 378
#     4  10  20  38  60  86 124 155 207 256 316 362
#     4   9  20  36  64  88 119 162 195 264 315 363
#     4  11  23  38  64  89 118 166 210 255 303 380
#     4  10  20  38  62  90 119 154 212 248 308 371
#     4  10  22  41  64  88 124 169 208 251 317 377
#     4  10  22  39  63  88 127 168 202 262 319 367
#
# _framework density 19.246075000000001
#
# number of rings (size 3 to 8) (size 9 to 14) (size 15 to 20)
#    0.857    1.143    0.000    3.429    8.000    0.000 
#    2.571    2.143    6.286    0.000    0.000    0.000 
#    0.000    0.000    0.000    0.000    0.000    0.000 
#
# Total GULP energy -173470.068793 kJ/mol
# GULP energy per Si atom -12390.719199 kJ/mol
# Density = 1.920227 g / cm^3
# Si number density = 19.246075 Si / 1000 Ang^3
#
#
#
# Elastic Constant Matrix: (Units=GPa)
#
#
# Indices 1 2 3 4 5 6 
#
# 1 143.6704 41.5014 53.4957 0.2819 -4.3881 0.4780
# 2 41.5014 101.0782 50.6937 -5.2051 -2.2023 -4.9476
# 3 53.4957 50.6937 112.4311 -7.5087 -19.9417 -5.4741
# 4 0.2819 -5.2051 -7.5087 39.0652 -2.8503 4.9242
# 5 -4.3881 -2.2023 -19.9417 -2.8503 37.0159 3.6998
# 6 0.4780 -4.9476 -5.4741 4.9242 3.6998 33.0750
#
#
#
# Elastic Compliance Matrix: (Units=1/GPa)
#
#
# Indices 1 2 3 4 5 6 
#
# 1 0.008838 -0.001922 -0.003622 -0.000996 -0.001020 -0.000752
# 2 -0.001922 0.013481 -0.005515 0.000397 -0.002502 0.001352
# 3 -0.003622 -0.005515 0.014584 0.002567 0.007252 0.000448
# 4 -0.000996 0.000397 0.002567 0.026921 0.003754 -0.003929
# 5 -0.001020 -0.002502 0.007252 0.003754 0.031263 -0.003215
# 6 -0.000752 0.001352 0.000448 -0.003929 -0.003215 0.031466
#
#
# Mechanical properties :
#
#
# Convention : Reuss Voigt Hill
#
# Bulk Modulus (GPa) = 67.64362 72.06235 69.85298
# Shear Modulus (GPa) = 32.55213 35.93048 34.24131
#
# Velocity S-wave (km/s) = 4.11708 4.32545 4.22255
# Velocity P-wave (km/s) = 7.60418 7.90379 7.75543
#
# Compressibility (1/GPa) = 0.01478336
#
# Stress axis : x y z
#
# Youngs Moduli (GPa) = 113.15100 74.18047 68.56801
#
# Poissons Ratio (x) = 0.14260 0.24838
# Poissons Ratio (y) = 0.21751 0.37815
# Poissons Ratio (z) = 0.40987 0.40910
#
# Static dielectric constant tensor:
#      x y z
#    x 3.640710 -0.008200 -0.049610 
#    y -0.008200 3.947660 -0.062930 
#    z -0.049610 -0.062930 3.577080 
# 
# 
# High freq. dielectric constant tensor:
#      x y z
#    x 1.763390 0.005390 -0.006170 
#    y 0.005390 1.735190 0.011010 
#    z -0.006170 0.011010 1.739790 
# 
# From -- ./inp_files/269446.got.cif
#   From: 2010.06.25/outbox.cif.g09.slc.cpg/sg2_135_cif.got.tgz:269446.got - 2010.06.27 13:26:56.
