data_PCOD8004841
_publ_section_title
;
Structure prediction by ZEFSAII (Michael W. Deem and Ramdas Pophale) SiO2 
 PCOD8004841
Probable space group: P -1
;
_chemical_formula_sum "Si O2"
_cell_formula_units_Z 14
_cell_length_a 14.032986
_cell_length_b 9.381319
_cell_length_c 8.391153
_cell_angle_alpha 63.855564
_cell_angle_beta 94.228711
_cell_angle_gamma 140.323995
_cell_volume 561.140599
_symmetry_space_group_name_H-M "P -1"
_symmetry_group_IT_number 2
_symmetry_cell_setting 'triclinic'
loop_
_space_group_symop_operation_xyz
x,y,z
-x,-y,-z
loop_
_atom_site_type_symbol
_atom_site_label
_atom_site_fract_x
_atom_site_fract_y
_atom_site_fract_z
Si Si1 0.576937 0.936451 0.799230
Si Si2 0.354505 0.895030 0.697827
Si Si3 0.847522 0.905761 0.977034
Si Si4 0.183744 0.580831 0.166158
Si Si5 0.708430 0.599636 0.782599
Si Si6 0.972538 0.521350 0.309457
Si Si7 0.478191 0.359534 0.333849
O O1 0.493128 0.948388 0.662002
O O2 0.607420 0.820835 0.753667
O O3 0.738155 0.229814 0.759420
O O4 0.450330 0.723621 0.030004
O O5 0.221224 0.693439 0.635791
O O6 0.444948 0.191158 0.556827
O O7 0.268969 0.749511 0.929663
O O8 0.678999 0.657103 0.186980
O O9 0.808467 0.810720 0.837225
O O10 0.000000 0.000000 0.000000
O O11 0.904317 0.164724 0.872534
O O12 0.172805 0.374383 0.296300
O O13 0.000448 0.412837 0.239608
O O14 0.628946 0.627263 0.645297
O O15 0.000000 0.500000 0.500000
#
# Coordination Sequence:
#
# PCOD8004841 Si02
#       7
#     2   2   2   2   2   2   2
#     4  10  20  39  64  91 126 173 217 258 314 393
#     4  11  23  40  66 100 129 169 221 270 323 389
#     4  11  23  41  65  98 133 169 214 271 325 379
#     4  11  23  42  66  95 132 173 219 271 325 389
#     4  10  20  38  62  92 128 170 214 267 323 375
#     4  12  25  45  69  94 128 178 222 264 326 399
#     4  11  22  41  68  96 130 170 217 269 322 386
#
# _framework density 24.949183000000001
#
# number of rings (size 3 to 8) (size 9 to 14) (size 15 to 20)
#    0.000    1.143    0.000   10.286    0.000    1.143 
#    0.000   10.714    0.000    3.429    0.000    1.000 
#    0.000    0.000    0.000    0.000    0.000    0.000 
#
# Total GULP energy -173500.733232 kJ/mol
# GULP energy per Si atom -12392.909517 kJ/mol
# Density = 2.489240 g / cm^3
# Si number density = 24.949183 Si / 1000 Ang^3
#
#
#
# Elastic Constant Matrix: (Units=GPa)
#
#
# Indices 1 2 3 4 5 6 
#
# 1 166.7746 46.3535 42.1862 -14.9730 31.3637 -17.5836
# 2 46.3535 79.7228 20.1399 -9.7610 3.6999 10.7295
# 3 42.1862 20.1399 98.3261 -17.3407 28.4327 -0.6616
# 4 -14.9730 -9.7610 -17.3407 34.6864 -4.1207 6.0915
# 5 31.3637 3.6999 28.4327 -4.1207 39.4128 -2.7396
# 6 -17.5836 10.7295 -0.6616 6.0915 -2.7396 41.1418
#
#
#
# Elastic Compliance Matrix: (Units=1/GPa)
#
#
# Indices 1 2 3 4 5 6 
#
# 1 0.009505 -0.005602 -0.001148 0.000372 -0.005819 0.005062
# 2 -0.005602 0.017443 -0.001770 0.003339 0.003946 -0.007204
# 3 -0.001148 -0.001770 0.014560 0.005433 -0.008939 -0.001195
# 4 0.000372 0.003339 0.005433 0.033474 -0.001424 -0.005676
# 5 -0.005819 0.003946 -0.008939 -0.001424 0.035859 -0.001061
# 6 0.005062 -0.007204 -0.001195 -0.005676 -0.001061 0.029099
#
#
# Mechanical properties :
#
#
# Convention : Reuss Voigt Hill
#
# Bulk Modulus (GPa) = 40.86944 62.46475 51.66710
# Shear Modulus (GPa) = 30.27794 38.79112 34.53453
#
# Velocity S-wave (km/s) = 3.48743 3.94738 3.72451
# Velocity P-wave (km/s) = 5.71252 6.77251 6.26497
#
# Compressibility (1/GPa) = 0.02446816
#
# Stress axis : x y z
#
# Youngs Moduli (GPa) = 105.20652 57.32928 68.67902
#
# Poissons Ratio (x) = 0.32117 0.07887
# Poissons Ratio (y) = 0.58939 0.12154
# Poissons Ratio (z) = 0.12081 0.10146
#
# Static dielectric constant tensor:
#      x y z
#    x 5.267330 0.070960 0.245290 
#    y 0.070960 4.353110 -0.248420 
#    z 0.245290 -0.248420 4.413210 
# 
# 
# High freq. dielectric constant tensor:
#      x y z
#    x 2.024040 0.006140 0.012450 
#    y 0.006140 1.978650 -0.006310 
#    z 0.012450 -0.006310 1.986330 
# 
# From -- ./inp_files/297693.got.cif
#   From: 2010.06.25/outbox.cif.g09.slc.cpg/sg2_149_cif.got.tgz:297693.got - 2010.06.27 13:26:56.
