data_PCOD8004343
_publ_section_title
;
Structure prediction by ZEFSAII (Michael W. Deem and Ramdas Pophale) SiO2 
 PCOD8004343
Probable space group: P -1
;
_chemical_formula_sum "Si O2"
_cell_formula_units_Z 12
_cell_length_a 12.691898
_cell_length_b 19.997419
_cell_length_c 4.906998
_cell_angle_alpha 92.193426
_cell_angle_beta 91.691597
_cell_angle_gamma 155.059362
_cell_volume 518.652050
_symmetry_space_group_name_H-M "P -1"
_symmetry_group_IT_number 2
_symmetry_cell_setting 'triclinic'
loop_
_space_group_symop_operation_xyz
x,y,z
-x,-y,-z
loop_
_atom_site_type_symbol
_atom_site_label
_atom_site_fract_x
_atom_site_fract_y
_atom_site_fract_z
Si Si1 0.572535 0.816152 0.334960
Si Si2 0.080755 0.349364 0.350896
Si Si3 0.715922 0.821127 0.864796
Si Si4 0.680219 0.010177 0.153918
Si Si5 0.645839 0.191469 0.438975
Si Si6 0.411581 0.522297 0.916252
O O1 0.517157 0.743954 0.040490
O O2 0.768437 0.989011 0.283990
O O3 0.334008 0.719044 0.435779
O O4 0.690171 0.832077 0.557769
O O5 0.290693 0.489019 0.165310
O O6 0.919760 0.323393 0.393941
O O7 0.205455 0.395725 0.644047
O O8 0.914004 0.194652 0.180894
O O9 0.647133 0.702721 0.855655
O O10 0.000000 0.000000 0.000000
O O11 0.468239 0.918234 0.333526
O O12 0.555589 0.928159 0.838555
O O13 0.500000 0.500000 0.000000
#
# Coordination Sequence:
#
# PCOD8004343 Si02
#       6
#     2   2   2   2   2   2
#     4  10  22  41  70 102 130 165 237 268 322 394
#     4  12  24  43  69 100 143 175 218 279 343 392
#     4  12  26  47  70  94 130 182 232 273 327 403
#     4  10  20  37  71 102 140 170 224 262 335 392
#     4  10  20  39  68 109 134 176 218 275 328 404
#     4  12  30  46  67  97 139 176 226 281 341 388
#
# _framework density 23.136896
#
# number of rings (size 3 to 8) (size 9 to 14) (size 15 to 20)
#    1.000    0.000    1.667    5.000    4.667    0.000 
#    0.000    5.000    0.000    0.000    0.000    0.000 
#    0.000    0.000    0.000    0.000    0.000    0.000 
#
# Total GULP energy -148675.015275 kJ/mol
# GULP energy per Si atom -12389.584606 kJ/mol
# Density = 2.308424 g / cm^3
# Si number density = 23.136896 Si / 1000 Ang^3
#
#
#
# Elastic Constant Matrix: (Units=GPa)
#
#
# Indices 1 2 3 4 5 6 
#
# 1 96.0885 39.0140 22.2730 11.7590 1.1411 -14.8695
# 2 39.0140 78.4989 12.8910 -3.7964 4.8400 -1.2018
# 3 22.2730 12.8910 113.0142 -16.0878 4.1332 11.5625
# 4 11.7590 -3.7964 -16.0878 30.6876 3.6900 -0.3246
# 5 1.1411 4.8400 4.1332 3.6900 34.1861 -5.9771
# 6 -14.8695 -1.2018 11.5625 -0.3246 -5.9771 27.3824
#
#
#
# Elastic Compliance Matrix: (Units=1/GPa)
#
#
# Indices 1 2 3 4 5 6 
#
# 1 0.018971 -0.009135 -0.005953 -0.011981 0.005010 0.013366
# 2 -0.009135 0.017530 0.001508 0.006892 -0.004089 -0.005639
# 3 -0.005953 0.001508 0.012255 0.009288 -0.004094 -0.009125
# 4 -0.011981 0.006892 0.009288 0.043792 -0.008427 -0.011446
# 5 0.005010 -0.004089 -0.004094 -0.008427 0.033059 0.011386
# 6 0.013366 -0.005639 -0.009125 -0.011446 0.011386 0.049733
#
#
# Mechanical properties :
#
#
# Convention : Reuss Voigt Hill
#
# Bulk Modulus (GPa) = 46.30235 48.43973 47.37104
# Shear Modulus (GPa) = 23.84371 32.67947 28.26159
#
# Velocity S-wave (km/s) = 3.21370 3.76232 3.49878
# Velocity P-wave (km/s) = 5.81604 6.31308 6.06965
#
# Compressibility (1/GPa) = 0.02159718
#
# Stress axis : x y z
#
# Youngs Moduli (GPa) = 52.71190 57.04373 81.59791
#
# Poissons Ratio (x) = 0.52108 0.48577
# Poissons Ratio (y) = 0.48151 -0.12306
# Poissons Ratio (z) = 0.31380 -0.08603
#
# Static dielectric constant tensor:
#      x y z
#    x 4.220560 0.037020 -0.183600 
#    y 0.037020 3.981620 -0.388650 
#    z -0.183600 -0.388650 4.231000 
# 
# 
# High freq. dielectric constant tensor:
#      x y z
#    x 1.917920 -0.008120 -0.009200 
#    y -0.008120 1.890640 -0.031420 
#    z -0.009200 -0.031420 1.926220 
# 
# From -- ./inp_files/101216.got.cif
#   From: 2010.06.25/outbox.cif.g09.slc.cpg/sg2_51_cif.got.tgz:101216.got - 2010.06.27 13:26:56.
