data_PCOD8004625
_publ_section_title
;
Structure prediction by ZEFSAII (Michael W. Deem and Ramdas Pophale) SiO2 
 PCOD8004625
Probable space group: P -1
;
_chemical_formula_sum "Si O2"
_cell_formula_units_Z 16
_cell_length_a 12.195852
_cell_length_b 13.783127
_cell_length_c 9.062588
_cell_angle_alpha 31.245808
_cell_angle_beta 110.916576
_cell_angle_gamma 101.201895
_cell_volume 718.512533
_symmetry_space_group_name_H-M "P -1"
_symmetry_group_IT_number 2
_symmetry_cell_setting 'triclinic'
loop_
_space_group_symop_operation_xyz
x,y,z
-x,-y,-z
loop_
_atom_site_type_symbol
_atom_site_label
_atom_site_fract_x
_atom_site_fract_y
_atom_site_fract_z
Si Si1 0.065671 0.042959 0.622176
Si Si2 0.316754 0.200230 0.809790
Si Si3 0.424058 0.494773 0.621259
Si Si4 0.224195 0.831517 0.207381
Si Si5 0.394864 0.789939 0.742477
Si Si6 0.154525 0.709200 0.640993
Si Si7 0.474144 0.075794 0.622217
Si Si8 0.239445 0.307110 0.327609
O O1 0.171350 0.138148 0.492191
O O2 0.975226 0.177456 0.515831
O O3 0.000000 0.000000 0.500000
O O4 0.129709 0.857122 0.991485
O O5 0.329209 0.352733 0.746630
O O6 0.260302 0.339641 0.468168
O O7 0.235373 0.043070 0.997361
O O8 0.454518 0.069601 0.029090
O O9 0.500000 0.500000 0.500000
O O10 0.350713 0.703363 0.370984
O O11 0.519316 0.410348 0.904266
O O12 0.170543 0.727723 0.449145
O O13 0.256924 0.776452 0.696250
O O14 0.426968 0.836248 0.530739
O O15 0.403534 0.964529 0.623952
O O16 0.162316 0.487948 0.969962
O O17 0.375976 0.250834 0.410182
#
# Coordination Sequence:
#
# PCOD8004625 Si02
#       8
#     2   2   2   2   2   2   2   2
#     4  11  27  48  71  94 130 183 236 280 337 399
#     4  10  23  39  64  98 140 171 222 273 336 410
#     4  11  25  38  65 106 143 174 226 277 343 411
#     4  11  26  46  70  99 136 183 225 280 349 399
#     4  10  22  36  64  98 139 172 217 272 338 405
#     4  12  24  45  69  98 140 176 231 281 332 405
#     4  10  20  38  60  99 134 177 216 269 341 408
#     4  11  24  39  70  94 133 172 228 279 346 392
#
# _framework density 22.268225000000001
#
# number of rings (size 3 to 8) (size 9 to 14) (size 15 to 20)
#    0.000    1.250    1.250    3.375   14.000    1.000 
#    2.250    0.625    0.000    0.000    0.000    0.000 
#    0.000    0.000    0.000    0.000    0.000    0.000 
#
# Total GULP energy -198294.338666 kJ/mol
# GULP energy per Si atom -12393.396167 kJ/mol
# Density = 2.221754 g / cm^3
# Si number density = 22.268225 Si / 1000 Ang^3
#
#
#
# Elastic Constant Matrix: (Units=GPa)
#
#
# Indices 1 2 3 4 5 6 
#
# 1 58.7961 -0.2573 23.2253 3.6904 0.5846 -8.3282
# 2 -0.2573 43.9621 18.8881 8.3257 -11.4253 8.5518
# 3 23.2253 18.8881 147.4321 15.1353 -3.2960 -8.8585
# 4 3.6904 8.3257 15.1353 35.3127 -2.4526 7.3180
# 5 0.5846 -11.4253 -3.2960 -2.4526 31.1573 3.5195
# 6 -8.3282 8.5518 -8.8585 7.3180 3.5195 29.2468
#
#
#
# Elastic Compliance Matrix: (Units=1/GPa)
#
#
# Indices 1 2 3 4 5 6 
#
# 1 0.018886 0.000233 -0.002500 -0.002133 -0.001294 0.005242
# 2 0.000233 0.030031 -0.004030 -0.002344 0.011611 -0.010746
# 3 -0.002500 -0.004030 0.008230 -0.003215 -0.001255 0.003915
# 4 -0.002133 -0.002344 -0.003215 0.032579 0.002460 -0.009343
# 5 -0.001294 0.011611 -0.001255 0.002460 0.037485 -0.009270
# 6 0.005242 -0.010746 0.003915 -0.009343 -0.009270 0.043466
#
#
# Mechanical properties :
#
#
# Convention : Reuss Voigt Hill
#
# Bulk Modulus (GPa) = 22.44480 37.10027 29.77253
# Shear Modulus (GPa) = 25.23701 33.03231 29.13466
#
# Velocity S-wave (km/s) = 3.37013 3.85565 3.62104
# Velocity P-wave (km/s) = 5.02443 6.04303 5.55712
#
# Compressibility (1/GPa) = 0.04455375
#
# Stress axis : x y z
#
# Youngs Moduli (GPa) = 52.95013 33.29843 121.50695
#
# Poissons Ratio (x) = -0.00775 0.30375
# Poissons Ratio (y) = -0.01232 0.48962
# Poissons Ratio (z) = 0.13237 0.13418
#
# Static dielectric constant tensor:
#      x y z
#    x 3.910190 0.171610 0.010150 
#    y 0.171610 3.907220 0.139510 
#    z 0.010150 0.139510 4.306870 
# 
# 
# High freq. dielectric constant tensor:
#      x y z
#    x 1.860660 0.015030 0.001900 
#    y 0.015030 1.869600 0.010930 
#    z 0.001900 0.010930 1.894080 
# 
# From -- ./inp_files/271403.got.cif
#   From: 2010.06.25/outbox.cif.g09.slc.cpg/sg2_136_cif.got.tgz:271403.got - 2010.06.27 13:26:56.
