data_PCOD8004817
_publ_section_title
;
Structure prediction by ZEFSAII (Michael W. Deem and Ramdas Pophale) SiO2 
 PCOD8004817
Probable space group: P -1
;
_chemical_formula_sum "Si O2"
_cell_formula_units_Z 16
_cell_length_a 9.478410
_cell_length_b 12.287086
_cell_length_c 13.603989
_cell_angle_alpha 70.362784
_cell_angle_beta 62.997284
_cell_angle_gamma 36.819744
_cell_volume 844.874860
_symmetry_space_group_name_H-M "P -1"
_symmetry_group_IT_number 2
_symmetry_cell_setting 'triclinic'
loop_
_space_group_symop_operation_xyz
x,y,z
-x,-y,-z
loop_
_atom_site_type_symbol
_atom_site_label
_atom_site_fract_x
_atom_site_fract_y
_atom_site_fract_z
Si Si1 0.226771 0.019726 0.116835
Si Si2 0.344697 0.297978 0.255762
Si Si3 0.442863 0.998781 0.861300
Si Si4 0.187431 0.794532 0.248715
Si Si5 0.104095 0.318765 0.495655
Si Si6 0.609042 0.473208 0.576412
Si Si7 0.056687 0.281436 0.732664
Si Si8 0.253393 0.808156 0.722223
O O1 0.929570 0.192499 0.182590
O O2 0.374045 0.003338 0.160801
O O3 0.312851 0.835480 0.143366
O O4 0.271299 0.052259 0.988139
O O5 0.315781 0.218638 0.376836
O O6 0.581730 0.244129 0.221475
O O7 0.100309 0.514852 0.254501
O O8 0.394399 0.200285 0.169526
O O9 0.265922 0.149148 0.787891
O O10 0.374007 0.646004 0.319747
O O11 0.132027 0.722190 0.210729
O O12 0.922286 0.986735 0.320850
O O13 0.192545 0.213112 0.603265
O O14 0.000000 0.500000 0.500000
O O15 0.884425 0.366128 0.504111
O O16 0.500000 0.500000 0.500000
O O17 0.430993 0.670740 0.619159
#
# Coordination Sequence:
#
# PCOD8004817 Si02
#       8
#     2   2   2   2   2   2   2   2
#     4   9  24  43  59  84 122 157 193 253 298 350
#     4  11  21  38  64  90 117 159 198 243 295 345
#     4  11  22  44  59  85 121 151 204 250 294 352
#     4   9  20  40  58  87 119 152 201 234 296 351
#     4   9  19  36  54  89 121 147 195 234 287 348
#     4  11  22  37  60  89 126 158 192 243 288 359
#     4  10  20  38  62  91 115 156 201 239 294 351
#     4  10  20  41  60  84 121 157 193 245 290 352
#
# _framework density 18.937716000000002
#
# number of rings (size 3 to 8) (size 9 to 14) (size 15 to 20)
#    0.750    1.250    5.000    0.000    1.750    5.000 
#    2.250    2.500    0.000    0.000    0.000    0.000 
#    0.000    0.000    0.000    0.000    0.000    0.000 
#
# Total GULP energy -198267.924928 kJ/mol
# GULP energy per Si atom -12391.745308 kJ/mol
# Density = 1.889461 g / cm^3
# Si number density = 18.937716 Si / 1000 Ang^3
#
#
#
# Elastic Constant Matrix: (Units=GPa)
#
#
# Indices 1 2 3 4 5 6 
#
# 1 123.6820 24.7421 64.4818 -4.1184 0.4707 -3.6290
# 2 24.7421 88.5326 24.7278 -5.8365 12.0756 1.3304
# 3 64.4818 24.7278 74.6223 -4.1878 5.4418 -11.7348
# 4 -4.1184 -5.8365 -4.1878 27.7669 -0.8569 2.2508
# 5 0.4707 12.0756 5.4418 -0.8569 34.5370 0.7685
# 6 -3.6290 1.3304 -11.7348 2.2508 0.7685 30.7832
#
#
#
# Elastic Compliance Matrix: (Units=1/GPa)
#
#
# Indices 1 2 3 4 5 6 
#
# 1 0.015222 -0.000682 -0.013613 0.000411 0.002263 -0.003452
# 2 -0.000682 0.013237 -0.003724 0.002171 -0.003931 -0.002133
# 3 -0.013613 -0.003724 0.028124 0.000588 -0.003136 0.009313
# 4 0.000411 0.002171 0.000588 0.036828 0.000112 -0.002517
# 5 0.002263 -0.003931 -0.003136 0.000112 0.030829 -0.001537
# 6 -0.003452 -0.002133 0.009313 -0.002517 -0.001537 0.035943
#
#
# Mechanical properties :
#
#
# Convention : Reuss Voigt Hill
#
# Bulk Modulus (GPa) = 48.67051 57.19337 52.93194
# Shear Modulus (GPa) = 24.62207 30.14309 27.38258
#
# Velocity S-wave (km/s) = 3.60969 3.99394 3.80666
# Velocity P-wave (km/s) = 6.56728 7.17879 6.87983
#
# Compressibility (1/GPa) = 0.02054632
#
# Stress axis : x y z
#
# Youngs Moduli (GPa) = 65.69251 75.54367 35.55684
#
# Poissons Ratio (x) = 0.05150 0.48402
# Poissons Ratio (y) = 0.04478 0.13242
# Poissons Ratio (z) = 0.89425 0.28135
#
# Static dielectric constant tensor:
#      x y z
#    x 3.604520 0.139270 -0.180770 
#    y 0.139270 3.384650 -0.091280 
#    z -0.180770 -0.091280 3.484690 
# 
# 
# High freq. dielectric constant tensor:
#      x y z
#    x 1.743450 0.004430 -0.005650 
#    y 0.004430 1.728330 -0.005680 
#    z -0.005650 -0.005680 1.717340 
# 
# From -- ./inp_files/448362.got.cif
#   From: 2010.06.25/outbox.cif.g09.slc.cpg/sg2_225_cif.got.tgz:448362.got - 2010.06.27 13:26:56.
