data_PCOD8004318
_publ_section_title
;
Structure prediction by ZEFSAII (Michael W. Deem and Ramdas Pophale) SiO2 
 PCOD8004318
Probable space group: P -1
;
_chemical_formula_sum "Si O2"
_cell_formula_units_Z 16
_cell_length_a 15.822824
_cell_length_b 10.334892
_cell_length_c 15.002127
_cell_angle_alpha 143.782222
_cell_angle_beta 145.981608
_cell_angle_gamma 36.203198
_cell_volume 736.646595
_symmetry_space_group_name_H-M "P -1"
_symmetry_group_IT_number 2
_symmetry_cell_setting 'triclinic'
loop_
_space_group_symop_operation_xyz
x,y,z
-x,-y,-z
loop_
_atom_site_type_symbol
_atom_site_label
_atom_site_fract_x
_atom_site_fract_y
_atom_site_fract_z
Si Si1 0.940780 0.785475 0.596471
Si Si2 0.080293 0.487322 0.204029
Si Si3 0.098173 0.120031 0.869209
Si Si4 0.632925 0.920541 0.287158
Si Si5 0.584791 0.841072 0.613878
Si Si6 0.224039 0.479161 0.952957
Si Si7 0.403003 0.168025 0.086770
Si Si8 0.282796 0.916558 0.280294
O O1 0.807815 0.897017 0.463208
O O2 0.000000 0.500000 0.500000
O O3 0.865987 0.896619 0.687533
O O4 0.085551 0.868562 0.741589
O O5 0.272614 0.400733 0.353251
O O6 0.030532 0.732375 0.239926
O O7 0.055903 0.283325 0.010969
O O8 0.957142 0.528808 0.205011
O O9 0.285196 0.056482 0.966965
O O10 0.510405 0.949174 0.279727
O O11 0.536847 0.161914 0.275958
O O12 0.664244 0.691385 0.123303
O O13 0.448851 0.775303 0.406739
O O14 0.680485 0.938302 0.684703
O O15 0.297225 0.421406 0.087294
O O16 0.217993 0.740046 0.075199
O O17 0.500000 0.000000 0.000000
#
# Coordination Sequence:
#
# PCOD8004318 Si02
#       8
#     2   2   2   2   2   2   2   2
#     4  11  25  43  61  90 130 167 209 260 310 367
#     4  10  20  37  68  93 119 155 215 254 308 369
#     4  10  20  40  65  93 121 165 206 259 311 369
#     4  10  22  41  61  90 127 161 208 254 310 375
#     4  10  22  40  60  89 128 164 204 258 307 374
#     4  10  21  39  65  92 123 161 202 262 309 369
#     4   9  19  40  61  94 127 153 202 262 311 368
#     4  10  23  42  60  87 127 166 212 254 309 366
#
# _framework density 21.720050000000001
#
# number of rings (size 3 to 8) (size 9 to 14) (size 15 to 20)
#    0.000    2.000    2.500    0.000    1.750    3.000 
#   13.500    8.125    0.000    0.000    0.000    0.000 
#    0.000    0.000    0.000    0.000    0.000    0.000 
#
# Total GULP energy -198234.023693 kJ/mol
# GULP energy per Si atom -12389.626481 kJ/mol
# Density = 2.167061 g / cm^3
# Si number density = 21.720050 Si / 1000 Ang^3
#
#
#
# Elastic Constant Matrix: (Units=GPa)
#
#
# Indices 1 2 3 4 5 6 
#
# 1 116.3301 18.5130 27.3994 5.1128 -2.0422 -10.2411
# 2 18.5130 63.6962 14.3443 -7.1822 5.1661 -9.5749
# 3 27.3994 14.3443 40.8438 10.9173 -0.8162 5.4138
# 4 5.1128 -7.1822 10.9173 38.5165 5.3526 0.7420
# 5 -2.0422 5.1661 -0.8162 5.3526 31.5920 1.3684
# 6 -10.2411 -9.5749 5.4138 0.7420 1.3684 28.9793
#
#
#
# Elastic Compliance Matrix: (Units=1/GPa)
#
#
# Indices 1 2 3 4 5 6 
#
# 1 0.011011 -0.000578 -0.008014 0.000564 0.000280 0.005170
# 2 -0.000578 0.020690 -0.010091 0.007366 -0.005301 0.008579
# 3 -0.008014 -0.010091 0.038502 -0.012137 0.004758 -0.013273
# 4 0.000564 0.007366 -0.012137 0.031593 -0.007026 0.004423
# 5 0.000280 -0.005301 0.004758 -0.007026 0.034024 -0.003968
# 6 0.005170 0.008579 -0.013273 0.004423 -0.003968 0.041722
#
#
# Mechanical properties :
#
#
# Convention : Reuss Voigt Hill
#
# Bulk Modulus (GPa) = 30.45262 37.93150 34.19206
# Shear Modulus (GPa) = 22.13831 30.52513 26.33172
#
# Velocity S-wave (km/s) = 3.19604 3.75292 3.48562
# Velocity P-wave (km/s) = 5.26028 6.02337 5.65471
#
# Compressibility (1/GPa) = 0.03283790
#
# Stress axis : x y z
#
# Youngs Moduli (GPa) = 90.81863 48.33269 25.97273
#
# Poissons Ratio (x) = 0.02791 0.20815
# Poissons Ratio (y) = 0.05245 0.26209
# Poissons Ratio (z) = 0.72783 0.48772
#
# Static dielectric constant tensor:
#      x y z
#    x 4.153070 0.117340 -0.183160 
#    y 0.117340 4.254910 -0.434500 
#    z -0.183160 -0.434500 3.619950 
# 
# 
# High freq. dielectric constant tensor:
#      x y z
#    x 1.872290 -0.005730 -0.007280 
#    y -0.005730 1.849350 -0.026920 
#    z -0.007280 -0.026920 1.820230 
# 
# From -- ./inp_files/202107.got.cif
#   From: 2010.06.25/outbox.cif.g09.slc.cpg/sg2_102_cif.got.tgz:202107.got - 2010.06.27 13:26:56.
