data_PCOD8004988
_publ_section_title
;
Structure prediction by ZEFSAII (Michael W. Deem and Ramdas Pophale) SiO2 
 PCOD8004988
Probable space group: P -1
;
_chemical_formula_sum "Si O2"
_cell_formula_units_Z 16
_cell_length_a 18.280429
_cell_length_b 9.187957
_cell_length_c 8.669072
_cell_angle_alpha 103.777092
_cell_angle_beta 122.541448
_cell_angle_gamma 39.767982
_cell_volume 742.527991
_symmetry_space_group_name_H-M "P -1"
_symmetry_group_IT_number 2
_symmetry_cell_setting 'triclinic'
loop_
_space_group_symop_operation_xyz
x,y,z
-x,-y,-z
loop_
_atom_site_type_symbol
_atom_site_label
_atom_site_fract_x
_atom_site_fract_y
_atom_site_fract_z
Si Si1 0.363378 0.286390 0.097760
Si Si2 0.844090 0.879270 0.942049
Si Si3 0.835371 0.198904 0.877786
Si Si4 0.188887 0.327945 0.706421
Si Si5 0.044108 0.456864 0.281165
Si Si6 0.577892 0.203500 0.166583
Si Si7 0.434562 0.878980 0.197454
Si Si8 0.406498 0.550921 0.539998
O O1 0.234521 0.550155 0.091830
O O2 0.488353 0.230377 0.194867
O O3 0.424382 0.073167 0.223733
O O4 0.305920 0.292022 0.874710
O O5 0.860315 0.791082 0.765123
O O6 0.814949 0.096520 0.956776
O O7 0.721054 0.966756 0.914058
O O8 0.983190 0.658815 0.142093
O O9 0.753932 0.253032 0.644930
O O10 0.000000 0.000000 0.000000
O O11 0.131489 0.437942 0.497907
O O12 0.068745 0.488904 0.739710
O O13 0.262362 0.066810 0.720128
O O14 0.581659 0.368657 0.269983
O O15 0.512118 0.269959 0.938974
O O16 0.532313 0.695253 0.404340
O O17 0.500000 0.500000 0.500000
#
# Coordination Sequence:
#
# PCOD8004988 Si02
#       8
#     2   2   2   2   2   2   2   2
#     4  11  23  44  65  96 140 170 219 287 334 391
#     4  11  21  42  66  95 133 178 226 277 325 398
#     4  12  27  45  64  97 140 176 216 283 338 390
#     4  10  20  38  63  97 129 174 217 267 333 393
#     4  10  21  36  66  96 129 175 225 262 327 406
#     4  11  22  43  70  96 133 170 226 286 330 396
#     4  11  23  42  72  99 129 177 226 274 337 395
#     4  12  24  46  70  99 129 179 229 272 335 405
#
# _framework density 21.548010999999999
#
# number of rings (size 3 to 8) (size 9 to 14) (size 15 to 20)
#    0.000    1.000    5.000    3.375    1.750    1.500 
#    4.500    0.625    0.000    0.000    0.000    0.000 
#    0.000    0.000    0.000    0.000    0.000    0.000 
#
# Total GULP energy -198355.638168 kJ/mol
# GULP energy per Si atom -12397.227386 kJ/mol
# Density = 2.149897 g / cm^3
# Si number density = 21.548011 Si / 1000 Ang^3
#
#
#
# Elastic Constant Matrix: (Units=GPa)
#
#
# Indices 1 2 3 4 5 6 
#
# 1 85.7109 38.9454 38.8876 -8.3033 -3.1688 3.8662
# 2 38.9454 111.8632 33.9729 -0.8704 -9.2884 11.2620
# 3 38.8876 33.9729 101.9301 -14.1553 -6.6670 18.3661
# 4 -8.3033 -0.8704 -14.1553 33.5925 -0.6638 -1.4737
# 5 -3.1688 -9.2884 -6.6670 -0.6638 34.2298 -4.9217
# 6 3.8662 11.2620 18.3661 -1.4737 -4.9217 37.7865
#
#
#
# Elastic Compliance Matrix: (Units=1/GPa)
#
#
# Indices 1 2 3 4 5 6 
#
# 1 0.015846 -0.004290 -0.004731 0.001894 -0.000296 0.001992
# 2 -0.004290 0.011351 -0.001911 -0.001611 0.002019 -0.001815
# 3 -0.004731 -0.001911 0.013909 0.004426 0.001063 -0.005396
# 4 0.001894 -0.001611 0.004426 0.032063 0.001155 -0.000464
# 5 -0.000296 0.002019 0.001063 0.001155 0.030383 0.002915
# 6 0.001992 -0.001815 -0.005396 -0.000464 0.002915 0.029786
#
#
# Mechanical properties :
#
#
# Convention : Reuss Voigt Hill
#
# Bulk Modulus (GPa) = 51.97121 58.12401 55.04761
# Shear Modulus (GPa) = 30.93762 33.63498 32.28630
#
# Velocity S-wave (km/s) = 3.79324 3.95515 3.87504
# Velocity P-wave (km/s) = 6.58453 6.92029 6.75450
#
# Compressibility (1/GPa) = 0.01924142
#
# Stress axis : x y z
#
# Youngs Moduli (GPa) = 63.10919 88.09446 71.89656
#
# Poissons Ratio (x) = 0.37795 0.34012
# Poissons Ratio (y) = 0.27076 0.13741
# Poissons Ratio (z) = 0.29855 0.16837
#
# Static dielectric constant tensor:
#      x y z
#    x 3.709970 0.002980 -0.078770 
#    y 0.002980 4.130550 0.010670 
#    z -0.078770 0.010670 3.989980 
# 
# 
# High freq. dielectric constant tensor:
#      x y z
#    x 1.829040 -0.002550 -0.005440 
#    y -0.002550 1.854170 -0.006970 
#    z -0.005440 -0.006970 1.848210 
# 
# From -- ./inp_files/256843.got.cif
#   From: 2010.06.25/outbox.cif.g09.slc.cpg/sg2_129_cif.got.tgz:256843.got - 2010.06.27 13:26:56.
