data_PCOD8004179
_publ_section_title
;
Structure prediction by ZEFSAII (Michael W. Deem and Ramdas Pophale) SiO2 
 PCOD8004179
Probable space group: P -1
;
_chemical_formula_sum "Si O2"
_cell_formula_units_Z 16
_cell_length_a 18.868332
_cell_length_b 8.470961
_cell_length_c 7.768141
_cell_angle_alpha 126.874751
_cell_angle_beta 91.362061
_cell_angle_gamma 121.535431
_cell_volume 735.463002
_symmetry_space_group_name_H-M "P -1"
_symmetry_group_IT_number 2
_symmetry_cell_setting 'triclinic'
loop_
_space_group_symop_operation_xyz
x,y,z
-x,-y,-z
loop_
_atom_site_type_symbol
_atom_site_label
_atom_site_fract_x
_atom_site_fract_y
_atom_site_fract_z
Si Si1 0.857976 0.381025 0.439629
Si Si2 0.310628 0.984882 0.286312
Si Si3 0.837492 0.557345 0.915861
Si Si4 0.668185 0.158430 0.143763
Si Si5 0.965573 0.933255 0.760929
Si Si6 0.781576 0.859244 0.198660
Si Si7 0.769474 0.745832 0.513604
Si Si8 0.602264 0.789904 0.195619
O O1 0.832973 0.440652 0.657580
O O2 0.769864 0.240498 0.214719
O O3 0.947165 0.664135 0.542101
O O4 0.867805 0.166141 0.338238
O O5 0.277394 0.143750 0.340759
O O6 0.373385 0.091049 0.533178
O O7 0.215011 0.674725 0.098924
O O8 0.372898 0.004553 0.146997
O O9 0.782736 0.664244 0.956422
O O10 0.944440 0.802692 0.162550
O O11 0.685109 0.425163 0.314802
O O12 0.601266 0.972022 0.180036
O O13 0.867017 0.870902 0.699747
O O14 0.000000 0.000000 0.000000
O O15 0.802846 0.838272 0.381043
O O16 0.679311 0.774598 0.123601
O O17 0.500000 0.500000 0.000000
#
# Coordination Sequence:
#
# PCOD8004179 Si02
#       8
#     2   2   2   2   2   2   2   2
#     4   9  19  39  55  86 126 161 200 255 289 349
#     4  11  22  40  65  88 123 164 200 249 303 363
#     4  11  19  37  60  83 123 164 201 250 293 349
#     4  10  20  38  65  88 118 159 198 241 309 364
#     4   9  21  34  54  86 124 162 214 248 286 348
#     4  10  20  37  65  84 118 164 202 241 321 357
#     4  10  20  38  59  87 124 165 201 247 297 350
#     4  10  23  45  67  91 123 151 195 259 308 370
#
# _framework density 21.755002000000001
#
# number of rings (size 3 to 8) (size 9 to 14) (size 15 to 20)
#    0.000    2.000    5.000    0.000    0.000    8.000 
#    0.000    3.125    0.000    0.000    0.000    0.000 
#    0.000    0.000    0.000    0.000    0.000    0.000 
#
# Total GULP energy -198229.848554 kJ/mol
# GULP energy per Si atom -12389.365535 kJ/mol
# Density = 2.170549 g / cm^3
# Si number density = 21.755002 Si / 1000 Ang^3
#
#
#
# Elastic Constant Matrix: (Units=GPa)
#
#
# Indices 1 2 3 4 5 6 
#
# 1 60.5225 28.4971 39.2001 13.6575 -15.5681 -13.4901
# 2 28.4971 120.8377 60.5293 29.2960 2.5278 -25.8953
# 3 39.2001 60.5293 99.2754 23.1916 -6.7512 -5.0134
# 4 13.6575 29.2960 23.1916 39.6718 -3.2360 -6.5987
# 5 -15.5681 2.5278 -6.7512 -3.2360 35.9188 12.1000
# 6 -13.4901 -25.8953 -5.0134 -6.5987 12.1000 27.8325
#
#
#
# Elastic Compliance Matrix: (Units=1/GPa)
#
#
# Indices 1 2 3 4 5 6 
#
# 1 0.026364 0.000687 -0.009463 -0.002127 0.006599 0.008341
# 2 0.000687 0.018885 -0.010116 -0.005919 -0.009854 0.018962
# 3 -0.009463 -0.010116 0.020317 -0.002943 0.004548 -0.013013
# 4 -0.002127 -0.005919 -0.002943 0.032140 0.001935 -0.000289
# 5 0.006599 -0.009854 0.004548 0.001935 0.039838 -0.022011
# 6 0.008341 0.018962 -0.013013 -0.000289 -0.022011 0.064771
#
#
# Mechanical properties :
#
#
# Convention : Reuss Voigt Hill
#
# Bulk Modulus (GPa) = 35.99170 59.67652 47.83411
# Shear Modulus (GPa) = 20.05144 30.84522 25.44833
#
# Velocity S-wave (km/s) = 3.03923 3.76951 3.42390
# Velocity P-wave (km/s) = 5.37549 6.81442 6.13728
#
# Compressibility (1/GPa) = 0.02778418
#
# Stress axis : x y z
#
# Youngs Moduli (GPa) = 37.93000 52.95119 49.22063
#
# Poissons Ratio (x) = -0.03640 0.46576
# Poissons Ratio (y) = -0.02607 0.49791
# Poissons Ratio (z) = 0.35892 0.53564
#
# Static dielectric constant tensor:
#      x y z
#    x 3.648790 -0.146260 -0.081620 
#    y -0.146260 4.792890 0.437090 
#    z -0.081620 0.437090 4.088130 
# 
# 
# High freq. dielectric constant tensor:
#      x y z
#    x 1.812590 -0.021510 -0.011480 
#    y -0.021510 1.870510 0.008980 
#    z -0.011480 0.008980 1.857350 
# 
# From -- ./inp_files/329594.got.cif
#   From: 2010.06.25/outbox.cif.g09.slc.cpg/sg2_165_cif.got.tgz:329594.got - 2010.06.27 13:26:56.
