data_PCOD8004387
_publ_section_title
;
Structure prediction by ZEFSAII (Michael W. Deem and Ramdas Pophale) SiO2 
 PCOD8004387
Probable space group: P -1
;
_chemical_formula_sum "Si O2"
_cell_formula_units_Z 14
_cell_length_a 14.020878
_cell_length_b 11.390881
_cell_length_c 11.108659
_cell_angle_alpha 94.049985
_cell_angle_beta 30.582162
_cell_angle_gamma 112.143165
_cell_volume 704.385331
_symmetry_space_group_name_H-M "P -1"
_symmetry_group_IT_number 2
_symmetry_cell_setting 'triclinic'
loop_
_space_group_symop_operation_xyz
x,y,z
-x,-y,-z
loop_
_atom_site_type_symbol
_atom_site_label
_atom_site_fract_x
_atom_site_fract_y
_atom_site_fract_z
Si Si1 0.965575 0.225336 0.854520
Si Si2 0.761391 0.804800 0.002641
Si Si3 0.505941 0.521488 0.637723
Si Si4 0.442288 0.759059 0.751084
Si Si5 0.718435 0.015418 0.630448
Si Si6 0.704100 0.981669 0.917479
Si Si7 0.686039 0.965819 0.293569
O O1 0.232590 0.377023 0.579583
O O2 0.797004 0.273641 0.040023
O O3 0.901425 0.121278 0.799863
O O4 0.932975 0.130869 0.003798
O O5 0.639288 0.631702 0.141423
O O6 0.697551 0.839947 0.945847
O O7 0.650004 0.852262 0.223272
O O8 0.047786 0.893966 0.702275
O O9 0.500000 0.500000 0.500000
O O10 0.385599 0.599846 0.799890
O O11 0.533716 0.835629 0.788626
O O12 0.669911 0.889240 0.430317
O O13 0.564744 0.073266 0.775838
O O14 0.795428 0.035622 0.686729
O O15 0.500000 0.000000 0.500000
#
# Coordination Sequence:
#
# PCOD8004387 Si02
#       7
#     2   2   2   2   2   2   2
#     4   9  21  38  60  80 117 154 192 247 289 337
#     4  11  22  37  58  88 120 155 192 241 293 347
#     4  12  25  37  52  87 127 161 189 225 293 362
#     4  10  20  38  57  85 115 153 196 239 290 340
#     4  10  21  38  70  88 110 149 202 253 286 345
#     4   9  20  43  64  91 110 146 203 252 297 328
#     4   9  18  36  58  83 109 150 199 243 287 328
#
# _framework density 19.875484
#
# number of rings (size 3 to 8) (size 9 to 14) (size 15 to 20)
#    0.000    2.000    1.429    3.000    2.000    2.857 
#    0.000    2.857    0.000    5.143    0.000    0.000 
#    0.000    0.000    0.000    0.000    0.000    0.000 
#
# Total GULP energy -173432.836622 kJ/mol
# GULP energy per Si atom -12388.059759 kJ/mol
# Density = 1.983025 g / cm^3
# Si number density = 19.875484 Si / 1000 Ang^3
#
#
#
# Elastic Constant Matrix: (Units=GPa)
#
#
# Indices 1 2 3 4 5 6 
#
# 1 85.2655 43.6492 37.0603 -11.0624 -7.8557 -7.2252
# 2 43.6492 123.0892 42.6106 -8.4477 4.2761 -28.4278
# 3 37.0603 42.6106 70.2576 -6.8099 0.0646 -13.2134
# 4 -11.0624 -8.4477 -6.8099 29.6613 0.7248 5.5195
# 5 -7.8557 4.2761 0.0646 0.7248 17.4795 1.7976
# 6 -7.2252 -28.4278 -13.2134 5.5195 1.7976 34.4238
#
#
#
# Elastic Compliance Matrix: (Units=1/GPa)
#
#
# Indices 1 2 3 4 5 6 
#
# 1 0.018556 -0.005180 -0.007040 0.004388 0.009893 -0.004306
# 2 -0.005180 0.013580 -0.003837 -0.000474 -0.006549 0.009072
# 3 -0.007040 -0.003837 0.020978 0.000519 -0.002680 0.003463
# 4 0.004388 -0.000474 0.000519 0.036265 0.001111 -0.005144
# 5 0.009893 -0.006549 -0.002680 0.001111 0.064033 -0.007883
# 6 -0.004306 0.009072 0.003463 -0.005144 -0.007883 0.038203
#
#
# Mechanical properties :
#
#
# Convention : Reuss Voigt Hill
#
# Bulk Modulus (GPa) = 47.62062 58.36138 52.99100
# Shear Modulus (GPa) = 21.67048 26.66572 24.16810
#
# Velocity S-wave (km/s) = 3.30557 3.66681 3.49087
# Velocity P-wave (km/s) = 6.21132 6.88147 6.55497
#
# Compressibility (1/GPa) = 0.02099930
#
# Stress axis : x y z
#
# Youngs Moduli (GPa) = 53.89198 73.63925 47.66888
#
# Poissons Ratio (x) = 0.38145 0.33558
# Poissons Ratio (y) = 0.27916 0.18292
# Poissons Ratio (z) = 0.37939 0.28257
#
# Static dielectric constant tensor:
#      x y z
#    x 3.765450 -0.149040 0.107540 
#    y -0.149040 3.693610 0.205570 
#    z 0.107540 0.205570 3.576460 
# 
# 
# High freq. dielectric constant tensor:
#      x y z
#    x 1.778310 -0.010990 -0.007490 
#    y -0.010990 1.771680 0.022400 
#    z -0.007490 0.022400 1.763750 
# 
# From -- ./inp_files/257837.got.cif
#   From: 2010.06.25/outbox.cif.g09.slc.cpg/sg2_129_cif.got.tgz:257837.got - 2010.06.27 13:26:56.
