data_PCOD8004233
_publ_section_title
;
Structure prediction by ZEFSAII (Michael W. Deem and Ramdas Pophale) SiO2 
 PCOD8004233
Probable space group: P -1
;
_chemical_formula_sum "Si O2"
_cell_formula_units_Z 16
_cell_length_a 8.890019
_cell_length_b 9.086030
_cell_length_c 20.847087
_cell_angle_alpha 63.101756
_cell_angle_beta 150.993472
_cell_angle_gamma 115.780692
_cell_volume 725.200055
_symmetry_space_group_name_H-M "P -1"
_symmetry_group_IT_number 2
_symmetry_cell_setting 'triclinic'
loop_
_space_group_symop_operation_xyz
x,y,z
-x,-y,-z
loop_
_atom_site_type_symbol
_atom_site_label
_atom_site_fract_x
_atom_site_fract_y
_atom_site_fract_z
Si Si1 0.616462 0.514462 0.113603
Si Si2 0.660498 0.955517 0.462790
Si Si3 0.687605 0.722501 0.851736
Si Si4 0.644056 0.954344 0.318042
Si Si5 0.253008 0.924279 0.068170
Si Si6 0.708995 0.741916 0.711525
Si Si7 0.432506 0.848100 0.959636
Si Si8 0.290300 0.391971 0.392209
O O1 0.371266 0.428132 0.090506
O O2 0.947508 0.447393 0.260834
O O3 0.500000 0.500000 0.000000
O O4 0.635915 0.710959 0.094050
O O5 0.701279 0.802595 0.553651
O O6 0.990430 0.057121 0.551462
O O7 0.528285 0.884036 0.358484
O O8 0.439714 0.082776 0.387015
O O9 0.455309 0.857783 0.758986
O O10 0.621157 0.666203 0.764154
O O11 0.060082 0.788769 0.977756
O O12 0.482209 0.845468 0.220561
O O13 0.440707 0.083619 0.074568
O O14 0.000000 0.000000 0.000000
O O15 0.597856 0.604424 0.641982
O O16 0.077314 0.779397 0.832172
O O17 0.500000 0.000000 0.000000
O O18 0.500000 0.500000 0.500000
#
# Coordination Sequence:
#
# PCOD8004233 Si02
#       8
#     2   2   2   2   2   2   2   2
#     4  12  25  47  73  97 148 187 229 290 355 416
#     4  10  21  41  71  95 136 181 229 285 347 412
#     4  10  21  41  70 102 139 183 230 290 356 406
#     4   9  18  37  67  99 133 179 227 282 341 421
#     4  10  20  37  66 103 134 172 236 278 338 428
#     4  11  24  46  69 102 142 181 236 296 348 416
#     4  12  25  44  68 104 138 182 234 287 348 418
#     4  12  27  45  67 103 137 189 233 287 360 422
#
# _framework density 22.062878000000001
#
# number of rings (size 3 to 8) (size 9 to 14) (size 15 to 20)
#    0.000    1.250    3.750    2.625    1.750    1.500 
#    0.000    0.625    0.000    0.000    0.000    0.000 
#    0.000    0.000    0.000    0.000    0.000    0.000 
#
# Total GULP energy -198237.570472 kJ/mol
# GULP energy per Si atom -12389.848154 kJ/mol
# Density = 2.201266 g / cm^3
# Si number density = 22.062878 Si / 1000 Ang^3
#
#
#
# Elastic Constant Matrix: (Units=GPa)
#
#
# Indices 1 2 3 4 5 6 
#
# 1 128.5677 50.1039 52.5941 1.1272 -16.0800 3.1039
# 2 50.1039 78.1710 41.9482 -6.9548 -11.1985 -8.4916
# 3 52.5941 41.9482 122.6488 -2.6566 -13.6486 -1.1607
# 4 1.1272 -6.9548 -2.6566 30.0456 -6.2148 -4.1348
# 5 -16.0800 -11.1985 -13.6486 -6.2148 39.3553 3.0566
# 6 3.1039 -8.4916 -1.1607 -4.1348 3.0566 31.9405
#
#
#
# Elastic Compliance Matrix: (Units=1/GPa)
#
#
# Indices 1 2 3 4 5 6 
#
# 1 0.011700 -0.006326 -0.002716 -0.002206 0.001953 -0.003390
# 2 -0.006326 0.020484 -0.003839 0.006019 0.002360 0.006474
# 3 -0.002716 -0.003839 0.010821 0.000449 0.001658 -0.000464
# 4 -0.002206 0.006019 0.000449 0.036935 0.006333 0.006006
# 5 0.001953 0.002360 0.001658 0.006333 0.028564 -0.001416
# 6 -0.003390 0.006474 -0.000464 0.006006 -0.001416 0.034255
#
#
# Mechanical properties :
#
#
# Convention : Reuss Voigt Hill
#
# Bulk Modulus (GPa) = 57.99564 68.74222 63.36893
# Shear Modulus (GPa) = 28.69127 32.58435 30.63781
#
# Velocity S-wave (km/s) = 3.61006 3.84720 3.73051
# Velocity P-wave (km/s) = 6.61213 7.13860 6.88040
#
# Compressibility (1/GPa) = 0.01724268
#
# Stress axis : x y z
#
# Youngs Moduli (GPa) = 85.47050 48.81794 92.41495
#
# Poissons Ratio (x) = 0.30884 0.25099
# Poissons Ratio (y) = 0.54072 0.35477
# Poissons Ratio (z) = 0.23213 0.18741
#
# Static dielectric constant tensor:
#      x y z
#    x 4.431300 -0.896100 -0.984610 
#    y -0.896100 4.943780 1.413520 
#    z -0.984610 1.413520 5.757490 
# 
# 
# High freq. dielectric constant tensor:
#      x y z
#    x 1.885900 -0.005650 -0.014370 
#    y -0.005650 1.829630 -0.007210 
#    z -0.014370 -0.007210 1.881930 
# 
# From -- ./inp_files/587954.got.cif
#   From: 2010.06.25/outbox.cif.g09.slc.cpg/sg2_294_cif.got.tgz:587954.got - 2010.06.27 13:26:56.
