data_PCOD8004082
_publ_section_title
;
Structure prediction by ZEFSAII (Michael W. Deem and Ramdas Pophale) SiO2 
 PCOD8004082
Probable space group: P -1
;
_chemical_formula_sum "Si O2"
_cell_formula_units_Z 16
_cell_length_a 9.282782
_cell_length_b 5.100625
_cell_length_c 19.758560
_cell_angle_alpha 113.148370
_cell_angle_beta 49.910979
_cell_angle_gamma 102.016099
_cell_volume 656.752105
_symmetry_space_group_name_H-M "P -1"
_symmetry_group_IT_number 2
_symmetry_cell_setting 'triclinic'
loop_
_space_group_symop_operation_xyz
x,y,z
-x,-y,-z
loop_
_atom_site_type_symbol
_atom_site_label
_atom_site_fract_x
_atom_site_fract_y
_atom_site_fract_z
Si Si1 0.870626 0.763700 0.041891
Si Si2 0.261285 0.077245 0.162919
Si Si3 0.300018 0.046545 0.532843
Si Si4 0.212136 0.929411 0.404175
Si Si5 0.184520 0.421367 0.098258
Si Si6 0.143417 0.690575 0.656485
Si Si7 0.379997 0.322517 0.281814
Si Si8 0.235852 0.778205 0.781453
O O1 0.758547 0.905004 0.154204
O O2 0.741105 0.658994 0.008447
O O3 0.000000 0.500000 0.000000
O O4 0.000000 0.000000 0.000000
O O5 0.310508 0.204054 0.086846
O O6 0.409680 0.141880 0.184012
O O7 0.075008 0.273865 0.257150
O O8 0.223588 0.745213 0.136655
O O9 0.208083 0.363172 0.594869
O O10 0.500000 0.000000 0.500000
O O11 0.337306 0.951905 0.435358
O O12 0.165041 0.850098 0.595327
O O13 0.252090 0.608959 0.332100
O O14 0.266398 0.146640 0.352323
O O15 0.000000 0.000000 0.500000
O O16 0.958073 0.380812 0.164042
O O17 0.262415 0.813381 0.696044
O O18 0.584299 0.397299 0.257081
#
# Coordination Sequence:
#
# PCOD8004082 Si02
#       8
#     2   2   2   2   2   2   2   2
#     4  10  20  37  63  94 126 163 203 246 300 367
#     4  11  22  40  62  88 121 162 205 246 299 369
#     4  12  23  37  56  83 113 148 194 250 303 355
#     4  12  25  43  62  86 122 167 206 250 312 379
#     4  10  21  40  64  91 124 166 205 241 298 373
#     4  11  21  37  58  82 113 155 195 242 299 362
#     4  12  25  42  64  94 124 159 207 264 310 356
#     4  10  23  40  65  96 125 158 206 261 305 355
#
# _framework density 24.362314999999999
#
# number of rings (size 3 to 8) (size 9 to 14) (size 15 to 20)
#    0.000    1.000    0.000    9.000    0.000    5.000 
#    0.000    1.250    0.000    0.000    0.000    0.000 
#    0.000    0.000    0.000    0.000    0.000    0.000 
#
# Total GULP energy -198327.524525 kJ/mol
# GULP energy per Si atom -12395.470283 kJ/mol
# Density = 2.430687 g / cm^3
# Si number density = 24.362315 Si / 1000 Ang^3
#
#
#
# Elastic Constant Matrix: (Units=GPa)
#
#
# Indices 1 2 3 4 5 6 
#
# 1 108.8226 15.8101 12.4811 -4.3674 31.9262 2.9514
# 2 15.8101 138.9966 27.5042 20.3477 9.4714 -16.1301
# 3 12.4811 27.5042 58.3462 23.1958 33.1701 5.0913
# 4 -4.3674 20.3477 23.1958 34.8143 -6.1599 8.2803
# 5 31.9262 9.4714 33.1701 -6.1599 53.0460 3.7558
# 6 2.9514 -16.1301 5.0913 8.2803 3.7558 33.2740
#
#
#
# Elastic Compliance Matrix: (Units=1/GPa)
#
#
# Indices 1 2 3 4 5 6 
#
# 1 0.011728 -0.001290 0.005277 -0.003008 -0.010439 -0.000546
# 2 -0.001290 0.009442 -0.001505 -0.006474 -0.001192 0.006667
# 3 0.005277 -0.001505 0.066631 -0.053795 -0.051371 0.007792
# 4 -0.003008 -0.006474 -0.053795 0.081174 0.047461 -0.020198
# 5 -0.010439 -0.001192 -0.051371 0.047461 0.063746 -0.010798
# 6 -0.000546 0.006667 0.007792 -0.020198 -0.010798 0.038387
#
#
# Mechanical properties :
#
#
# Convention : Reuss Voigt Hill
#
# Bulk Modulus (GPa) = 10.77993 46.41737 28.59865
# Shear Modulus (GPa) = 16.83139 40.91819 28.87479
#
# Velocity S-wave (km/s) = 2.63131 4.10270 3.44644
# Velocity P-wave (km/s) = 3.69678 6.44493 5.25373
#
# Compressibility (1/GPa) = 0.09276499
#
# Stress axis : x y z
#
# Youngs Moduli (GPa) = 85.26573 105.91350 15.00808
#
# Poissons Ratio (x) = 0.13663 -0.07920
# Poissons Ratio (y) = 0.10999 0.02259
# Poissons Ratio (z) = -0.44998 0.15941
#
# Static dielectric constant tensor:
#      x y z
#    x 8.125710 -2.417780 4.744650 
#    y -2.417780 5.848060 -2.756090 
#    z 4.744650 -2.756090 9.490310 
# 
# 
# High freq. dielectric constant tensor:
#      x y z
#    x 1.983830 -0.014320 0.024020 
#    y -0.014320 1.963720 0.012180 
#    z 0.024020 0.012180 1.970880 
# 
# From -- ./inp_files/585832.got.cif
#   From: 2010.06.25/outbox.cif.g09.slc.cpg/sg2_293_cif.got.tgz:585832.got - 2010.06.27 13:26:56.
