data_PCOD8004111
_publ_section_title
;
Structure prediction by ZEFSAII (Michael W. Deem and Ramdas Pophale) SiO2 
 PCOD8004111
Probable space group: P -1
;
_chemical_formula_sum "Si O2"
_cell_formula_units_Z 16
_cell_length_a 9.062446
_cell_length_b 13.905499
_cell_length_c 12.995279
_cell_angle_alpha 135.696142
_cell_angle_beta 46.623172
_cell_angle_gamma 98.474196
_cell_volume 611.232874
_symmetry_space_group_name_H-M "P -1"
_symmetry_group_IT_number 2
_symmetry_cell_setting 'triclinic'
loop_
_space_group_symop_operation_xyz
x,y,z
-x,-y,-z
loop_
_atom_site_type_symbol
_atom_site_label
_atom_site_fract_x
_atom_site_fract_y
_atom_site_fract_z
Si Si1 0.478639 0.633862 0.721308
Si Si2 0.136541 0.768407 0.307268
Si Si3 0.084550 0.369455 0.263842
Si Si4 0.432678 0.939039 0.083016
Si Si5 0.591157 0.631994 0.443767
Si Si6 0.216246 0.012753 0.539008
Si Si7 0.185527 0.447025 0.061796
Si Si8 0.444657 0.881807 0.527096
O O1 0.417154 0.714457 0.696342
O O2 0.319564 0.566950 0.778601
O O3 0.799411 0.431392 0.411024
O O4 0.413326 0.786000 0.947451
O O5 0.065745 0.831543 0.269373
O O6 0.300511 0.549710 0.068395
O O7 0.854731 0.882919 0.595113
O O8 0.320362 0.810600 0.297145
O O9 0.206775 0.402792 0.137967
O O10 0.000000 0.500000 0.500000
O O11 0.319933 0.153858 0.023576
O O12 0.500000 0.000000 0.000000
O O13 0.402388 0.789292 0.565663
O O14 0.867598 0.594973 0.289435
O O15 0.446384 0.022514 0.408028
O O16 0.167328 0.031251 0.702367
O O17 0.343588 0.266252 0.776144
#
# Coordination Sequence:
#
# PCOD8004111 Si02
#       8
#     2   2   2   2   2   2   2   2
#     4   9  21  38  61  91 118 160 211 251 305 375
#     4  11  23  41  62  90 129 159 211 255 306 371
#     4   9  19  38  60  89 122 160 206 255 305 370
#     4  11  22  36  62  87 123 161 199 257 321 356
#     4  10  20  37  64  88 121 159 209 256 301 372
#     4  10  25  41  60  93 129 163 205 260 309 370
#     4  11  22  38  66  89 120 169 210 250 309 372
#     4  11  23  41  65  89 129 167 205 256 319 360
#
# _framework density 26.176600000000001
#
# number of rings (size 3 to 8) (size 9 to 14) (size 15 to 20)
#    0.000    1.750    1.250    3.375    1.750    4.500 
#    0.000    0.000    0.000    3.750    0.000    0.000 
#    0.000    0.000    0.000    0.000    0.000    0.000 
#
# Total GULP energy -198296.523234 kJ/mol
# GULP energy per Si atom -12393.532702 kJ/mol
# Density = 2.611702 g / cm^3
# Si number density = 26.176600 Si / 1000 Ang^3
#
#
#
# Elastic Constant Matrix: (Units=GPa)
#
#
# Indices 1 2 3 4 5 6 
#
# 1 129.6038 62.6079 4.8034 9.0255 5.9123 -8.5996
# 2 62.6079 174.4945 22.1928 21.0553 4.4048 -22.6427
# 3 4.8034 22.1928 58.1527 0.6752 18.3866 1.5439
# 4 9.0255 21.0553 0.6752 35.8468 3.4581 6.3511
# 5 5.9123 4.4048 18.3866 3.4581 23.9315 14.1843
# 6 -8.5996 -22.6427 1.5439 6.3511 14.1843 60.1057
#
#
#
# Elastic Compliance Matrix: (Units=1/GPa)
#
#
# Indices 1 2 3 4 5 6 
#
# 1 0.009525 -0.003384 0.001565 -0.000267 -0.003417 0.000883
# 2 -0.003384 0.008268 -0.003064 -0.004539 0.000505 0.003070
# 3 0.001565 -0.003064 0.024792 0.002414 -0.021089 0.003154
# 4 -0.000267 -0.004539 0.002414 0.031655 -0.002874 -0.004477
# 5 -0.003417 0.000505 -0.021089 -0.002874 0.068398 -0.015595
# 6 0.000883 0.003070 0.003154 -0.004477 -0.015595 0.021992
#
#
# Mechanical properties :
#
#
# Convention : Reuss Voigt Hill
#
# Bulk Modulus (GPa) = 30.47002 60.16211 45.31607
# Shear Modulus (GPa) = 26.97781 42.15326 34.56553
#
# Velocity S-wave (km/s) = 3.21379 4.01726 3.63778
# Velocity P-wave (km/s) = 5.04348 6.67465 5.91556
#
# Compressibility (1/GPa) = 0.03281915
#
# Stress axis : x y z
#
# Youngs Moduli (GPa) = 104.98216 120.94943 40.33496
#
# Poissons Ratio (x) = 0.40925 -0.06311
# Poissons Ratio (y) = 0.35522 0.12360
# Poissons Ratio (z) = -0.16425 0.37062
#
# Static dielectric constant tensor:
#      x y z
#    x 5.395300 -0.217180 -0.294230 
#    y -0.217180 4.661080 0.243300 
#    z -0.294230 0.243300 4.579610 
# 
# 
# High freq. dielectric constant tensor:
#      x y z
#    x 2.069200 -0.011980 0.001680 
#    y -0.011980 2.051930 0.013110 
#    z 0.001680 0.013110 2.027380 
# 
# From -- ./inp_files/505561.got.cif
#   From: 2010.06.25/outbox.cif.g09.slc.cpg/sg2_253_cif.got.tgz:505561.got - 2010.06.27 13:26:56.
