data_PCOD8004013
_publ_section_title
;
Structure prediction by ZEFSAII (Michael W. Deem and Ramdas Pophale) SiO2 
 PCOD8004013
Probable space group: P -1
;
_chemical_formula_sum "Si O2"
_cell_formula_units_Z 12
_cell_length_a 5.116324
_cell_length_b 17.317626
_cell_length_c 12.744904
_cell_angle_alpha 31.504797
_cell_angle_beta 105.565291
_cell_angle_gamma 113.981861
_cell_volume 531.880777
_symmetry_space_group_name_H-M "P -1"
_symmetry_group_IT_number 2
_symmetry_cell_setting 'triclinic'
loop_
_space_group_symop_operation_xyz
x,y,z
-x,-y,-z
loop_
_atom_site_type_symbol
_atom_site_label
_atom_site_fract_x
_atom_site_fract_y
_atom_site_fract_z
Si Si1 0.511342 0.791223 0.550258
Si Si2 0.969772 0.319578 0.203965
Si Si3 0.256135 0.680378 0.232183
Si Si4 0.730946 0.406523 0.442583
Si Si5 0.714848 0.728575 0.061650
Si Si6 0.053900 0.898584 0.717990
O O1 0.285554 0.777849 0.633964
O O2 0.333002 0.721732 0.506764
O O3 0.728416 0.698824 0.708842
O O4 0.677600 0.978770 0.331729
O O5 0.884395 0.250217 0.156114
O O6 0.000000 0.500000 0.000000
O O7 0.400282 0.681980 0.359569
O O8 0.495833 0.769718 0.067723
O O9 0.079561 0.496399 0.392354
O O10 0.028849 0.772632 0.101821
O O11 0.590542 0.539212 0.244580
O O12 0.771461 0.829193 0.843210
O O13 0.000000 0.000000 0.500000
#
# Coordination Sequence:
#
# PCOD8004013 Si02
#       6
#     2   2   2   2   2   2
#     4  11  24  39  63  93 125 166 201 262 314 372
#     4  11  24  42  63  91 122 165 218 258 304 367
#     4   9  21  36  65  89 122 156 206 266 300 362
#     4   9  21  38  64  91 123 154 212 253 316 356
#     4  10  20  37  63  87 118 168 207 246 309 367
#     4  10  24  44  61  89 134 168 203 256 316 368
#
# _framework density 22.561450000000001
#
# number of rings (size 3 to 8) (size 9 to 14) (size 15 to 20)
#    1.000    1.000    0.000    2.500    2.333    6.667 
#    0.000    1.667    0.000    0.000    0.000    0.000 
#    0.000    0.000    0.000    0.000    0.000    0.000 
#
# Total GULP energy -148683.444025 kJ/mol
# GULP energy per Si atom -12390.287002 kJ/mol
# Density = 2.251010 g / cm^3
# Si number density = 22.561450 Si / 1000 Ang^3
#
#
#
# Elastic Constant Matrix: (Units=GPa)
#
#
# Indices 1 2 3 4 5 6 
#
# 1 99.5657 35.2961 13.8440 15.6978 -24.9624 -18.6872
# 2 35.2961 124.2141 44.9110 4.6953 -17.6343 1.1122
# 3 13.8440 44.9110 100.4402 17.3226 -20.1953 -10.8057
# 4 15.6978 4.6953 17.3226 36.9143 -14.7058 -6.5304
# 5 -24.9624 -17.6343 -20.1953 -14.7058 35.7901 10.9988
# 6 -18.6872 1.1122 -10.8057 -6.5304 10.9988 25.9202
#
#
#
# Elastic Compliance Matrix: (Units=1/GPa)
#
#
# Indices 1 2 3 4 5 6 
#
# 1 0.014731 -0.004236 0.002464 -0.003103 0.005644 0.008653
# 2 -0.004236 0.011457 -0.005111 0.002784 0.002851 -0.006185
# 3 0.002464 -0.005111 0.013976 -0.004608 0.003618 0.005126
# 4 -0.003103 0.002784 -0.004608 0.034504 0.010842 -0.000185
# 5 0.005644 0.002851 0.003618 0.010842 0.042850 -0.009997
# 6 0.008653 -0.006185 0.005126 -0.000185 -0.009997 0.051416
#
#
# Mechanical properties :
#
#
# Convention : Reuss Voigt Hill
#
# Bulk Modulus (GPa) = 37.88175 56.92467 47.40321
# Shear Modulus (GPa) = 26.10986 35.06953 30.58970
#
# Velocity S-wave (km/s) = 3.40557 3.94687 3.68617
# Velocity P-wave (km/s) = 5.68250 6.78646 6.25887
#
# Compressibility (1/GPa) = 0.02639794
#
# Stress axis : x y z
#
# Youngs Moduli (GPa) = 67.88538 87.28078 71.55295
#
# Poissons Ratio (x) = 0.36971 -0.17634
# Poissons Ratio (y) = 0.28755 0.36574
# Poissons Ratio (z) = -0.16730 0.44613
#
# Static dielectric constant tensor:
#      x y z
#    x 3.940130 -0.013870 -0.137660 
#    y -0.013870 4.215960 -0.122930 
#    z -0.137660 -0.122930 4.120150 
# 
# 
# High freq. dielectric constant tensor:
#      x y z
#    x 1.880250 -0.006440 -0.011950 
#    y -0.006440 1.871450 0.012660 
#    z -0.011950 0.012660 1.885540 
# 
# From -- ./inp_files/366025.got.cif
#   From: 2010.06.25/outbox.cif.g09.slc.cpg/sg2_184_cif.got.tgz:366025.got - 2010.06.27 13:26:56.
