data_PCOD8004697
_publ_section_title
;
Structure prediction by ZEFSAII (Michael W. Deem and Ramdas Pophale) SiO2 
 PCOD8004697
Probable space group: P -1
;
_chemical_formula_sum "Si O2"
_cell_formula_units_Z 16
_cell_length_a 9.516205
_cell_length_b 18.853579
_cell_length_c 21.234570
_cell_angle_alpha 18.860373
_cell_angle_beta 52.922111
_cell_angle_gamma 64.731302
_cell_volume 815.996713
_symmetry_space_group_name_H-M "P -1"
_symmetry_group_IT_number 2
_symmetry_cell_setting 'triclinic'
loop_
_space_group_symop_operation_xyz
x,y,z
-x,-y,-z
loop_
_atom_site_type_symbol
_atom_site_label
_atom_site_fract_x
_atom_site_fract_y
_atom_site_fract_z
Si Si1 0.577229 0.875202 0.695775
Si Si2 0.464061 0.942080 0.887307
Si Si3 0.928697 0.037127 0.055262
Si Si4 0.364609 0.498186 0.595326
Si Si5 0.742926 0.693048 0.695999
Si Si6 0.223183 0.083433 0.267226
Si Si7 0.600149 0.533295 0.625797
Si Si8 0.481492 0.653158 0.686318
O O1 0.656585 0.829871 0.647185
O O2 0.760786 0.960722 0.626065
O O3 0.545676 0.108923 0.495675
O O4 0.357281 0.607951 0.001484
O O5 0.253083 0.906238 0.947275
O O6 0.591845 0.922519 0.812378
O O7 0.610822 0.222523 0.646415
O O8 0.395863 0.717164 0.146184
O O9 0.837358 0.765734 0.346106
O O10 0.119501 0.272707 0.844352
O O11 0.000000 0.000000 0.000000
O O12 0.500000 0.500000 0.500000
O O13 0.439668 0.449300 0.681878
O O14 0.676745 0.698515 0.637538
O O15 0.996193 0.853606 0.495495
O O16 0.267304 0.373844 0.999847
O O17 0.525509 0.639464 0.612925
#
# Coordination Sequence:
#
# PCOD8004697 Si02
#       8
#     2   2   2   2   2   2   2   2
#     4  10  20  38  61  90 122 161 198 245 293 341
#     4  10  23  40  60  88 120 156 196 246 294 352
#     4  11  22  42  62  86 118 150 194 247 297 355
#     4  11  22  41  60  86 117 147 195 246 293 360
#     4  10  22  37  61  90 123 158 201 243 292 349
#     4  10  22  39  58  88 124 156 202 243 291 352
#     4  10  23  40  60  89 118 156 198 242 299 353
#     4  10  22  39  58  87 124 154 202 246 287 354
#
# _framework density 19.607921000000001
#
# number of rings (size 3 to 8) (size 9 to 14) (size 15 to 20)
#    0.000    1.750    2.500    2.250    0.000    9.500 
#    0.000    0.000    0.000    0.000    0.000    0.000 
#    0.000    0.000    0.000    0.000    0.000    0.000 
#
# Total GULP energy -198433.863517 kJ/mol
# GULP energy per Si atom -12402.116470 kJ/mol
# Density = 1.956329 g / cm^3
# Si number density = 19.607921 Si / 1000 Ang^3
#
#
#
# Elastic Constant Matrix: (Units=GPa)
#
#
# Indices 1 2 3 4 5 6 
#
# 1 106.5741 36.9446 69.1193 2.7922 -19.5510 11.1988
# 2 36.9446 72.4915 26.7374 -4.7877 0.9468 11.4917
# 3 69.1193 26.7374 140.5386 -11.4956 -11.0239 -4.5032
# 4 2.7922 -4.7877 -11.4956 34.5204 -2.2559 2.2494
# 5 -19.5510 0.9468 -11.0239 -2.2559 45.9130 -1.7521
# 6 11.1988 11.4917 -4.5032 2.2494 -1.7521 32.3074
#
#
#
# Elastic Compliance Matrix: (Units=1/GPa)
#
#
# Indices 1 2 3 4 5 6 
#
# 1 0.018185 -0.005980 -0.007865 -0.004249 0.005591 -0.004674
# 2 -0.005980 0.018082 -0.000663 0.002881 -0.003121 -0.004821
# 3 -0.007865 -0.000663 0.011567 0.004105 -0.000193 0.004278
# 4 -0.004249 0.002881 0.004105 0.031191 0.000607 -0.001118
# 5 0.005591 -0.003121 -0.000193 0.000607 0.024225 0.000417
# 6 -0.004674 -0.004821 0.004278 -0.001118 0.000417 0.034984
#
#
# Mechanical properties :
#
#
# Convention : Reuss Voigt Hill
#
# Bulk Modulus (GPa) = 53.13585 65.02297 59.07941
# Shear Modulus (GPa) = 28.81464 35.00170 31.90817
#
# Velocity S-wave (km/s) = 3.83762 4.22960 4.03837
# Velocity P-wave (km/s) = 6.84064 7.55555 7.20697
#
# Compressibility (1/GPa) = 0.01881969
#
# Stress axis : x y z
#
# Youngs Moduli (GPa) = 54.99022 55.30349 86.45043
#
# Poissons Ratio (x) = 0.33070 0.67992
# Poissons Ratio (y) = 0.32883 0.05729
# Poissons Ratio (z) = 0.43249 0.03665
#
# Static dielectric constant tensor:
#      x y z
#    x 3.367190 0.152730 0.124480 
#    y 0.152730 3.558650 -0.103130 
#    z 0.124480 -0.103130 3.870530 
# 
# 
# High freq. dielectric constant tensor:
#      x y z
#    x 1.758330 0.015400 0.002480 
#    y 0.015400 1.769500 -0.007790 
#    z 0.002480 -0.007790 1.778860 
# 
# From -- ./inp_files/590868.got.cif
#   From: 2010.06.25/outbox.cif.g09.slc.cpg/sg2_296_cif.got.tgz:590868.got - 2010.06.27 13:26:56.
