data_PCOD8004918
_publ_section_title
;
Structure prediction by ZEFSAII (Michael W. Deem and Ramdas Pophale) SiO2 
 PCOD8004918
Probable space group: P -1
;
_chemical_formula_sum "Si O2"
_cell_formula_units_Z 16
_cell_length_a 8.797297
_cell_length_b 8.798955
_cell_length_c 22.502696
_cell_angle_alpha 148.372591
_cell_angle_beta 55.730736
_cell_angle_gamma 123.024460
_cell_volume 746.169207
_symmetry_space_group_name_H-M "P -1"
_symmetry_group_IT_number 2
_symmetry_cell_setting 'triclinic'
loop_
_space_group_symop_operation_xyz
x,y,z
-x,-y,-z
loop_
_atom_site_type_symbol
_atom_site_label
_atom_site_fract_x
_atom_site_fract_y
_atom_site_fract_z
Si Si1 0.900581 0.255078 0.983733
Si Si2 0.442604 0.599567 0.698536
Si Si3 0.981792 0.374921 0.814929
Si Si4 0.655512 0.468178 0.503523
Si Si5 0.273574 0.001679 0.583006
Si Si6 0.065084 0.535621 0.388176
Si Si7 0.273588 0.000983 0.169888
Si Si8 0.028379 0.659113 0.780763
O O1 0.719375 0.113085 0.938145
O O2 0.022525 0.998142 0.882663
O O3 0.000000 0.500000 0.000000
O O4 0.869696 0.407995 0.104452
O O5 0.603758 0.667446 0.635847
O O6 0.515817 0.838982 0.812378
O O7 0.245763 0.641597 0.730534
O O8 0.431412 0.264456 0.613249
O O9 0.924115 0.555048 0.830539
O O10 0.795305 0.262567 0.856209
O O11 0.086507 0.119013 0.682948
O O12 0.500000 0.500000 0.500000
O O13 0.645182 0.141296 0.424338
O O14 0.862218 0.573229 0.470068
O O15 0.216029 0.779266 0.466688
O O16 0.060175 0.559177 0.325156
O O17 0.120900 0.219221 0.284878
#
# Coordination Sequence:
#
# PCOD8004918 Si02
#       8
#     2   2   2   2   2   2   2   2
#     4   9  20  39  67  86 112 158 207 243 299 363
#     4  11  23  39  57  90 126 157 193 255 299 347
#     4  10  20  38  63  90 114 158 205 247 295 355
#     4  12  22  37  57  88 124 153 198 243 297 351
#     4  11  23  39  60  86 124 163 202 237 303 358
#     4  11  21  39  59  85 121 168 199 238 293 368
#     4  10  20  39  63  85 117 162 204 238 306 355
#     4  10  22  39  60  91 121 149 203 254 295 348
#
# _framework density 21.442858000000001
#
# number of rings (size 3 to 8) (size 9 to 14) (size 15 to 20)
#    0.000    1.500    3.750    1.875    0.000    2.000 
#    2.250    5.000    0.000    1.500    0.000    0.000 
#    0.000    0.000    0.000    0.000    0.000    0.000 
#
# Total GULP energy -198237.611206 kJ/mol
# GULP energy per Si atom -12389.850700 kJ/mol
# Density = 2.139405 g / cm^3
# Si number density = 21.442858 Si / 1000 Ang^3
#
#
#
# Elastic Constant Matrix: (Units=GPa)
#
#
# Indices 1 2 3 4 5 6 
#
# 1 110.1677 49.5316 28.0453 10.9572 25.2944 -20.9695
# 2 49.5316 107.6275 34.2518 2.0815 20.6499 -21.6479
# 3 28.0453 34.2518 85.2632 11.3802 35.9918 -16.0009
# 4 10.9572 2.0815 11.3802 29.5592 -3.4992 -1.1879
# 5 25.2944 20.6499 35.9918 -3.4992 43.8183 1.0383
# 6 -20.9695 -21.6479 -16.0009 -1.1879 1.0383 39.0243
#
#
#
# Elastic Compliance Matrix: (Units=1/GPa)
#
#
# Indices 1 2 3 4 5 6 
#
# 1 0.014418 -0.004328 0.003355 -0.007217 -0.009776 0.006763
# 2 -0.004328 0.013194 -0.002784 0.001741 -0.001388 0.003942
# 3 0.003355 -0.002784 0.024897 -0.012850 -0.022354 0.010671
# 4 -0.007217 0.001741 -0.012850 0.043109 0.017517 -0.007335
# 5 -0.009776 -0.001388 -0.022354 0.017517 0.049257 -0.015966
# 6 0.006763 0.003942 0.010671 -0.007335 -0.015966 0.036023
#
#
# Mechanical properties :
#
#
# Convention : Reuss Voigt Hill
#
# Bulk Modulus (GPa) = 22.22363 58.52398 40.37380
# Shear Modulus (GPa) = 24.58085 35.22903 29.90494
#
# Velocity S-wave (km/s) = 3.38944 4.05770 3.73853
# Velocity P-wave (km/s) = 5.06995 7.02179 6.12413
#
# Compressibility (1/GPa) = 0.04499715
#
# Stress axis : x y z
#
# Youngs Moduli (GPa) = 69.35590 75.78969 40.16575
#
# Poissons Ratio (x) = 0.32800 -0.13476
# Poissons Ratio (y) = 0.30015 0.11181
# Poissons Ratio (z) = -0.23270 0.21097
#
# Static dielectric constant tensor:
#      x y z
#    x 3.925120 -0.349730 0.358640 
#    y -0.349730 3.862210 -0.015740 
#    z 0.358640 -0.015740 4.243560 
# 
# 
# High freq. dielectric constant tensor:
#      x y z
#    x 1.838210 -0.020360 0.017070 
#    y -0.020360 1.832820 0.000200 
#    z 0.017070 0.000200 1.842720 
# 
# From -- ./inp_files/214311.got.cif
#   From: 2010.06.25/outbox.cif.g09.slc.cpg/sg2_108_cif.got.tgz:214311.got - 2010.06.27 13:26:56.
