data_PCOD8004472
_publ_section_title
;
Structure prediction by ZEFSAII (Michael W. Deem and Ramdas Pophale) SiO2 
 PCOD8004472
Probable space group: P -1
;
_chemical_formula_sum "Si O2"
_cell_formula_units_Z 16
_cell_length_a 13.347820
_cell_length_b 9.863760
_cell_length_c 14.132029
_cell_angle_alpha 153.429800
_cell_angle_beta 87.614705
_cell_angle_gamma 99.766192
_cell_volume 794.190909
_symmetry_space_group_name_H-M "P -1"
_symmetry_group_IT_number 2
_symmetry_cell_setting 'triclinic'
loop_
_space_group_symop_operation_xyz
x,y,z
-x,-y,-z
loop_
_atom_site_type_symbol
_atom_site_label
_atom_site_fract_x
_atom_site_fract_y
_atom_site_fract_z
Si Si1 0.887741 0.725969 0.549922
Si Si2 0.919939 0.184892 0.086135
Si Si3 0.618682 0.099484 0.850772
Si Si4 0.732511 0.692145 0.699073
Si Si5 0.402080 0.280802 0.675332
Si Si6 0.226564 0.855827 0.293883
Si Si7 0.554240 0.153099 0.445325
Si Si8 0.971491 0.661574 0.009713
O O1 0.914409 0.428146 0.319561
O O2 0.803938 0.603622 0.560401
O O3 0.840280 0.911774 0.589947
O O4 0.997176 0.960423 0.734267
O O5 0.958918 0.378733 0.108425
O O6 0.804484 0.942531 0.925627
O O7 0.000000 0.000000 0.000000
O O8 0.705703 0.218351 0.840583
O O9 0.644184 0.830822 0.744927
O O10 0.504152 0.956058 0.719875
O O11 0.621492 0.390345 0.100721
O O12 0.671351 0.375778 0.560062
O O13 0.491257 0.340419 0.628366
O O14 0.297823 0.015172 0.478596
O O15 0.440408 0.160493 0.695511
O O16 0.150862 0.511389 0.115609
O O17 0.000000 0.500000 0.000000
#
# Coordination Sequence:
#
# PCOD8004472 Si02
#       8
#     2   2   2   2   2   2   2   2
#     4   9  20  40  59  81 120 153 192 246 287 340
#     4  11  24  39  59  86 122 155 195 244 294 347
#     4  10  20  38  59  85 114 153 193 241 287 344
#     4  10  22  39  60  85 116 154 201 235 291 357
#     4  10  21  36  58  85 123 145 190 247 288 342
#     4   9  19  35  59  87 111 149 195 236 287 350
#     4  10  22  38  56  86 118 151 192 239 293 350
#     4   9  20  37  58  85 114 150 198 238 283 349
#
# _framework density 20.146287999999998
#
# number of rings (size 3 to 8) (size 9 to 14) (size 15 to 20)
#    0.000    2.250    0.000    2.250    1.750    6.500 
#    2.250    0.000    0.000    0.000    0.000    0.000 
#    0.000    0.000    0.000    0.000    0.000    0.000 
#
# Total GULP energy -198415.456992 kJ/mol
# GULP energy per Si atom -12400.966062 kJ/mol
# Density = 2.010043 g / cm^3
# Si number density = 20.146288 Si / 1000 Ang^3
#
#
#
# Elastic Constant Matrix: (Units=GPa)
#
#
# Indices 1 2 3 4 5 6 
#
# 1 76.5800 28.5500 50.7573 5.8311 10.5042 9.5512
# 2 28.5500 76.3208 42.7564 1.8993 7.5923 13.9446
# 3 50.7573 42.7564 134.6297 -10.3696 -6.4243 17.5026
# 4 5.8311 1.8993 -10.3696 21.1054 5.7092 10.7718
# 5 10.5042 7.5923 -6.4243 5.7092 43.3281 4.7647
# 6 9.5512 13.9446 17.5026 10.7718 4.7647 32.8704
#
#
#
# Elastic Compliance Matrix: (Units=1/GPa)
#
#
# Indices 1 2 3 4 5 6 
#
# 1 0.020666 -0.003018 -0.008326 -0.010134 -0.004790 0.003724
# 2 -0.003018 0.017455 -0.003994 0.000041 -0.002479 -0.004056
# 3 -0.008326 -0.003994 0.014048 0.012595 0.004030 -0.008078
# 4 -0.010134 0.000041 0.012595 0.070486 -0.002048 -0.026581
# 5 -0.004790 -0.002479 0.004030 -0.002048 0.025848 -0.002778
# 6 0.003724 -0.004056 -0.008078 -0.026581 -0.002778 0.044476
#
#
# Mechanical properties :
#
#
# Convention : Reuss Voigt Hill
#
# Bulk Modulus (GPa) = 46.52510 59.07312 52.79911
# Shear Modulus (GPa) = 21.66195 30.49189 26.07692
#
# Velocity S-wave (km/s) = 3.28263 3.89462 3.60165
# Velocity P-wave (km/s) = 6.12465 7.04343 6.60005
#
# Compressibility (1/GPa) = 0.02149377
#
# Stress axis : x y z
#
# Youngs Moduli (GPa) = 48.38802 57.28880 71.18568
#
# Poissons Ratio (x) = 0.17290 0.59271
# Poissons Ratio (y) = 0.14603 0.28428
# Poissons Ratio (z) = 0.40289 0.22878
#
# Static dielectric constant tensor:
#      x y z
#    x 3.763070 0.128220 0.278140 
#    y 0.128220 3.654550 -0.076930 
#    z 0.278140 -0.076930 3.617790 
# 
# 
# High freq. dielectric constant tensor:
#      x y z
#    x 1.783880 0.001850 0.017410 
#    y 0.001850 1.783330 -0.007520 
#    z 0.017410 -0.007520 1.784820 
# 
# From -- ./inp_files/90734.got.cif
#   From: 2010.06.25/outbox.cif.g09.slc.cpg/sg2_46_cif.got.tgz:90734.got - 2010.06.27 13:26:56.
