data_PCOD8004357
_publ_section_title
;
Structure prediction by ZEFSAII (Michael W. Deem and Ramdas Pophale) SiO2 
 PCOD8004357
Probable space group: P -1
;
_chemical_formula_sum "Si O2"
_cell_formula_units_Z 14
_cell_length_a 14.730442
_cell_length_b 14.388889
_cell_length_c 14.773427
_cell_angle_alpha 160.599422
_cell_angle_beta 47.304079
_cell_angle_gamma 135.893127
_cell_volume 723.921180
_symmetry_space_group_name_H-M "P -1"
_symmetry_group_IT_number 2
_symmetry_cell_setting 'triclinic'
loop_
_space_group_symop_operation_xyz
x,y,z
-x,-y,-z
loop_
_atom_site_type_symbol
_atom_site_label
_atom_site_fract_x
_atom_site_fract_y
_atom_site_fract_z
Si Si1 0.797261 0.745232 0.232582
Si Si2 0.276918 0.950727 0.921232
Si Si3 0.434178 0.713278 0.970231
Si Si4 0.968906 0.273915 0.233222
Si Si5 0.791285 0.665176 0.529467
Si Si6 0.688934 0.778338 0.515472
Si Si7 0.928706 0.386939 0.699744
O O1 0.809609 0.800694 0.384651
O O2 0.820494 0.063697 0.462073
O O3 0.647947 0.521032 0.112679
O O4 0.896700 0.581011 0.979900
O O5 0.182692 0.825177 0.784477
O O6 0.297502 0.673746 0.705915
O O7 0.416678 0.154720 0.977868
O O8 0.209788 0.132540 0.197487
O O9 0.366684 0.958645 0.225039
O O10 0.425447 0.532915 0.715330
O O11 0.000000 0.500000 0.500000
O O12 0.060729 0.423969 0.224840
O O13 0.000000 0.000000 0.000000
O O14 0.737450 0.795935 0.600920
O O15 0.938224 0.672850 0.419348
#
# Coordination Sequence:
#
# PCOD8004357 Si02
#       7
#     2   2   2   2   2   2   2
#     4  10  20  38  55  85 115 167 192 223 280 331
#     4  11  23  39  61  84 120 151 187 248 293 341
#     4  10  21  38  55  84 116 168 195 227 275 332
#     4  11  23  42  65  91 108 137 187 243 309 354
#     4  11  23  35  55  91 118 157 201 236 287 316
#     4  10  21  36  53  89 118 163 204 227 263 329
#     4  11  21  38  61  82 119 149 188 245 289 343
#
# _framework density 19.339122
#
# number of rings (size 3 to 8) (size 9 to 14) (size 15 to 20)
#    0.857    0.571    1.429    6.000    0.000    4.571 
#    0.000    0.000    0.000    5.143    0.000    0.000 
#    0.000    0.000    0.000    0.000    0.000    0.000 
#
# Total GULP energy -173476.000833 kJ/mol
# GULP energy per Si atom -12391.142917 kJ/mol
# Density = 1.929511 g / cm^3
# Si number density = 19.339122 Si / 1000 Ang^3
#
#
#
# Elastic Constant Matrix: (Units=GPa)
#
#
# Indices 1 2 3 4 5 6 
#
# 1 94.3972 62.0860 40.9023 9.7647 1.2372 2.8525
# 2 62.0860 114.5650 40.9281 21.8839 -1.6189 13.1295
# 3 40.9023 40.9281 136.5105 20.8153 -0.9525 2.9829
# 4 9.7647 21.8839 20.8153 27.7101 -1.5208 -2.3147
# 5 1.2372 -1.6189 -0.9525 -1.5208 26.9575 6.0614
# 6 2.8525 13.1295 2.9829 -2.3147 6.0614 14.6114
#
#
#
# Elastic Compliance Matrix: (Units=1/GPa)
#
#
# Indices 1 2 3 4 5 6 
#
# 1 0.018391 -0.010864 -0.003254 0.005114 -0.003355 0.009038
# 2 -0.010864 0.019417 -0.000163 -0.012722 0.005330 -0.019520
# 3 -0.003254 -0.000163 0.009299 -0.005868 0.000659 -0.002320
# 4 0.005114 -0.012722 -0.005868 0.050316 -0.003061 0.020871
# 5 -0.003355 0.005330 0.000659 -0.003061 0.042449 -0.022364
# 6 0.009038 -0.019520 -0.002320 0.020871 -0.022364 0.097273
#
#
# Mechanical properties :
#
#
# Convention : Reuss Voigt Hill
#
# Bulk Modulus (GPa) = 53.92220 70.36728 62.14474
# Shear Modulus (GPa) = 18.38999 27.29289 22.84144
#
# Velocity S-wave (km/s) = 3.08705 3.76077 3.44044
# Velocity P-wave (km/s) = 6.37569 7.43793 6.92720
#
# Compressibility (1/GPa) = 0.01854524
#
# Stress axis : x y z
#
# Youngs Moduli (GPa) = 54.37530 51.50172 107.53603
#
# Poissons Ratio (x) = 0.55952 0.34991
# Poissons Ratio (y) = 0.59074 0.01750
# Poissons Ratio (z) = 0.17693 0.00838
#
# Static dielectric constant tensor:
#      x y z
#    x 3.595420 -0.293480 0.078960 
#    y -0.293480 3.976720 0.209140 
#    z 0.078960 0.209140 3.819530 
# 
# 
# High freq. dielectric constant tensor:
#      x y z
#    x 1.704670 0.006220 -0.000150 
#    y 0.006220 1.756520 0.012830 
#    z -0.000150 0.012830 1.785180 
# 
# From -- ./inp_files/531913.got.cif
#   From: 2010.06.25/outbox.cif.g09.slc.cpg/sg2_266_cif.got.tgz:531913.got - 2010.06.27 13:26:56.
