data_PCOD8004736
_publ_section_title
;
Structure prediction by ZEFSAII (Michael W. Deem and Ramdas Pophale) SiO2 
 PCOD8004736
Probable space group: P -1
;
_chemical_formula_sum "Si O2"
_cell_formula_units_Z 16
_cell_length_a 25.476545
_cell_length_b 12.552231
_cell_length_c 9.068948
_cell_angle_alpha 63.111515
_cell_angle_beta 45.821131
_cell_angle_gamma 27.359732
_cell_volume 824.609458
_symmetry_space_group_name_H-M "P -1"
_symmetry_group_IT_number 2
_symmetry_cell_setting 'triclinic'
loop_
_space_group_symop_operation_xyz
x,y,z
-x,-y,-z
loop_
_atom_site_type_symbol
_atom_site_label
_atom_site_fract_x
_atom_site_fract_y
_atom_site_fract_z
Si Si1 0.811438 0.740582 0.714228
Si Si2 0.821852 0.451127 0.921443
Si Si3 0.886840 0.001075 0.134198
Si Si4 0.399179 0.573889 0.969699
Si Si5 0.587141 0.612589 0.396173
Si Si6 0.338776 0.879578 0.472828
Si Si7 0.411762 0.806804 0.901856
Si Si8 0.105804 0.860184 0.235647
O O1 0.786693 0.635873 0.823692
O O2 0.000000 0.500000 0.500000
O O3 0.731397 0.907831 0.617163
O O4 0.727183 0.914445 0.918437
O O5 0.867635 0.310156 0.773944
O O6 0.653897 0.645574 0.199720
O O7 0.973958 0.222735 0.878094
O O8 0.746797 0.293910 0.287945
O O9 0.807128 0.989105 0.257144
O O10 0.971148 0.938574 0.863741
O O11 0.441855 0.446186 0.117991
O O12 0.279172 0.665034 0.057312
O O13 0.559646 0.355591 0.689172
O O14 0.327615 0.810181 0.995681
O O15 0.450405 0.766019 0.454975
O O16 0.499140 0.756309 0.635819
O O17 0.000000 0.000000 0.500000
#
# Coordination Sequence:
#
# PCOD8004736 Si02
#       8
#     2   2   2   2   2   2   2   2
#     4  11  25  45  61  87 128 176 210 237 313 387
#     4  11  25  42  63  89 134 172 198 249 316 379
#     4  11  21  39  65  94 127 165 200 257 317 364
#     4  10  20  38  61  99 119 154 208 263 309 352
#     4  11  21  39  64  99 120 153 214 266 311 353
#     4  11  20  41  69  91 123 163 207 263 304 368
#     4  10  23  36  66  88 122 162 207 260 301 365
#     4  11  24  36  61  98 129 155 204 260 318 360
#
# _framework density 19.403123999999998
#
# number of rings (size 3 to 8) (size 9 to 14) (size 15 to 20)
#    0.000    1.250    5.000    2.625    5.250    1.000 
#    0.000    1.875    0.000    0.000    0.000    0.000 
#    0.000    0.000    0.000    0.000    0.000    0.000 
#
# Total GULP energy -198397.602360 kJ/mol
# GULP energy per Si atom -12399.850147 kJ/mol
# Density = 1.935896 g / cm^3
# Si number density = 19.403124 Si / 1000 Ang^3
#
#
#
# Elastic Constant Matrix: (Units=GPa)
#
#
# Indices 1 2 3 4 5 6 
#
# 1 90.2556 38.4711 29.7860 -4.1324 -11.1929 17.0631
# 2 38.4711 85.3247 37.2374 -10.9344 5.7874 23.3282
# 3 29.7860 37.2374 127.9161 -18.0074 12.5091 19.7378
# 4 -4.1324 -10.9344 -18.0074 26.1984 -0.4168 -9.1418
# 5 -11.1929 5.7874 12.5091 -0.4168 35.4964 -6.8023
# 6 17.0631 23.3282 19.7378 -9.1418 -6.8023 30.3598
#
#
#
# Elastic Compliance Matrix: (Units=1/GPa)
#
#
# Indices 1 2 3 4 5 6 
#
# 1 0.015561 -0.006221 -0.002533 -0.002326 0.006486 -0.001567
# 2 -0.006221 0.018838 -0.001423 0.001982 -0.006604 -0.010936
# 3 -0.002533 -0.001423 0.010618 0.004806 -0.005031 -0.004066
# 4 -0.002326 0.001982 0.004806 0.045530 -0.000239 0.010317
# 5 0.006486 -0.006604 -0.005031 -0.000239 0.035474 0.012576
# 6 -0.001567 -0.010936 -0.004066 0.010317 0.012576 0.050790
#
#
# Mechanical properties :
#
#
# Convention : Reuss Voigt Hill
#
# Bulk Modulus (GPa) = 40.54525 57.16503 48.85514
# Shear Modulus (GPa) = 24.34476 31.61106 27.97791
#
# Velocity S-wave (km/s) = 3.54599 4.04068 3.80139
# Velocity P-wave (km/s) = 6.14061 7.16207 6.67092
#
# Compressibility (1/GPa) = 0.02466380
#
# Stress axis : x y z
#
# Youngs Moduli (GPa) = 64.26351 53.08535 94.18389
#
# Poissons Ratio (x) = 0.33022 0.23853
# Poissons Ratio (y) = 0.39975 0.13403
# Poissons Ratio (z) = 0.16275 0.07554
#
# Static dielectric constant tensor:
#      x y z
#    x 3.625860 -0.033860 -0.089270 
#    y -0.033860 3.628470 -0.324060 
#    z -0.089270 -0.324060 4.108250 
# 
# 
# High freq. dielectric constant tensor:
#      x y z
#    x 1.762930 -0.010910 -0.007840 
#    y -0.010910 1.740620 -0.020560 
#    z -0.007840 -0.020560 1.760910 
# 
# From -- ./inp_files/244716.got.cif
#   From: 2010.06.25/outbox.cif.g09.slc.cpg/sg2_123_cif.got.tgz:244716.got - 2010.06.27 13:26:56.
