data_PCOD8004190
_publ_section_title
;
Structure prediction by ZEFSAII (Michael W. Deem and Ramdas Pophale) SiO2 
 PCOD8004190
Probable space group: P -1
;
_chemical_formula_sum "Si O2"
_cell_formula_units_Z 16
_cell_length_a 11.351227
_cell_length_b 7.622729
_cell_length_c 16.333543
_cell_angle_alpha 95.003711
_cell_angle_beta 54.590472
_cell_angle_gamma 58.984006
_cell_volume 822.968004
_symmetry_space_group_name_H-M "P -1"
_symmetry_group_IT_number 2
_symmetry_cell_setting 'triclinic'
loop_
_space_group_symop_operation_xyz
x,y,z
-x,-y,-z
loop_
_atom_site_type_symbol
_atom_site_label
_atom_site_fract_x
_atom_site_fract_y
_atom_site_fract_z
Si Si1 0.655703 0.353620 0.504253
Si Si2 0.061000 0.580361 0.338741
Si Si3 0.317612 0.980337 0.400739
Si Si4 0.530949 0.167606 0.329077
Si Si5 0.081737 0.078771 0.728954
Si Si6 0.494353 0.796053 0.843626
Si Si7 0.713473 0.946012 0.766347
Si Si8 0.305407 0.775039 0.067471
O O1 0.500000 0.500000 0.500000
O O2 0.651673 0.545823 0.559092
O O3 0.867037 0.118622 0.367068
O O4 0.594127 0.254983 0.590898
O O5 0.282595 0.484102 0.253444
O O6 0.086204 0.347907 0.330107
O O7 0.914461 0.780568 0.475189
O O8 0.973150 0.697125 0.288950
O O9 0.454209 0.034744 0.367289
O O10 0.320107 0.926772 0.301657
O O11 0.730676 0.033938 0.294737
O O12 0.592499 0.153053 0.210265
O O13 0.891063 0.179997 0.863598
O O14 0.520342 0.982228 0.861532
O O15 0.336866 0.847647 0.972303
O O16 0.737049 0.058732 0.834734
O O17 0.500000 0.500000 0.000000
#
# Coordination Sequence:
#
# PCOD8004190 Si02
#       8
#     2   2   2   2   2   2   2   2
#     4   9  21  36  56  90 123 154 193 232 299 368
#     4   9  19  37  59  90 113 149 203 234 301 356
#     4  10  20  37  65  90 121 156 189 249 307 348
#     4  10  22  40  60  88 129 150 198 245 300 361
#     4  10  22  38  56  90 116 160 196 241 299 358
#     4   9  21  37  59  84 113 156 199 248 289 336
#     4   9  21  36  60  88 115 149 201 246 296 350
#     4  12  22  37  60  83 117 158 204 248 290 338
#
# _framework density 19.441824
#
# number of rings (size 3 to 8) (size 9 to 14) (size 15 to 20)
#    0.750    1.500    1.250    0.750    3.500    5.000 
#    2.250    2.500    0.000    2.250    0.000    0.000 
#    0.000    0.000    0.000    0.000    0.000    0.000 
#
# Total GULP energy -198262.492430 kJ/mol
# GULP energy per Si atom -12391.405777 kJ/mol
# Density = 1.939757 g / cm^3
# Si number density = 19.441824 Si / 1000 Ang^3
#
#
#
# Elastic Constant Matrix: (Units=GPa)
#
#
# Indices 1 2 3 4 5 6 
#
# 1 59.6781 18.5309 25.5785 -5.9472 -2.1855 -14.4135
# 2 18.5309 109.3569 27.4482 -18.9255 1.7254 -14.1281
# 3 25.5785 27.4482 86.1168 -25.7071 -15.1506 -10.8393
# 4 -5.9472 -18.9255 -25.7071 31.7433 -3.6653 4.9267
# 5 -2.1855 1.7254 -15.1506 -3.6653 27.7564 1.1178
# 6 -14.4135 -14.1281 -10.8393 4.9267 1.1178 22.6330
#
#
#
# Elastic Compliance Matrix: (Units=1/GPa)
#
#
# Indices 1 2 3 4 5 6 
#
# 1 0.022106 -0.001333 -0.006326 -0.003808 -0.002582 0.011173
# 2 -0.001333 0.011091 -0.001506 0.004307 -0.001228 0.004476
# 3 -0.006326 -0.001506 0.021447 0.016684 0.013465 0.001006
# 4 -0.003808 0.004307 0.016684 0.049113 0.015153 -0.003186
# 5 -0.002582 -0.001228 0.013465 0.015153 0.045312 -0.001499
# 6 0.011173 0.004476 0.001006 -0.003186 -0.001499 0.055342
#
#
# Mechanical properties :
#
#
# Convention : Reuss Voigt Hill
#
# Bulk Modulus (GPa) = 27.53764 44.25189 35.89476
# Shear Modulus (GPa) = 21.29048 28.66615 24.97831
#
# Velocity S-wave (km/s) = 3.31280 3.84403 3.58826
# Velocity P-wave (km/s) = 5.36915 6.52018 5.97245
#
# Compressibility (1/GPa) = 0.03631393
#
# Stress axis : x y z
#
# Youngs Moduli (GPa) = 45.23607 90.16052 46.62607
#
# Poissons Ratio (x) = 0.12019 0.29496
# Poissons Ratio (y) = 0.06030 0.07023
# Poissons Ratio (z) = 0.28617 0.13581
#
# Static dielectric constant tensor:
#      x y z
#    x 3.704690 0.709490 0.535150 
#    y 0.709490 4.570020 0.578180 
#    z 0.535150 0.578180 4.079830 
# 
# 
# High freq. dielectric constant tensor:
#      x y z
#    x 1.737020 -0.001020 0.005100 
#    y -0.001020 1.763720 -0.013750 
#    z 0.005100 -0.013750 1.751880 
# 
# From -- ./inp_files/513231.got.cif
#   From: 2010.06.25/outbox.cif.g09.slc.cpg/sg2_257_cif.got.tgz:513231.got - 2010.06.27 13:26:56.
