data_PCOD8004915
_publ_section_title
;
Structure prediction by ZEFSAII (Michael W. Deem and Ramdas Pophale) SiO2 
 PCOD8004915
Probable space group: P -1
;
_chemical_formula_sum "Si O2"
_cell_formula_units_Z 12
_cell_length_a 18.382854
_cell_length_b 15.474010
_cell_length_c 12.579820
_cell_angle_alpha 152.206720
_cell_angle_beta 19.858511
_cell_angle_gamma 152.062716
_cell_volume 536.093996
_symmetry_space_group_name_H-M "P -1"
_symmetry_group_IT_number 2
_symmetry_cell_setting 'triclinic'
loop_
_space_group_symop_operation_xyz
x,y,z
-x,-y,-z
loop_
_atom_site_type_symbol
_atom_site_label
_atom_site_fract_x
_atom_site_fract_y
_atom_site_fract_z
Si Si1 0.224263 0.724089 0.223921
Si Si2 0.502476 0.484232 0.267457
Si Si3 0.993846 0.685727 0.275647
Si Si4 0.783765 0.579317 0.773776
Si Si5 0.462794 0.809203 0.414848
Si Si6 0.416814 0.873284 0.791934
O O1 0.066196 0.667252 0.276700
O O2 0.054687 0.686362 0.517799
O O3 0.377447 0.948483 0.254372
O O4 0.391122 0.595022 0.865540
O O5 0.267271 0.316283 0.370891
O O6 0.460004 0.682767 0.576032
O O7 0.684742 0.527784 0.970429
O O8 0.000000 0.500000 0.000000
O O9 0.175202 0.874739 0.174593
O O10 0.743026 0.377305 0.544597
O O11 0.680323 0.735343 0.031445
O O12 0.404371 0.864839 0.673065
O O13 0.500000 0.000000 0.500000
#
# Coordination Sequence:
#
# PCOD8004915 Si02
#       6
#     2   2   2   2   2   2
#     4  12  23  39  65  90 122 162 197 248 307 353
#     4  10  23  42  63  88 123 162 199 247 302 353
#     4  10  22  43  62  86 124 159 203 251 292 359
#     4  10  21  38  59  92 126 153 201 252 293 359
#     4  10  20  38  63  89 122 163 199 243 305 356
#     4  10  23  39  59  92 122 154 207 251 290 360
#
# _framework density 22.384135000000001
#
# number of rings (size 3 to 8) (size 9 to 14) (size 15 to 20)
#    0.000    1.667    0.000    6.000    0.000    7.333 
#    0.000    5.000    0.000    0.000    0.000    0.000 
#    0.000    0.000    0.000    0.000    0.000    0.000 
#
# Total GULP energy -148741.528465 kJ/mol
# GULP energy per Si atom -12395.127372 kJ/mol
# Density = 2.233319 g / cm^3
# Si number density = 22.384135 Si / 1000 Ang^3
#
#
#
# Elastic Constant Matrix: (Units=GPa)
#
#
# Indices 1 2 3 4 5 6 
#
# 1 61.8229 26.3103 24.7468 0.5098 -12.9335 -12.2951
# 2 26.3103 145.7450 57.1988 -20.5950 -14.4774 -5.9704
# 3 24.7468 57.1988 77.1790 -24.6371 -9.9275 -13.9736
# 4 0.5098 -20.5950 -24.6371 48.8639 -1.5981 -5.1104
# 5 -12.9335 -14.4774 -9.9275 -1.5981 35.8304 3.2148
# 6 -12.2951 -5.9704 -13.9736 -5.1104 3.2148 28.8870
#
#
#
# Elastic Compliance Matrix: (Units=1/GPa)
#
#
# Indices 1 2 3 4 5 6 
#
# 1 0.020849 -0.001544 -0.004767 -0.002560 0.004997 0.005240
# 2 -0.001544 0.010017 -0.006857 0.000631 0.001797 -0.001992
# 3 -0.004767 -0.006857 0.025266 0.011065 0.002060 0.010504
# 4 -0.002560 0.000631 0.011065 0.027362 0.002817 0.008920
# 5 0.004997 0.001797 0.002060 0.002817 0.031088 0.000534
# 6 0.005240 -0.001992 0.010504 0.008920 0.000534 0.043036
#
#
# Mechanical properties :
#
#
# Convention : Reuss Voigt Hill
#
# Bulk Modulus (GPa) = 33.55990 55.69542 44.62766
# Shear Modulus (GPa) = 25.78854 34.48230 30.13542
#
# Velocity S-wave (km/s) = 3.39793 3.92915 3.67316
# Velocity P-wave (km/s) = 5.51542 6.74685 6.16197
#
# Compressibility (1/GPa) = 0.02979747
#
# Stress axis : x y z
#
# Youngs Moduli (GPa) = 47.96433 99.82884 39.57896
#
# Poissons Ratio (x) = 0.15411 0.18866
# Poissons Ratio (y) = 0.07404 0.27139
# Poissons Ratio (z) = 0.22863 0.68451
#
# Static dielectric constant tensor:
#      x y z
#    x 3.868880 -0.010830 -0.072020 
#    y -0.010830 4.288510 -0.446530 
#    z -0.072020 -0.446530 4.421180 
# 
# 
# High freq. dielectric constant tensor:
#      x y z
#    x 1.874240 -0.004540 0.001770 
#    y -0.004540 1.888270 -0.021690 
#    z 0.001770 -0.021690 1.880740 
# 
# From -- ./inp_files/189670.got.cif
#   From: 2010.06.25/outbox.cif.g09.slc.cpg/sg2_95_cif.got.tgz:189670.got - 2010.06.27 13:26:56.
