data_PCOD8004819
_publ_section_title
;
Structure prediction by ZEFSAII (Michael W. Deem and Ramdas Pophale) SiO2 
 PCOD8004819
Probable space group: P -1
;
_chemical_formula_sum "Si O2"
_cell_formula_units_Z 16
_cell_length_a 7.347327
_cell_length_b 7.903339
_cell_length_c 19.438759
_cell_angle_alpha 93.020600
_cell_angle_beta 84.507596
_cell_angle_gamma 141.994182
_cell_volume 691.368835
_symmetry_space_group_name_H-M "P -1"
_symmetry_group_IT_number 2
_symmetry_cell_setting 'triclinic'
loop_
_space_group_symop_operation_xyz
x,y,z
-x,-y,-z
loop_
_atom_site_type_symbol
_atom_site_label
_atom_site_fract_x
_atom_site_fract_y
_atom_site_fract_z
Si Si1 0.191295 0.854911 0.966782
Si Si2 0.615342 0.766615 0.651030
Si Si3 0.759940 0.334200 0.223395
Si Si4 0.337612 0.205938 0.497869
Si Si5 0.729823 0.451667 0.082590
Si Si6 0.433846 0.771038 0.228763
Si Si7 0.296639 0.179781 0.646679
Si Si8 0.417860 0.565112 0.092417
O O1 0.926399 0.654131 0.915763
O O2 0.389100 0.166572 0.956161
O O3 0.043156 0.741799 0.045515
O O4 0.626768 0.191403 0.050037
O O5 0.469711 0.783376 0.711477
O O6 0.575245 0.825932 0.577373
O O7 0.456930 0.473377 0.652267
O O8 0.952145 0.971488 0.663072
O O9 0.769823 0.475306 0.163819
O O10 0.087239 0.557732 0.248476
O O11 0.619438 0.058170 0.192678
O O12 0.500000 0.500000 0.500000
O O13 0.380815 0.146911 0.569694
O O14 0.000000 0.000000 0.500000
O O15 0.493463 0.424745 0.070642
O O16 0.589935 0.857156 0.297933
O O17 0.468677 0.638252 0.172977
#
# Coordination Sequence:
#
# PCOD8004819 Si02
#       8
#     2   2   2   2   2   2   2   2
#     4  11  26  45  66 101 126 161 224 270 320 395
#     4  10  20  38  63  89 118 163 214 255 318 386
#     4  12  25  42  59  93 129 168 210 267 322 379
#     4   8  16  32  58  87 118 151 207 263 304 374
#     4  11  25  44  71  92 131 173 208 273 333 382
#     4  12  24  41  59  90 133 164 210 271 313 385
#     4  10  20  38  62  91 118 164 210 260 317 375
#     4  12  24  45  67  95 128 170 215 266 331 388
#
# _framework density 23.142493000000002
#
# number of rings (size 3 to 8) (size 9 to 14) (size 15 to 20)
#    0.000    1.250    2.500    3.000    0.000    6.000 
#    0.000    1.250    0.000    0.000    0.000    0.000 
#    0.000    0.000    0.000    0.000    0.000    0.000 
#
# Total GULP energy -198300.994491 kJ/mol
# GULP energy per Si atom -12393.812156 kJ/mol
# Density = 2.308982 g / cm^3
# Si number density = 23.142493 Si / 1000 Ang^3
#
#
#
# Elastic Constant Matrix: (Units=GPa)
#
#
# Indices 1 2 3 4 5 6 
#
# 1 115.2799 44.3720 57.0620 -5.6442 5.6451 -2.7982
# 2 44.3720 115.6559 17.1555 -2.3601 5.1055 14.2631
# 3 57.0620 17.1555 162.5198 -12.0689 -0.2923 -1.3728
# 4 -5.6442 -2.3601 -12.0689 27.7239 4.2500 -2.7212
# 5 5.6451 5.1055 -0.2923 4.2500 28.8478 -1.0087
# 6 -2.7982 14.2631 -1.3728 -2.7212 -1.0087 32.6720
#
#
#
# Elastic Compliance Matrix: (Units=1/GPa)
#
#
# Indices 1 2 3 4 5 6 
#
# 1 0.012498 -0.004489 -0.003815 0.001054 -0.001744 0.002904
# 2 -0.004489 0.011011 0.000356 -0.000146 -0.001228 -0.005227
# 3 -0.003815 0.000356 0.007644 0.002527 0.000391 0.000061
# 4 0.001054 -0.000146 0.002527 0.038573 -0.005722 0.003296
# 5 -0.001744 -0.001228 0.000391 -0.005722 0.036107 0.001041
# 6 0.002904 -0.005227 0.000061 0.003296 0.001041 0.033447
#
#
# Mechanical properties :
#
#
# Convention : Reuss Voigt Hill
#
# Bulk Modulus (GPa) = 65.53378 70.07050 67.80214
# Shear Modulus (GPa) = 31.19934 36.17315 33.68624
#
# Velocity S-wave (km/s) = 3.67569 3.95785 3.81937
# Velocity P-wave (km/s) = 6.81126 7.15749 6.98652
#
# Compressibility (1/GPa) = 0.01525931
#
# Stress axis : x y z
#
# Youngs Moduli (GPa) = 80.01339 90.81535 130.82629
#
# Poissons Ratio (x) = 0.40764 0.49905
# Poissons Ratio (y) = 0.35915 -0.04663
# Poissons Ratio (z) = 0.30522 -0.03237
#
# Static dielectric constant tensor:
#      x y z
#    x 3.883060 0.085480 0.032640 
#    y 0.085480 4.188690 -0.027080 
#    z 0.032640 -0.027080 4.241550 
# 
# 
# High freq. dielectric constant tensor:
#      x y z
#    x 1.885790 0.013300 0.002590 
#    y 0.013300 1.930690 -0.001770 
#    z 0.002590 -0.001770 1.943050 
# 
# From -- ./inp_files/223534.got.cif
#   From: 2010.06.25/outbox.cif.g09.slc.cpg/sg2_112_cif.got.tgz:223534.got - 2010.06.27 13:26:56.
