data_PCOD8004248
_publ_section_title
;
Structure prediction by ZEFSAII (Michael W. Deem and Ramdas Pophale) SiO2 
 PCOD8004248
Probable space group: P -1
;
_chemical_formula_sum "Si O2"
_cell_formula_units_Z 16
_cell_length_a 11.701140
_cell_length_b 9.163777
_cell_length_c 17.027084
_cell_angle_alpha 104.297056
_cell_angle_beta 138.803045
_cell_angle_gamma 107.601067
_cell_volume 750.604732
_symmetry_space_group_name_H-M "P -1"
_symmetry_group_IT_number 2
_symmetry_cell_setting 'triclinic'
loop_
_space_group_symop_operation_xyz
x,y,z
-x,-y,-z
loop_
_atom_site_type_symbol
_atom_site_label
_atom_site_fract_x
_atom_site_fract_y
_atom_site_fract_z
Si Si1 0.959127 0.550531 0.267931
Si Si2 0.564919 0.626392 0.729821
Si Si3 0.551312 0.925238 0.589032
Si Si4 0.804040 0.145668 0.062674
Si Si5 0.114986 0.861866 0.070166
Si Si6 0.240028 0.303608 0.891432
Si Si7 0.187843 0.196525 0.362595
Si Si8 0.587796 0.371249 0.191411
O O1 0.786477 0.291781 0.118233
O O2 0.932843 0.658100 0.198923
O O3 0.848831 0.544636 0.292924
O O4 0.269254 0.713293 0.460987
O O5 0.391195 0.430581 0.548371
O O6 0.353890 0.539001 0.677279
O O7 0.725910 0.873987 0.811007
O O8 0.793961 0.666882 0.887914
O O9 0.653171 0.831636 0.600799
O O10 0.500000 0.000000 0.500000
O O11 0.763745 0.140478 0.789765
O O12 0.060899 0.217993 0.232555
O O13 0.827986 0.190884 0.987682
O O14 0.529308 0.875538 0.903741
O O15 0.500000 0.500000 0.000000
O O16 0.357199 0.338842 0.041897
O O17 0.043701 0.032210 0.731365
#
# Coordination Sequence:
#
# PCOD8004248 Si02
#       8
#     2   2   2   2   2   2   2   2
#     4  11  21  38  60  91 122 164 204 249 308 360
#     4  10  20  37  66  91 122 158 208 255 298 368
#     4  12  24  39  61  86 129 161 201 252 304 368
#     4  10  21  39  67  92 119 155 208 258 302 369
#     4  10  21  39  60  93 122 159 204 255 311 350
#     4   9  19  38  60  83 121 164 200 242 304 365
#     4  11  21  40  64  92 119 163 206 249 309 360
#     4   9  20  39  62  89 125 160 202 251 309 361
#
# _framework density 21.316147000000001
#
# number of rings (size 3 to 8) (size 9 to 14) (size 15 to 20)
#    0.000    1.750    1.250    4.875    0.000    1.500 
#    2.250   13.125    0.000    0.000    0.000    0.000 
#    0.000    0.000    0.000    0.000    0.000    0.000 
#
# Total GULP energy -198268.070202 kJ/mol
# GULP energy per Si atom -12391.754388 kJ/mol
# Density = 2.126763 g / cm^3
# Si number density = 21.316147 Si / 1000 Ang^3
#
#
#
# Elastic Constant Matrix: (Units=GPa)
#
#
# Indices 1 2 3 4 5 6 
#
# 1 101.8366 9.8133 36.1778 -2.4287 -8.6511 9.3055
# 2 9.8133 56.6344 9.1443 -11.0189 -9.6630 1.5192
# 3 36.1778 9.1443 98.6555 -5.5987 -7.8362 9.7043
# 4 -2.4287 -11.0189 -5.5987 29.8797 7.5053 1.2796
# 5 -8.6511 -9.6630 -7.8362 7.5053 32.1046 0.4570
# 6 9.3055 1.5192 9.7043 1.2796 0.4570 27.6020
#
#
#
# Elastic Compliance Matrix: (Units=1/GPa)
#
#
# Indices 1 2 3 4 5 6 
#
# 1 0.011668 -0.001102 -0.003795 -0.000577 0.002057 -0.002546
# 2 -0.001102 0.019870 -0.000683 0.006116 0.004099 -0.000833
# 3 -0.003795 -0.000683 0.012085 0.001477 0.001419 -0.003024
# 4 -0.000577 0.006116 0.001477 0.037746 -0.006745 -0.002300
# 5 0.002057 0.004099 0.001419 -0.006745 0.034884 -0.001683
# 6 -0.002546 -0.000833 -0.003024 -0.002300 -0.001683 0.038331
#
#
# Mechanical properties :
#
#
# Convention : Reuss Voigt Hill
#
# Bulk Modulus (GPa) = 30.80476 40.82192 35.81334
# Shear Modulus (GPa) = 28.31818 31.38334 29.85076
#
# Velocity S-wave (km/s) = 3.64879 3.84119 3.74623
# Velocity P-wave (km/s) = 5.67753 6.23420 5.96237
#
# Compressibility (1/GPa) = 0.03246252
#
# Stress axis : x y z
#
# Youngs Moduli (GPa) = 85.70589 50.32716 82.74439
#
# Poissons Ratio (x) = 0.05545 0.31405
# Poissons Ratio (y) = 0.09444 0.05652
# Poissons Ratio (z) = 0.32529 0.03437
#
# Static dielectric constant tensor:
#      x y z
#    x 3.755980 0.067810 0.133310 
#    y 0.067810 4.175690 -0.227080 
#    z 0.133310 -0.227080 4.052910 
# 
# 
# High freq. dielectric constant tensor:
#      x y z
#    x 1.831010 0.012570 0.009750 
#    y 0.012570 1.829490 -0.007800 
#    z 0.009750 -0.007800 1.832840 
# 
# From -- ./inp_files/566084.got.cif
#   From: 2010.06.25/outbox.cif.g09.slc.cpg/sg2_284_cif.got.tgz:566084.got - 2010.06.27 13:26:56.
