data_PCOD8004238
_publ_section_title
;
Structure prediction by ZEFSAII (Michael W. Deem and Ramdas Pophale) SiO2 
 PCOD8004238
Probable space group: P -1
;
_chemical_formula_sum "Si O2"
_cell_formula_units_Z 16
_cell_length_a 11.435602
_cell_length_b 11.908910
_cell_length_c 8.395472
_cell_angle_alpha 100.501317
_cell_angle_beta 120.484911
_cell_angle_gamma 52.976530
_cell_volume 773.926884
_symmetry_space_group_name_H-M "P -1"
_symmetry_group_IT_number 2
_symmetry_cell_setting 'triclinic'
loop_
_space_group_symop_operation_xyz
x,y,z
-x,-y,-z
loop_
_atom_site_type_symbol
_atom_site_label
_atom_site_fract_x
_atom_site_fract_y
_atom_site_fract_z
Si Si1 0.602643 0.419352 0.891073
Si Si2 0.739673 0.448326 0.445569
Si Si3 0.354705 0.217306 0.056677
Si Si4 0.713609 0.995567 0.156317
Si Si5 0.870281 0.103927 0.070713
Si Si6 0.824586 0.499172 0.172072
Si Si7 0.007545 0.867760 0.531135
Si Si8 0.865051 0.581015 0.786049
O O1 0.462956 0.477392 0.668657
O O2 0.500000 0.500000 0.000000
O O3 0.703577 0.248782 0.921622
O O4 0.737704 0.454527 0.973646
O O5 0.784512 0.490944 0.323972
O O6 0.837762 0.278761 0.481662
O O7 0.797495 0.496272 0.645681
O O8 0.337524 0.091177 0.994345
O O9 0.247250 0.339171 0.880052
O O10 0.298235 0.273566 0.213647
O O11 0.552574 0.147764 0.150683
O O12 0.830262 0.900751 0.363884
O O13 0.816222 0.020804 0.110133
O O14 0.964912 0.147633 0.263158
O O15 0.000000 0.000000 0.000000
O O16 0.030817 0.397302 0.267783
O O17 0.000000 0.000000 0.500000
O O18 0.000000 0.500000 0.000000
#
# Coordination Sequence:
#
# PCOD8004238 Si02
#       8
#     2   2   2   2   2   2   2   2
#     4  10  20  38  65  90 123 160 210 260 313 363
#     4  11  21  39  66  93 121 170 212 260 318 377
#     4  10  22  40  61  89 123 170 203 260 306 381
#     4  10  22  40  63  83 128 170 207 240 327 381
#     4  11  23  40  65  94 124 163 209 266 312 371
#     4  10  20  37  66  87 126 159 211 260 314 369
#     4  10  21  37  60  86 126 162 206 248 318 382
#     4  10  22  38  58  91 128 156 211 260 310 369
#
# _framework density 20.673788999999999
#
# number of rings (size 3 to 8) (size 9 to 14) (size 15 to 20)
#    0.000    1.750    2.500    3.375    3.500    1.000 
#    2.250    2.500    0.000    4.500    0.000    0.000 
#    0.000    0.000    0.000    0.000    0.000    0.000 
#
# Total GULP energy -198306.401105 kJ/mol
# GULP energy per Si atom -12394.150069 kJ/mol
# Density = 2.062673 g / cm^3
# Si number density = 20.673789 Si / 1000 Ang^3
#
#
#
# Elastic Constant Matrix: (Units=GPa)
#
#
# Indices 1 2 3 4 5 6 
#
# 1 83.1915 48.1165 27.0921 3.6621 11.7333 -17.1329
# 2 48.1165 143.6369 53.5000 1.1444 6.1417 -21.5301
# 3 27.0921 53.5000 114.2988 10.2460 23.8177 -14.5820
# 4 3.6621 1.1444 10.2460 38.1336 4.0529 2.4534
# 5 11.7333 6.1417 23.8177 4.0529 25.4183 1.2827
# 6 -17.1329 -21.5301 -14.5820 2.4534 1.2827 35.3300
#
#
#
# Elastic Compliance Matrix: (Units=1/GPa)
#
#
# Indices 1 2 3 4 5 6 
#
# 1 0.016816 -0.004636 0.000565 -0.001235 -0.007273 0.005912
# 2 -0.004636 0.010242 -0.004202 0.000774 0.003374 0.002083
# 3 0.000565 -0.004202 0.013832 -0.002630 -0.011991 0.004040
# 4 -0.001235 0.000774 -0.002630 0.027367 -0.001362 -0.003064
# 5 -0.007273 0.003374 -0.011991 -0.001362 0.053754 -0.008277
# 6 0.005912 0.002083 0.004040 -0.003064 -0.008277 0.034621
#
#
# Mechanical properties :
#
#
# Convention : Reuss Voigt Hill
#
# Bulk Modulus (GPa) = 41.08038 66.50491 53.79264
# Shear Modulus (GPa) = 27.57961 33.93761 30.75861
#
# Velocity S-wave (km/s) = 3.65641 4.05603 3.86139
# Velocity P-wave (km/s) = 6.14326 7.36028 6.77914
#
# Compressibility (1/GPa) = 0.02434252
#
# Stress axis : x y z
#
# Youngs Moduli (GPa) = 59.46772 97.63816 72.29774
#
# Poissons Ratio (x) = 0.45270 -0.04083
# Poissons Ratio (y) = 0.27572 0.30378
# Poissons Ratio (z) = -0.03359 0.41026
#
# Static dielectric constant tensor:
#      x y z
#    x 4.066670 -0.179420 0.466940 
#    y -0.179420 3.758670 -0.079040 
#    z 0.466940 -0.079040 4.248740 
# 
# 
# High freq. dielectric constant tensor:
#      x y z
#    x 1.802050 -0.002600 0.019980 
#    y -0.002600 1.813780 0.000570 
#    z 0.019980 0.000570 1.802400 
# 
# From -- ./inp_files/259136.got.cif
#   From: 2010.06.25/outbox.cif.g09.slc.cpg/sg2_130_cif.got.tgz:259136.got - 2010.06.27 13:26:56.
