data_PCOD8004152
_publ_section_title
;
Structure prediction by ZEFSAII (Michael W. Deem and Ramdas Pophale) SiO2 
 PCOD8004152
Probable space group: P -1
;
_chemical_formula_sum "Si O2"
_cell_formula_units_Z 14
_cell_length_a 8.546847
_cell_length_b 15.135357
_cell_length_c 11.351986
_cell_angle_alpha 152.683481
_cell_angle_beta 62.460784
_cell_angle_gamma 118.283547
_cell_volume 590.327051
_symmetry_space_group_name_H-M "P -1"
_symmetry_group_IT_number 2
_symmetry_cell_setting 'triclinic'
loop_
_space_group_symop_operation_xyz
x,y,z
-x,-y,-z
loop_
_atom_site_type_symbol
_atom_site_label
_atom_site_fract_x
_atom_site_fract_y
_atom_site_fract_z
Si Si1 0.720056 0.145665 0.891043
Si Si2 0.349819 0.922588 0.825658
Si Si3 0.177044 0.672010 0.381439
Si Si4 0.583287 0.207019 0.768076
Si Si5 0.339030 0.574939 0.580818
Si Si6 0.065981 0.042814 0.239851
Si Si7 0.775705 0.672093 0.884526
O O1 0.724760 0.177449 0.787397
O O2 0.843057 0.986119 0.698572
O O3 0.515312 0.085489 0.931657
O O4 0.784809 0.343692 0.179377
O O5 0.271682 0.839747 0.632186
O O6 0.416593 0.752534 0.677080
O O7 0.202678 0.023404 0.064243
O O8 0.304561 0.658549 0.209046
O O9 0.141996 0.464200 0.211801
O O10 0.991061 0.742361 0.489061
O O11 0.500000 0.000000 0.500000
O O12 0.430362 0.322413 0.005411
O O13 0.500000 0.500000 0.500000
O O14 0.217712 0.411608 0.350292
O O15 0.888884 0.884243 0.099128
#
# Coordination Sequence:
#
# PCOD8004152 Si02
#       7
#     2   2   2   2   2   2   2
#     4  11  23  43  67  99 127 175 219 263 333 385
#     4  10  22  42  64  97 128 172 221 260 331 393
#     4  11  24  42  68  97 127 179 214 267 326 388
#     4  12  22  44  72  88 132 178 220 265 316 397
#     4  10  20  37  64  94 126 161 212 274 315 374
#     4  11  23  43  65  98 137 167 211 281 327 380
#     4  11  24  44  68  99 130 170 224 265 329 388
#
# _framework density 23.715665999999999
#
# number of rings (size 3 to 8) (size 9 to 14) (size 15 to 20)
#    0.000    1.143    4.286    2.571    0.000    5.714 
#   12.857    0.714    0.000    0.000    0.000    0.000 
#    0.000    0.000    0.000    0.000    0.000    0.000 
#
# Total GULP energy -173606.701947 kJ/mol
# GULP energy per Si atom -12400.478710 kJ/mol
# Density = 2.366169 g / cm^3
# Si number density = 23.715666 Si / 1000 Ang^3
#
#
#
# Elastic Constant Matrix: (Units=GPa)
#
#
# Indices 1 2 3 4 5 6 
#
# 1 63.5382 35.6663 11.3702 -4.6994 -30.7443 -33.1426
# 2 35.6663 76.8875 10.0921 -0.5883 -4.0667 -21.6473
# 3 11.3702 10.0921 62.1944 1.0523 -18.3736 -16.5381
# 4 -4.6994 -0.5883 1.0523 32.7373 -12.3604 -1.8045
# 5 -30.7443 -4.0667 -18.3736 -12.3604 43.2130 2.2428
# 6 -33.1426 -21.6473 -16.5381 -1.8045 2.2428 48.3010
#
#
#
# Elastic Compliance Matrix: (Units=1/GPa)
#
#
# Indices 1 2 3 4 5 6 
#
# 1 0.195665 -0.052580 0.058073 0.100631 0.181200 0.125924
# 2 -0.052580 0.029107 -0.015936 -0.025929 -0.047447 -0.027256
# 3 0.058073 -0.015936 0.037810 0.033071 0.063071 0.043959
# 4 0.100631 -0.025929 0.033071 0.086622 0.104509 0.067136
# 5 0.181200 -0.047447 0.063071 0.104509 0.198107 0.119370
# 6 0.125924 -0.027256 0.043959 0.067136 0.119370 0.106910
#
#
# Mechanical properties :
#
#
# Convention : Reuss Voigt Hill
#
# Bulk Modulus (GPa) = 4.13742 35.20858 19.67300
# Shear Modulus (GPa) = 6.61663 34.54968 20.58316
#
# Velocity S-wave (km/s) = 1.67214 3.82098 2.94923
# Velocity P-wave (km/s) = 2.34018 5.86045 4.46214
#
# Compressibility (1/GPa) = 0.24169629
#
# Stress axis : x y z
#
# Youngs Moduli (GPa) = 5.11077 34.35650 26.44812
#
# Poissons Ratio (x) = 1.80645 -1.53593
# Poissons Ratio (y) = 0.26872 0.42149
# Poissons Ratio (z) = -0.29680 0.54752
#
# Static dielectric constant tensor:
#      x y z
#    x 4.541510 -0.379680 -0.047120 
#    y -0.379680 4.298750 -0.064990 
#    z -0.047120 -0.064990 4.265350 
# 
# 
# High freq. dielectric constant tensor:
#      x y z
#    x 1.950570 -0.023560 -0.009550 
#    y -0.023560 1.934560 0.004210 
#    z -0.009550 0.004210 1.927320 
# 
# From -- ./inp_files/397926.got.cif
#   From: 2010.06.25/outbox.cif.g09.slc.cpg/sg2_199_cif.got.tgz:397926.got - 2010.06.27 13:26:56.
