data_PCOD8004097
_publ_section_title
;
Structure prediction by ZEFSAII (Michael W. Deem and Ramdas Pophale) SiO2 
 PCOD8004097
Probable space group: P -1
;
_chemical_formula_sum "Si O2"
_cell_formula_units_Z 16
_cell_length_a 9.840313
_cell_length_b 11.412009
_cell_length_c 18.115572
_cell_angle_alpha 29.516994
_cell_angle_beta 131.982759
_cell_angle_gamma 127.975598
_cell_volume 741.967271
_symmetry_space_group_name_H-M "P -1"
_symmetry_group_IT_number 2
_symmetry_cell_setting 'triclinic'
loop_
_space_group_symop_operation_xyz
x,y,z
-x,-y,-z
loop_
_atom_site_type_symbol
_atom_site_label
_atom_site_fract_x
_atom_site_fract_y
_atom_site_fract_z
Si Si1 0.927921 0.836137 0.130254
Si Si2 0.007099 0.788575 0.932624
Si Si3 0.031258 0.406870 0.480704
Si Si4 0.442861 0.243193 0.030916
Si Si5 0.762340 0.022256 0.218503
Si Si6 0.981412 0.279900 0.278243
Si Si7 0.211129 0.869728 0.566989
Si Si8 0.401817 0.232455 0.187007
O O1 0.062577 0.635679 0.312334
O O2 0.734493 0.697379 0.112269
O O3 0.895559 0.001901 0.097059
O O4 0.000000 0.000000 0.000000
O O5 0.797071 0.842109 0.808378
O O6 0.019941 0.539593 0.115021
O O7 0.122604 0.797738 0.894510
O O8 0.209417 0.256766 0.630226
O O9 0.000000 0.500000 0.500000
O O10 0.860550 0.225751 0.487410
O O11 0.389284 0.136067 0.150923
O O12 0.545795 0.055926 0.120972
O O13 0.577027 0.481131 0.961211
O O14 0.825595 0.107106 0.276166
O O15 0.899975 0.304002 0.317843
O O16 0.166963 0.143226 0.416435
O O17 0.431808 0.870771 0.651565
#
# Coordination Sequence:
#
# PCOD8004097 Si02
#       8
#     2   2   2   2   2   2   2   2
#     4  12  24  43  68  95 130 177 224 267 325 397
#     4  12  23  39  65  97 136 167 216 277 329 381
#     4  11  23  44  64  94 138 181 210 261 344 397
#     4  11  22  40  66  97 129 171 225 267 325 392
#     4  11  23  41  68  93 134 175 214 274 327 390
#     4  10  20  37  63  98 126 163 224 274 325 375
#     4  10  20  38  67  94 124 175 222 268 319 395
#     4  11  20  39  66  99 129 167 227 275 312 392
#
# _framework density 21.564294
#
# number of rings (size 3 to 8) (size 9 to 14) (size 15 to 20)
#    0.000    1.000    6.250    1.875    0.000    0.500 
#    0.000    5.625    0.000    0.000    0.000    0.000 
#    0.000    0.000    0.000    0.000    0.000    0.000 
#
# Total GULP energy -198361.138875 kJ/mol
# GULP energy per Si atom -12397.571180 kJ/mol
# Density = 2.151521 g / cm^3
# Si number density = 21.564294 Si / 1000 Ang^3
#
#
#
# Elastic Constant Matrix: (Units=GPa)
#
#
# Indices 1 2 3 4 5 6 
#
# 1 107.5097 28.2137 48.3042 5.0823 14.9725 -5.9870
# 2 28.2137 79.3661 13.7097 7.6063 0.9427 -16.2809
# 3 48.3042 13.7097 140.8674 -9.7417 15.2349 3.6370
# 4 5.0823 7.6063 -9.7417 31.5151 -0.2528 3.0272
# 5 14.9725 0.9427 15.2349 -0.2528 33.3282 -2.9444
# 6 -5.9870 -16.2809 3.6370 3.0272 -2.9444 25.2847
#
#
#
# Elastic Compliance Matrix: (Units=1/GPa)
#
#
# Indices 1 2 3 4 5 6 
#
# 1 0.012579 -0.003256 -0.003805 -0.002574 -0.003724 0.001304
# 2 -0.003256 0.016730 -0.001424 -0.004999 0.002583 0.011105
# 3 -0.003805 -0.001424 0.009235 0.004171 -0.002791 -0.003970
# 4 -0.002574 -0.004999 0.004171 0.035479 -0.001118 -0.008806
# 5 -0.003724 0.002583 -0.002791 -0.001118 0.033331 0.005198
# 6 0.001304 0.011105 -0.003970 -0.008806 0.005198 0.049240
#
#
# Mechanical properties :
#
#
# Convention : Reuss Voigt Hill
#
# Bulk Modulus (GPa) = 46.35237 56.46649 51.40943
# Shear Modulus (GPa) = 27.66199 33.85997 30.76098
#
# Velocity S-wave (km/s) = 3.58546 3.96686 3.78097
# Velocity P-wave (km/s) = 6.21951 6.87192 6.55384
#
# Compressibility (1/GPa) = 0.02157387
#
# Stress axis : x y z
#
# Youngs Moduli (GPa) = 79.50069 59.77402 108.28269
#
# Poissons Ratio (x) = 0.19461 0.41205
# Poissons Ratio (y) = 0.25884 0.15415
# Poissons Ratio (z) = 0.30253 0.08509
#
# Static dielectric constant tensor:
#      x y z
#    x 3.836640 -0.264260 0.255520 
#    y -0.264260 3.951910 0.250620 
#    z 0.255520 0.250620 4.269080 
# 
# 
# High freq. dielectric constant tensor:
#      x y z
#    x 1.833400 -0.026380 0.015280 
#    y -0.026380 1.831260 0.008360 
#    z 0.015280 0.008360 1.855930 
# 
# From -- ./inp_files/559595.got.cif
#   From: 2010.06.25/outbox.cif.g09.slc.cpg/sg2_280_cif.got.tgz:559595.got - 2010.06.27 13:26:56.
