data_PCOD8004520
_publ_section_title
;
Structure prediction by ZEFSAII (Michael W. Deem and Ramdas Pophale) SiO2 
 PCOD8004520
Probable space group: P -1
;
_chemical_formula_sum "Si O2"
_cell_formula_units_Z 14
_cell_length_a 13.068982
_cell_length_b 11.974955
_cell_length_c 11.006608
_cell_angle_alpha 73.025449
_cell_angle_beta 77.419289
_cell_angle_gamma 141.385078
_cell_volume 683.459425
_symmetry_space_group_name_H-M "P -1"
_symmetry_group_IT_number 2
_symmetry_cell_setting 'triclinic'
loop_
_space_group_symop_operation_xyz
x,y,z
-x,-y,-z
loop_
_atom_site_type_symbol
_atom_site_label
_atom_site_fract_x
_atom_site_fract_y
_atom_site_fract_z
Si Si1 0.654620 0.495036 0.001192
Si Si2 0.570326 0.676284 0.342054
Si Si3 0.877289 0.624000 0.411764
Si Si4 0.519558 0.065030 0.608154
Si Si5 0.728741 0.814171 0.987479
Si Si6 0.128921 0.839973 0.744970
Si Si7 0.727157 0.040018 0.608796
O O1 0.525943 0.392839 0.937608
O O2 0.444517 0.244238 0.229545
O O3 0.787009 0.745345 0.937531
O O4 0.836507 0.566613 0.917947
O O5 0.500000 0.500000 0.500000
O O6 0.323952 0.499217 0.429893
O O7 0.757721 0.932245 0.297616
O O8 0.701952 0.773101 0.151861
O O9 0.736074 0.380363 0.452002
O O10 0.032629 0.720293 0.446415
O O11 0.045516 0.870105 0.198576
O O12 0.588905 0.022597 0.684988
O O13 0.500000 0.000000 0.500000
O O14 0.251545 0.852074 0.780896
O O15 0.197709 0.894582 0.570096
#
# Coordination Sequence:
#
# PCOD8004520 Si02
#       7
#     2   2   2   2   2   2   2
#     4  10  21  37  58  83 113 151 187 227 277 329
#     4  11  22  35  55  84 116 148 184 229 280 332
#     4  10  21  38  60  82 111 151 187 229 277 329
#     4   9  20  37  58  84 112 146 186 232 282 326
#     4  10  22  38  57  84 115 148 188 227 274 337
#     4  10  21  35  55  83 113 146 184 231 281 327
#     4  10  20  38  60  81 112 149 190 231 272 330
#
# _framework density 20.484026
#
# number of rings (size 3 to 8) (size 9 to 14) (size 15 to 20)
#    0.000    2.000    0.000    3.000    0.000    6.286 
#    0.000   10.000    0.000   15.429    0.000    0.000 
#    0.000    0.000    0.000    0.000    0.000    0.000 
#
# Total GULP energy -173498.107400 kJ/mol
# GULP energy per Si atom -12392.721957 kJ/mol
# Density = 2.043740 g / cm^3
# Si number density = 20.484026 Si / 1000 Ang^3
#
#
#
# Elastic Constant Matrix: (Units=GPa)
#
#
# Indices 1 2 3 4 5 6 
#
# 1 113.4272 35.7271 26.4606 -6.6977 -16.4033 8.6036
# 2 35.7271 101.0036 37.5325 0.0594 -0.7733 -6.2315
# 3 26.4606 37.5325 68.5680 8.1060 -4.8932 3.8996
# 4 -6.6977 0.0594 8.1060 27.5259 3.6120 1.0143
# 5 -16.4033 -0.7733 -4.8932 3.6120 37.5270 -6.9709
# 6 8.6036 -6.2315 3.8996 1.0143 -6.9709 31.8937
#
#
#
# Elastic Compliance Matrix: (Units=1/GPa)
#
#
# Indices 1 2 3 4 5 6 
#
# 1 0.011356 -0.003192 -0.002586 0.003135 0.003767 -0.002647
# 2 -0.003192 0.013791 -0.006789 0.001222 -0.001362 0.004049
# 3 -0.002586 -0.006789 0.020349 -0.006716 0.001553 -0.002564
# 4 0.003135 0.001222 -0.006716 0.039612 -0.003635 -0.001840
# 5 0.003767 -0.001362 0.001553 -0.003635 0.029775 0.005151
# 6 -0.002647 0.004049 -0.002564 -0.001840 0.005151 0.034357
#
#
# Mechanical properties :
#
#
# Convention : Reuss Voigt Hill
#
# Bulk Modulus (GPa) = 49.11313 53.60436 51.35874
# Shear Modulus (GPa) = 27.59956 31.60789 29.60373
#
# Velocity S-wave (km/s) = 3.67464 3.93243 3.80572
# Velocity P-wave (km/s) = 6.48323 6.84429 6.66621
#
# Compressibility (1/GPa) = 0.02036115
#
# Stress axis : x y z
#
# Youngs Moduli (GPa) = 88.06197 72.50990 49.14267
#
# Poissons Ratio (x) = 0.23146 0.12709
# Poissons Ratio (y) = 0.28110 0.33364
# Poissons Ratio (z) = 0.22774 0.49228
#
# Static dielectric constant tensor:
#      x y z
#    x 4.521200 0.091970 -0.222310 
#    y 0.091970 3.714280 -0.157070 
#    z -0.222310 -0.157070 3.475510 
# 
# 
# High freq. dielectric constant tensor:
#      x y z
#    x 1.822680 0.008430 -0.010520 
#    y 0.008430 1.806250 -0.012480 
#    z -0.010520 -0.012480 1.777730 
# 
# From -- ./inp_files/171342.got.cif
#   From: 2010.06.25/outbox.cif.g09.slc.cpg/sg2_86_cif.got.tgz:171342.got - 2010.06.27 13:26:56.
