data_PCOD8004019
_publ_section_title
;
Structure prediction by ZEFSAII (Michael W. Deem and Ramdas Pophale) SiO2 
 PCOD8004019
Probable space group: P -1
;
_chemical_formula_sum "Si O2"
_cell_formula_units_Z 12
_cell_length_a 16.717156
_cell_length_b 8.427606
_cell_length_c 15.076232
_cell_angle_alpha 66.075851
_cell_angle_beta 20.999078
_cell_angle_gamma 54.777311
_cell_volume 554.001537
_symmetry_space_group_name_H-M "P -1"
_symmetry_group_IT_number 2
_symmetry_cell_setting 'triclinic'
loop_
_space_group_symop_operation_xyz
x,y,z
-x,-y,-z
loop_
_atom_site_type_symbol
_atom_site_label
_atom_site_fract_x
_atom_site_fract_y
_atom_site_fract_z
Si Si1 0.751874 0.941234 0.691586
Si Si2 0.317568 0.029634 0.438507
Si Si3 0.146191 0.404153 0.067239
Si Si4 0.403245 0.192973 0.490316
Si Si5 0.820597 0.313300 0.551428
Si Si6 0.723697 0.307689 0.041431
O O1 0.044690 0.741125 0.477438
O O2 0.702349 0.877902 0.660579
O O3 0.754752 0.147201 0.629220
O O4 0.500000 0.000000 0.000000
O O5 0.375917 0.143055 0.427998
O O6 0.573809 0.772220 0.237999
O O7 0.010340 0.085629 0.758483
O O8 0.217516 0.522000 0.034709
O O9 0.898180 0.588559 0.216431
O O10 0.039646 0.286991 0.258771
O O11 0.500000 0.000000 0.500000
O O12 0.632286 0.239315 0.238507
O O13 0.534580 0.562466 0.790936
#
# Coordination Sequence:
#
# PCOD8004019 Si02
#       6
#     2   2   2   2   2   2
#     4  11  21  36  64  93 128 163 208 248 299 364
#     4  11  23  38  66  93 122 166 206 252 306 363
#     4  10  21  42  64  90 128 161 203 258 304 362
#     4  10  25  44  64  92 123 159 207 259 313 369
#     4  10  20  37  63  88 128 169 198 253 299 358
#     4  10  22  41  63  90 126 162 204 257 302 364
#
# _framework density 21.660589000000002
#
# number of rings (size 3 to 8) (size 9 to 14) (size 15 to 20)
#    0.000    1.667    3.333    0.000    2.333    4.000 
#    0.000   13.333    0.000    0.000    0.000    0.000 
#    0.000    0.000    0.000    0.000    0.000    0.000 
#
# Total GULP energy -148683.065350 kJ/mol
# GULP energy per Si atom -12390.255446 kJ/mol
# Density = 2.161129 g / cm^3
# Si number density = 21.660589 Si / 1000 Ang^3
#
#
#
# Elastic Constant Matrix: (Units=GPa)
#
#
# Indices 1 2 3 4 5 6 
#
# 1 61.9067 32.2255 30.6062 -9.9347 -7.0428 -2.2591
# 2 32.2255 128.3597 75.7129 -2.6301 -13.3671 -26.4253
# 3 30.6062 75.7129 174.3350 24.2361 -21.1254 -14.1332
# 4 -9.9347 -2.6301 24.2361 47.8508 -2.4787 -4.9044
# 5 -7.0428 -13.3671 -21.1254 -2.4787 20.4116 8.2680
# 6 -2.2591 -26.4253 -14.1332 -4.9044 8.2680 29.4887
#
#
#
# Elastic Compliance Matrix: (Units=1/GPa)
#
#
# Indices 1 2 3 4 5 6 
#
# 1 0.020533 -0.003899 -0.002410 0.005134 0.004017 -0.003349
# 2 -0.003899 0.013962 -0.005190 0.003611 -0.001487 0.010742
# 3 -0.002410 -0.005190 0.009736 -0.005685 0.006326 -0.002888
# 4 0.005134 0.003611 -0.005685 0.025551 -0.000827 0.005385
# 5 0.004017 -0.001487 0.006326 -0.000827 0.062152 -0.015556
# 6 -0.003349 0.010742 -0.002888 0.005385 -0.015556 0.047154
#
#
# Mechanical properties :
#
#
# Convention : Reuss Voigt Hill
#
# Bulk Modulus (GPa) = 47.09845 71.29895 59.19870
# Shear Modulus (GPa) = 23.90466 34.62067 29.26267
#
# Velocity S-wave (km/s) = 3.32565 4.00224 3.67953
# Velocity P-wave (km/s) = 6.04464 7.37192 6.74103
#
# Compressibility (1/GPa) = 0.02123212
#
# Stress axis : x y z
#
# Youngs Moduli (GPa) = 48.70140 71.62471 102.71279
#
# Poissons Ratio (x) = 0.27930 0.24751
# Poissons Ratio (y) = 0.18991 0.53309
# Poissons Ratio (z) = 0.11736 0.37174
#
# Static dielectric constant tensor:
#      x y z
#    x 3.761630 -0.169850 -0.491020 
#    y -0.169850 3.959610 0.262070 
#    z -0.491020 0.262070 4.445850 
# 
# 
# High freq. dielectric constant tensor:
#      x y z
#    x 1.824190 -0.010460 -0.035300 
#    y -0.010460 1.846600 0.004590 
#    z -0.035300 0.004590 1.864670 
# 
# From -- ./inp_files/29312.got.cif
#   From: 2010.06.25/outbox.cif.g09.slc.cpg/sg2_15_cif.got.tgz:29312.got - 2010.06.27 13:26:56.
