data_PCOD8004312
_publ_section_title
;
Structure prediction by ZEFSAII (Michael W. Deem and Ramdas Pophale) SiO2 
 PCOD8004312
Probable space group: P -1
;
_chemical_formula_sum "Si O2"
_cell_formula_units_Z 16
_cell_length_a 8.014181
_cell_length_b 13.759898
_cell_length_c 10.127991
_cell_angle_alpha 40.048862
_cell_angle_beta 106.264190
_cell_angle_gamma 109.842577
_cell_volume 675.587681
_symmetry_space_group_name_H-M "P -1"
_symmetry_group_IT_number 2
_symmetry_cell_setting 'triclinic'
loop_
_space_group_symop_operation_xyz
x,y,z
-x,-y,-z
loop_
_atom_site_type_symbol
_atom_site_label
_atom_site_fract_x
_atom_site_fract_y
_atom_site_fract_z
Si Si1 0.356022 0.925160 0.148997
Si Si2 0.115333 0.045188 0.781302
Si Si3 0.727822 0.410636 0.469348
Si Si4 0.971096 0.394620 0.979736
Si Si5 0.707069 0.938923 0.735299
Si Si6 0.094628 0.389206 0.470682
Si Si7 0.178574 0.944832 0.632122
Si Si8 0.633486 0.592838 0.038156
O O1 0.370391 0.746679 0.321840
O O2 0.384986 0.980399 0.251224
O O3 0.500000 0.000000 0.000000
O O4 0.171652 0.964657 0.010614
O O5 0.143027 0.228861 0.607777
O O6 0.242208 0.022779 0.707203
O O7 0.914902 0.957782 0.797372
O O8 0.798688 0.549634 0.439269
O O9 0.597581 0.480263 0.273190
O O10 0.884227 0.356249 0.479539
O O11 0.160034 0.373698 0.989772
O O12 0.858587 0.475540 0.767774
O O13 0.000000 0.500000 0.000000
O O14 0.849945 0.236548 0.163844
O O15 0.686984 0.011192 0.508582
O O16 0.599517 0.762019 0.889191
O O17 0.000000 0.000000 0.500000
O O18 0.500000 0.500000 0.000000
#
# Coordination Sequence:
#
# PCOD8004312 Si02
#       8
#     2   2   2   2   2   2   2   2
#     4  12  27  46  67 101 140 177 225 285 349 411
#     4  11  21  42  74 100 131 178 228 279 337 411
#     4  10  23  42  66 103 133 173 231 280 335 401
#     4  11  21  38  67 104 140 169 228 281 333 400
#     4  11  23  45  71  96 132 184 234 273 334 411
#     4  10  21  38  74 103 131 173 229 287 329 392
#     4  10  20  37  68 103 129 167 231 277 321 396
#     4  11  25  45  66  97 142 184 219 277 351 411
#
# _framework density 23.683084999999998
#
# number of rings (size 3 to 8) (size 9 to 14) (size 15 to 20)
#    0.000    1.250    3.750    3.375    5.250    1.000 
#    4.500    2.500    0.000    0.000    0.000    0.000 
#    0.000    0.000    0.000    0.000    0.000    0.000 
#
# Total GULP energy -198338.335480 kJ/mol
# GULP energy per Si atom -12396.145968 kJ/mol
# Density = 2.362918 g / cm^3
# Si number density = 23.683085 Si / 1000 Ang^3
#
#
#
# Elastic Constant Matrix: (Units=GPa)
#
#
# Indices 1 2 3 4 5 6 
#
# 1 45.0289 18.3018 17.8399 -9.6327 -19.6308 -12.6108
# 2 18.3018 131.8059 67.2414 -14.2553 -3.2338 -20.4561
# 3 17.8399 67.2414 196.1943 -16.9837 -21.7235 6.0542
# 4 -9.6327 -14.2553 -16.9837 52.4705 -2.0965 -5.0082
# 5 -19.6308 -3.2338 -21.7235 -2.0965 25.5129 4.5451
# 6 -12.6108 -20.4561 6.0542 -5.0082 4.5451 31.7011
#
#
#
# Elastic Compliance Matrix: (Units=1/GPa)
#
#
# Indices 1 2 3 4 5 6 
#
# 1 0.042058 -0.002754 0.001104 0.009716 0.031659 0.011739
# 2 -0.002754 0.011594 -0.004470 0.001763 -0.005798 0.008349
# 3 0.001104 -0.004470 0.007651 0.001315 0.007762 -0.004812
# 4 0.009716 0.001763 0.001315 0.022792 0.009445 0.006998
# 5 0.031659 -0.005798 0.007762 0.009445 0.070426 -0.001235
# 6 0.011739 0.008349 -0.004812 0.006998 -0.001235 0.043804
#
#
# Mechanical properties :
#
#
# Convention : Reuss Voigt Hill
#
# Bulk Modulus (GPa) = 20.38226 64.42169 42.40197
# Shear Modulus (GPa) = 22.03431 39.91330 30.97380
#
# Velocity S-wave (km/s) = 3.05353 4.10970 3.62034
# Velocity P-wave (km/s) = 4.58879 7.05551 5.95135
#
# Compressibility (1/GPa) = 0.04906228
#
# Stress axis : x y z
#
# Youngs Moduli (GPa) = 23.77665 86.25148 130.71012
#
# Poissons Ratio (x) = 0.23750 -0.14426
# Poissons Ratio (y) = 0.06547 0.58431
# Poissons Ratio (z) = -0.02624 0.38557
#
# Static dielectric constant tensor:
#      x y z
#    x 3.928800 -0.229100 -0.055240 
#    y -0.229100 4.574670 0.409120 
#    z -0.055240 0.409120 4.742650 
# 
# 
# High freq. dielectric constant tensor:
#      x y z
#    x 1.908820 -0.011340 -0.005340 
#    y -0.011340 1.953590 0.003670 
#    z -0.005340 0.003670 1.957580 
# 
# From -- ./inp_files/398284.got.cif
#   From: 2010.06.25/outbox.cif.g09.slc.cpg/sg2_200_cif.got.tgz:398284.got - 2010.06.27 13:26:56.
