data_PCOD8004535
_publ_section_title
;
Structure prediction by ZEFSAII (Michael W. Deem and Ramdas Pophale) SiO2 
 PCOD8004535
Probable space group: P -1
;
_chemical_formula_sum "Si O2"
_cell_formula_units_Z 14
_cell_length_a 12.621061
_cell_length_b 12.717086
_cell_length_c 12.032114
_cell_angle_alpha 141.131724
_cell_angle_beta 45.617803
_cell_angle_gamma 143.402603
_cell_volume 708.099199
_symmetry_space_group_name_H-M "P -1"
_symmetry_group_IT_number 2
_symmetry_cell_setting 'triclinic'
loop_
_space_group_symop_operation_xyz
x,y,z
-x,-y,-z
loop_
_atom_site_type_symbol
_atom_site_label
_atom_site_fract_x
_atom_site_fract_y
_atom_site_fract_z
Si Si1 0.370554 0.071142 0.676745
Si Si2 0.264924 0.503798 0.557343
Si Si3 0.081197 0.653366 0.464279
Si Si4 0.392990 0.732645 0.145156
Si Si5 0.413026 0.392004 0.740297
Si Si6 0.531722 0.933516 0.805572
Si Si7 0.203991 0.185544 0.513547
O O1 0.409487 0.143418 0.836517
O O2 0.425114 0.267530 0.727588
O O3 0.500000 0.000000 0.500000
O O4 0.166219 0.879487 0.640735
O O5 0.397324 0.488053 0.365567
O O6 0.348645 0.737896 0.724361
O O7 0.239525 0.382907 0.588574
O O8 0.073523 0.402388 0.555402
O O9 0.233172 0.644048 0.280780
O O10 0.000000 0.500000 0.500000
O O11 0.380749 0.880666 0.192642
O O12 0.368988 0.546778 0.943510
O O13 0.248743 0.234888 0.650954
O O14 0.671380 0.876383 0.682092
O O15 0.500000 0.000000 0.000000
O O16 0.000000 0.000000 0.500000
#
# Coordination Sequence:
#
# PCOD8004535 Si02
#       7
#     2   2   2   2   2   2   2
#     4  10  20  38  60  83 113 152 191 235 287 342
#     4  11  21  38  60  85 116 155 195 240 289 344
#     4  11  22  39  61  87 117 154 194 238 290 347
#     4  11  22  39  60  87 117 153 194 241 290 344
#     4  11  22  39  60  86 116 153 195 240 289 344
#     4  11  22  39  61  87 117 154 195 240 290 345
#     4  11  22  38  58  85 118 155 194 240 290 344
#
# _framework density 19.771241
#
# number of rings (size 3 to 8) (size 9 to 14) (size 15 to 20)
#    0.000    1.143    0.000   11.571    0.000    1.143 
#    0.000    8.571    0.000    0.000    0.000    0.000 
#    0.000    0.000    0.000    0.000    0.000    0.000 
#
# Total GULP energy -173612.273856 kJ/mol
# GULP energy per Si atom -12400.876704 kJ/mol
# Density = 1.972624 g / cm^3
# Si number density = 19.771241 Si / 1000 Ang^3
#
#
#
# Elastic Constant Matrix: (Units=GPa)
#
#
# Indices 1 2 3 4 5 6 
#
# 1 119.9666 32.3256 37.0508 6.7212 5.6565 8.4922
# 2 32.3256 101.6086 37.5012 6.5146 -0.4089 -2.7365
# 3 37.0508 37.5012 126.4950 5.2344 10.3897 10.4323
# 4 6.7212 6.5146 5.2344 25.8451 -10.3291 2.4177
# 5 5.6565 -0.4089 10.3897 -10.3291 24.7781 9.4532
# 6 8.4922 -2.7365 10.4323 2.4177 9.4532 55.1533
#
#
#
# Elastic Compliance Matrix: (Units=1/GPa)
#
#
# Indices 1 2 3 4 5 6 
#
# 1 0.009826 -0.002322 -0.001843 -0.002404 -0.002207 -0.000796
# 2 -0.002322 0.011809 -0.002932 -0.001624 0.000727 0.001445
# 3 -0.001843 -0.002932 0.009855 -0.002485 -0.004471 -0.000850
# 4 -0.002404 -0.001624 -0.002485 0.050713 0.024890 -0.005730
# 5 -0.002207 0.000727 -0.004471 0.024890 0.056789 -0.009603
# 6 -0.000796 0.001445 -0.000850 -0.005730 -0.009603 0.020383
#
#
# Mechanical properties :
#
#
# Convention : Reuss Voigt Hill
#
# Bulk Modulus (GPa) = 57.82257 62.42503 60.12380
# Shear Modulus (GPa) = 27.88095 37.23480 32.55788
#
# Velocity S-wave (km/s) = 3.75931 4.34439 4.06239
# Velocity P-wave (km/s) = 6.93920 7.53705 7.24429
#
# Compressibility (1/GPa) = 0.01729429
#
# Stress axis : x y z
#
# Youngs Moduli (GPa) = 101.77450 84.68451 101.47245
#
# Poissons Ratio (x) = 0.19662 0.18704
# Poissons Ratio (y) = 0.23630 0.29756
# Poissons Ratio (z) = 0.18759 0.24833
#
# Static dielectric constant tensor:
#      x y z
#    x 3.998970 -0.016890 0.242950 
#    y -0.016890 3.831000 0.199550 
#    z 0.242950 0.199550 3.579900 
# 
# 
# High freq. dielectric constant tensor:
#      x y z
#    x 1.790920 -0.008460 0.012690 
#    y -0.008460 1.775060 0.015160 
#    z 0.012690 0.015160 1.763100 
# 
# From -- ./inp_files/175799.got.cif
#   From: 2010.06.25/outbox.cif.g09.slc.cpg/sg2_88_cif.got.tgz:175799.got - 2010.06.27 13:26:56.
