data_PCOD8004475
_publ_section_title
;
Structure prediction by ZEFSAII (Michael W. Deem and Ramdas Pophale) SiO2 
 PCOD8004475
Probable space group: P -1
;
_chemical_formula_sum "Si O2"
_cell_formula_units_Z 14
_cell_length_a 8.610373
_cell_length_b 20.132635
_cell_length_c 17.711085
_cell_angle_alpha 158.069987
_cell_angle_beta 36.759768
_cell_angle_gamma 130.831450
_cell_volume 629.010441
_symmetry_space_group_name_H-M "P -1"
_symmetry_group_IT_number 2
_symmetry_cell_setting 'triclinic'
loop_
_space_group_symop_operation_xyz
x,y,z
-x,-y,-z
loop_
_atom_site_type_symbol
_atom_site_label
_atom_site_fract_x
_atom_site_fract_y
_atom_site_fract_z
Si Si1 0.530466 0.679421 0.777645
Si Si2 0.068656 0.100526 0.150937
Si Si3 0.411585 0.102115 0.766333
Si Si4 0.601661 0.283655 0.645767
Si Si5 0.211196 0.701950 0.250784
Si Si6 0.761573 0.261937 0.204870
Si Si7 0.225296 0.974403 0.320728
O O1 0.762141 0.768309 0.797445
O O2 0.654152 0.447998 0.499390
O O3 0.435296 0.707959 0.758723
O O4 0.272110 0.791997 0.054681
O O5 0.785236 0.235243 0.447200
O O6 0.259792 0.921913 0.940601
O O7 0.000000 0.000000 0.000000
O O8 0.576016 0.206345 0.766386
O O9 0.483273 0.069798 0.794512
O O10 0.499628 0.886145 0.470976
O O11 0.078533 0.226583 0.018727
O O12 0.790681 0.303171 0.662837
O O13 0.325368 0.479844 0.944391
O O14 0.894487 0.827653 0.474613
O O15 0.000000 0.000000 0.500000
#
# Coordination Sequence:
#
# PCOD8004475 Si02
#       7
#     2   2   2   2   2   2   2
#     4  11  22  41  62  86 120 154 197 245 290 349
#     4  11  23  39  61  89 120 154 194 244 295 348
#     4  10  20  38  59  85 117 151 192 241 294 344
#     4  10  21  37  60  86 112 152 196 234 291 348
#     4  10  21  38  59  84 117 153 192 240 287 346
#     4  10  23  39  63  89 114 157 199 241 294 345
#     4  10  22  38  59  86 118 154 192 240 292 347
#
# _framework density 22.257183000000001
#
# number of rings (size 3 to 8) (size 9 to 14) (size 15 to 20)
#    0.000    1.714    0.000    5.143    0.000    6.286 
#    0.000    7.143    0.000    0.000    0.000    0.000 
#    0.000    0.000    0.000    0.000    0.000    0.000 
#
# Total GULP energy -173525.266685 kJ/mol
# GULP energy per Si atom -12394.661906 kJ/mol
# Density = 2.220653 g / cm^3
# Si number density = 22.257183 Si / 1000 Ang^3
#
#
#
# Elastic Constant Matrix: (Units=GPa)
#
#
# Indices 1 2 3 4 5 6 
#
# 1 77.8211 -10.5807 22.9902 -4.9020 13.7873 -1.7062
# 2 -10.5807 42.2928 21.0213 -3.3298 12.4838 2.2521
# 3 22.9902 21.0213 176.6656 9.5414 25.3756 -5.6045
# 4 -4.9020 -3.3298 9.5414 31.8474 -6.2225 4.7041
# 5 13.7873 12.4838 25.3756 -6.2225 36.3517 -1.9098
# 6 -1.7062 2.2521 -5.6045 4.7041 -1.9098 25.1284
#
#
#
# Elastic Compliance Matrix: (Units=1/GPa)
#
#
# Indices 1 2 3 4 5 6 
#
# 1 0.015775 0.007219 -0.002150 0.002703 -0.006554 -0.001060
# 2 0.007219 0.030821 -0.003467 0.004007 -0.010458 -0.004590
# 3 -0.002150 -0.003467 0.007136 -0.003845 -0.003517 0.002209
# 4 0.002703 0.004007 -0.003845 0.035629 0.006001 -0.007247
# 5 -0.006554 -0.010458 -0.003517 0.006001 0.037143 0.001407
# 6 -0.001060 -0.004590 0.002209 -0.007247 0.001407 0.042091
#
#
# Mechanical properties :
#
#
# Convention : Reuss Voigt Hill
#
# Bulk Modulus (GPa) = 17.56362 40.40456 28.98409
# Shear Modulus (GPa) = 27.11965 36.22209 31.67087
#
# Velocity S-wave (km/s) = 3.49444 4.03852 3.77629
# Velocity P-wave (km/s) = 4.91832 6.31974 5.66255
#
# Compressibility (1/GPa) = 0.05693589
#
# Stress axis : x y z
#
# Youngs Moduli (GPa) = 63.39176 32.44587 140.14236
#
# Poissons Ratio (x) = -0.23423 0.30131
# Poissons Ratio (y) = -0.45763 0.48583
# Poissons Ratio (z) = 0.13629 0.11248
#
# Static dielectric constant tensor:
#      x y z
#    x 4.437790 -0.146640 -0.027440 
#    y -0.146640 3.760350 0.184750 
#    z -0.027440 0.184750 4.506080 
# 
# 
# High freq. dielectric constant tensor:
#      x y z
#    x 1.881300 -0.013610 0.005010 
#    y -0.013610 1.852040 0.001790 
#    z 0.005010 0.001790 1.896060 
# 
# From -- ./inp_files/257747.got.cif
#   From: 2010.06.25/outbox.cif.g09.slc.cpg/sg2_129_cif.got.tgz:257747.got - 2010.06.27 13:26:56.
