data_PCOD8004310
_publ_section_title
;
Structure prediction by ZEFSAII (Michael W. Deem and Ramdas Pophale) SiO2 
 PCOD8004310
Probable space group: P -1
;
_chemical_formula_sum "Si O2"
_cell_formula_units_Z 16
_cell_length_a 8.900998
_cell_length_b 13.768582
_cell_length_c 11.210185
_cell_angle_alpha 33.580732
_cell_angle_beta 85.593926
_cell_angle_gamma 97.392559
_cell_volume 709.905085
_symmetry_space_group_name_H-M "P -1"
_symmetry_group_IT_number 2
_symmetry_cell_setting 'triclinic'
loop_
_space_group_symop_operation_xyz
x,y,z
-x,-y,-z
loop_
_atom_site_type_symbol
_atom_site_label
_atom_site_fract_x
_atom_site_fract_y
_atom_site_fract_z
Si Si1 0.094734 0.383816 0.551138
Si Si2 0.825374 0.135046 0.650493
Si Si3 0.826523 0.746357 0.081030
Si Si4 0.627221 0.369777 0.348382
Si Si5 0.606011 0.215047 0.247044
Si Si6 0.912154 0.765800 0.655399
Si Si7 0.913253 0.155699 0.210740
Si Si8 0.345286 0.494050 0.225782
O O1 0.179887 0.300375 0.731427
O O2 0.240624 0.513781 0.325865
O O3 0.000000 0.500000 0.500000
O O4 0.963593 0.220186 0.653515
O O5 0.679480 0.217403 0.576643
O O6 0.911972 0.183915 0.467332
O O7 0.751593 0.910940 0.902287
O O8 0.734333 0.572692 0.181014
O O9 0.013638 0.817830 0.954232
O O10 0.640841 0.336514 0.241037
O O11 0.443734 0.358496 0.395613
O O12 0.770226 0.232122 0.152717
O O13 0.500000 0.000000 0.500000
O O14 0.535875 0.313316 0.043699
O O15 0.778807 0.588959 0.789067
O O16 0.939493 0.727554 0.830532
O O17 0.847365 0.937777 0.473215
#
# Coordination Sequence:
#
# PCOD8004310 Si02
#       8
#     2   2   2   2   2   2   2   2
#     4  11  22  46  72 100 132 177 236 280 330 396
#     4  10  22  42  69 100 134 174 228 279 328 402
#     4  11  24  41  73 100 135 181 231 280 326 396
#     4  12  25  43  68  99 140 179 221 277 347 401
#     4  12  26  41  67 101 140 178 221 279 348 405
#     4   9  19  39  63  95 131 171 220 274 331 401
#     4  10  20  37  68 100 129 171 226 272 331 401
#     4  11  26  42  65  96 139 179 221 279 339 404
#
# _framework density 22.538226999999999
#
# number of rings (size 3 to 8) (size 9 to 14) (size 15 to 20)
#    0.000    1.250    2.500    3.000    3.500    1.500 
#    0.000    1.875    0.000    0.000    0.000    0.000 
#    0.000    0.000    0.000    0.000    0.000    0.000 
#
# Total GULP energy -198277.414145 kJ/mol
# GULP energy per Si atom -12392.338384 kJ/mol
# Density = 2.248693 g / cm^3
# Si number density = 22.538227 Si / 1000 Ang^3
#
#
#
# Elastic Constant Matrix: (Units=GPa)
#
#
# Indices 1 2 3 4 5 6 
#
# 1 95.4266 32.4817 49.7969 -1.6562 17.7429 -20.6792
# 2 32.4817 115.4154 62.1472 2.4580 6.6435 -7.6679
# 3 49.7969 62.1472 134.2015 0.6704 15.8194 1.3424
# 4 -1.6562 2.4580 0.6704 37.3615 -7.4864 7.9627
# 5 17.7429 6.6435 15.8194 -7.4864 23.1568 -2.7396
# 6 -20.6792 -7.6679 1.3424 7.9627 -2.7396 31.9094
#
#
#
# Elastic Compliance Matrix: (Units=1/GPa)
#
#
# Indices 1 2 3 4 5 6 
#
# 1 0.017641 -0.000809 -0.005147 -0.003429 -0.009517 0.011493
# 2 -0.000809 0.011948 -0.005352 -0.001190 0.000811 0.002939
# 3 -0.005147 -0.005352 0.012300 0.000391 -0.003452 -0.005533
# 4 -0.003429 -0.001190 0.000391 0.030987 0.011624 -0.009259
# 5 -0.009517 0.000811 -0.003452 0.011624 0.055894 -0.003929
# 6 0.011493 0.002939 -0.005533 -0.009259 -0.003929 0.041699
#
#
# Mechanical properties :
#
#
# Convention : Reuss Voigt Hill
#
# Bulk Modulus (GPa) = 51.88559 70.43281 61.15920
# Shear Modulus (GPa) = 25.06139 31.86007 28.46073
#
# Velocity S-wave (km/s) = 3.33821 3.76387 3.55741
# Velocity P-wave (km/s) = 6.15868 7.08570 6.63839
#
# Compressibility (1/GPa) = 0.01927317
#
# Stress axis : x y z
#
# Youngs Moduli (GPa) = 56.68504 83.69896 81.30002
#
# Poissons Ratio (x) = 0.06768 0.41849
# Poissons Ratio (y) = 0.04584 0.43510
# Poissons Ratio (z) = 0.29178 0.44794
#
# Static dielectric constant tensor:
#      x y z
#    x 4.013860 -0.080530 0.241700 
#    y -0.080530 4.428770 0.068910 
#    z 0.241700 0.068910 4.060670 
# 
# 
# High freq. dielectric constant tensor:
#      x y z
#    x 1.878050 -0.006840 0.019050 
#    y -0.006840 1.895610 -0.005650 
#    z 0.019050 -0.005650 1.881540 
# 
# From -- ./inp_files/398138.got.cif
#   From: 2010.06.25/outbox.cif.g09.slc.cpg/sg2_200_cif.got.tgz:398138.got - 2010.06.27 13:26:56.
