data_PCOD8004026
_publ_section_title
;
Structure prediction by ZEFSAII (Michael W. Deem and Ramdas Pophale) SiO2 
 PCOD8004026
Probable space group: P -1
;
_chemical_formula_sum "Si O2"
_cell_formula_units_Z 12
_cell_length_a 20.042054
_cell_length_b 9.209364
_cell_length_c 14.660888
_cell_angle_alpha 38.473534
_cell_angle_beta 158.094250
_cell_angle_gamma 132.215264
_cell_volume 610.577419
_symmetry_space_group_name_H-M "P -1"
_symmetry_group_IT_number 2
_symmetry_cell_setting 'triclinic'
loop_
_space_group_symop_operation_xyz
x,y,z
-x,-y,-z
loop_
_atom_site_type_symbol
_atom_site_label
_atom_site_fract_x
_atom_site_fract_y
_atom_site_fract_z
Si Si1 0.808632 0.945421 0.677024
Si Si2 0.140105 0.618851 0.356876
Si Si3 0.476420 0.757208 0.300992
Si Si4 0.213805 0.936290 0.612094
Si Si5 0.097751 0.129091 0.632125
Si Si6 0.589703 0.684784 0.270291
O O1 0.610508 0.889897 0.458756
O O2 0.801600 0.200247 0.588022
O O3 0.862547 0.951149 0.636681
O O4 0.945543 0.731002 0.008866
O O5 0.135857 0.380276 0.525402
O O6 0.290283 0.568213 0.489897
O O7 0.500000 0.500000 0.500000
O O8 0.523522 0.702113 0.281744
O O9 0.281001 0.932950 0.986923
O O10 0.049860 0.821934 0.496442
O O11 0.270964 0.135331 0.654127
O O12 0.410358 0.742447 0.948175
O O13 0.000000 0.000000 0.500000
#
# Coordination Sequence:
#
# PCOD8004026 Si02
#       6
#     2   2   2   2   2   2
#     4  10  25  42  59  90 125 162 203 241 308 358
#     4  11  23  42  63  86 126 164 197 252 298 359
#     4  11  24  39  64  95 121 155 205 253 298 359
#     4  10  21  38  62  93 118 156 204 247 298 363
#     4  12  21  38  66  93 122 155 202 252 299 351
#     4  10  20  37  63  89 120 159 199 247 303 356
#
# _framework density 19.653528000000001
#
# number of rings (size 3 to 8) (size 9 to 14) (size 15 to 20)
#    0.000    1.333    3.333    3.000    2.333    4.667 
#    0.000    0.833    0.000    0.000    0.000    0.000 
#    0.000    0.000    0.000    0.000    0.000    0.000 
#
# Total GULP energy -148700.714806 kJ/mol
# GULP energy per Si atom -12391.726234 kJ/mol
# Density = 1.960880 g / cm^3
# Si number density = 19.653528 Si / 1000 Ang^3
#
#
#
# Elastic Constant Matrix: (Units=GPa)
#
#
# Indices 1 2 3 4 5 6 
#
# 1 74.4981 46.5898 49.4838 2.8374 6.0663 10.8684
# 2 46.5898 96.7405 77.7272 -3.3764 -1.7410 12.5015
# 3 49.4838 77.7272 149.3035 -1.0406 3.3375 4.5363
# 4 2.8374 -3.3764 -1.0406 35.0838 1.2949 -2.5300
# 5 6.0663 -1.7410 3.3375 1.2949 36.1299 -2.1941
# 6 10.8684 12.5015 4.5363 -2.5300 -2.1941 25.1500
#
#
#
# Elastic Compliance Matrix: (Units=1/GPa)
#
#
# Indices 1 2 3 4 5 6 
#
# 1 0.021186 -0.007203 -0.003033 -0.002761 -0.003868 -0.005643
# 2 -0.007203 0.021718 -0.008793 0.001905 0.002655 -0.005674
# 3 -0.003033 -0.008793 0.012196 0.000038 -0.000835 0.003413
# 4 -0.002761 0.001905 0.000038 0.029149 -0.000302 0.003145
# 5 -0.003868 0.002655 -0.000835 -0.000302 0.028724 0.002978
# 6 -0.005643 -0.005674 0.003413 0.003145 0.002978 0.044981
#
#
# Mechanical properties :
#
#
# Convention : Reuss Voigt Hill
#
# Bulk Modulus (GPa) = 58.67837 74.23819 66.45828
# Shear Modulus (GPa) = 24.79041 29.05550 26.92296
#
# Velocity S-wave (km/s) = 3.55543 3.84915 3.70520
# Velocity P-wave (km/s) = 6.83930 7.59013 7.22448
#
# Compressibility (1/GPa) = 0.01704205
#
# Stress axis : x y z
#
# Youngs Moduli (GPa) = 47.20182 46.04532 81.99512
#
# Poissons Ratio (x) = 0.33164 0.24872
# Poissons Ratio (y) = 0.33997 0.72097
# Poissons Ratio (z) = 0.14318 0.40487
#
# Static dielectric constant tensor:
#      x y z
#    x 3.736470 0.228770 -0.201030 
#    y 0.228770 3.647190 -0.035640 
#    z -0.201030 -0.035640 3.479790 
# 
# 
# High freq. dielectric constant tensor:
#      x y z
#    x 1.765090 0.005720 0.001470 
#    y 0.005720 1.753980 0.005760 
#    z 0.001470 0.005760 1.783090 
# 
# From -- ./inp_files/146841.got.cif
#   From: 2010.06.25/outbox.cif.g09.slc.cpg/sg2_74_cif.got.tgz:146841.got - 2010.06.27 13:26:56.
