data_PCOD8004613
_publ_section_title
;
Structure prediction by ZEFSAII (Michael W. Deem and Ramdas Pophale) SiO2 
 PCOD8004613
Probable space group: P -1
;
_chemical_formula_sum "Si O2"
_cell_formula_units_Z 16
_cell_length_a 9.238884
_cell_length_b 15.096033
_cell_length_c 20.018500
_cell_angle_alpha 151.625553
_cell_angle_beta 144.475403
_cell_angle_gamma 38.723193
_cell_volume 749.913111
_symmetry_space_group_name_H-M "P -1"
_symmetry_group_IT_number 2
_symmetry_cell_setting 'triclinic'
loop_
_space_group_symop_operation_xyz
x,y,z
-x,-y,-z
loop_
_atom_site_type_symbol
_atom_site_label
_atom_site_fract_x
_atom_site_fract_y
_atom_site_fract_z
Si Si1 0.704221 0.845695 0.323405
Si Si2 0.197351 0.733073 0.876841
Si Si3 0.567994 0.732720 0.899769
Si Si4 0.894529 0.073024 0.660589
Si Si5 0.214720 0.014020 0.186665
Si Si6 0.145729 0.938286 0.793475
Si Si7 0.035842 0.394563 0.852155
Si Si8 0.463501 0.632914 0.196422
O O1 0.516289 0.993657 0.300726
O O2 0.923666 0.703281 0.269852
O O3 0.534796 0.715592 0.208385
O O4 0.841931 0.962461 0.502193
O O5 0.408602 0.794559 0.949092
O O6 0.280274 0.504838 0.767817
O O7 0.183526 0.834918 0.010906
O O8 0.918562 0.791710 0.774914
O O9 0.359648 0.751560 0.773253
O O10 0.743677 0.518875 0.827768
O O11 0.746102 0.873061 0.042465
O O12 0.628163 0.189555 0.670084
O O13 0.061129 0.228238 0.807464
O O14 0.042333 0.915363 0.664749
O O15 0.086964 0.010942 0.208651
O O16 0.244635 0.515545 0.026151
#
# Coordination Sequence:
#
# PCOD8004613 Si02
#       8
#     2   2   2   2   2   2   2   2
#     4  12  26  40  61  94 131 160 197 256 318 359
#     4  10  21  37  61  92 119 156 206 259 294 354
#     4  10  20  38  60  92 117 160 207 254 293 358
#     4  12  24  42  61  92 129 164 199 250 316 366
#     4  10  21  38  59  90 126 155 199 255 312 351
#     4  10  21  36  62  88 124 158 202 250 310 355
#     4  12  23  41  65  92 121 162 215 252 290 363
#     4  12  22  39  66  93 118 160 216 253 292 360
#
# _framework density 21.335805000000001
#
# number of rings (size 3 to 8) (size 9 to 14) (size 15 to 20)
#    0.000    1.000    5.000    2.250    1.750    0.000 
#    0.000    2.500    0.000    0.000    0.000    0.000 
#    0.000    0.000    0.000    0.000    0.000    0.000 
#
# Total GULP energy -198342.051945 kJ/mol
# GULP energy per Si atom -12396.378247 kJ/mol
# Density = 2.128724 g / cm^3
# Si number density = 21.335805 Si / 1000 Ang^3
#
#
#
# Elastic Constant Matrix: (Units=GPa)
#
#
# Indices 1 2 3 4 5 6 
#
# 1 66.6790 13.1113 19.6751 2.1953 -14.2871 2.0778
# 2 13.1113 122.2798 38.0792 -12.4731 -4.1652 2.7481
# 3 19.6751 38.0792 74.0520 -9.5482 -19.2508 -2.3384
# 4 2.1953 -12.4731 -9.5482 23.5837 0.4164 -5.2242
# 5 -14.2871 -4.1652 -19.2508 0.4164 32.1230 3.0960
# 6 2.0778 2.7481 -2.3384 -5.2242 3.0960 29.1427
#
#
#
# Elastic Compliance Matrix: (Units=1/GPa)
#
#
# Indices 1 2 3 4 5 6 
#
# 1 0.017693 -0.001062 -0.003193 -0.004237 0.006146 -0.002830
# 2 -0.001062 0.010155 -0.005098 0.003344 -0.002210 -0.000457
# 3 -0.003193 -0.005098 0.020410 0.006226 0.009837 0.002417
# 4 -0.004237 0.003344 0.006226 0.049113 0.000756 0.009210
# 5 0.006146 -0.002210 0.009837 0.000756 0.039803 -0.003533
# 6 -0.002830 -0.000457 0.002417 0.009210 -0.003533 0.036779
#
#
# Mechanical properties :
#
#
# Convention : Reuss Voigt Hill
#
# Bulk Modulus (GPa) = 33.83737 44.97132 39.40435
# Shear Modulus (GPa) = 24.69032 29.77956 27.23494
#
# Velocity S-wave (km/s) = 3.40549 3.74003 3.57668
# Velocity P-wave (km/s) = 5.59973 6.30667 5.96369
#
# Compressibility (1/GPa) = 0.02955313
#
# Stress axis : x y z
#
# Youngs Moduli (GPa) = 56.52073 98.46976 48.99573
#
# Poissons Ratio (x) = 0.10458 0.15643
# Poissons Ratio (y) = 0.06003 0.24977
# Poissons Ratio (z) = 0.18045 0.50197
#
# Static dielectric constant tensor:
#      x y z
#    x 4.043080 0.030880 -0.198960 
#    y 0.030880 4.587210 -0.102200 
#    z -0.198960 -0.102200 3.334330 
# 
# 
# High freq. dielectric constant tensor:
#      x y z
#    x 1.849140 0.001770 -0.019940 
#    y 0.001770 1.856730 -0.010570 
#    z -0.019940 -0.010570 1.789200 
# 
# From -- ./inp_files/209490.got.cif
#   From: 2010.06.25/outbox.cif.g09.slc.cpg/sg2_105_cif.got.tgz:209490.got - 2010.06.27 13:26:56.
