data_PCOD8004973
_publ_section_title
;
Structure prediction by ZEFSAII (Michael W. Deem and Ramdas Pophale) SiO2 
 PCOD8004973
Probable space group: P -1
;
_chemical_formula_sum "Si O2"
_cell_formula_units_Z 16
_cell_length_a 19.126363
_cell_length_b 18.194350
_cell_length_c 4.980849
_cell_angle_alpha 115.519344
_cell_angle_beta 71.093480
_cell_angle_gamma 152.878440
_cell_volume 705.607907
_symmetry_space_group_name_H-M "P -1"
_symmetry_group_IT_number 2
_symmetry_cell_setting 'triclinic'
loop_
_space_group_symop_operation_xyz
x,y,z
-x,-y,-z
loop_
_atom_site_type_symbol
_atom_site_label
_atom_site_fract_x
_atom_site_fract_y
_atom_site_fract_z
Si Si1 0.439951 0.990890 0.807267
Si Si2 0.623487 0.906655 0.134107
Si Si3 0.111275 0.179318 0.728546
Si Si4 0.415723 0.292315 0.832066
Si Si5 0.858736 0.049112 0.670585
Si Si6 0.680059 0.631980 0.734175
Si Si7 0.921685 0.345604 0.239093
Si Si8 0.903562 0.233962 0.571763
O O1 0.257407 0.812233 0.751255
O O2 0.500000 0.000000 0.500000
O O3 0.489700 0.136304 0.939532
O O4 0.500000 0.000000 0.000000
O O5 0.539486 0.745224 0.109180
O O6 0.714164 0.043029 0.475280
O O7 0.755177 0.006609 0.917979
O O8 0.257233 0.328954 0.578309
O O9 0.175473 0.229810 0.025552
O O10 0.000000 0.000000 0.500000
O O11 0.996039 0.144176 0.823926
O O12 0.253377 0.124613 0.611146
O O13 0.552112 0.441360 0.682426
O O14 0.396312 0.351325 0.147213
O O15 0.952292 0.193177 0.559548
O O16 0.978466 0.327017 0.336405
O O17 0.000000 0.500000 0.500000
O O18 0.956216 0.356521 0.905407
#
# Coordination Sequence:
#
# PCOD8004973 Si02
#       8
#     2   2   2   2   2   2   2   2
#     4  11  23  41  66  95 125 164 214 274 320 381
#     4  10  22  41  70  97 129 173 232 258 331 408
#     4  12  25  42  65  99 132 174 220 277 319 379
#     4  10  24  41  71  94 132 185 212 273 331 398
#     4  11  22  40  73  91 128 176 227 260 322 395
#     4  11  26  44  63 102 140 167 225 275 333 377
#     4  11  22  41  66  92 127 163 210 261 325 390
#     4  10  20  38  63  95 119 167 213 261 300 399
#
# _framework density 22.675481999999999
#
# number of rings (size 3 to 8) (size 9 to 14) (size 15 to 20)
#    0.000    1.250    3.750    3.000    7.000    1.000 
#    0.000    3.750    0.000    0.000    0.000    0.000 
#    0.000    0.000    0.000    0.000    0.000    0.000 
#
# Total GULP energy -198234.970968 kJ/mol
# GULP energy per Si atom -12389.685686 kJ/mol
# Density = 2.262387 g / cm^3
# Si number density = 22.675482 Si / 1000 Ang^3
#
#
#
# Elastic Constant Matrix: (Units=GPa)
#
#
# Indices 1 2 3 4 5 6 
#
# 1 160.5352 28.5880 15.3674 -4.5472 -2.6320 -24.8173
# 2 28.5880 61.0568 3.7657 -2.0673 -6.6023 -18.2356
# 3 15.3674 3.7657 77.0721 -7.7814 -2.3596 -10.7187
# 4 -4.5472 -2.0673 -7.7814 39.6223 -3.2820 -7.5810
# 5 -2.6320 -6.6023 -2.3596 -3.2820 33.0902 -3.4238
# 6 -24.8173 -18.2356 -10.7187 -7.5810 -3.4238 38.5084
#
#
#
# Elastic Compliance Matrix: (Units=1/GPa)
#
#
# Indices 1 2 3 4 5 6 
#
# 1 0.007316 -0.002113 -0.000658 0.001393 0.000651 0.003863
# 2 -0.002113 0.021034 0.001330 0.003516 0.005523 0.010152
# 3 -0.000658 0.001330 0.014219 0.003946 0.002149 0.005132
# 4 0.001393 0.003516 0.003946 0.028629 0.004941 0.009737
# 5 0.000651 0.005523 0.002149 0.004941 0.032796 0.007522
# 6 0.003863 0.010152 0.005132 0.009737 0.007522 0.037279
#
#
# Mechanical properties :
#
#
# Convention : Reuss Voigt Hill
#
# Bulk Modulus (GPa) = 25.19792 43.78958 34.49375
# Shear Modulus (GPa) = 31.76941 38.97371 35.37156
#
# Velocity S-wave (km/s) = 3.74712 4.15029 3.95385
# Velocity P-wave (km/s) = 5.46422 6.50537 6.00740
#
# Compressibility (1/GPa) = 0.03968581
#
# Stress axis : x y z
#
# Youngs Moduli (GPa) = 136.69007 47.54209 70.32888
#
# Poissons Ratio (x) = 0.10048 0.04625
# Poissons Ratio (y) = 0.28889 -0.09351
# Poissons Ratio (z) = 0.08988 -0.06321
#
# Static dielectric constant tensor:
#      x y z
#    x 4.917540 -0.505390 0.262990 
#    y -0.505390 3.834640 -0.028600 
#    z 0.262990 -0.028600 4.125470 
# 
# 
# High freq. dielectric constant tensor:
#      x y z
#    x 1.904670 -0.030550 0.007600 
#    y -0.030550 1.866100 -0.002770 
#    z 0.007600 -0.002770 1.900490 
# 
# From -- ./inp_files/111528.got.cif
#   From: 2010.06.25/outbox.cif.g09.slc.cpg/sg2_56_cif.got.tgz:111528.got - 2010.06.27 13:26:56.
