data_PCOD8004807
_publ_section_title
;
Structure prediction by ZEFSAII (Michael W. Deem and Ramdas Pophale) SiO2 
 PCOD8004807
Probable space group: P -1
;
_chemical_formula_sum "Si O2"
_cell_formula_units_Z 16
_cell_length_a 11.624687
_cell_length_b 14.482152
_cell_length_c 11.622529
_cell_angle_alpha 38.273171
_cell_angle_beta 92.277990
_cell_angle_gamma 64.072106
_cell_volume 791.477906
_symmetry_space_group_name_H-M "P -1"
_symmetry_group_IT_number 2
_symmetry_cell_setting 'triclinic'
loop_
_space_group_symop_operation_xyz
x,y,z
-x,-y,-z
loop_
_atom_site_type_symbol
_atom_site_label
_atom_site_fract_x
_atom_site_fract_y
_atom_site_fract_z
Si Si1 0.324019 0.923934 0.724432
Si Si2 0.322420 0.498648 0.435447
Si Si3 0.991786 0.343396 0.602095
Si Si4 0.986719 0.433804 0.260632
Si Si5 0.779430 0.522829 0.777510
Si Si6 0.184404 0.767258 0.779946
Si Si7 0.331907 0.340477 0.118765
Si Si8 0.659906 0.169375 0.921549
O O1 0.312423 0.778957 0.799651
O O2 0.139724 0.189943 0.442069
O O3 0.477203 0.871635 0.721713
O O4 0.374694 0.850548 0.930787
O O5 0.147495 0.623029 0.372671
O O6 0.340021 0.384498 0.430674
O O7 0.490244 0.293794 0.718497
O O8 0.305061 0.689332 0.219158
O O9 0.000000 0.500000 0.500000
O O10 0.936180 0.404326 0.406709
O O11 0.179444 0.079566 0.882974
O O12 0.056176 0.532204 0.192270
O O13 0.815888 0.612386 0.998117
O O14 0.853429 0.289408 0.049059
O O15 0.664706 0.706451 0.698856
O O16 0.277157 0.569671 0.881911
O O17 0.000000 0.000000 0.500000
#
# Coordination Sequence:
#
# PCOD8004807 Si02
#       8
#     2   2   2   2   2   2   2   2
#     4  11  20  40  62  89 121 157 204 247 300 356
#     4  11  21  43  61  91 127 157 207 252 305 360
#     4  11  23  40  64  89 123 162 204 250 307 363
#     4  11  22  41  60  88 123 161 199 250 299 359
#     4  10  22  39  61  87 128 157 197 253 296 360
#     4  10  20  38  62  90 121 158 196 250 299 354
#     4  10  22  36  64  88 118 157 204 240 302 357
#     4  10  23  39  66  90 120 164 202 258 303 360
#
# _framework density 20.215347000000001
#
# number of rings (size 3 to 8) (size 9 to 14) (size 15 to 20)
#    0.750    0.750    3.750    1.875    0.000    1.000 
#    2.250    3.750    0.000    0.000    0.000    0.000 
#    0.000    0.000    0.000    0.000    0.000    0.000 
#
# Total GULP energy -198369.597572 kJ/mol
# GULP energy per Si atom -12398.099848 kJ/mol
# Density = 2.016934 g / cm^3
# Si number density = 20.215347 Si / 1000 Ang^3
#
#
#
# Elastic Constant Matrix: (Units=GPa)
#
#
# Indices 1 2 3 4 5 6 
#
# 1 100.8663 37.3751 18.5023 4.1052 19.3968 7.1501
# 2 37.3751 101.3839 30.4480 8.1169 23.3316 -5.8365
# 3 18.5023 30.4480 53.8766 -0.0478 20.4614 1.9627
# 4 4.1052 8.1169 -0.0478 28.5661 3.1679 0.1878
# 5 19.3968 23.3316 20.4614 3.1679 26.5790 2.8299
# 6 7.1501 -5.8365 1.9627 0.1878 2.8299 41.7190
#
#
#
# Elastic Compliance Matrix: (Units=1/GPa)
#
#
# Indices 1 2 3 4 5 6 
#
# 1 0.012451 -0.003330 -0.000100 -0.000182 -0.005831 -0.002199
# 2 -0.003330 0.014435 -0.004587 -0.002908 -0.006711 0.003274
# 3 -0.000100 -0.004587 0.027955 0.003337 -0.017739 -0.000752
# 4 -0.000182 -0.002908 0.003337 0.036330 -0.004169 -0.000413
# 5 -0.005831 -0.006711 -0.017739 -0.004169 0.062276 -0.003311
# 6 -0.002199 0.003274 -0.000752 -0.000413 -0.003311 0.025067
#
#
# Mechanical properties :
#
#
# Convention : Reuss Voigt Hill
#
# Bulk Modulus (GPa) = 25.76872 47.64195 36.70533
# Shear Modulus (GPa) = 24.09861 30.69293 27.39577
#
# Velocity S-wave (km/s) = 3.45642 3.90076 3.68529
# Velocity P-wave (km/s) = 5.35760 6.62618 6.02537
#
# Compressibility (1/GPa) = 0.03880673
#
# Stress axis : x y z
#
# Youngs Moduli (GPa) = 80.31544 69.27799 35.77223
#
# Poissons Ratio (x) = 0.23072 0.00356
# Poissons Ratio (y) = 0.26748 0.16408
# Poissons Ratio (z) = 0.00799 0.31777
#
# Static dielectric constant tensor:
#      x y z
#    x 3.761690 0.064670 -0.119170 
#    y 0.064670 3.740850 0.114460 
#    z -0.119170 0.114460 3.504810 
# 
# 
# High freq. dielectric constant tensor:
#      x y z
#    x 1.799900 0.005590 -0.005730 
#    y 0.005590 1.788290 0.009560 
#    z -0.005730 0.009560 1.781250 
# 
# From -- ./inp_files/304544.got.cif
#   From: 2010.06.25/outbox.cif.g09.slc.cpg/sg2_153_cif.got.tgz:304544.got - 2010.06.27 13:26:56.
