data_PCOD8004229
_publ_section_title
;
Structure prediction by ZEFSAII (Michael W. Deem and Ramdas Pophale) SiO2 
 PCOD8004229
Probable space group: P -1
;
_chemical_formula_sum "Si O2"
_cell_formula_units_Z 16
_cell_length_a 13.772620
_cell_length_b 11.581324
_cell_length_c 10.676274
_cell_angle_alpha 96.950767
_cell_angle_beta 114.006505
_cell_angle_gamma 29.140635
_cell_volume 643.889540
_symmetry_space_group_name_H-M "P -1"
_symmetry_group_IT_number 2
_symmetry_cell_setting 'triclinic'
loop_
_space_group_symop_operation_xyz
x,y,z
-x,-y,-z
loop_
_atom_site_type_symbol
_atom_site_label
_atom_site_fract_x
_atom_site_fract_y
_atom_site_fract_z
Si Si1 0.838022 0.173425 0.313837
Si Si2 0.265380 0.815575 0.296587
Si Si3 0.964925 0.324264 0.139135
Si Si4 0.629649 0.532398 0.654424
Si Si5 0.406393 0.350822 0.787408
Si Si6 0.192974 0.036728 0.845809
Si Si7 0.497165 0.155130 0.205482
Si Si8 0.572817 0.983904 0.668608
O O1 0.620112 0.490019 0.259255
O O2 0.714062 0.175476 0.201278
O O3 0.000000 0.000000 0.500000
O O4 0.032347 0.023897 0.293448
O O5 0.517021 0.610454 0.471782
O O6 0.338985 0.612982 0.256697
O O7 0.156299 0.022715 0.171712
O O8 0.826405 0.449170 0.216504
O O9 0.132086 0.274986 0.224146
O O10 0.765498 0.535642 0.950957
O O11 0.433396 0.819110 0.648516
O O12 0.892070 0.339746 0.743161
O O13 0.405940 0.263221 0.656792
O O14 0.673990 0.078399 0.965579
O O15 0.277930 0.063151 0.808005
O O16 0.467398 0.059731 0.238829
O O17 0.500000 0.000000 0.500000
#
# Coordination Sequence:
#
# PCOD8004229 Si02
#       8
#     2   2   2   2   2   2   2   2
#     4  10  20  37  66 101 135 167 207 260 324 395
#     4   9  20  38  60  94 130 169 211 257 324 386
#     4  10  23  44  67  92 126 164 215 272 323 387
#     4  10  20  38  63  93 135 168 206 263 319 381
#     4  10  24  45  67  95 131 170 214 268 325 382
#     4  10  22  40  68 100 130 169 212 264 327 389
#     4  11  24  41  64  95 127 169 221 264 316 387
#     4  12  27  44  65  93 128 173 223 269 321 382
#
# _framework density 24.848981999999999
#
# number of rings (size 3 to 8) (size 9 to 14) (size 15 to 20)
#    0.000    1.750    0.000    3.000    0.000   12.000 
#    0.000    0.000    0.000    0.000    0.000    0.000 
#    0.000    0.000    0.000    0.000    0.000    0.000 
#
# Total GULP energy -198336.480034 kJ/mol
# GULP energy per Si atom -12396.030002 kJ/mol
# Density = 2.479242 g / cm^3
# Si number density = 24.848982 Si / 1000 Ang^3
#
#
#
# Elastic Constant Matrix: (Units=GPa)
#
#
# Indices 1 2 3 4 5 6 
#
# 1 149.8862 -8.4976 33.7540 -3.0412 -6.1671 1.0125
# 2 -8.4976 59.7265 3.9938 15.4924 -3.7783 18.7390
# 3 33.7540 3.9938 67.9872 4.1589 4.6290 -2.0574
# 4 -3.0412 15.4924 4.1589 34.0000 1.8877 4.9182
# 5 -6.1671 -3.7783 4.6290 1.8877 39.5310 -5.2966
# 6 1.0125 18.7390 -2.0574 4.9182 -5.2966 26.8153
#
#
#
# Elastic Compliance Matrix: (Units=1/GPa)
#
#
# Indices 1 2 3 4 5 6 
#
# 1 0.007811 0.001902 -0.004184 0.000501 0.001637 -0.001714
# 2 0.001902 0.024284 -0.002406 -0.008436 0.001234 -0.015435
# 3 -0.004184 -0.002406 0.017286 -0.001691 -0.002424 0.002997
# 4 0.000501 -0.008436 -0.001691 0.033762 -0.002262 -0.000892
# 5 0.001637 0.001234 -0.002424 -0.002262 0.026675 0.004573
# 6 -0.001714 -0.015435 0.002997 -0.000892 0.004573 0.049440
#
#
# Mechanical properties :
#
#
# Convention : Reuss Voigt Hill
#
# Bulk Modulus (GPa) = 24.99608 37.34449 31.17028
# Shear Modulus (GPa) = 27.47745 36.62592 32.05168
#
# Velocity S-wave (km/s) = 3.32893 3.84336 3.59536
# Velocity P-wave (km/s) = 4.98565 5.89546 5.45954
#
# Compressibility (1/GPa) = 0.04000628
#
# Stress axis : x y z
#
# Youngs Moduli (GPa) = 128.02811 41.17996 57.84950
#
# Poissons Ratio (x) = -0.07834 0.24202
# Poissons Ratio (y) = -0.24357 0.13919
# Poissons Ratio (z) = 0.53561 0.09908
#
# Static dielectric constant tensor:
#      x y z
#    x 4.757640 0.124950 0.053630 
#    y 0.124950 4.591840 -0.097900 
#    z 0.053630 -0.097900 4.229240 
# 
# 
# High freq. dielectric constant tensor:
#      x y z
#    x 2.016220 -0.015780 0.002720 
#    y -0.015780 1.990420 0.002680 
#    z 0.002720 0.002680 1.973040 
# 
# From -- ./inp_files/452494.got.cif
#   From: 2010.06.25/outbox.cif.g09.slc.cpg/sg2_227_cif.got.tgz:452494.got - 2010.06.27 13:26:56.
