data_PCOD8004494
_publ_section_title
;
Structure prediction by ZEFSAII (Michael W. Deem and Ramdas Pophale) SiO2 
 PCOD8004494
Probable space group: P -1
;
_chemical_formula_sum "Si O2"
_cell_formula_units_Z 16
_cell_length_a 20.475557
_cell_length_b 17.730733
_cell_length_c 6.859041
_cell_angle_alpha 88.624413
_cell_angle_beta 90.800778
_cell_angle_gamma 160.136748
_cell_volume 845.579689
_symmetry_space_group_name_H-M "P -1"
_symmetry_group_IT_number 2
_symmetry_cell_setting 'triclinic'
loop_
_space_group_symop_operation_xyz
x,y,z
-x,-y,-z
loop_
_atom_site_type_symbol
_atom_site_label
_atom_site_fract_x
_atom_site_fract_y
_atom_site_fract_z
Si Si1 0.559714 0.150886 0.965107
Si Si2 0.588318 0.759718 0.683995
Si Si3 0.357229 0.900575 0.604747
Si Si4 0.544416 0.628824 0.085076
Si Si5 0.075381 0.509531 0.890168
Si Si6 0.300725 0.951994 0.267278
Si Si7 0.172708 0.087341 0.582113
Si Si8 0.739115 0.650177 0.569930
O O1 0.475734 0.081123 0.754338
O O2 0.791503 0.400850 0.975725
O O3 0.500000 0.000000 0.000000
O O4 0.474281 0.112680 0.127920
O O5 0.750431 0.884945 0.581818
O O6 0.383967 0.529914 0.581488
O O7 0.652738 0.915452 0.659240
O O8 0.571239 0.719271 0.911975
O O9 0.191333 0.667594 0.700751
O O10 0.265145 0.858028 0.452283
O O11 0.500000 0.000000 0.500000
O O12 0.738733 0.836655 0.208488
O O13 0.365998 0.461398 0.219828
O O14 0.500000 0.500000 0.000000
O O15 0.899360 0.264515 0.842915
O O16 0.000000 0.500000 0.000000
O O17 0.239416 0.243072 0.519662
O O18 0.942850 0.830720 0.598346
#
# Coordination Sequence:
#
# PCOD8004494 Si02
#       8
#     2   2   2   2   2   2   2   2
#     4  10  20  38  59  88 118 146 201 250 289 359
#     4  11  24  40  59  89 131 153 200 258 308 345
#     4  11  20  40  68  86 113 160 204 244 299 366
#     4  11  19  38  65  89 119 168 200 241 295 362
#     4  11  20  40  65  87 116 153 205 249 292 366
#     4  12  24  39  62  93 120 159 198 258 311 349
#     4  10  21  39  63  93 119 158 211 249 283 367
#     4  10  21  39  65  90 121 161 206 249 291 357
#
# _framework density 18.921931000000001
#
# number of rings (size 3 to 8) (size 9 to 14) (size 15 to 20)
#    0.000    1.250    7.500    1.125    0.000    4.500 
#    0.000    1.250    0.000    0.000    0.000    0.000 
#    0.000    0.000    0.000    0.000    0.000    0.000 
#
# Total GULP energy -198402.592827 kJ/mol
# GULP energy per Si atom -12400.162052 kJ/mol
# Density = 1.887886 g / cm^3
# Si number density = 18.921931 Si / 1000 Ang^3
#
#
#
# Elastic Constant Matrix: (Units=GPa)
#
#
# Indices 1 2 3 4 5 6 
#
# 1 14.2935 75.2022 8.2530 3.8441 -2.1905 -2.2828
# 2 75.2022 124.4632 50.4439 17.7977 -18.0301 28.5045
# 3 8.2530 50.4439 100.3924 3.3376 -1.7473 10.4658
# 4 3.8441 17.7977 3.3376 32.8933 1.9820 -0.6187
# 5 -2.1905 -18.0301 -1.7473 1.9820 24.7412 3.8967
# 6 -2.2828 28.5045 10.4658 -0.6187 3.8967 39.0437
#
#
#
# Elastic Compliance Matrix: (Units=1/GPa)
#
#
# Indices 1 2 3 4 5 6 
#
# 1 -0.014328 0.017024 -0.005491 -0.008042 0.013484 -0.013268
# 2 0.017024 -0.003141 -0.000203 -0.000124 -0.001333 0.003474
# 3 -0.005491 -0.000203 0.010870 -0.000451 0.000668 -0.003161
# 4 -0.008042 -0.000124 -0.000451 0.031674 -0.003465 0.000589
# 5 0.013484 -0.001333 0.000668 -0.003465 0.041375 -0.002602
# 6 -0.013268 0.003474 -0.003161 0.000589 -0.002602 0.023417
#
#
# Mechanical properties :
#
#
# Convention : Reuss Voigt Hill
#
# Bulk Modulus (GPa) = 62.25424 56.32749 59.29086
# Shear Modulus (GPa) = 68.90708 26.35230 47.62969
#
# Velocity S-wave (km/s) = 6.04116 3.73592 5.02258
# Velocity P-wave (km/s) = 9.03509 6.96006 8.06459
#
# Compressibility (1/GPa) = 0.01606316
#
# Stress axis : x y z
#
# Youngs Moduli (GPa) = -69.79479 -318.41291 91.99377
#
# Poissons Ratio (x) = 5.42080 0.50515
# Poissons Ratio (y) = 1.18822 0.01865
# Poissons Ratio (z) = -0.38325 -0.06454
#
# Static dielectric constant tensor:
#      x y z
#    x 3.515670 0.294650 0.264110 
#    y 0.294650 3.390260 0.323790 
#    z 0.264110 0.323790 4.143550 
# 
# 
# High freq. dielectric constant tensor:
#      x y z
#    x 1.722570 0.020430 -0.004910 
#    y 0.020430 1.733210 0.009250 
#    z -0.004910 0.009250 1.748620 
# 
# From -- ./inp_files/120021.got.cif
#   From: 2010.06.25/outbox.cif.g09.slc.cpg/sg2_61_cif.got.tgz:120021.got - 2010.06.27 13:26:56.
