data_PCOD8004991
_publ_section_title
;
Structure prediction by ZEFSAII (Michael W. Deem and Ramdas Pophale) SiO2 
 PCOD8004991
Probable space group: P -1
;
_chemical_formula_sum "Si O2"
_cell_formula_units_Z 14
_cell_length_a 20.154559
_cell_length_b 8.625508
_cell_length_c 14.993369
_cell_angle_alpha 140.427748
_cell_angle_beta 150.900443
_cell_angle_gamma 30.690578
_cell_volume 645.006908
_symmetry_space_group_name_H-M "P -1"
_symmetry_group_IT_number 2
_symmetry_cell_setting 'triclinic'
loop_
_space_group_symop_operation_xyz
x,y,z
-x,-y,-z
loop_
_atom_site_type_symbol
_atom_site_label
_atom_site_fract_x
_atom_site_fract_y
_atom_site_fract_z
Si Si1 0.329258 0.741639 0.007849
Si Si2 0.991988 0.640261 0.146455
Si Si3 0.892147 0.357226 0.051054
Si Si4 0.652056 0.593215 0.282907
Si Si5 0.975737 0.483673 0.568148
Si Si6 0.783434 0.215798 0.442807
Si Si7 0.553819 0.680833 0.881552
O O1 0.458706 0.839974 0.203817
O O2 0.333005 0.609463 0.049030
O O3 0.390549 0.471036 0.891664
O O4 0.143977 0.004523 0.872063
O O5 0.942110 0.505192 0.103952
O O6 0.165552 0.591866 0.358813
O O7 0.000000 0.500000 0.000000
O O8 0.937176 0.394761 0.220763
O O9 0.683773 0.557370 0.894517
O O10 0.000000 0.000000 0.000000
O O11 0.738327 0.315067 0.331154
O O12 0.775057 0.693008 0.455606
O O13 0.000000 0.500000 0.500000
O O14 0.057769 0.136531 0.533510
O O15 0.622201 0.267544 0.327956
O O16 0.500000 0.000000 0.000000
#
# Coordination Sequence:
#
# PCOD8004991 Si02
#       7
#     2   2   2   2   2   2   2
#     4  10  22  38  67  96 135 166 229 271 342 405
#     4  12  26  46  70  94 139 189 236 283 344 420
#     4  12  27  46  68 102 145 185 222 293 361 407
#     4  10  20  38  63  98 123 168 219 284 322 405
#     4  12  23  37  70  99 138 174 233 286 343 410
#     4  11  23  42  68  98 132 176 237 278 341 405
#     4  11  24  43  69 107 142 177 224 294 350 411
#
# _framework density 21.705195
#
# number of rings (size 3 to 8) (size 9 to 14) (size 15 to 20)
#    0.000    0.857    4.286    3.000    6.000    0.000 
#    2.571    2.857    0.000    0.000    0.000    0.000 
#    0.000    0.000    0.000    0.000    0.000    0.000 
#
# Total GULP energy -173439.832896 kJ/mol
# GULP energy per Si atom -12388.559493 kJ/mol
# Density = 2.165579 g / cm^3
# Si number density = 21.705195 Si / 1000 Ang^3
#
#
#
# Elastic Constant Matrix: (Units=GPa)
#
#
# Indices 1 2 3 4 5 6 
#
# 1 109.5839 24.1657 60.4005 1.9699 20.1681 -6.2361
# 2 24.1657 71.3567 19.3401 3.5383 8.1286 -3.3129
# 3 60.4005 19.3401 122.7275 -1.3185 22.2653 -8.2820
# 4 1.9699 3.5383 -1.3185 29.1574 -5.1897 -2.8516
# 5 20.1681 8.1286 22.2653 -5.1897 52.2931 -8.2907
# 6 -6.2361 -3.3129 -8.2820 -2.8516 -8.2907 32.2962
#
#
#
# Elastic Compliance Matrix: (Units=1/GPa)
#
#
# Indices 1 2 3 4 5 6 
#
# 1 0.013325 -0.002622 -0.005714 -0.001258 -0.002406 0.000110
# 2 -0.002622 0.015392 -0.000928 -0.001894 -0.001114 0.000382
# 3 -0.005714 -0.000928 0.011621 0.000732 -0.002330 0.001248
# 4 -0.001258 -0.001894 0.000732 0.035881 0.004682 0.004121
# 5 -0.002406 -0.001114 -0.002330 0.004682 0.022474 0.005007
# 6 0.000110 0.000382 0.001248 0.004121 0.005007 0.032993
#
#
# Mechanical properties :
#
#
# Convention : Reuss Voigt Hill
#
# Bulk Modulus (GPa) = 45.85042 56.83119 51.34080
# Shear Modulus (GPa) = 31.74911 36.06678 33.90795
#
# Velocity S-wave (km/s) = 3.82873 4.08078 3.95676
# Velocity P-wave (km/s) = 6.38088 6.96015 6.67680
#
# Compressibility (1/GPa) = 0.02181005
#
# Stress axis : x y z
#
# Youngs Moduli (GPa) = 75.04722 64.96861 86.04879
#
# Poissons Ratio (x) = 0.17037 0.49171
# Poissons Ratio (y) = 0.19680 0.07981
# Poissons Ratio (z) = 0.42884 0.06026
#
# Static dielectric constant tensor:
#      x y z
#    x 4.280870 -0.076810 0.293820 
#    y -0.076810 3.793580 -0.221320 
#    z 0.293820 -0.221320 4.346740 
# 
# 
# High freq. dielectric constant tensor:
#      x y z
#    x 1.869150 0.009230 0.020950 
#    y 0.009230 1.821610 -0.025730 
#    z 0.020950 -0.025730 1.859540 
# 
# From -- ./inp_files/204134.got.cif
#   From: 2010.06.25/outbox.cif.g09.slc.cpg/sg2_103_cif.got.tgz:204134.got - 2010.06.27 13:26:56.
