data_PCOD8004740
_publ_section_title
;
Structure prediction by ZEFSAII (Michael W. Deem and Ramdas Pophale) SiO2 
 PCOD8004740
Probable space group: P -1
;
_chemical_formula_sum "Si O2"
_cell_formula_units_Z 16
_cell_length_a 9.331641
_cell_length_b 11.318842
_cell_length_c 26.724843
_cell_angle_alpha 148.626545
_cell_angle_beta 149.774957
_cell_angle_gamma 41.025247
_cell_volume 738.276591
_symmetry_space_group_name_H-M "P -1"
_symmetry_group_IT_number 2
_symmetry_cell_setting 'triclinic'
loop_
_space_group_symop_operation_xyz
x,y,z
-x,-y,-z
loop_
_atom_site_type_symbol
_atom_site_label
_atom_site_fract_x
_atom_site_fract_y
_atom_site_fract_z
Si Si1 0.189069 0.038607 0.639417
Si Si2 0.794208 0.464051 0.498394
Si Si3 0.585384 0.124251 0.451547
Si Si4 0.072315 0.885554 0.248720
Si Si5 0.572150 0.379140 0.925535
Si Si6 0.708357 0.292306 0.305781
Si Si7 0.793005 0.639754 0.890697
Si Si8 0.260445 0.325744 0.004491
O O1 0.159699 0.776271 0.548421
O O2 0.357091 0.037247 0.637253
O O3 0.359705 0.178469 0.781730
O O4 0.874650 0.159626 0.582125
O O5 0.565330 0.629498 0.519230
O O6 0.661939 0.442501 0.395384
O O7 0.097821 0.577658 0.628300
O O8 0.373989 0.992549 0.374953
O O9 0.132803 0.629927 0.193694
O O10 0.869993 0.049296 0.282884
O O11 0.882769 0.890506 0.141726
O O12 0.531927 0.560835 0.932525
O O13 0.500000 0.500000 0.000000
O O14 0.894536 0.259368 0.980373
O O15 0.401192 0.259634 0.176453
O O16 0.619707 0.715465 0.917629
O O17 0.000000 0.500000 0.000000
#
# Coordination Sequence:
#
# PCOD8004740 Si02
#       8
#     2   2   2   2   2   2   2   2
#     4  11  22  38  61  83 122 159 189 232 304 347
#     4  10  23  38  56  87 119 146 195 251 288 342
#     4  10  21  38  62  89 112 155 197 239 289 358
#     4   9  18  36  62  83 113 143 194 245 290 327
#     4  10  22  36  59  90 121 154 194 238 290 356
#     4  10  22  37  58  86 112 149 198 242 293 343
#     4  10  20  38  62  82 116 156 197 242 284 348
#     4   8  17  35  59  83 110 151 198 238 282 338
#
# _framework density 21.672094999999999
#
# number of rings (size 3 to 8) (size 9 to 14) (size 15 to 20)
#    0.000    2.500    0.000    3.375    5.250    1.500 
#    0.000    6.875    0.000    0.000    0.000    0.000 
#    0.000    0.000    0.000    0.000    0.000    0.000 
#
# Total GULP energy -198240.908449 kJ/mol
# GULP energy per Si atom -12390.056778 kJ/mol
# Density = 2.162277 g / cm^3
# Si number density = 21.672095 Si / 1000 Ang^3
#
#
#
# Elastic Constant Matrix: (Units=GPa)
#
#
# Indices 1 2 3 4 5 6 
#
# 1 54.8792 19.3423 17.8064 -1.3942 1.2729 -6.5895
# 2 19.3423 58.2744 14.0827 -5.3025 1.9079 -15.4021
# 3 17.8064 14.0827 94.0584 -3.9648 -5.0678 -13.6668
# 4 -1.3942 -5.3025 -3.9648 32.3739 0.1460 -5.7736
# 5 1.2729 1.9079 -5.0678 0.1460 23.7821 1.3858
# 6 -6.5895 -15.4021 -13.6668 -5.7736 1.3858 20.1948
#
#
#
# Elastic Compliance Matrix: (Units=1/GPa)
#
#
# Indices 1 2 3 4 5 6 
#
# 1 0.021528 -0.006397 -0.003225 -0.000527 -0.001317 -0.000097
# 2 -0.006397 0.025151 0.000477 0.007434 -0.002769 0.019732
# 3 -0.003225 0.000477 0.012670 0.003012 0.002315 0.008588
# 4 -0.000527 0.007434 0.003012 0.035634 -0.001183 0.017805
# 5 -0.001317 -0.002769 0.002315 -0.001183 0.043091 -0.004270
# 6 -0.000097 0.019732 0.008588 0.017805 -0.004270 0.075731
#
#
# Mechanical properties :
#
#
# Convention : Reuss Voigt Hill
#
# Bulk Modulus (GPa) = 24.35507 34.40831 29.38169
# Shear Modulus (GPa) = 20.34334 25.66887 23.00611
#
# Velocity S-wave (km/s) = 3.06713 3.44527 3.26168
# Velocity P-wave (km/s) = 4.87908 5.63363 5.26988
#
# Compressibility (1/GPa) = 0.04105922
#
# Stress axis : x y z
#
# Youngs Moduli (GPa) = 46.45038 39.76054 78.92371
#
# Poissons Ratio (x) = 0.25433 0.25454
# Poissons Ratio (y) = 0.29713 -0.03762
# Poissons Ratio (z) = 0.14981 -0.01895
#
# Static dielectric constant tensor:
#      x y z
#    x 5.043780 -0.051400 -0.960670 
#    y -0.051400 3.821170 0.064010 
#    z -0.960670 0.064010 4.758980 
# 
# 
# High freq. dielectric constant tensor:
#      x y z
#    x 1.844820 -0.016420 -0.009020 
#    y -0.016420 1.826990 0.004470 
#    z -0.009020 0.004470 1.856660 
# 
# From -- ./inp_files/617072.got.cif
#   From: 2010.06.25/outbox.cif.g09.slc.cpg/sg2_309_cif.got.tgz:617072.got - 2010.06.27 13:26:56.
