data_PCOD8004262
_publ_section_title
;
Structure prediction by ZEFSAII (Michael W. Deem and Ramdas Pophale) SiO2 
 PCOD8004262
Probable space group: P -1
;
_chemical_formula_sum "Si O2"
_cell_formula_units_Z 14
_cell_length_a 10.064701
_cell_length_b 11.798216
_cell_length_c 11.563117
_cell_angle_alpha 51.855086
_cell_angle_beta 114.915317
_cell_angle_gamma 141.354846
_cell_volume 669.118615
_symmetry_space_group_name_H-M "P -1"
_symmetry_group_IT_number 2
_symmetry_cell_setting 'triclinic'
loop_
_space_group_symop_operation_xyz
x,y,z
-x,-y,-z
loop_
_atom_site_type_symbol
_atom_site_label
_atom_site_fract_x
_atom_site_fract_y
_atom_site_fract_z
Si Si1 0.919042 0.619591 0.587652
Si Si2 0.703154 0.269025 0.110044
Si Si3 0.445812 0.627106 0.203490
Si Si4 0.036861 0.399660 0.801404
Si Si5 0.335698 0.512854 0.641984
Si Si6 0.715774 0.066845 0.059686
Si Si7 0.594549 0.988389 0.432383
O O1 0.767515 0.529428 0.699939
O O2 0.820433 0.628880 0.434433
O O3 0.935720 0.462547 0.656254
O O4 0.150173 0.852204 0.557130
O O5 0.858883 0.456357 0.137929
O O6 0.831133 0.241733 0.094388
O O7 0.540102 0.052090 0.262528
O O8 0.585643 0.307478 0.968644
O O9 0.510640 0.512525 0.268111
O O10 0.642244 0.850977 0.201543
O O11 0.199962 0.430958 0.761066
O O12 0.858984 0.162708 0.935415
O O13 0.484962 0.756524 0.518824
O O14 0.500000 0.000000 0.000000
O O15 0.500000 0.000000 0.500000
#
# Coordination Sequence:
#
# PCOD8004262 Si02
#       7
#     2   2   2   2   2   2   2
#     4  11  23  43  68  96 132 176 227 260 321 403
#     4  10  21  40  69  93 130 162 230 269 305 407
#     4  11  25  43  65 101 131 177 212 275 342 372
#     4  11  22  40  68 100 121 177 222 271 327 376
#     4  12  26  45  65  99 145 164 217 282 328 393
#     4  10  20  37  66  95 122 173 220 263 317 394
#     4  11  24  41  69 101 123 179 221 261 334 383
#
# _framework density 20.923045999999999
#
# number of rings (size 3 to 8) (size 9 to 14) (size 15 to 20)
#    0.000    1.143    5.714    2.143    4.000    1.714 
#    2.571    0.000    0.000    0.000    0.000    0.000 
#    0.000    0.000    0.000    0.000    0.000    0.000 
#
# Total GULP energy -173505.974271 kJ/mol
# GULP energy per Si atom -12393.283877 kJ/mol
# Density = 2.087542 g / cm^3
# Si number density = 20.923046 Si / 1000 Ang^3
#
#
#
# Elastic Constant Matrix: (Units=GPa)
#
#
# Indices 1 2 3 4 5 6 
#
# 1 132.9518 36.7361 68.0331 -16.2746 -14.8622 -5.5490
# 2 36.7361 79.9737 48.7770 -2.0528 -4.6157 3.9301
# 3 68.0331 48.7770 128.3610 0.6982 -13.8985 0.2446
# 4 -16.2746 -2.0528 0.6982 25.5438 -0.2835 -2.3045
# 5 -14.8622 -4.6157 -13.8985 -0.2835 40.7158 -6.5749
# 6 -5.5490 3.9301 0.2446 -2.3045 -6.5749 26.4273
#
#
#
# Elastic Compliance Matrix: (Units=1/GPa)
#
#
# Indices 1 2 3 4 5 6 
#
# 1 0.012531 -0.002222 -0.005501 0.008402 0.003238 0.004551
# 2 -0.002222 0.016879 -0.005365 -0.000221 -0.001257 -0.003259
# 3 -0.005501 -0.005365 0.012954 -0.004310 0.001707 -0.000428
# 4 0.008402 -0.000221 -0.004310 0.045222 0.002937 0.006511
# 5 0.003238 -0.001257 0.001707 0.002937 0.027486 0.007945
# 6 0.004551 -0.003259 -0.000428 0.006511 0.007945 0.041828
#
#
# Mechanical properties :
#
#
# Convention : Reuss Voigt Hill
#
# Bulk Modulus (GPa) = 61.77536 72.04210 66.90873
# Shear Modulus (GPa) = 26.52934 31.05340 28.79137
#
# Velocity S-wave (km/s) = 3.56469 3.85667 3.71355
# Velocity P-wave (km/s) = 6.82142 7.37147 7.10177
#
# Compressibility (1/GPa) = 0.01618768
#
# Stress axis : x y z
#
# Youngs Moduli (GPa) = 79.80401 59.24562 77.19761
#
# Poissons Ratio (x) = 0.13165 0.42465
# Poissons Ratio (y) = 0.17733 0.41416
# Poissons Ratio (z) = 0.43899 0.31785
#
# Static dielectric constant tensor:
#      x y z
#    x 3.657820 -0.085470 -0.204910 
#    y -0.085470 4.369980 -0.046870 
#    z -0.204910 -0.046870 4.130330 
# 
# 
# High freq. dielectric constant tensor:
#      x y z
#    x 1.799270 -0.000130 -0.022870 
#    y -0.000130 1.824110 -0.003950 
#    z -0.022870 -0.003950 1.828520 
# 
# From -- ./inp_files/381385.got.cif
#   From: 2010.06.25/outbox.cif.g09.slc.cpg/sg2_191_cif.got.tgz:381385.got - 2010.06.27 13:26:56.
