data_PCOD8004593
_publ_section_title
;
Structure prediction by ZEFSAII (Michael W. Deem and Ramdas Pophale) SiO2 
 PCOD8004593
Probable space group: P -1
;
_chemical_formula_sum "Si O2"
_cell_formula_units_Z 14
_cell_length_a 10.003122
_cell_length_b 20.430552
_cell_length_c 8.845471
_cell_angle_alpha 129.759089
_cell_angle_beta 150.813993
_cell_angle_gamma 48.839771
_cell_volume 653.216605
_symmetry_space_group_name_H-M "P -1"
_symmetry_group_IT_number 2
_symmetry_cell_setting 'triclinic'
loop_
_space_group_symop_operation_xyz
x,y,z
-x,-y,-z
loop_
_atom_site_type_symbol
_atom_site_label
_atom_site_fract_x
_atom_site_fract_y
_atom_site_fract_z
Si Si1 0.704083 0.550489 0.348009
Si Si2 0.111386 0.155106 0.131115
Si Si3 0.735726 0.303173 0.535130
Si Si4 0.376117 0.965376 0.178679
Si Si5 0.468849 0.750112 0.433797
Si Si6 0.157916 0.420035 0.140985
Si Si7 0.943093 0.849800 0.589340
O O1 0.586747 0.652687 0.335283
O O2 0.729139 0.543039 0.542475
O O3 0.000000 0.500000 0.500000
O O4 0.500000 0.500000 0.000000
O O5 0.269528 0.206084 0.248875
O O6 0.153797 0.177270 0.381907
O O7 0.230011 0.050249 0.056943
O O8 0.777015 0.188201 0.818330
O O9 0.641835 0.252793 0.509134
O O10 0.446357 0.363051 0.260200
O O11 0.892300 0.235885 0.464245
O O12 0.944281 0.360822 0.883748
O O13 0.656481 0.897880 0.281653
O O14 0.500000 0.000000 0.500000
O O15 0.138073 0.915759 0.909187
O O16 0.000000 0.500000 0.000000
#
# Coordination Sequence:
#
# PCOD8004593 Si02
#       7
#     2   2   2   2   2   2   2
#     4  11  23  41  63  89 123 163 204 254 310 368
#     4  11  21  38  63  89 117 161 208 250 299 366
#     4  11  24  43  62  91 131 165 199 258 322 370
#     4  10  20  38  60  89 123 157 202 262 310 351
#     4  11  23  40  59  88 126 160 195 251 314 365
#     4  11  24  43  65  92 126 167 208 259 315 372
#     4  11  22  39  63  90 119 161 209 256 304 366
#
# _framework density 21.432400999999999
#
# number of rings (size 3 to 8) (size 9 to 14) (size 15 to 20)
#    0.000    1.143    0.000    9.857    0.000    3.429 
#    0.000    4.286    0.000    0.000    0.000    0.000 
#    0.000    0.000    0.000    0.000    0.000    0.000 
#
# Total GULP energy -173570.782315 kJ/mol
# GULP energy per Si atom -12397.913022 kJ/mol
# Density = 2.138362 g / cm^3
# Si number density = 21.432401 Si / 1000 Ang^3
#
#
#
# Elastic Constant Matrix: (Units=GPa)
#
#
# Indices 1 2 3 4 5 6 
#
# 1 95.8077 53.0347 30.6149 3.1539 10.2824 -8.3250
# 2 53.0347 154.0795 38.2884 -38.0359 -4.7082 -8.1248
# 3 30.6149 38.2884 106.9415 -8.3711 14.6311 8.0797
# 4 3.1539 -38.0359 -8.3711 49.5238 -1.1766 13.6572
# 5 10.2824 -4.7082 14.6311 -1.1766 33.0464 -4.5638
# 6 -8.3250 -8.1248 8.0797 13.6572 -4.5638 34.5382
#
#
#
# Elastic Compliance Matrix: (Units=1/GPa)
#
#
# Indices 1 2 3 4 5 6 
#
# 1 0.016360 -0.006878 -0.002718 -0.008468 -0.004377 0.005731
# 2 -0.006878 0.011835 -0.002050 0.009739 0.004859 -0.001603
# 3 -0.002718 -0.002050 0.012200 0.002056 -0.005539 -0.005536
# 4 -0.008468 0.009739 0.002056 0.032090 0.002516 -0.012588
# 5 -0.004377 0.004859 -0.005539 0.002516 0.035559 0.005088
# 6 0.005731 -0.001603 -0.005536 -0.012588 0.005088 0.036903
#
#
# Mechanical properties :
#
#
# Convention : Reuss Voigt Hill
#
# Bulk Modulus (GPa) = 58.46668 66.74497 62.60582
# Shear Modulus (GPa) = 28.74588 39.08106 33.91347
#
# Velocity S-wave (km/s) = 3.66626 4.27483 3.98219
# Velocity P-wave (km/s) = 6.72761 7.45488 7.10056
#
# Compressibility (1/GPa) = 0.01710376
#
# Stress axis : x y z
#
# Youngs Moduli (GPa) = 61.12579 84.49693 81.96759
#
# Poissons Ratio (x) = 0.58113 0.22280
# Poissons Ratio (y) = 0.42040 0.16801
# Poissons Ratio (z) = 0.16615 0.17319
#
# Static dielectric constant tensor:
#      x y z
#    x 3.627860 -0.192460 0.304290 
#    y -0.192460 4.397840 -0.357660 
#    z 0.304290 -0.357660 4.086670 
# 
# 
# High freq. dielectric constant tensor:
#      x y z
#    x 1.818050 -0.008010 0.023320 
#    y -0.008010 1.863560 -0.018500 
#    z 0.023320 -0.018500 1.853650 
# 
# From -- ./inp_files/224143.got.cif
#   From: 2010.06.25/outbox.cif.g09.slc.cpg/sg2_113_cif.got.tgz:224143.got - 2010.06.27 13:26:56.
