data_PCOD8004159
_publ_section_title
;
Structure prediction by ZEFSAII (Michael W. Deem and Ramdas Pophale) SiO2 
 PCOD8004159
Probable space group: P -1
;
_chemical_formula_sum "Si O2"
_cell_formula_units_Z 16
_cell_length_a 12.528864
_cell_length_b 15.832688
_cell_length_c 9.637691
_cell_angle_alpha 64.962691
_cell_angle_beta 138.279248
_cell_angle_gamma 140.513557
_cell_volume 754.436832
_symmetry_space_group_name_H-M "P -1"
_symmetry_group_IT_number 2
_symmetry_cell_setting 'triclinic'
loop_
_space_group_symop_operation_xyz
x,y,z
-x,-y,-z
loop_
_atom_site_type_symbol
_atom_site_label
_atom_site_fract_x
_atom_site_fract_y
_atom_site_fract_z
Si Si1 0.389729 0.545671 0.921080
Si Si2 0.785015 0.169011 0.803311
Si Si3 0.648798 0.143537 0.384038
Si Si4 0.284486 0.153808 0.033803
Si Si5 0.938823 0.580931 0.563568
Si Si6 0.408777 0.556123 0.435358
Si Si7 0.143040 0.160495 0.191049
Si Si8 0.899665 0.534688 0.053161
O O1 0.600066 0.714776 0.041032
O O2 0.199054 0.506246 0.652374
O O3 0.259822 0.469473 0.994964
O O4 0.500000 0.500000 0.000000
O O5 0.793600 0.179498 0.637740
O O6 0.846218 0.296929 0.840679
O O7 0.521031 0.019396 0.709413
O O8 0.993498 0.189621 0.037434
O O9 0.475127 0.154303 0.242842
O O10 0.842443 0.250070 0.375654
O O11 0.236137 0.182720 0.112022
O O12 0.034529 0.004537 0.824703
O O13 0.744797 0.540223 0.509983
O O14 0.058686 0.543914 0.775961
O O15 0.500000 0.500000 0.500000
O O16 0.625703 0.724463 0.563174
O O17 0.235749 0.537436 0.174537
#
# Coordination Sequence:
#
# PCOD8004159 Si02
#       8
#     2   2   2   2   2   2   2   2
#     4  12  22  37  65  99 127 161 216 268 314 372
#     4  10  20  37  64  95 129 162 207 256 324 369
#     4  10  21  38  63  97 130 160 206 271 320 370
#     4  10  20  38  64  94 127 157 211 267 314 366
#     4  12  24  41  64  95 126 166 220 266 317 375
#     4  12  25  44  63  92 129 175 214 261 321 391
#     4  10  21  39  63  92 128 169 206 259 322 375
#     4  12  23  40  64  94 128 171 212 263 320 380
#
# _framework density 21.207872999999999
#
# number of rings (size 3 to 8) (size 9 to 14) (size 15 to 20)
#    0.000    1.000    5.000    3.000    0.000    0.000 
#    0.000    1.250    0.000    0.000    0.000    0.000 
#    0.000    0.000    0.000    0.000    0.000    0.000 
#
# Total GULP energy -198386.748939 kJ/mol
# GULP energy per Si atom -12399.171809 kJ/mol
# Density = 2.115960 g / cm^3
# Si number density = 21.207873 Si / 1000 Ang^3
#
#
#
# Elastic Constant Matrix: (Units=GPa)
#
#
# Indices 1 2 3 4 5 6 
#
# 1 51.7602 25.0984 5.1222 16.5902 -5.2477 13.7376
# 2 25.0984 180.6685 62.6758 30.3530 -8.4063 9.6398
# 3 5.1222 62.6758 111.4993 25.6604 -9.9806 3.3541
# 4 16.5902 30.3530 25.6604 34.3350 -3.5546 1.7632
# 5 -5.2477 -8.4063 -9.9806 -3.5546 25.7615 0.4547
# 6 13.7376 9.6398 3.3541 1.7632 0.4547 26.7854
#
#
#
# Elastic Compliance Matrix: (Units=1/GPa)
#
#
# Indices 1 2 3 4 5 6 
#
# 1 0.028348 -0.002034 0.003806 -0.013538 0.004955 -0.013476
# 2 -0.002034 0.007589 -0.003397 -0.003097 0.000337 -0.001064
# 3 0.003806 -0.003397 0.012931 -0.008030 0.003601 -0.001881
# 4 -0.013538 -0.003097 -0.008030 0.043993 -0.000918 0.006183
# 5 0.004955 0.000337 0.003601 -0.000918 0.041272 -0.003754
# 6 -0.013476 -0.001064 -0.001881 0.006183 -0.003754 0.044521
#
#
# Mechanical properties :
#
#
# Convention : Reuss Voigt Hill
#
# Bulk Modulus (GPa) = 21.92219 58.85786 40.39003
# Shear Modulus (GPa) = 25.36650 34.11182 29.73916
#
# Velocity S-wave (km/s) = 3.46220 4.01490 3.74875
# Velocity P-wave (km/s) = 5.13242 7.02180 6.15010
#
# Compressibility (1/GPa) = 0.04561588
#
# Stress axis : x y z
#
# Youngs Moduli (GPa) = 35.27568 131.76870 77.33630
#
# Poissons Ratio (x) = 0.26806 -0.29433
# Poissons Ratio (y) = 0.07176 0.26275
# Poissons Ratio (z) = -0.13425 0.44768
#
# Static dielectric constant tensor:
#      x y z
#    x 3.758390 0.180770 0.123620 
#    y 0.180770 4.249100 0.265990 
#    z 0.123620 0.265990 3.867580 
# 
# 
# High freq. dielectric constant tensor:
#      x y z
#    x 1.813760 0.002760 0.021590 
#    y 0.002760 1.847570 0.011940 
#    z 0.021590 0.011940 1.820330 
# 
# From -- ./inp_files/208713.got.cif
#   From: 2010.06.25/outbox.cif.g09.slc.cpg/sg2_105_cif.got.tgz:208713.got - 2010.06.27 13:26:56.
