data_PCOD8004620
_publ_section_title
;
Structure prediction by ZEFSAII (Michael W. Deem and Ramdas Pophale) SiO2 
 PCOD8004620
Probable space group: P -1
;
_chemical_formula_sum "Si O2"
_cell_formula_units_Z 12
_cell_length_a 11.655334
_cell_length_b 9.282352
_cell_length_c 14.502146
_cell_angle_alpha 54.285983
_cell_angle_beta 144.847053
_cell_angle_gamma 142.253384
_cell_volume 544.165265
_symmetry_space_group_name_H-M "P -1"
_symmetry_group_IT_number 2
_symmetry_cell_setting 'triclinic'
loop_
_space_group_symop_operation_xyz
x,y,z
-x,-y,-z
loop_
_atom_site_type_symbol
_atom_site_label
_atom_site_fract_x
_atom_site_fract_y
_atom_site_fract_z
Si Si1 0.977457 0.191781 0.393803
Si Si2 0.103062 0.323602 0.217689
Si Si3 0.639257 0.165397 0.847645
Si Si4 0.621196 0.993892 0.712299
Si Si5 0.157452 0.960723 0.343353
Si Si6 0.798871 0.532358 0.382496
O O1 0.088286 0.306996 0.323960
O O2 0.167352 0.407392 0.509789
O O3 0.669000 0.067423 0.249598
O O4 0.000000 0.000000 0.500000
O O5 0.323507 0.601302 0.229390
O O6 0.810536 0.202462 0.033181
O O7 0.200817 0.196877 0.286428
O O8 0.749123 0.123424 0.845764
O O9 0.399939 0.012098 0.538246
O O10 0.497785 0.720440 0.736951
O O11 0.847951 0.119591 0.734655
O O12 0.873400 0.746723 0.287363
O O13 0.000000 0.500000 0.500000
#
# Coordination Sequence:
#
# PCOD8004620 Si02
#       6
#     2   2   2   2   2   2
#     4  12  23  40  68  91 120 159 211 259 303 353
#     4  11  26  41  62  90 130 166 202 245 309 375
#     4  11  25  44  59  91 129 167 202 246 309 371
#     4  10  22  38  65  88 123 157 204 259 298 356
#     4  10  21  39  61  93 119 156 208 252 301 354
#     4  10  20  38  60  94 117 149 205 260 301 349
#
# _framework density 22.052123999999999
#
# number of rings (size 3 to 8) (size 9 to 14) (size 15 to 20)
#    0.000    1.333    5.000    0.500    9.333    2.000 
#    0.000    0.833    0.000    0.000    0.000    0.000 
#    0.000    0.000    0.000    0.000    0.000    0.000 
#
# Total GULP energy -148806.866833 kJ/mol
# GULP energy per Si atom -12400.572236 kJ/mol
# Density = 2.200193 g / cm^3
# Si number density = 22.052124 Si / 1000 Ang^3
#
#
#
# Elastic Constant Matrix: (Units=GPa)
#
#
# Indices 1 2 3 4 5 6 
#
# 1 79.8766 7.4790 20.4869 -18.7331 -7.9875 -13.7676
# 2 7.4790 99.8046 27.4652 -14.7084 0.8018 -17.1608
# 3 20.4869 27.4652 37.8453 -11.0383 -9.7367 -2.0755
# 4 -18.7331 -14.7084 -11.0383 25.1974 1.9474 -0.6663
# 5 -7.9875 0.8018 -9.7367 1.9474 23.5885 3.3619
# 6 -13.7676 -17.1608 -2.0755 -0.6663 3.3619 41.2803
#
#
#
# Elastic Compliance Matrix: (Units=1/GPa)
#
#
# Indices 1 2 3 4 5 6 
#
# 1 0.018792 0.004295 -0.009085 0.012680 0.000313 0.007775
# 2 0.004295 0.015697 -0.012654 0.007490 -0.006052 0.007935
# 3 -0.009085 -0.012654 0.045762 0.004407 0.016919 -0.007296
# 4 0.012680 0.007490 0.004407 0.055635 0.000060 0.008457
# 5 0.000313 -0.006052 0.016919 0.000060 0.050492 -0.005672
# 6 0.007775 0.007935 -0.007296 0.008457 -0.005672 0.030348
#
#
# Mechanical properties :
#
#
# Convention : Reuss Voigt Hill
#
# Bulk Modulus (GPa) = 22.04357 36.48763 29.26560
# Shear Modulus (GPa) = 18.74517 28.81959 23.78238
#
# Velocity S-wave (km/s) = 2.91871 3.61901 3.28756
# Velocity P-wave (km/s) = 4.62345 5.83481 5.26409
#
# Compressibility (1/GPa) = 0.04536469
#
# Stress axis : x y z
#
# Youngs Moduli (GPa) = 53.21291 63.70762 21.85210
#
# Poissons Ratio (x) = -0.27361 0.19852
# Poissons Ratio (y) = -0.22854 0.27651
# Poissons Ratio (z) = 0.48342 0.80613
#
# Static dielectric constant tensor:
#      x y z
#    x 4.144240 0.246000 -0.192570 
#    y 0.246000 4.759050 -0.145480 
#    z -0.192570 -0.145480 3.615720 
# 
# 
# High freq. dielectric constant tensor:
#      x y z
#    x 1.883400 -0.006330 -0.013430 
#    y -0.006330 1.878860 -0.009300 
#    z -0.013430 -0.009300 1.826550 
# 
# From -- ./inp_files/160637.got.cif
#   From: 2010.06.25/outbox.cif.g09.slc.cpg/sg2_81_cif.got.tgz:160637.got - 2010.06.27 13:26:56.
