data_PCOD8004040
_publ_section_title
;
Structure prediction by ZEFSAII (Michael W. Deem and Ramdas Pophale) SiO2 
 PCOD8004040
Probable space group: P -1
;
_chemical_formula_sum "Si O2"
_cell_formula_units_Z 16
_cell_length_a 9.048639
_cell_length_b 15.360312
_cell_length_c 15.768835
_cell_angle_alpha 40.627330
_cell_angle_beta 118.069028
_cell_angle_gamma 142.436045
_cell_volume 821.231740
_symmetry_space_group_name_H-M "P -1"
_symmetry_group_IT_number 2
_symmetry_cell_setting 'triclinic'
loop_
_space_group_symop_operation_xyz
x,y,z
-x,-y,-z
loop_
_atom_site_type_symbol
_atom_site_label
_atom_site_fract_x
_atom_site_fract_y
_atom_site_fract_z
Si Si1 0.495937 0.194377 0.289515
Si Si2 0.715134 0.278762 0.595847
Si Si3 0.276306 0.606435 0.980518
Si Si4 0.261277 0.318148 0.124904
Si Si5 0.806599 0.250859 0.465137
Si Si6 0.579391 0.969827 0.913986
Si Si7 0.757851 0.016593 0.102775
Si Si8 0.587966 0.400369 0.600558
O O1 0.597073 0.271338 0.164259
O O2 0.338538 0.226926 0.258416
O O3 0.745937 0.316124 0.324203
O O4 0.286498 0.953915 0.426789
O O5 0.633933 0.193129 0.542031
O O6 0.537865 0.289868 0.579718
O O7 0.000000 0.500000 0.500000
O O8 0.717733 0.148041 0.751430
O O9 0.466790 0.769510 0.986065
O O10 0.224031 0.414728 0.111412
O O11 0.000000 0.500000 0.000000
O O12 0.027246 0.151398 0.120378
O O13 0.500000 0.500000 0.000000
O O14 0.111490 0.432430 0.423450
O O15 0.348357 0.911294 0.938594
O O16 0.782890 0.050008 0.982780
O O17 0.572712 0.775832 0.241823
O O18 0.500000 0.500000 0.500000
#
# Coordination Sequence:
#
# PCOD8004040 Si02
#       8
#     2   2   2   2   2   2   2   2
#     4  10  22  38  61  83 120 157 204 242 298 361
#     4   9  19  36  60  85 115 157 195 240 292 358
#     4  11  21  37  63  87 124 157 197 247 303 359
#     4  10  22  38  57  86 123 159 191 247 302 354
#     4  10  20  39  61  85 113 165 201 240 297 366
#     4  10  20  37  63  91 116 153 203 246 296 365
#     4  10  21  37  61  89 120 157 196 247 306 358
#     4  10  21  37  62  88 123 152 196 253 307 349
#
# _framework density 19.482928999999999
#
# number of rings (size 3 to 8) (size 9 to 14) (size 15 to 20)
#    0.000    2.000    2.500    0.750    1.750    5.000 
#    2.250    2.500    0.000    4.500    0.000    0.000 
#    0.000    0.000    0.000    0.000    0.000    0.000 
#
# Total GULP energy -198264.422693 kJ/mol
# GULP energy per Si atom -12391.526418 kJ/mol
# Density = 1.943859 g / cm^3
# Si number density = 19.482929 Si / 1000 Ang^3
#
#
#
# Elastic Constant Matrix: (Units=GPa)
#
#
# Indices 1 2 3 4 5 6 
#
# 1 105.3830 53.3470 47.5435 1.5803 27.3967 -8.3820
# 2 53.3470 118.0142 57.0712 2.2579 14.1734 -4.3823
# 3 47.5435 57.0712 94.0867 4.1368 13.9241 -9.9461
# 4 1.5803 2.2579 4.1368 25.4964 -0.6094 -3.0289
# 5 27.3967 14.1734 13.9241 -0.6094 38.8859 -5.0426
# 6 -8.3820 -4.3823 -9.9461 -3.0289 -5.0426 34.1293
#
#
#
# Elastic Compliance Matrix: (Units=1/GPa)
#
#
# Indices 1 2 3 4 5 6 
#
# 1 0.015512 -0.004037 -0.004128 -0.000012 -0.007860 0.000926
# 2 -0.004037 0.013193 -0.006084 -0.000056 0.000075 -0.001064
# 3 -0.004128 -0.006084 0.016865 -0.001611 -0.000563 0.002894
# 4 -0.000012 -0.000056 -0.001611 0.039921 0.001660 0.003309
# 5 -0.007860 0.000075 -0.000563 0.001660 0.031812 0.002763
# 6 0.000926 -0.001064 0.002894 0.003309 0.002763 0.030936
#
#
# Mechanical properties :
#
#
# Convention : Reuss Voigt Hill
#
# Bulk Modulus (GPa) = 58.57561 70.37859 64.47710
# Shear Modulus (GPa) = 27.40787 30.33712 28.87250
#
# Velocity S-wave (km/s) = 3.75475 3.95031 3.85377
# Velocity P-wave (km/s) = 6.99485 7.55038 7.27792
#
# Compressibility (1/GPa) = 0.01707195
#
# Stress axis : x y z
#
# Youngs Moduli (GPa) = 64.46415 75.79658 59.29471
#
# Poissons Ratio (x) = 0.30602 0.24478
# Poissons Ratio (y) = 0.26026 0.36074
# Poissons Ratio (z) = 0.26612 0.46113
#
# Static dielectric constant tensor:
#      x y z
#    x -2.151040 3.319230 -0.509840 
#    y 3.319230 1.400880 0.341490 
#    z -0.509840 0.341490 3.902990 
# 
# 
# High freq. dielectric constant tensor:
#      x y z
#    x 1.753120 -0.011860 0.003950 
#    y -0.011860 1.759810 -0.016330 
#    z 0.003950 -0.016330 1.758160 
# 
# From -- ./inp_files/266800.got.cif
#   From: 2010.06.25/outbox.cif.g09.slc.cpg/sg2_134_cif.got.tgz:266800.got - 2010.06.27 13:26:56.
