data_PCOD8004253
_publ_section_title
;
Structure prediction by ZEFSAII (Michael W. Deem and Ramdas Pophale) SiO2 
 PCOD8004253
Probable space group: P -1
;
_chemical_formula_sum "Si O2"
_cell_formula_units_Z 16
_cell_length_a 11.837307
_cell_length_b 20.970976
_cell_length_c 9.738449
_cell_angle_alpha 151.074659
_cell_angle_beta 127.810723
_cell_angle_gamma 42.409714
_cell_volume 784.489675
_symmetry_space_group_name_H-M "P -1"
_symmetry_group_IT_number 2
_symmetry_cell_setting 'triclinic'
loop_
_space_group_symop_operation_xyz
x,y,z
-x,-y,-z
loop_
_atom_site_type_symbol
_atom_site_label
_atom_site_fract_x
_atom_site_fract_y
_atom_site_fract_z
Si Si1 0.155619 0.838080 0.762374
Si Si2 0.368972 0.697535 0.409777
Si Si3 0.793921 0.657213 0.997373
Si Si4 0.464345 0.664143 0.831830
Si Si5 0.330188 0.162099 0.324896
Si Si6 0.605595 0.811822 0.881567
Si Si7 0.033832 0.309986 0.566801
Si Si8 0.492200 0.659713 0.143648
O O1 0.195685 0.816869 0.587769
O O2 0.327106 0.803071 0.896267
O O3 0.121530 0.709221 0.551667
O O4 0.000000 0.000000 0.000000
O O5 0.524979 0.704859 0.603832
O O6 0.357079 0.739980 0.318966
O O7 0.400148 0.526763 0.119999
O O8 0.634262 0.663017 0.952791
O O9 0.747877 0.740502 0.971541
O O10 0.955337 0.483604 0.779944
O O11 0.850661 0.740354 0.304825
O O12 0.500000 0.500000 0.500000
O O13 0.393177 0.703320 0.008282
O O14 0.306107 0.183278 0.183317
O O15 0.379211 0.280712 0.645497
O O16 0.153137 0.199335 0.325369
O O17 0.464309 0.987820 0.143669
#
# Coordination Sequence:
#
# PCOD8004253 Si02
#       8
#     2   2   2   2   2   2   2   2
#     4  12  25  40  62  94 130 163 204 264 317 366
#     4  10  20  38  64  91 123 160 212 251 307 369
#     4  11  22  38  63  88 122 163 207 252 305 372
#     4  12  20  40  65  90 120 165 218 249 304 386
#     4  10  22  39  62  91 128 155 205 262 317 364
#     4  10  21  40  63  90 120 168 205 252 310 385
#     4  11  24  38  58  94 127 156 202 266 308 353
#     4  10  20  37  66  93 115 165 212 257 295 371
#
# _framework density 20.395423000000001
#
# number of rings (size 3 to 8) (size 9 to 14) (size 15 to 20)
#    0.000    1.250    5.000    0.750    1.750    2.000 
#    0.000    1.875    0.000    0.000    0.000    0.000 
#    0.000    0.000    0.000    0.000    0.000    0.000 
#
# Total GULP energy -198341.827763 kJ/mol
# GULP energy per Si atom -12396.364235 kJ/mol
# Density = 2.034900 g / cm^3
# Si number density = 20.395423 Si / 1000 Ang^3
#
#
#
# Elastic Constant Matrix: (Units=GPa)
#
#
# Indices 1 2 3 4 5 6 
#
# 1 96.7730 29.3217 35.9433 -12.0278 -34.8561 3.8012
# 2 29.3217 115.9759 39.0682 -9.9399 -22.2694 12.6085
# 3 35.9433 39.0682 83.2798 -1.2769 -20.7341 3.8879
# 4 -12.0278 -9.9399 -1.2769 20.9823 3.1988 -5.9743
# 5 -34.8561 -22.2694 -20.7341 3.1988 50.2841 -1.4950
# 6 3.8012 12.6085 3.8879 -5.9743 -1.4950 30.4727
#
#
#
# Elastic Compliance Matrix: (Units=1/GPa)
#
#
# Indices 1 2 3 4 5 6 
#
# 1 0.016212 -0.000275 -0.004601 0.007727 0.008746 0.000622
# 2 -0.000275 0.011331 -0.004311 0.003603 0.002724 -0.003264
# 3 -0.004601 -0.004311 0.016456 -0.004102 0.001934 -0.000451
# 4 0.007727 0.003603 -0.004102 0.055839 0.001979 0.009113
# 5 0.008746 0.002724 0.001934 0.001979 0.027806 -0.000712
# 6 0.000622 -0.003264 -0.000451 0.009113 -0.000712 0.035898
#
#
# Mechanical properties :
#
#
# Convention : Reuss Voigt Hill
#
# Bulk Modulus (GPa) = 39.02603 56.07723 47.55163
# Shear Modulus (GPa) = 26.25257 33.12750 29.69004
#
# Velocity S-wave (km/s) = 3.59162 4.03459 3.81953
# Velocity P-wave (km/s) = 6.03124 7.01844 6.54349
#
# Compressibility (1/GPa) = 0.02562392
#
# Stress axis : x y z
#
# Youngs Moduli (GPa) = 61.68394 88.25402 60.76915
#
# Poissons Ratio (x) = 0.02426 0.27961
# Poissons Ratio (y) = 0.01695 0.26199
# Poissons Ratio (z) = 0.28382 0.38048
#
# Static dielectric constant tensor:
#      x y z
#    x 3.970440 0.109230 -0.100470 
#    y 0.109230 3.792430 -0.067600 
#    z -0.100470 -0.067600 3.887620 
# 
# 
# High freq. dielectric constant tensor:
#      x y z
#    x 1.806150 0.016490 -0.007700 
#    y 0.016490 1.768970 -0.002800 
#    z -0.007700 -0.002800 1.805890 
# 
# From -- ./inp_files/283515.got.cif
#   From: 2010.06.25/outbox.cif.g09.slc.cpg/sg2_142_cif.got.tgz:283515.got - 2010.06.27 13:26:56.
