data_PCOD8004522
_publ_section_title
;
Structure prediction by ZEFSAII (Michael W. Deem and Ramdas Pophale) SiO2 
 PCOD8004522
Probable space group: P -1
;
_chemical_formula_sum "Si O2"
_cell_formula_units_Z 14
_cell_length_a 12.396641
_cell_length_b 6.115993
_cell_length_c 14.939298
_cell_angle_alpha 101.458509
_cell_angle_beta 46.872351
_cell_angle_gamma 66.605200
_cell_volume 540.461239
_symmetry_space_group_name_H-M "P -1"
_symmetry_group_IT_number 2
_symmetry_cell_setting 'triclinic'
loop_
_space_group_symop_operation_xyz
x,y,z
-x,-y,-z
loop_
_atom_site_type_symbol
_atom_site_label
_atom_site_fract_x
_atom_site_fract_y
_atom_site_fract_z
Si Si1 0.848564 0.182568 0.933091
Si Si2 0.637796 0.355645 0.722766
Si Si3 0.845083 0.829537 0.170737
Si Si4 0.544771 0.016419 0.211445
Si Si5 0.936981 0.563674 0.827222
Si Si6 0.973346 0.043523 0.656627
Si Si7 0.905344 0.583628 0.462153
O O1 0.038022 0.056959 0.884013
O O2 0.869025 0.896213 0.890951
O O3 0.594884 0.519854 0.135863
O O4 0.908554 0.229884 0.804754
O O5 0.587762 0.666658 0.751647
O O6 0.843152 0.028498 0.516053
O O7 0.743748 0.247149 0.752849
O O8 0.833553 0.739963 0.271906
O O9 0.617064 0.079151 0.264433
O O10 0.000000 0.500000 0.000000
O O11 0.356639 0.048510 0.352525
O O12 0.743262 0.674336 0.013116
O O13 0.957620 0.451702 0.701925
O O14 0.091951 0.679740 0.588074
O O15 0.000000 0.500000 0.500000
#
# Coordination Sequence:
#
# PCOD8004522 Si02
#       7
#     2   2   2   2   2   2   2
#     4  10  20  38  60  81 114 153 186 232 288 335
#     4   9  18  34  58  82 112 148 184 235 286 330
#     4  10  22  39  59  86 115 149 198 236 275 342
#     4   9  20  38  55  82 117 147 192 238 275 338
#     4   9  21  39  59  86 116 149 189 235 284 334
#     4   9  19  35  55  86 113 144 195 232 278 347
#     4  10  21  37  57  84 117 150 188 235 288 343
#
# _framework density 25.9038
#
# number of rings (size 3 to 8) (size 9 to 14) (size 15 to 20)
#    0.000    2.571    0.000    0.429    0.000   12.000 
#    0.000    9.286    0.000    0.000    0.000    0.000 
#    0.000    0.000    0.000    0.000    0.000    0.000 
#
# Total GULP energy -173475.222648 kJ/mol
# GULP energy per Si atom -12391.087332 kJ/mol
# Density = 2.584484 g / cm^3
# Si number density = 25.903800 Si / 1000 Ang^3
#
#
#
# Elastic Constant Matrix: (Units=GPa)
#
#
# Indices 1 2 3 4 5 6 
#
# 1 132.5338 19.6359 87.7909 -9.3819 -2.1980 -16.6488
# 2 19.6359 89.4149 55.3146 -18.0313 4.1970 -9.4036
# 3 87.7909 55.3146 162.2858 -15.5913 -3.4598 -0.9310
# 4 -9.3819 -18.0313 -15.5913 47.5387 9.3091 -4.7730
# 5 -2.1980 4.1970 -3.4598 9.3091 55.1613 -7.5981
# 6 -16.6488 -9.4036 -0.9310 -4.7730 -7.5981 33.2377
#
#
#
# Elastic Compliance Matrix: (Units=1/GPa)
#
#
# Indices 1 2 3 4 5 6 
#
# 1 0.013700 0.003332 -0.008303 0.001939 0.000543 0.007975
# 2 0.003332 0.016660 -0.006931 0.005686 -0.001615 0.006636
# 3 -0.008303 -0.006931 0.012925 -0.000672 0.000324 -0.005781
# 4 0.001939 0.005686 -0.000672 0.024629 -0.003835 0.005221
# 5 0.000543 -0.001615 0.000324 -0.003835 0.019453 0.003720
# 6 0.007975 0.006636 -0.005781 0.005221 0.003720 0.037397
#
#
# Mechanical properties :
#
#
# Convention : Reuss Voigt Hill
#
# Bulk Modulus (GPa) = 51.33253 78.85747 65.09500
# Shear Modulus (GPa) = 32.24494 41.95375 37.09934
#
# Velocity S-wave (km/s) = 3.53199 4.02879 3.78854
# Velocity P-wave (km/s) = 6.04094 7.22150 6.65744
#
# Compressibility (1/GPa) = 0.01948082
#
# Stress axis : x y z
#
# Youngs Moduli (GPa) = 72.99407 60.02295 77.36676
#
# Poissons Ratio (x) = -0.20002 0.64240
# Poissons Ratio (y) = -0.24324 0.53626
# Poissons Ratio (z) = 0.60609 0.41604
#
# Static dielectric constant tensor:
#      x y z
#    x 5.604910 -0.269820 -0.157750 
#    y -0.269820 5.649560 -0.123890 
#    z -0.157750 -0.123890 5.703670 
# 
# 
# High freq. dielectric constant tensor:
#      x y z
#    x 2.052190 0.045340 0.019450 
#    y 0.045340 2.081550 -0.003390 
#    z 0.019450 -0.003390 2.047740 
# 
# From -- ./inp_files/515897.got.cif
#   From: 2010.06.25/outbox.cif.g09.slc.cpg/sg2_258_cif.got.tgz:515897.got - 2010.06.27 13:26:56.
