data_PCOD8004623
_publ_section_title
;
Structure prediction by ZEFSAII (Michael W. Deem and Ramdas Pophale) SiO2 
 PCOD8004623
Probable space group: P -1
;
_chemical_formula_sum "Si O2"
_cell_formula_units_Z 14
_cell_length_a 11.246749
_cell_length_b 11.860356
_cell_length_c 8.515350
_cell_angle_alpha 132.355429
_cell_angle_beta 66.010071
_cell_angle_gamma 83.589940
_cell_volume 629.519548
_symmetry_space_group_name_H-M "P -1"
_symmetry_group_IT_number 2
_symmetry_cell_setting 'triclinic'
loop_
_space_group_symop_operation_xyz
x,y,z
-x,-y,-z
loop_
_atom_site_type_symbol
_atom_site_label
_atom_site_fract_x
_atom_site_fract_y
_atom_site_fract_z
Si Si1 0.312580 0.584483 0.828127
Si Si2 0.369710 0.185393 0.024843
Si Si3 0.531849 0.329716 0.926014
Si Si4 0.366406 0.766674 0.711583
Si Si5 0.304890 0.086267 0.269876
Si Si6 0.970223 0.849414 0.312627
Si Si7 0.748131 0.998946 0.291406
O O1 0.317971 0.638452 0.695126
O O2 0.449491 0.365656 0.572980
O O3 0.344583 0.707737 0.040651
O O4 0.136626 0.644404 0.022658
O O5 0.378182 0.355756 0.118530
O O6 0.545700 0.989798 0.765306
O O7 0.274927 0.151762 0.914173
O O8 0.285213 0.235824 0.290881
O O9 0.602343 0.141401 0.615252
O O10 0.500000 0.500000 0.000000
O O11 0.249031 0.875858 0.731052
O O12 0.350420 0.907887 0.978965
O O13 0.143481 0.172687 0.534353
O O14 0.907625 0.898822 0.213652
O O15 0.000000 0.000000 0.500000
#
# Coordination Sequence:
#
# PCOD8004623 Si02
#       7
#     2   2   2   2   2   2   2
#     4  11  22  37  61  94 133 157 210 261 328 363
#     4  10  21  39  61  94 123 164 221 258 299 394
#     4  12  21  38  64  98 119 165 211 275 303 367
#     4  10  20  38  60  96 118 170 207 255 313 373
#     4  10  20  38  67  86 126 171 210 259 317 368
#     4  12  21  38  61  98 130 162 208 270 316 373
#     4  11  22  35  66  95 125 163 218 257 317 364
#
# _framework density 22.239183000000001
#
# number of rings (size 3 to 8) (size 9 to 14) (size 15 to 20)
#    0.000    1.143    7.143    0.429    0.000    0.571 
#    0.000    0.000    0.000   15.429    0.000    0.000 
#    0.000    0.000    0.000    0.000    0.000    0.000 
#
# Total GULP energy -173463.517432 kJ/mol
# GULP energy per Si atom -12390.251245 kJ/mol
# Density = 2.218857 g / cm^3
# Si number density = 22.239183 Si / 1000 Ang^3
#
#
#
# Elastic Constant Matrix: (Units=GPa)
#
#
# Indices 1 2 3 4 5 6 
#
# 1 116.5868 44.7193 34.1132 -16.4349 -3.8599 -21.5693
# 2 44.7193 154.0969 24.8218 -23.8394 -7.8851 1.3964
# 3 34.1132 24.8218 81.7637 -15.3355 -23.3374 -8.3106
# 4 -16.4349 -23.8394 -15.3355 21.0802 4.7314 1.0078
# 5 -3.8599 -7.8851 -23.3374 4.7314 39.0143 -11.8032
# 6 -21.5693 1.3964 -8.3106 1.0078 -11.8032 25.8948
#
#
#
# Elastic Compliance Matrix: (Units=1/GPa)
#
#
# Indices 1 2 3 4 5 6 
#
# 1 0.012999 -0.002738 -0.001873 0.004576 0.002484 0.011328
# 2 -0.002738 0.008525 -0.000725 0.007381 -0.001001 -0.003717
# 3 -0.001873 -0.000725 0.019872 0.008565 0.013785 0.010807
# 4 0.004576 0.007381 0.008565 0.065343 0.000277 0.003746
# 5 0.002484 -0.001001 0.013785 0.000277 0.041602 0.025500
# 6 0.011328 -0.003717 0.010807 0.003746 0.025500 0.063200
#
#
# Mechanical properties :
#
#
# Convention : Reuss Voigt Hill
#
# Bulk Modulus (GPa) = 32.54862 62.19510 47.37186
# Shear Modulus (GPa) = 21.50963 33.78406 27.64685
#
# Velocity S-wave (km/s) = 3.11335 3.90182 3.52967
# Velocity P-wave (km/s) = 5.25275 6.95170 6.16107
#
# Compressibility (1/GPa) = 0.03072327
#
# Stress axis : x y z
#
# Youngs Moduli (GPa) = 76.93019 117.29967 50.32308
#
# Poissons Ratio (x) = 0.32119 0.09427
# Poissons Ratio (y) = 0.21065 0.03647
# Poissons Ratio (z) = 0.14411 0.08500
#
# Static dielectric constant tensor:
#      x y z
#    x 3.950830 -0.148870 0.114630 
#    y -0.148870 4.510040 -0.471710 
#    z 0.114630 -0.471710 3.949750 
# 
# 
# High freq. dielectric constant tensor:
#      x y z
#    x 1.859950 -0.006060 0.019350 
#    y -0.006060 1.879480 -0.027370 
#    z 0.019350 -0.027370 1.853430 
# 
# From -- ./inp_files/159514.got.cif
#   From: 2010.06.25/outbox.cif.g09.slc.cpg/sg2_80_cif.got.tgz:159514.got - 2010.06.27 13:26:56.
