data_PCOD8004037
_publ_section_title
;
Structure prediction by ZEFSAII (Michael W. Deem and Ramdas Pophale) SiO2 
 PCOD8004037
Probable space group: P -1
;
_chemical_formula_sum "Si O2"
_cell_formula_units_Z 14
_cell_length_a 12.515010
_cell_length_b 20.340631
_cell_length_c 15.129196
_cell_angle_alpha 152.711509
_cell_angle_beta 28.071625
_cell_angle_gamma 158.071324
_cell_volume 620.497240
_symmetry_space_group_name_H-M "P -1"
_symmetry_group_IT_number 2
_symmetry_cell_setting 'triclinic'
loop_
_space_group_symop_operation_xyz
x,y,z
-x,-y,-z
loop_
_atom_site_type_symbol
_atom_site_label
_atom_site_fract_x
_atom_site_fract_y
_atom_site_fract_z
Si Si1 0.932814 0.274167 0.756119
Si Si2 0.970896 0.206057 0.457180
Si Si3 0.753136 0.188033 0.099358
Si Si4 0.288817 0.608658 0.166580
Si Si5 0.454098 0.620681 0.871404
Si Si6 0.251367 0.188554 0.784766
Si Si7 0.697138 0.893076 0.537709
O O1 0.082515 0.324349 0.608960
O O2 0.219567 0.389662 0.752365
O O3 0.705425 0.051183 0.675504
O O4 0.719166 0.322114 0.982065
O O5 0.230766 0.277524 0.283624
O O6 0.765843 0.243376 0.605935
O O7 0.793628 0.986714 0.348684
O O8 0.592604 0.232008 0.336167
O O9 0.979078 0.385457 0.114306
O O10 0.941265 0.149503 0.972150
O O11 0.500000 0.000000 0.000000
O O12 0.470485 0.626837 0.141626
O O13 0.502450 0.671160 0.999904
O O14 0.336643 0.230052 0.667255
O O15 0.000000 0.000000 0.500000
#
# Coordination Sequence:
#
# PCOD8004037 Si02
#       7
#     2   2   2   2   2   2   2
#     4   9  20  37  57  96 124 161 213 269 311 371
#     4  10  22  39  67  91 126 173 214 258 321 376
#     4  12  25  43  67  94 127 173 215 262 323 377
#     4  11  26  41  64 100 132 166 216 264 317 389
#     4  10  20  37  63  90 131 163 209 264 320 374
#     4  11  25  45  64  95 134 168 214 266 318 383
#     4  11  23  40  65  90 125 167 214 265 312 376
#
# _framework density 22.562550999999999
#
# number of rings (size 3 to 8) (size 9 to 14) (size 15 to 20)
#    0.000    1.429    1.429    3.000    2.000    4.571 
#    0.000    0.000    0.000    0.000    0.000    0.000 
#    0.000    0.000    0.000    0.000    0.000    0.000 
#
# Total GULP energy -173528.389974 kJ/mol
# GULP energy per Si atom -12394.884998 kJ/mol
# Density = 2.251120 g / cm^3
# Si number density = 22.562551 Si / 1000 Ang^3
#
#
#
# Elastic Constant Matrix: (Units=GPa)
#
#
# Indices 1 2 3 4 5 6 
#
# 1 102.1291 26.2805 37.3427 -18.0356 5.7457 21.4263
# 2 26.2805 64.8046 28.7789 -18.5445 4.1243 4.2880
# 3 37.3427 28.7789 115.0838 -40.9829 15.4813 3.0480
# 4 -18.0356 -18.5445 -40.9829 35.7080 -13.7013 1.8528
# 5 5.7457 4.1243 15.4813 -13.7013 42.7789 4.9642
# 6 21.4263 4.2880 3.0480 1.8528 4.9642 39.6098
#
#
#
# Elastic Compliance Matrix: (Units=1/GPa)
#
#
# Indices 1 2 3 4 5 6 
#
# 1 0.013452 -0.003057 -0.002412 0.003278 0.001231 -0.007068
# 2 -0.003057 0.019412 -0.001316 0.007680 0.001580 -0.000904
# 3 -0.002412 -0.001316 0.015467 0.015873 -0.000007 -0.000485
# 4 0.003278 0.007680 0.015873 0.056988 0.012259 -0.008028
# 5 0.001231 0.001580 -0.000007 0.012259 0.027551 -0.004863
# 6 -0.007068 -0.000904 -0.000485 -0.008028 -0.004863 0.030190
#
#
# Mechanical properties :
#
#
# Convention : Reuss Voigt Hill
#
# Bulk Modulus (GPa) = 28.76651 51.86910 40.31781
# Shear Modulus (GPa) = 26.56499 36.26036 31.41268
#
# Velocity S-wave (km/s) = 3.43504 4.01322 3.73533
# Velocity P-wave (km/s) = 5.33948 6.67184 6.04250
#
# Compressibility (1/GPa) = 0.03476264
#
# Stress axis : x y z
#
# Youngs Moduli (GPa) = 74.33575 51.51404 64.65217
#
# Poissons Ratio (x) = 0.15748 0.15591
# Poissons Ratio (y) = 0.22725 0.08509
# Poissons Ratio (z) = 0.17927 0.06780
#
# Static dielectric constant tensor:
#      x y z
#    x 4.068380 -0.061260 0.077000 
#    y -0.061260 3.844310 0.140980 
#    z 0.077000 0.140980 4.307320 
# 
# 
# High freq. dielectric constant tensor:
#      x y z
#    x 1.891360 -0.005710 -0.002000 
#    y -0.005710 1.870140 0.004650 
#    z -0.002000 0.004650 1.904270 
# 
# From -- ./inp_files/456033.got.cif
#   From: 2010.06.25/outbox.cif.g09.slc.cpg/sg2_229_cif.got.tgz:456033.got - 2010.06.27 13:26:56.
