data_PCOD8004804
_publ_section_title
;
Structure prediction by ZEFSAII (Michael W. Deem and Ramdas Pophale) SiO2 
 PCOD8004804
Probable space group: P -1
;
_chemical_formula_sum "Si O2"
_cell_formula_units_Z 16
_cell_length_a 18.648399
_cell_length_b 18.324368
_cell_length_c 11.896926
_cell_angle_alpha 158.603090
_cell_angle_beta 146.877318
_cell_angle_gamma 31.350796
_cell_volume 752.192804
_symmetry_space_group_name_H-M "P -1"
_symmetry_group_IT_number 2
_symmetry_cell_setting 'triclinic'
loop_
_space_group_symop_operation_xyz
x,y,z
-x,-y,-z
loop_
_atom_site_type_symbol
_atom_site_label
_atom_site_fract_x
_atom_site_fract_y
_atom_site_fract_z
Si Si1 0.336414 0.504393 0.592656
Si Si2 0.535345 0.709764 0.211382
Si Si3 0.116381 0.917695 0.630725
Si Si4 0.783981 0.695734 0.669914
Si Si5 0.361613 0.169156 0.698770
Si Si6 0.952237 0.711950 0.557936
Si Si7 0.054366 0.886685 0.749311
Si Si8 0.638293 0.528223 0.679703
O O1 0.281218 0.338752 0.346391
O O2 0.220111 0.748107 0.791610
O O3 0.369647 0.421044 0.389934
O O4 0.475006 0.516454 0.855757
O O5 0.689071 0.650939 0.383293
O O6 0.540452 0.763180 0.162277
O O7 0.424763 0.911582 0.422947
O O8 0.028533 0.907620 0.612291
O O9 0.225577 0.679624 0.403986
O O10 0.000000 0.000000 0.500000
O O11 0.208454 0.068049 0.985186
O O12 0.943243 0.528771 0.621943
O O13 0.204112 0.261175 0.574110
O O14 0.356845 0.263357 0.951762
O O15 0.962695 0.764251 0.513697
O O16 0.997195 0.875270 0.925856
O O17 0.500000 0.500000 0.500000
#
# Coordination Sequence:
#
# PCOD8004804 Si02
#       8
#     2   2   2   2   2   2   2   2
#     4  10  21  42  63  89 127 162 200 248 307 362
#     4  11  22  39  64  93 126 156 201 256 306 355
#     4  11  24  41  59  87 128 161 198 251 310 357
#     4  11  24  38  63  92 123 162 201 255 307 353
#     4  11  22  37  67  92 115 161 211 244 301 367
#     4  10  20  38  62  90 117 153 208 250 295 357
#     4   9  20  39  62  86 120 160 198 250 299 359
#     4  11  22  41  63  86 120 164 204 242 295 371
#
# _framework density 21.271142000000001
#
# number of rings (size 3 to 8) (size 9 to 14) (size 15 to 20)
#    0.000    1.500    2.500    2.625    3.500    4.000 
#    0.000    6.250    0.000    0.000    0.000    0.000 
#    0.000    0.000    0.000    0.000    0.000    0.000 
#
# Total GULP energy -198404.484257 kJ/mol
# GULP energy per Si atom -12400.280266 kJ/mol
# Density = 2.122273 g / cm^3
# Si number density = 21.271142 Si / 1000 Ang^3
#
#
#
# Elastic Constant Matrix: (Units=GPa)
#
#
# Indices 1 2 3 4 5 6 
#
# 1 108.9690 31.9727 25.8914 9.3466 -17.7456 0.3673
# 2 31.9727 82.9671 19.4518 -9.6952 -10.2003 -0.2901
# 3 25.8914 19.4518 79.4206 2.2412 -14.7036 -3.1726
# 4 9.3466 -9.6952 2.2412 25.1954 -3.8527 -0.4330
# 5 -17.7456 -10.2003 -14.7036 -3.8527 29.8242 -4.9084
# 6 0.3673 -0.2901 -3.1726 -0.4330 -4.9084 33.0614
#
#
#
# Elastic Compliance Matrix: (Units=1/GPa)
#
#
# Indices 1 2 3 4 5 6 
#
# 1 0.012018 -0.004293 -0.001958 -0.005312 0.004059 0.000174
# 2 -0.004293 0.015506 -0.002078 0.008192 0.002868 0.000517
# 3 -0.001958 -0.002078 0.014916 -0.000475 0.005793 0.002289
# 4 -0.005312 0.008192 -0.000475 0.045731 0.005563 0.001510
# 5 0.004059 0.002868 0.005793 0.005563 0.041618 0.006788
# 6 0.000174 0.000517 0.002289 0.001510 0.006788 0.031497
#
#
# Mechanical properties :
#
#
# Convention : Reuss Voigt Hill
#
# Bulk Modulus (GPa) = 38.78690 47.33207 43.05948
# Shear Modulus (GPa) = 26.80420 30.55225 28.67822
#
# Velocity S-wave (km/s) = 3.55367 3.79400 3.67580
# Velocity P-wave (km/s) = 5.92555 6.44148 6.18889
#
# Compressibility (1/GPa) = 0.02578190
#
# Stress axis : x y z
#
# Youngs Moduli (GPa) = 83.20822 64.49010 67.04318
#
# Poissons Ratio (x) = 0.27688 0.13127
# Poissons Ratio (y) = 0.35725 0.13930
# Poissons Ratio (z) = 0.16292 0.13399
#
# Static dielectric constant tensor:
#      x y z
#    x 4.959970 0.086900 -1.594160 
#    y 0.086900 3.705850 -0.216410 
#    z -1.594160 -0.216410 6.599080 
# 
# 
# High freq. dielectric constant tensor:
#      x y z
#    x 1.848740 -0.005360 -0.001880 
#    y -0.005360 1.822640 -0.001220 
#    z -0.001880 -0.001220 1.822390 
# 
# From -- ./inp_files/466497.got.cif
#   From: 2010.06.25/outbox.cif.g09.slc.cpg/sg2_234_cif.got.tgz:466497.got - 2010.06.27 13:26:56.
