data_PCOD8004827
_publ_section_title
;
Structure prediction by ZEFSAII (Michael W. Deem and Ramdas Pophale) SiO2 
 PCOD8004827
Probable space group: P -1
;
_chemical_formula_sum "Si O2"
_cell_formula_units_Z 14
_cell_length_a 23.177719
_cell_length_b 14.517809
_cell_length_c 6.551637
_cell_angle_alpha 124.820146
_cell_angle_beta 127.305147
_cell_angle_gamma 21.022078
_cell_volume 628.938344
_symmetry_space_group_name_H-M "P -1"
_symmetry_group_IT_number 2
_symmetry_cell_setting 'triclinic'
loop_
_space_group_symop_operation_xyz
x,y,z
-x,-y,-z
loop_
_atom_site_type_symbol
_atom_site_label
_atom_site_fract_x
_atom_site_fract_y
_atom_site_fract_z
Si Si1 0.035559 0.134291 0.662200
Si Si2 0.500333 0.328797 0.225703
Si Si3 0.957883 0.452523 0.647517
Si Si4 0.145744 0.540160 0.938334
Si Si5 0.598104 0.400519 0.283032
Si Si6 0.839851 0.284624 0.102578
Si Si7 0.752128 0.787982 0.986510
O O1 0.052163 0.231226 0.711502
O O2 0.891385 0.262201 0.404635
O O3 0.994002 0.205742 0.901597
O O4 0.213323 0.825592 0.646899
O O5 0.604942 0.284172 0.299104
O O6 0.484635 0.377821 0.497054
O O7 0.592953 0.083534 0.070995
O O8 0.317718 0.578677 0.044141
O O9 0.934990 0.439455 0.355742
O O10 0.074580 0.398132 0.804319
O O11 0.779980 0.728534 0.726843
O O12 0.225624 0.525808 0.951019
O O13 0.271504 0.298002 0.052622
O O14 0.500000 0.500000 0.000000
O O15 0.000000 0.000000 0.000000
#
# Coordination Sequence:
#
# PCOD8004827 Si02
#       7
#     2   2   2   2   2   2   2
#     4  10  21  41  64  92 123 161 211 253 309 370
#     4  11  25  43  62  94 131 162 201 265 308 359
#     4   9  19  38  62  93 123 160 202 260 311 361
#     4  10  23  37  65  91 121 168 205 252 304 375
#     4  11  25  39  64  98 123 160 208 262 312 362
#     4  11  24  43  63  88 130 170 205 248 309 375
#     4  10  20  38  62  91 126 159 210 252 311 365
#
# _framework density 22.259732
#
# number of rings (size 3 to 8) (size 9 to 14) (size 15 to 20)
#    0.000    1.714    2.857    0.429    4.000    3.429 
#    0.000    6.429    0.000    0.000    0.000    0.000 
#    0.000    0.000    0.000    0.000    0.000    0.000 
#
# Total GULP energy -173536.533176 kJ/mol
# GULP energy per Si atom -12395.466655 kJ/mol
# Density = 2.220907 g / cm^3
# Si number density = 22.259732 Si / 1000 Ang^3
#
#
#
# Elastic Constant Matrix: (Units=GPa)
#
#
# Indices 1 2 3 4 5 6 
#
# 1 32.7788 5.6097 18.5508 -2.4994 2.1171 -3.3657
# 2 5.6097 111.8912 49.6525 22.1928 -3.9552 -14.1374
# 3 18.5508 49.6525 173.2061 18.4229 -14.2925 -18.1812
# 4 -2.4994 22.1928 18.4229 37.6038 -2.8207 3.0831
# 5 2.1171 -3.9552 -14.2925 -2.8207 30.8544 1.4788
# 6 -3.3657 -14.1374 -18.1812 3.0831 1.4788 25.4924
#
#
#
# Elastic Compliance Matrix: (Units=1/GPa)
#
#
# Indices 1 2 3 4 5 6 
#
# 1 0.033615 -0.000770 -0.004080 0.004326 -0.003938 0.000806
# 2 -0.000770 0.011919 -0.002038 -0.006586 -0.000247 0.005865
# 3 -0.004080 -0.002038 0.007801 -0.002987 0.003164 0.004072
# 4 0.004326 -0.006586 -0.002987 0.033061 0.000942 -0.009264
# 5 -0.003938 -0.000247 0.003164 0.000942 0.034225 -0.000500
# 6 0.000806 0.005865 0.004072 -0.009264 -0.000500 0.046640
#
#
# Mechanical properties :
#
#
# Convention : Reuss Voigt Hill
#
# Bulk Modulus (GPa) = 25.27915 51.72247 38.50081
# Shear Modulus (GPa) = 25.74333 35.06099 30.40216
#
# Velocity S-wave (km/s) = 3.40442 3.97304 3.69967
# Velocity P-wave (km/s) = 5.18021 6.65831 5.96522
#
# Compressibility (1/GPa) = 0.03955829
#
# Stress axis : x y z
#
# Youngs Moduli (GPa) = 29.74821 83.89853 128.18854
#
# Poissons Ratio (x) = 0.06462 0.52301
# Poissons Ratio (y) = 0.02291 0.26131
# Poissons Ratio (z) = 0.12137 0.17103
#
# Static dielectric constant tensor:
#      x y z
#    x 4.021740 0.028730 -0.043810 
#    y 0.028730 3.720890 0.348180 
#    z -0.043810 0.348180 4.215710 
# 
# 
# High freq. dielectric constant tensor:
#      x y z
#    x 1.870610 0.003270 -0.001370 
#    y 0.003270 1.851260 0.025740 
#    z -0.001370 0.025740 1.887990 
# 
# From -- ./inp_files/60899.got.cif
#   From: 2010.06.25/outbox.cif.g09.slc.cpg/sg2_31_cif.got.tgz:60899.got - 2010.06.27 13:26:56.
