data_PCOD8004628
_publ_section_title
;
Structure prediction by ZEFSAII (Michael W. Deem and Ramdas Pophale) SiO2 
 PCOD8004628
Probable space group: P -1
;
_chemical_formula_sum "Si O2"
_cell_formula_units_Z 14
_cell_length_a 8.640233
_cell_length_b 11.190562
_cell_length_c 17.130761
_cell_angle_alpha 138.858547
_cell_angle_beta 52.366495
_cell_angle_gamma 98.267995
_cell_volume 686.121215
_symmetry_space_group_name_H-M "P -1"
_symmetry_group_IT_number 2
_symmetry_cell_setting 'triclinic'
loop_
_space_group_symop_operation_xyz
x,y,z
-x,-y,-z
loop_
_atom_site_type_symbol
_atom_site_label
_atom_site_fract_x
_atom_site_fract_y
_atom_site_fract_z
Si Si1 0.310629 0.825345 0.163712
Si Si2 0.243081 0.967992 0.933249
Si Si3 0.142179 0.560696 0.149667
Si Si4 0.741055 0.813119 0.531956
Si Si5 0.661497 0.527738 0.521708
Si Si6 0.201223 0.153585 0.877427
Si Si7 0.918659 0.963655 0.820614
O O1 0.140667 0.743967 0.188765
O O2 0.261792 0.933874 0.146403
O O3 0.223518 0.018481 0.350182
O O4 0.594954 0.609033 0.972739
O O5 0.482695 0.706077 0.730698
O O6 0.273999 0.103476 0.923735
O O7 0.217149 0.053030 0.071494
O O8 0.000000 0.000000 0.000000
O O9 0.924879 0.696034 0.345648
O O10 0.097859 0.417255 0.032154
O O11 0.793709 0.612352 0.473470
O O12 0.458935 0.970518 0.663396
O O13 0.500000 0.500000 0.500000
O O14 0.850621 0.295020 0.395807
O O15 0.000002 0.123176 0.896187
#
# Coordination Sequence:
#
# PCOD8004628 Si02
#       7
#     2   2   2   2   2   2   2
#     4  10  24  40  55  84 113 153 194 237 271 337
#     4   9  17  31  54  84 113 147 176 217 283 339
#     4  10  21  41  62  74 111 159 196 228 285 323
#     4  10  20  38  61  81 110 153 191 227 285 342
#     4  11  19  34  59  87 114 145 183 228 285 341
#     4   9  19  34  59  87 107 145 193 229 279 342
#     4  11  21  35  57  87 123 139 188 237 279 335
#
# _framework density 20.40456
#
# number of rings (size 3 to 8) (size 9 to 14) (size 15 to 20)
#    0.000    2.000    4.286    1.286    2.000    2.286 
#    0.000   10.714    0.000    0.000    0.000    0.000 
#    0.000    0.000    0.000    0.000    0.000    0.000 
#
# Total GULP energy -173531.520760 kJ/mol
# GULP energy per Si atom -12395.108626 kJ/mol
# Density = 2.035812 g / cm^3
# Si number density = 20.404560 Si / 1000 Ang^3
#
#
#
# Elastic Constant Matrix: (Units=GPa)
#
#
# Indices 1 2 3 4 5 6 
#
# 1 12.6595 -9.2740 2.3900 1.1664 2.4685 -3.4137
# 2 -9.2740 56.6162 22.5134 0.8527 -2.1655 9.3382
# 3 2.3900 22.5134 109.5457 -16.3376 -0.8943 2.4781
# 4 1.1664 0.8527 -16.3376 34.5146 8.3694 3.8867
# 5 2.4685 -2.1655 -0.8943 8.3694 17.9581 6.7337
# 6 -3.4137 9.3382 2.4781 3.8867 6.7337 36.4805
#
#
#
# Elastic Compliance Matrix: (Units=1/GPa)
#
#
# Indices 1 2 3 4 5 6 
#
# 1 0.097657 0.016872 -0.006584 -0.004699 -0.012559 0.008086
# 2 0.016872 0.023639 -0.005742 -0.004326 0.003889 -0.004339
# 3 -0.006584 -0.005742 0.011376 0.006274 -0.002067 -0.000206
# 4 -0.004699 -0.004326 0.006274 0.036208 -0.016204 -0.000625
# 5 -0.012559 0.003889 -0.002067 -0.016204 0.070309 -0.013282
# 6 0.008086 -0.004339 -0.000206 -0.000625 -0.013282 0.031812
#
#
# Mechanical properties :
#
#
# Convention : Reuss Voigt Hill
#
# Bulk Modulus (GPa) = 7.05400 23.34224 15.19812
# Shear Modulus (GPa) = 16.17264 28.67012 22.42138
#
# Velocity S-wave (km/s) = 2.81837 3.75251 3.31847
# Velocity P-wave (km/s) = 3.74907 5.49906 4.70612
#
# Compressibility (1/GPa) = 0.14176353
#
# Stress axis : x y z
#
# Youngs Moduli (GPa) = 10.23991 42.30263 87.90692
#
# Poissons Ratio (x) = -0.71371 0.57879
# Poissons Ratio (y) = -0.17276 0.50473
# Poissons Ratio (z) = 0.06742 0.24289
#
# Static dielectric constant tensor:
#      x y z
#    x 3.378820 0.254020 0.126210 
#    y 0.254020 3.992000 -0.096640 
#    z 0.126210 -0.096640 3.998870 
# 
# 
# High freq. dielectric constant tensor:
#      x y z
#    x 1.767770 0.026330 0.001620 
#    y 0.026330 1.793860 0.004670 
#    z 0.001620 0.004670 1.808420 
# 
# From -- ./inp_files/253315.got.cif
#   From: 2010.06.25/outbox.cif.g09.slc.cpg/sg2_127_cif.got.tgz:253315.got - 2010.06.27 13:26:56.
