data_PCOD8004176
_publ_section_title
;
Structure prediction by ZEFSAII (Michael W. Deem and Ramdas Pophale) SiO2 
 PCOD8004176
Probable space group: P -1
;
_chemical_formula_sum "Si O2"
_cell_formula_units_Z 12
_cell_length_a 20.987191
_cell_length_b 5.385887
_cell_length_c 7.822084
_cell_angle_alpha 72.447729
_cell_angle_beta 150.080875
_cell_angle_gamma 101.596646
_cell_volume 417.068753
_symmetry_space_group_name_H-M "P -1"
_symmetry_group_IT_number 2
_symmetry_cell_setting 'triclinic'
loop_
_space_group_symop_operation_xyz
x,y,z
-x,-y,-z
loop_
_atom_site_type_symbol
_atom_site_label
_atom_site_fract_x
_atom_site_fract_y
_atom_site_fract_z
Si Si1 0.507269 0.325415 0.888025
Si Si2 0.770527 0.220351 0.374203
Si Si3 0.995710 0.973623 0.218828
Si Si4 0.894882 0.601097 0.401120
Si Si5 0.277982 0.042136 0.318862
Si Si6 0.594320 0.215059 0.644782
O O1 0.404497 0.118744 0.698261
O O2 0.487601 0.493962 0.629910
O O3 0.500000 0.500000 0.000000
O O4 0.660073 0.195139 0.267340
O O5 0.905840 0.011603 0.717890
O O6 0.816974 0.509877 0.407318
O O7 0.702310 0.177222 0.044974
O O8 0.017754 0.670742 0.408525
O O9 0.022861 0.175103 0.389596
O O10 0.838582 0.046962 0.807500
O O11 0.789246 0.705905 0.992227
O O12 0.330271 0.817955 0.353868
O O13 0.500000 0.000000 0.500000
#
# Coordination Sequence:
#
# PCOD8004176 Si02
#       6
#     2   2   2   2   2   2
#     4  12  27  44  64  98 142 184 227 283 346 414
#     4  10  22  40  67  99 134 172 232 282 346 403
#     4  10  23  35  68 104 137 174 220 298 346 407
#     4  10  20  37  65 104 136 168 228 282 356 397
#     4  12  22  39  63 100 135 175 227 286 344 407
#     4  12  23  40  72  99 136 176 237 286 344 404
#
# _framework density 28.772234000000001
#
# number of rings (size 3 to 8) (size 9 to 14) (size 15 to 20)
#    1.000    0.000    5.000    2.500    2.333    0.667 
#    0.000    0.833    0.000    2.000    0.000    0.000 
#    0.000    0.000    0.000    0.000    0.000    0.000 
#
# Total GULP energy -148723.515178 kJ/mol
# GULP energy per Si atom -12393.626265 kJ/mol
# Density = 2.870675 g / cm^3
# Si number density = 28.772234 Si / 1000 Ang^3
#
#
#
# Elastic Constant Matrix: (Units=GPa)
#
#
# Indices 1 2 3 4 5 6 
#
# 1 142.6636 60.4025 97.3704 11.5381 6.4027 -8.9408
# 2 60.4025 134.2206 84.5889 14.0440 20.2134 8.6555
# 3 97.3704 84.5889 281.2688 -10.9214 40.2797 -3.7147
# 4 11.5381 14.0440 -10.9214 52.9281 2.5665 -4.6983
# 5 6.4027 20.2134 40.2797 2.5665 34.6853 -1.5148
# 6 -8.9408 8.6555 -3.7147 -4.6983 -1.5148 47.1936
#
#
#
# Elastic Compliance Matrix: (Units=1/GPa)
#
#
# Indices 1 2 3 4 5 6 
#
# 1 0.010872 -0.003275 -0.003428 -0.002205 0.004146 0.002304
# 2 -0.003275 0.011125 -0.001831 -0.002720 -0.003690 -0.003194
# 3 -0.003428 -0.001831 0.006226 0.002820 -0.005727 0.000273
# 4 -0.002205 -0.002720 0.002820 0.021015 -0.002736 0.002308
# 5 0.004146 -0.003690 -0.005727 -0.002736 0.037153 0.001932
# 6 0.002304 -0.003194 0.000273 0.002308 0.001932 0.022525
#
#
# Mechanical properties :
#
#
# Convention : Reuss Voigt Hill
#
# Bulk Modulus (GPa) = 89.64594 115.87516 102.76055
# Shear Modulus (GPa) = 38.54982 48.01416 43.28199
#
# Velocity S-wave (km/s) = 3.66434 4.08949 3.88273
# Velocity P-wave (km/s) = 7.00913 7.91576 7.47620
#
# Compressibility (1/GPa) = 0.01115499
#
# Stress axis : x y z
#
# Youngs Moduli (GPa) = 91.97772 89.89086 160.61723
#
# Poissons Ratio (x) = 0.29436 0.55057
# Poissons Ratio (y) = 0.30120 0.29415
# Poissons Ratio (z) = 0.31529 0.16462
#
# Static dielectric constant tensor:
#      x y z
#    x 7.685900 2.039920 1.126160 
#    y 2.039920 6.983280 0.237560 
#    z 1.126160 0.237560 6.471140 
# 
# 
# High freq. dielectric constant tensor:
#      x y z
#    x 2.221700 0.020160 0.002520 
#    y 0.020160 2.155360 -0.031400 
#    z 0.002520 -0.031400 2.234060 
# 
# From -- ./inp_files/63181.got.cif
#   From: 2010.06.25/outbox.cif.g09.slc.cpg/sg2_32_cif.got.tgz:63181.got - 2010.06.27 13:26:56.
