data_PCOD8004796
_publ_section_title
;
Structure prediction by ZEFSAII (Michael W. Deem and Ramdas Pophale) SiO2 
 PCOD8004796
Probable space group: P -1
;
_chemical_formula_sum "Si O2"
_cell_formula_units_Z 16
_cell_length_a 26.950212
_cell_length_b 12.818285
_cell_length_c 6.774508
_cell_angle_alpha 64.360954
_cell_angle_beta 50.783725
_cell_angle_gamma 26.803076
_cell_volume 757.362075
_symmetry_space_group_name_H-M "P -1"
_symmetry_group_IT_number 2
_symmetry_cell_setting 'triclinic'
loop_
_space_group_symop_operation_xyz
x,y,z
-x,-y,-z
loop_
_atom_site_type_symbol
_atom_site_label
_atom_site_fract_x
_atom_site_fract_y
_atom_site_fract_z
Si Si1 0.596573 0.119126 0.809759
Si Si2 0.692857 0.402477 0.061376
Si Si3 0.125581 0.003667 0.379401
Si Si4 0.749379 0.716180 0.482229
Si Si5 0.955944 0.699867 0.976304
Si Si6 0.626096 0.881455 0.253088
Si Si7 0.263626 0.869643 0.532357
Si Si8 0.192146 0.548654 0.129998
O O1 0.455035 0.328296 0.875526
O O2 0.623330 0.210306 0.726244
O O3 0.722518 0.873195 0.555426
O O4 0.589526 0.053222 0.077690
O O5 0.672458 0.324290 0.317218
O O6 0.759963 0.395087 0.034751
O O7 0.798566 0.211925 0.771431
O O8 0.973889 0.197943 0.655797
O O9 0.219508 0.876119 0.438373
O O10 0.120363 0.132711 0.166276
O O11 0.649885 0.887122 0.408698
O O12 0.725938 0.640015 0.737022
O O13 0.903417 0.454636 0.227192
O O14 0.870935 0.854713 0.262094
O O15 0.000000 0.500000 0.000000
O O16 0.500000 0.000000 0.500000
O O17 0.756125 0.600289 0.073952
#
# Coordination Sequence:
#
# PCOD8004796 Si02
#       8
#     2   2   2   2   2   2   2   2
#     4  11  24  40  61  90 124 161 199 247 299 360
#     4  11  24  41  61  84 126 167 201 245 291 353
#     4  10  24  40  61  92 119 159 205 246 294 355
#     4  10  21  39  63  92 121 154 196 253 305 350
#     4  10  20  38  62  89 120 154 190 246 304 351
#     4  11  23  38  64  94 117 155 203 250 303 356
#     4  11  24  40  61  92 123 159 203 241 299 362
#     4  10  22  43  63  90 120 156 205 251 300 351
#
# _framework density 21.125959000000002
#
# number of rings (size 3 to 8) (size 9 to 14) (size 15 to 20)
#    0.000    1.500    1.250    3.000    1.750    6.500 
#    0.000    0.000    0.000    0.000    0.000    0.000 
#    0.000    0.000    0.000    0.000    0.000    0.000 
#
# Total GULP energy -198384.877915 kJ/mol
# GULP energy per Si atom -12399.054870 kJ/mol
# Density = 2.107788 g / cm^3
# Si number density = 21.125959 Si / 1000 Ang^3
#
#
#
# Elastic Constant Matrix: (Units=GPa)
#
#
# Indices 1 2 3 4 5 6 
#
# 1 101.8369 19.1405 32.6467 -20.1934 -6.8929 -3.0442
# 2 19.1405 70.1896 19.3146 -4.1111 0.6655 0.6036
# 3 32.6467 19.3146 84.8059 -9.6788 -6.0450 -2.2335
# 4 -20.1934 -4.1111 -9.6788 30.2923 -4.4612 -0.6529
# 5 -6.8929 0.6655 -6.0450 -4.4612 32.2884 -7.3282
# 6 -3.0442 0.6036 -2.2335 -0.6529 -7.3282 38.0754
#
#
#
# Elastic Compliance Matrix: (Units=1/GPa)
#
#
# Indices 1 2 3 4 5 6 
#
# 1 0.013214 -0.002264 -0.003342 0.008023 0.003749 0.001755
# 2 -0.002264 0.015652 -0.002900 -0.000573 -0.001638 -0.000924
# 3 -0.003342 -0.002900 0.014219 0.002328 0.002592 0.001152
# 4 0.008023 -0.000573 0.002328 0.040336 0.008438 0.003103
# 5 0.003749 -0.001638 0.002592 0.008438 0.035132 0.007384
# 6 0.001755 -0.000924 0.001152 0.003103 0.007384 0.027961
#
#
# Mechanical properties :
#
#
# Convention : Reuss Voigt Hill
#
# Bulk Modulus (GPa) = 38.35285 44.33734 41.34509
# Shear Modulus (GPa) = 29.03317 32.51327 30.77322
#
# Velocity S-wave (km/s) = 3.71116 3.92729 3.82075
# Velocity P-wave (km/s) = 6.04627 6.44961 6.25120
#
# Compressibility (1/GPa) = 0.02607368
#
# Stress axis : x y z
#
# Youngs Moduli (GPa) = 75.67884 63.88769 70.32695
#
# Poissons Ratio (x) = 0.14467 0.23502
# Poissons Ratio (y) = 0.17137 0.20392
# Poissons Ratio (z) = 0.25291 0.18525
#
# Static dielectric constant tensor:
#      x y z
#    x 3.604270 0.074310 -0.271460 
#    y 0.074310 3.990910 0.409010 
#    z -0.271460 0.409010 4.279550 
# 
# 
# High freq. dielectric constant tensor:
#      x y z
#    x 1.822770 0.003270 -0.001250 
#    y 0.003270 1.832290 0.001940 
#    z -0.001250 0.001940 1.837450 
# 
# From -- ./inp_files/66306.got.cif
#   From: 2010.06.25/outbox.cif.g09.slc.cpg/sg2_34_cif.got.tgz:66306.got - 2010.06.27 13:26:56.
