data_PCOD8004327
_publ_section_title
;
Structure prediction by ZEFSAII (Michael W. Deem and Ramdas Pophale) SiO2 
 PCOD8004327
Probable space group: P -1
;
_chemical_formula_sum "Si O2"
_cell_formula_units_Z 14
_cell_length_a 12.520767
_cell_length_b 9.301340
_cell_length_c 18.565771
_cell_angle_alpha 49.142866
_cell_angle_beta 29.823908
_cell_angle_gamma 37.344001
_cell_volume 647.748421
_symmetry_space_group_name_H-M "P -1"
_symmetry_group_IT_number 2
_symmetry_cell_setting 'triclinic'
loop_
_space_group_symop_operation_xyz
x,y,z
-x,-y,-z
loop_
_atom_site_type_symbol
_atom_site_label
_atom_site_fract_x
_atom_site_fract_y
_atom_site_fract_z
Si Si1 0.450094 0.552127 0.787991
Si Si2 0.593997 0.735682 0.522604
Si Si3 0.499975 0.379206 0.968165
Si Si4 0.094644 0.147877 0.066860
Si Si5 0.433106 0.843181 0.251133
Si Si6 0.021102 0.368823 0.290974
Si Si7 0.288912 0.577517 0.680816
O O1 0.619816 0.624143 0.623103
O O2 0.494691 0.528557 0.855229
O O3 0.546064 0.293836 0.788501
O O4 0.137746 0.766511 0.883806
O O5 0.373766 0.746880 0.597038
O O6 0.885529 0.565800 0.368919
O O7 0.500000 0.000000 0.500000
O O8 0.777983 0.113779 0.890465
O O9 0.500000 0.500000 0.000000
O O10 0.239913 0.378820 0.117466
O O11 0.970453 0.332646 0.146407
O O12 0.323623 0.139163 0.894797
O O13 0.461320 0.693188 0.353906
O O14 0.154996 0.107571 0.331223
O O15 0.783298 0.419804 0.360525
#
# Coordination Sequence:
#
# PCOD8004327 Si02
#       7
#     2   2   2   2   2   2   2
#     4  10  21  40  65  86 128 168 202 257 313 366
#     4  10  24  44  63  92 128 171 209 247 319 378
#     4  11  24  38  62  96 129 161 211 253 315 372
#     4   9  18  35  61  93 127 155 203 258 315 366
#     4   9  18  35  62  99 121 153 211 256 311 367
#     4  11  22  40  66  93 127 160 208 266 298 369
#     4  10  20  37  69  89 123 165 208 254 309 367
#
# _framework density 21.613329
#
# number of rings (size 3 to 8) (size 9 to 14) (size 15 to 20)
#    0.000    2.286    0.000    4.714    4.000    5.143 
#    5.143    3.571    0.000    0.000    0.000    0.000 
#    0.000    0.000    0.000    0.000    0.000    0.000 
#
# Total GULP energy -173567.777298 kJ/mol
# GULP energy per Si atom -12397.698378 kJ/mol
# Density = 2.156414 g / cm^3
# Si number density = 21.613329 Si / 1000 Ang^3
#
#
#
# Elastic Constant Matrix: (Units=GPa)
#
#
# Indices 1 2 3 4 5 6 
#
# 1 119.8582 68.6370 37.8883 -6.0423 25.7591 -13.5795
# 2 68.6370 158.5589 53.9308 5.5037 14.9252 -15.1295
# 3 37.8883 53.9308 56.8648 1.1270 14.4090 -4.5784
# 4 -6.0423 5.5037 1.1270 33.1151 -0.1564 -1.6413
# 5 25.7591 14.9252 14.4090 -0.1564 30.9713 -4.3081
# 6 -13.5795 -15.1295 -4.5784 -1.6413 -4.3081 24.0837
#
#
#
# Elastic Compliance Matrix: (Units=1/GPa)
#
#
# Indices 1 2 3 4 5 6 
#
# 1 0.013857 -0.003911 -0.003390 0.003436 -0.007545 0.003596
# 2 -0.003911 0.010900 -0.007968 -0.002077 0.002166 0.003373
# 3 -0.003390 -0.007968 0.029021 -0.000451 -0.007224 -0.002723
# 4 0.003436 -0.002077 -0.000451 0.031303 -0.001145 0.002476
# 5 -0.007545 0.002166 -0.007224 -0.001145 0.041298 0.003042
# 6 0.003596 0.003373 -0.002723 0.002476 0.003042 0.045864
#
#
# Mechanical properties :
#
#
# Convention : Reuss Voigt Hill
#
# Bulk Modulus (GPa) = 43.02892 72.91047 57.96969
# Shear Modulus (GPa) = 23.75001 29.28907 26.51954
#
# Velocity S-wave (km/s) = 3.31850 3.68522 3.50666
# Velocity P-wave (km/s) = 5.88515 7.20521 6.57837
#
# Compressibility (1/GPa) = 0.02324018
#
# Stress axis : x y z
#
# Youngs Moduli (GPa) = 72.16687 91.74265 34.45802
#
# Poissons Ratio (x) = 0.35883 0.11681
# Poissons Ratio (y) = 0.28226 0.27455
# Poissons Ratio (z) = 0.24463 0.73098
#
# Static dielectric constant tensor:
#      x y z
#    x 3.585160 -0.165980 0.026070 
#    y -0.165980 4.107560 0.057920 
#    z 0.026070 0.057920 3.930790 
# 
# 
# High freq. dielectric constant tensor:
#      x y z
#    x 1.822080 -0.010300 0.003390 
#    y -0.010300 1.852580 0.004950 
#    z 0.003390 0.004950 1.853790 
# 
# From -- ./inp_files/566477.got.cif
#   From: 2010.06.25/outbox.cif.g09.slc.cpg/sg2_284_cif.got.tgz:566477.got - 2010.06.27 13:26:56.
