data_PCOD8004652
_publ_section_title
;
Structure prediction by ZEFSAII (Michael W. Deem and Ramdas Pophale) SiO2 
 PCOD8004652
Probable space group: P -1
;
_chemical_formula_sum "Si O2"
_cell_formula_units_Z 10
_cell_length_a 8.231044
_cell_length_b 11.229993
_cell_length_c 9.615242
_cell_angle_alpha 93.754800
_cell_angle_beta 129.622618
_cell_angle_gamma 54.357458
_cell_volume 485.274791
_symmetry_space_group_name_H-M "P -1"
_symmetry_group_IT_number 2
_symmetry_cell_setting 'triclinic'
loop_
_space_group_symop_operation_xyz
x,y,z
-x,-y,-z
loop_
_atom_site_type_symbol
_atom_site_label
_atom_site_fract_x
_atom_site_fract_y
_atom_site_fract_z
Si Si1 0.124931 0.211012 0.677444
Si Si2 0.275652 0.430550 0.552874
Si Si3 0.878664 0.217809 0.017720
Si Si4 0.243505 0.189482 0.425091
Si Si5 0.216037 0.993298 0.931787
O O1 0.125258 0.193200 0.510553
O O2 0.088445 0.098691 0.726432
O O3 0.847429 0.406503 0.588109
O O4 0.427960 0.153480 0.888350
O O5 0.548180 0.365657 0.790936
O O6 0.365801 0.277964 0.500084
O O7 0.000000 0.500000 0.500000
O O8 0.113774 0.118207 0.012802
O O9 0.971202 0.290606 0.173817
O O10 0.912111 0.087039 0.122271
O O11 0.500000 0.000000 0.500000
#
# Coordination Sequence:
#
# PCOD8004652 Si02
#       5
#     2   2   2   2   2
#     4  10  21  39  60  84 123 150 190 243 293 329
#     4  10  21  39  57  88 120 152 186 249 287 337
#     4  11  20  37  65  85 112 158 200 226 293 350
#     4  11  20  37  64  89 112 156 195 239 284 350
#     4  10  20  38  61  85 116 160 188 236 291 351
#
# _framework density 20.606881000000001
#
# number of rings (size 3 to 8) (size 9 to 14) (size 15 to 20)
#    0.000    1.600    6.000    1.200    0.000    4.800 
#    0.000    1.000    0.000    0.000    0.000    0.000 
#    0.000    0.000    0.000    0.000    0.000    0.000 
#
# Total GULP energy -123954.706516 kJ/mol
# GULP energy per Si atom -12395.470652 kJ/mol
# Density = 2.055998 g / cm^3
# Si number density = 20.606881 Si / 1000 Ang^3
#
#
#
# Elastic Constant Matrix: (Units=GPa)
#
#
# Indices 1 2 3 4 5 6 
#
# 1 56.2293 17.6736 31.7042 -9.9982 -13.0135 -1.7542
# 2 17.6736 113.5417 61.4768 -17.3377 -4.2204 -3.9173
# 3 31.7042 61.4768 154.8860 -8.8039 5.6515 12.5901
# 4 -9.9982 -17.3377 -8.8039 39.3882 -0.2457 -0.2710
# 5 -13.0135 -4.2204 5.6515 -0.2457 33.0601 -1.4212
# 6 -1.7542 -3.9173 12.5901 -0.2710 -1.4212 10.7614
#
#
#
# Elastic Compliance Matrix: (Units=1/GPa)
#
#
# Indices 1 2 3 4 5 6 
#
# 1 0.025723 0.001865 -0.007361 0.005887 0.012322 0.015259
# 2 0.001865 0.013594 -0.006772 0.005065 0.004261 0.013866
# 3 -0.007361 -0.006772 0.012312 -0.002270 -0.006701 -0.019011
# 4 0.005887 0.005065 -0.002270 0.028675 0.003853 0.006690
# 5 0.012322 0.004261 -0.006701 0.003853 0.037523 0.016452
# 6 0.015259 0.013866 -0.019011 0.006690 0.016452 0.125043
#
#
# Mechanical properties :
#
#
# Convention : Reuss Voigt Hill
#
# Bulk Modulus (GPa) = 36.91018 60.70735 48.80876
# Shear Modulus (GPa) = 18.08732 30.89544 24.49138
#
# Velocity S-wave (km/s) = 2.96587 3.87625 3.45121
# Velocity P-wave (km/s) = 5.44784 7.03971 6.29430
#
# Compressibility (1/GPa) = 0.02709280
#
# Stress axis : x y z
#
# Youngs Moduli (GPa) = 38.87579 73.56193 81.22267
#
# Poissons Ratio (x) = -0.13719 0.59787
# Poissons Ratio (y) = -0.07250 0.55004
# Poissons Ratio (z) = 0.28616 0.49816
#
# Static dielectric constant tensor:
#      x y z
#    x 3.750040 0.292520 -0.064780 
#    y 0.292520 4.423400 -0.218410 
#    z -0.064780 -0.218410 3.915350 
# 
# 
# High freq. dielectric constant tensor:
#      x y z
#    x 1.787470 -0.004160 0.004960 
#    y -0.004160 1.797510 -0.018840 
#    z 0.004960 -0.018840 1.808730 
# 
# From -- ./inp_files/143986.got.cif
#   From: 2010.06.25/outbox.cif.g09.slc.cpg/sg2_72_cif.got.tgz:143986.got - 2010.06.27 13:26:56.
