data_PCOD8004449
_publ_section_title
;
Structure prediction by ZEFSAII (Michael W. Deem and Ramdas Pophale) SiO2 
 PCOD8004449
Probable space group: P -1
;
_chemical_formula_sum "Si O2"
_cell_formula_units_Z 16
_cell_length_a 12.731099
_cell_length_b 13.405641
_cell_length_c 7.707402
_cell_angle_alpha 97.712732
_cell_angle_beta 47.709814
_cell_angle_gamma 123.666286
_cell_volume 746.461589
_symmetry_space_group_name_H-M "P -1"
_symmetry_group_IT_number 2
_symmetry_cell_setting 'triclinic'
loop_
_space_group_symop_operation_xyz
x,y,z
-x,-y,-z
loop_
_atom_site_type_symbol
_atom_site_label
_atom_site_fract_x
_atom_site_fract_y
_atom_site_fract_z
Si Si1 0.271595 0.958672 0.666185
Si Si2 0.195689 0.547982 0.356898
Si Si3 0.137421 0.260168 0.939940
Si Si4 0.534731 0.186133 0.012422
Si Si5 0.304625 0.494365 0.579980
Si Si6 0.392262 0.468883 0.939639
Si Si7 0.409237 0.234235 0.491952
Si Si8 0.395546 0.963902 0.883255
O O1 0.395860 0.944051 0.402525
O O2 0.366828 0.110095 0.604821
O O3 0.254205 0.910092 0.870612
O O4 0.065117 0.861535 0.804116
O O5 0.200703 0.490957 0.522446
O O6 0.000000 0.500000 0.500000
O O7 0.333048 0.704152 0.251409
O O8 0.273823 0.516621 0.102228
O O9 0.156622 0.378244 0.848572
O O10 0.249821 0.316312 0.010301
O O11 0.222723 0.213899 0.710525
O O12 0.441531 0.228352 0.249566
O O13 0.652452 0.160855 0.992913
O O14 0.380083 0.052231 0.051207
O O15 0.448646 0.466251 0.370391
O O16 0.412702 0.633752 0.587137
O O17 0.500000 0.500000 0.000000
#
# Coordination Sequence:
#
# PCOD8004449 Si02
#       8
#     2   2   2   2   2   2   2   2
#     4  10  21  37  61  87 120 151 206 240 298 351
#     4  11  23  35  57  91 119 151 203 258 287 349
#     4  11  21  36  65  91 118 151 207 248 288 355
#     4  10  20  38  59  77 118 157 204 230 303 358
#     4  10  21  39  62  84 122 163 197 238 314 359
#     4   9  20  40  58  84 122 165 189 238 309 361
#     4  10  20  40  61  86 113 162 197 245 295 365
#     4   9  21  39  58  80 117 172 182 241 308 366
#
# _framework density 21.434460000000001
#
# number of rings (size 3 to 8) (size 9 to 14) (size 15 to 20)
#    0.000    2.000    0.000    4.125    3.500    0.000 
#    0.000    1.875    0.000    0.000    0.000    0.000 
#    0.000    0.000    0.000    0.000    0.000    0.000 
#
# Total GULP energy -198234.216220 kJ/mol
# GULP energy per Si atom -12389.638514 kJ/mol
# Density = 2.138567 g / cm^3
# Si number density = 21.434460 Si / 1000 Ang^3
#
#
#
# Elastic Constant Matrix: (Units=GPa)
#
#
# Indices 1 2 3 4 5 6 
#
# 1 79.3857 19.9565 31.9901 7.4237 -0.7400 10.1896
# 2 19.9565 92.5341 42.5145 9.5208 -2.1908 4.2777
# 3 31.9901 42.5145 67.4406 9.2081 -7.2298 5.2932
# 4 7.4237 9.5208 9.2081 33.2138 0.9318 5.5628
# 5 -0.7400 -2.1908 -7.2298 0.9318 36.4217 -1.5127
# 6 10.1896 4.2777 5.2932 5.5628 -1.5127 29.1430
#
#
#
# Elastic Compliance Matrix: (Units=1/GPa)
#
#
# Indices 1 2 3 4 5 6 
#
# 1 0.016175 0.000207 -0.007494 -0.000852 -0.001300 -0.004230
# 2 0.000207 0.015349 -0.009620 -0.001702 -0.000951 -0.000303
# 3 -0.007494 -0.009620 0.025272 -0.002728 0.004363 0.000189
# 4 -0.000852 -0.001702 -0.002728 0.032469 -0.001710 -0.005243
# 5 -0.001300 -0.000951 0.004363 -0.001710 0.028349 0.001600
# 6 -0.004230 -0.000303 0.000189 -0.005243 0.001600 0.036886
#
#
# Mechanical properties :
#
#
# Convention : Reuss Voigt Hill
#
# Bulk Modulus (GPa) = 43.51191 47.58695 45.54943
# Shear Modulus (GPa) = 25.51353 29.41564 27.46459
#
# Velocity S-wave (km/s) = 3.45382 3.70855 3.58345
# Velocity P-wave (km/s) = 6.02073 6.37080 6.19824
#
# Compressibility (1/GPa) = 0.02298221
#
# Stress axis : x y z
#
# Youngs Moduli (GPa) = 61.82358 65.15287 39.56872
#
# Poissons Ratio (x) = -0.01350 0.29654
# Poissons Ratio (y) = -0.01281 0.38065
# Poissons Ratio (z) = 0.46332 0.62676
#
# Static dielectric constant tensor:
#      x y z
#    x 3.819520 -0.038480 0.156650 
#    y -0.038480 4.030610 0.446180 
#    z 0.156650 0.446180 4.162780 
# 
# 
# High freq. dielectric constant tensor:
#      x y z
#    x 1.830020 -0.004440 0.015700 
#    y -0.004440 1.847810 0.015750 
#    z 0.015700 0.015750 1.829410 
# 
# From -- ./inp_files/313645.got.cif
#   From: 2010.06.25/outbox.cif.g09.slc.cpg/sg2_157_cif.got.tgz:313645.got - 2010.06.27 13:26:56.
