data_PCOD8004997
_publ_section_title
;
Structure prediction by ZEFSAII (Michael W. Deem and Ramdas Pophale) SiO2 
 PCOD8004997
Probable space group: P -1
;
_chemical_formula_sum "Si O2"
_cell_formula_units_Z 16
_cell_length_a 9.265590
_cell_length_b 15.001876
_cell_length_c 12.568392
_cell_angle_alpha 153.438437
_cell_angle_beta 108.963812
_cell_angle_gamma 79.237842
_cell_volume 716.133858
_symmetry_space_group_name_H-M "P -1"
_symmetry_group_IT_number 2
_symmetry_cell_setting 'triclinic'
loop_
_space_group_symop_operation_xyz
x,y,z
-x,-y,-z
loop_
_atom_site_type_symbol
_atom_site_label
_atom_site_fract_x
_atom_site_fract_y
_atom_site_fract_z
Si Si1 0.719669 0.072393 0.923474
Si Si2 0.475616 0.287096 0.900849
Si Si3 0.270239 0.556857 0.375639
Si Si4 0.232344 0.963542 0.872710
Si Si5 0.007088 0.837609 0.076881
Si Si6 0.708663 0.097778 0.653664
Si Si7 0.535710 0.734040 0.887163
Si Si8 0.564221 0.276440 0.615738
O O1 0.590202 0.897666 0.642382
O O2 0.874938 0.172698 0.001986
O O3 0.647157 0.265361 0.146916
O O4 0.768459 0.966101 0.929102
O O5 0.643474 0.221134 0.865495
O O6 0.506679 0.470881 0.857534
O O7 0.376044 0.147489 0.632991
O O8 0.394890 0.227804 0.933980
O O9 0.423162 0.477627 0.368091
O O10 0.308850 0.652259 0.370621
O O11 0.116487 0.371915 0.148827
O O12 0.235748 0.726458 0.626565
O O13 0.390229 0.082229 0.978065
O O14 0.083287 0.991897 0.799140
O O15 0.109063 0.893127 0.268992
O O16 0.673138 0.195652 0.639321
#
# Coordination Sequence:
#
# PCOD8004997 Si02
#       8
#     2   2   2   2   2   2   2   2
#     4  12  22  44  71  93 129 166 217 271 313 372
#     4  10  20  38  64 100 129 157 216 271 314 371
#     4  10  24  44  63  95 134 166 215 260 320 386
#     4  11  24  44  64  93 134 172 209 260 323 383
#     4  11  26  43  61  96 135 170 206 261 328 378
#     4  11  20  40  64  92 133 167 208 265 318 374
#     4  10  20  42  65  96 125 161 215 267 314 367
#     4  11  23  40  67 101 121 166 221 262 317 374
#
# _framework density 22.342192000000001
#
# number of rings (size 3 to 8) (size 9 to 14) (size 15 to 20)
#    0.000    1.250    3.750    1.875    0.000    3.500 
#    6.750    8.750    0.000    0.000    0.000    0.000 
#    0.000    0.000    0.000    0.000    0.000    0.000 
#
# Total GULP energy -198218.484654 kJ/mol
# GULP energy per Si atom -12388.655291 kJ/mol
# Density = 2.229134 g / cm^3
# Si number density = 22.342192 Si / 1000 Ang^3
#
#
#
# Elastic Constant Matrix: (Units=GPa)
#
#
# Indices 1 2 3 4 5 6 
#
# 1 104.3794 33.7117 27.2907 10.3934 -3.6563 5.6630
# 2 33.7117 106.3673 52.5842 -1.7574 -2.7655 -8.7823
# 3 27.2907 52.5842 71.5815 15.4817 -8.1824 -19.3784
# 4 10.3934 -1.7574 15.4817 37.8845 -3.9470 -0.2756
# 5 -3.6563 -2.7655 -8.1824 -3.9470 16.6006 13.2318
# 6 5.6630 -8.7823 -19.3784 -0.2756 13.2318 34.0858
#
#
#
# Elastic Compliance Matrix: (Units=1/GPa)
#
#
# Indices 1 2 3 4 5 6 
#
# 1 0.012054 -0.002399 -0.003788 -0.001335 0.005625 -0.006969
# 2 -0.002399 0.016860 -0.013819 0.007002 -0.000622 -0.002816
# 3 -0.003788 -0.013819 0.032572 -0.013174 -0.003697 0.016915
# 4 -0.001335 0.007002 -0.013174 0.033380 0.009348 -0.008823
# 5 0.005625 -0.000622 -0.003697 0.009348 0.093054 -0.039244
# 6 -0.006969 -0.002816 0.016915 -0.008823 -0.039244 0.054549
#
#
# Mechanical properties :
#
#
# Convention : Reuss Voigt Hill
#
# Bulk Modulus (GPa) = 46.56791 56.61125 51.58958
# Shear Modulus (GPa) = 17.26284 28.96364 23.11324
#
# Velocity S-wave (km/s) = 2.78269 3.60441 3.21987
# Velocity P-wave (km/s) = 5.58684 6.53572 6.07982
#
# Compressibility (1/GPa) = 0.02147401
#
# Stress axis : x y z
#
# Youngs Moduli (GPa) = 82.96251 59.31147 30.70137
#
# Poissons Ratio (x) = 0.14226 0.11631
# Poissons Ratio (y) = 0.19899 0.42426
# Poissons Ratio (z) = 0.31430 0.81961
#
# Static dielectric constant tensor:
#      x y z
#    x 4.164810 -0.070430 -0.243210 
#    y -0.070430 4.377410 -0.007120 
#    z -0.243210 -0.007120 3.981480 
# 
# 
# High freq. dielectric constant tensor:
#      x y z
#    x 1.870800 0.004760 -0.020520 
#    y 0.004760 1.912010 -0.001960 
#    z -0.020520 -0.001960 1.858670 
# 
# From -- ./inp_files/400153.got.cif
#   From: 2010.06.25/outbox.cif.g09.slc.cpg/sg2_201_cif.got.tgz:400153.got - 2010.06.27 13:26:56.
