data_PCOD8004296
_publ_section_title
;
Structure prediction by ZEFSAII (Michael W. Deem and Ramdas Pophale) SiO2 
 PCOD8004296
Probable space group: P -1
;
_chemical_formula_sum "Si O2"
_cell_formula_units_Z 16
_cell_length_a 9.089643
_cell_length_b 23.352399
_cell_length_c 13.539859
_cell_angle_alpha 154.325028
_cell_angle_beta 141.391979
_cell_angle_gamma 47.780073
_cell_volume 771.438548
_symmetry_space_group_name_H-M "P -1"
_symmetry_group_IT_number 2
_symmetry_cell_setting 'triclinic'
loop_
_space_group_symop_operation_xyz
x,y,z
-x,-y,-z
loop_
_atom_site_type_symbol
_atom_site_label
_atom_site_fract_x
_atom_site_fract_y
_atom_site_fract_z
Si Si1 0.543884 0.153783 0.100772
Si Si2 0.283230 0.583277 0.517514
Si Si3 0.530620 0.631250 0.283632
Si Si4 0.013835 0.136748 0.871753
Si Si5 0.021262 0.628917 0.644194
Si Si6 0.876216 0.127442 0.417057
Si Si7 0.049110 0.586663 0.064246
Si Si8 0.372917 0.886519 0.532533
O O1 0.656520 0.283949 0.306099
O O2 0.732431 0.124781 0.236655
O O3 0.289318 0.178199 0.051813
O O4 0.525197 0.030955 0.820361
O O5 0.500000 0.500000 0.500000
O O6 0.224412 0.618085 0.652939
O O7 0.063224 0.488984 0.207997
O O8 0.779988 0.650324 0.497013
O O9 0.330795 0.619714 0.245967
O O10 0.514138 0.757226 0.396606
O O11 0.500000 0.500000 0.000000
O O12 0.863060 0.128756 0.680008
O O13 0.968698 0.996584 0.689732
O O14 0.909392 0.244541 0.053303
O O15 0.000000 0.500000 0.500000
O O16 0.042909 0.268847 0.740655
O O17 0.689578 0.102205 0.368011
O O18 0.000000 0.500000 0.000000
#
# Coordination Sequence:
#
# PCOD8004296 Si02
#       8
#     2   2   2   2   2   2   2   2
#     4  11  21  41  64  98 128 172 216 267 325 379
#     4  12  28  42  66  96 134 169 213 271 328 389
#     4  11  22  42  67  91 131 170 221 263 313 385
#     4  11  22  40  67  97 128 170 221 267 317 381
#     4  12  26  45  65  98 131 172 216 266 328 387
#     4  10  20  37  67  94 130 170 217 264 313 389
#     4  11  23  42  65 100 128 170 216 262 326 377
#     4  10  22  37  65  98 127 172 218 264 316 386
#
# _framework density 20.740470999999999
#
# number of rings (size 3 to 8) (size 9 to 14) (size 15 to 20)
#    0.000    1.000    2.500    6.750    8.750    0.000 
#    0.000    4.375    0.000    0.000    0.000    0.000 
#    0.000    0.000    0.000    0.000    0.000    0.000 
#
# Total GULP energy -198370.629633 kJ/mol
# GULP energy per Si atom -12398.164352 kJ/mol
# Density = 2.069326 g / cm^3
# Si number density = 20.740471 Si / 1000 Ang^3
#
#
#
# Elastic Constant Matrix: (Units=GPa)
#
#
# Indices 1 2 3 4 5 6 
#
# 1 90.9477 43.4259 32.4062 9.2166 -8.5103 1.0816
# 2 43.4259 156.2845 51.1250 20.0464 -1.2224 2.1975
# 3 32.4062 51.1250 127.6142 29.8552 -12.0192 0.3385
# 4 9.2166 20.0464 29.8552 41.3453 -4.6109 -4.0840
# 5 -8.5103 -1.2224 -12.0192 -4.6109 31.9524 3.5089
# 6 1.0816 2.1975 0.3385 -4.0840 3.5089 27.4878
#
#
#
# Elastic Compliance Matrix: (Units=1/GPa)
#
#
# Indices 1 2 3 4 5 6 
#
# 1 0.013413 -0.003082 -0.001943 0.000162 0.002812 -0.000592
# 2 -0.003082 0.008220 -0.002201 -0.001941 -0.001548 -0.000600
# 3 -0.001943 -0.002201 0.010921 -0.006194 0.002739 -0.001152
# 4 0.000162 -0.001941 -0.006194 0.030178 0.001498 0.004518
# 5 0.002812 -0.001548 0.002739 0.001498 0.033683 -0.004098
# 6 -0.000592 -0.000600 -0.001152 0.004518 -0.004098 0.037659
#
#
# Mechanical properties :
#
#
# Convention : Reuss Voigt Hill
#
# Bulk Modulus (GPa) = 55.23789 69.86228 62.55008
# Shear Modulus (GPa) = 32.34991 36.68306 34.51649
#
# Velocity S-wave (km/s) = 3.95365 4.21012 4.08390
# Velocity P-wave (km/s) = 6.89438 7.57566 7.24304
#
# Compressibility (1/GPa) = 0.01810352
#
# Stress axis : x y z
#
# Youngs Moduli (GPa) = 74.55510 121.65221 91.56373
#
# Poissons Ratio (x) = 0.37492 0.17790
# Poissons Ratio (y) = 0.22977 0.20150
# Poissons Ratio (z) = 0.14486 0.26771
#
# Static dielectric constant tensor:
#      x y z
#    x 3.482310 -0.082390 -0.187950 
#    y -0.082390 4.056900 0.424200 
#    z -0.187950 0.424200 4.436890 
# 
# 
# High freq. dielectric constant tensor:
#      x y z
#    x 1.772840 0.005840 -0.013190 
#    y 0.005840 1.832220 0.014030 
#    z -0.013190 0.014030 1.835560 
# 
# From -- ./inp_files/346088.got.cif
#   From: 2010.06.25/outbox.cif.g09.slc.cpg/sg2_174_cif.got.tgz:346088.got - 2010.06.27 13:26:56.
