data_PCOD8004641
_publ_section_title
;
Structure prediction by ZEFSAII (Michael W. Deem and Ramdas Pophale) SiO2 
 PCOD8004641
Probable space group: P -1
;
_chemical_formula_sum "Si O2"
_cell_formula_units_Z 16
_cell_length_a 17.446918
_cell_length_b 8.402778
_cell_length_c 12.997801
_cell_angle_alpha 77.984409
_cell_angle_beta 141.143850
_cell_angle_gamma 129.222837
_cell_volume 751.217657
_symmetry_space_group_name_H-M "P -1"
_symmetry_group_IT_number 2
_symmetry_cell_setting 'triclinic'
loop_
_space_group_symop_operation_xyz
x,y,z
-x,-y,-z
loop_
_atom_site_type_symbol
_atom_site_label
_atom_site_fract_x
_atom_site_fract_y
_atom_site_fract_z
Si Si1 0.325775 0.998863 0.020163
Si Si2 0.033641 0.188990 0.940909
Si Si3 0.670128 0.709665 0.866057
Si Si4 0.300270 0.729155 0.210986
Si Si5 0.665535 0.946098 0.643963
Si Si6 0.920900 0.253728 0.407030
Si Si7 0.591896 0.724360 0.206911
Si Si8 0.677581 0.491343 0.214953
O O1 0.184905 0.829584 0.800697
O O2 0.314525 0.828797 0.101924
O O3 0.260001 0.093120 0.000419
O O4 0.546170 0.244750 0.184503
O O5 0.826858 0.053727 0.716078
O O6 0.165124 0.261077 0.974842
O O7 0.127520 0.427709 0.074104
O O8 0.000000 0.000000 0.000000
O O9 0.623046 0.755987 0.705118
O O10 0.474259 0.419412 0.734254
O O11 0.483529 0.801992 0.406354
O O12 0.271107 0.827709 0.258507
O O13 0.000000 0.500000 0.500000
O O14 0.101695 0.323947 0.571386
O O15 0.767839 0.029013 0.360803
O O16 0.668418 0.669332 0.214008
O O17 0.404673 0.614030 0.972828
#
# Coordination Sequence:
#
# PCOD8004641 Si02
#       8
#     2   2   2   2   2   2   2   2
#     4   9  21  40  58  82 116 153 194 238 283 339
#     4  10  21  36  57  86 117 149 193 242 284 333
#     4   9  19  38  60  84 116 151 192 242 285 334
#     4  10  20  38  61  84 118 155 192 235 283 342
#     4   9  20  39  61  85 115 156 192 231 291 342
#     4  11  23  37  59  87 117 152 190 235 291 347
#     4   9  19  38  60  82 113 149 188 236 286 339
#     4   9  19  38  60  82 111 148 190 236 286 341
#
# _framework density 21.298755
#
# number of rings (size 3 to 8) (size 9 to 14) (size 15 to 20)
#    0.000    2.500    0.000    1.500    0.000    7.000 
#    0.000   17.500    0.000    0.000    0.000    0.000 
#    0.000    0.000    0.000    0.000    0.000    0.000 
#
# Total GULP energy -198302.960243 kJ/mol
# GULP energy per Si atom -12393.935015 kJ/mol
# Density = 2.125028 g / cm^3
# Si number density = 21.298755 Si / 1000 Ang^3
#
#
#
# Elastic Constant Matrix: (Units=GPa)
#
#
# Indices 1 2 3 4 5 6 
#
# 1 91.1541 36.4564 44.2390 -3.0904 26.1943 8.8861
# 2 36.4564 127.7884 46.7790 16.3434 5.1496 6.8879
# 3 44.2390 46.7790 111.5678 0.7854 22.7226 10.2893
# 4 -3.0904 16.3434 0.7854 31.2941 -3.9829 4.6931
# 5 26.1943 5.1496 22.7226 -3.9829 33.2427 0.4423
# 6 8.8861 6.8879 10.2893 4.6931 0.4423 18.0986
#
#
#
# Elastic Compliance Matrix: (Units=1/GPa)
#
#
# Indices 1 2 3 4 5 6 
#
# 1 0.017628 -0.003701 -0.002628 0.003284 -0.011043 -0.006334
# 2 -0.003701 0.010797 -0.003771 -0.005700 0.003121 0.001253
# 3 -0.002628 -0.003771 0.013307 0.001340 -0.006213 -0.005035
# 4 0.003284 -0.005700 0.001340 0.036944 0.001936 -0.009832
# 5 -0.011043 0.003121 -0.006213 0.001936 0.042696 0.006221
# 6 -0.006334 0.001253 -0.005035 -0.009832 0.006221 0.063146
#
#
# Mechanical properties :
#
#
# Convention : Reuss Voigt Hill
#
# Bulk Modulus (GPa) = 46.44098 65.05101 55.74600
# Shear Modulus (GPa) = 23.59664 30.06279 26.82971
#
# Velocity S-wave (km/s) = 3.33211 3.76104 3.55305
# Velocity P-wave (km/s) = 6.05440 7.03343 6.56220
#
# Compressibility (1/GPa) = 0.02153271
#
# Stress axis : x y z
#
# Youngs Moduli (GPa) = 56.72746 92.61580 75.14996
#
# Poissons Ratio (x) = 0.34273 0.19751
# Poissons Ratio (y) = 0.20992 0.28339
# Poissons Ratio (z) = 0.14909 0.34925
#
# Static dielectric constant tensor:
#      x y z
#    x 4.171840 -0.055320 0.384750 
#    y -0.055320 4.004450 0.026880 
#    z 0.384750 0.026880 3.855850 
# 
# 
# High freq. dielectric constant tensor:
#      x y z
#    x 1.831900 -0.005230 0.015070 
#    y -0.005230 1.848040 0.007760 
#    z 0.015070 0.007760 1.818030 
# 
# From -- ./inp_files/462170.got.cif
#   From: 2010.06.25/outbox.cif.g09.slc.cpg/sg2_232_cif.got.tgz:462170.got - 2010.06.27 13:26:56.
