data_PCOD8004756
_publ_section_title
;
Structure prediction by ZEFSAII (Michael W. Deem and Ramdas Pophale) SiO2 
 PCOD8004756
Probable space group: P -1
;
_chemical_formula_sum "Si O2"
_cell_formula_units_Z 16
_cell_length_a 10.184180
_cell_length_b 21.304752
_cell_length_c 9.109660
_cell_angle_alpha 27.748146
_cell_angle_beta 61.183032
_cell_angle_gamma 62.927101
_cell_volume 804.311618
_symmetry_space_group_name_H-M "P -1"
_symmetry_group_IT_number 2
_symmetry_cell_setting 'triclinic'
loop_
_space_group_symop_operation_xyz
x,y,z
-x,-y,-z
loop_
_atom_site_type_symbol
_atom_site_label
_atom_site_fract_x
_atom_site_fract_y
_atom_site_fract_z
Si Si1 0.933871 0.407028 0.107578
Si Si2 0.434267 0.026928 0.319973
Si Si3 0.603967 0.512037 0.062379
Si Si4 0.093695 0.089931 0.362942
Si Si5 0.102792 0.387344 0.758258
Si Si6 0.951049 0.867581 0.374296
Si Si7 0.436600 0.324662 0.740317
Si Si8 0.382668 0.227115 0.297934
O O1 0.771630 0.463200 0.022549
O O2 0.931612 0.255217 0.488008
O O3 0.000000 0.500000 0.000000
O O4 0.054855 0.390803 0.945831
O O5 0.257467 0.014559 0.440221
O O6 0.500000 0.000000 0.500000
O O7 0.512474 0.905466 0.431523
O O8 0.462626 0.180757 0.938134
O O9 0.561126 0.419594 0.415487
O O10 0.500000 0.500000 0.000000
O O11 0.606163 0.665942 0.798011
O O12 0.020820 0.100330 0.539012
O O13 0.087151 0.242715 0.987573
O O14 0.000000 0.000000 0.500000
O O15 0.279657 0.408982 0.611475
O O16 0.000000 0.500000 0.500000
O O17 0.782416 0.825516 0.522361
O O18 0.000000 0.000000 0.000000
O O19 0.441027 0.293665 0.977146
#
# Coordination Sequence:
#
# PCOD8004756 Si02
#       8
#     2   2   2   2   2   2   2   2
#     4  11  22  42  63  88 127 164 204 256 305 364
#     4   9  18  37  67  84 120 155 205 254 298 357
#     4  12  26  40  61  97 130 160 205 258 313 362
#     4  10  21  39  60  93 121 150 204 260 300 361
#     4  10  20  38  62  85 126 162 199 250 306 364
#     4  11  23  40  63  92 124 161 208 253 308 371
#     4  10  20  41  65  90 120 164 208 250 302 372
#     4  11  21  43  64  90 120 166 212 252 298 378
#
# _framework density 19.892787999999999
#
# number of rings (size 3 to 8) (size 9 to 14) (size 15 to 20)
#    0.000    1.500    6.250    1.125    1.750    4.000 
#    4.500    0.625    0.000    0.000    0.000    0.000 
#    0.000    0.000    0.000    0.000    0.000    0.000 
#
# Total GULP energy -198258.151116 kJ/mol
# GULP energy per Si atom -12391.134445 kJ/mol
# Density = 1.984751 g / cm^3
# Si number density = 19.892788 Si / 1000 Ang^3
#
#
#
# Elastic Constant Matrix: (Units=GPa)
#
#
# Indices 1 2 3 4 5 6 
#
# 1 125.4718 55.6720 38.5675 -23.6581 0.8890 2.8264
# 2 55.6720 116.9853 46.1010 -39.0967 -2.9496 -2.3212
# 3 38.5675 46.1010 93.7839 -21.1721 0.7958 0.0835
# 4 -23.6581 -39.0967 -21.1721 37.3638 -8.6470 3.4514
# 5 0.8890 -2.9496 0.7958 -8.6470 32.0747 -13.1934
# 6 2.8264 -2.3212 0.0835 3.4514 -13.1934 40.1605
#
#
#
# Elastic Compliance Matrix: (Units=1/GPa)
#
#
# Indices 1 2 3 4 5 6 
#
# 1 0.010618 -0.003718 -0.002181 0.001556 -0.000707 -0.001324
# 2 -0.003718 0.016744 -0.003485 0.014503 0.006516 0.002131
# 3 -0.002181 -0.003485 0.013928 0.002905 0.000050 -0.000310
# 4 0.001556 0.014503 0.002905 0.047842 0.014710 0.001444
# 5 -0.000707 0.006516 0.000050 0.014710 0.040949 0.012615
# 6 -0.001324 0.002131 -0.000310 0.001444 0.012615 0.029137
#
#
# Mechanical properties :
#
#
# Convention : Reuss Voigt Hill
#
# Bulk Modulus (GPa) = 44.39737 68.54686 56.47212
# Shear Modulus (GPa) = 26.95513 34.97985 30.96749
#
# Velocity S-wave (km/s) = 3.68505 4.19790 3.94981
# Velocity P-wave (km/s) = 6.36183 7.61771 7.01792
#
# Compressibility (1/GPa) = 0.02252385
#
# Stress axis : x y z
#
# Youngs Moduli (GPa) = 94.18011 59.72211 71.79565
#
# Poissons Ratio (x) = 0.22203 0.15655
# Poissons Ratio (y) = 0.35014 0.25021
# Poissons Ratio (z) = 0.20536 0.20814
#
# Static dielectric constant tensor:
#      x y z
#    x 3.621440 -0.290610 0.015430 
#    y -0.290610 4.009510 -0.409810 
#    z 0.015430 -0.409810 4.126250 
# 
# 
# High freq. dielectric constant tensor:
#      x y z
#    x 1.771140 -0.014020 -0.000500 
#    y -0.014020 1.782750 -0.026100 
#    z -0.000500 -0.026100 1.772950 
# 
# From -- ./inp_files/222832.got.cif
#   From: 2010.06.25/outbox.cif.g09.slc.cpg/sg2_112_cif.got.tgz:222832.got - 2010.06.27 13:26:56.
