data_PCOD8004270
_publ_section_title
;
Structure prediction by ZEFSAII (Michael W. Deem and Ramdas Pophale) SiO2 
 PCOD8004270
Probable space group: P -1
;
_chemical_formula_sum "Si O2"
_cell_formula_units_Z 16
_cell_length_a 11.112118
_cell_length_b 19.395653
_cell_length_c 11.099937
_cell_angle_alpha 33.480737
_cell_angle_beta 45.028936
_cell_angle_gamma 31.020808
_cell_volume 679.859021
_symmetry_space_group_name_H-M "P -1"
_symmetry_group_IT_number 2
_symmetry_cell_setting 'triclinic'
loop_
_space_group_symop_operation_xyz
x,y,z
-x,-y,-z
loop_
_atom_site_type_symbol
_atom_site_label
_atom_site_fract_x
_atom_site_fract_y
_atom_site_fract_z
Si Si1 0.692373 0.117240 0.511495
Si Si2 0.452638 0.692900 0.037715
Si Si3 0.199234 0.177815 0.013765
Si Si4 0.306351 0.602079 0.885550
Si Si5 0.819592 0.685256 0.413454
Si Si6 0.530862 0.853206 0.911153
Si Si7 0.962273 0.823496 0.270872
Si Si8 0.263237 0.017959 0.559097
O O1 0.766675 0.217774 0.352362
O O2 0.419949 0.258619 0.455808
O O3 0.742728 0.998185 0.759273
O O4 0.844196 0.987898 0.479057
O O5 0.594149 0.681120 0.069010
O O6 0.424505 0.826518 0.776498
O O7 0.603539 0.507937 0.139592
O O8 0.203744 0.762926 0.149307
O O9 0.346117 0.187752 0.989148
O O10 0.926821 0.349487 0.975756
O O11 0.265114 0.176081 0.832975
O O12 0.500000 0.500000 0.000000
O O13 0.948258 0.688323 0.429036
O O14 0.000000 0.500000 0.500000
O O15 0.588907 0.934105 0.655188
O O16 0.247870 0.996070 0.909757
O O17 0.935972 0.841555 0.408761
#
# Coordination Sequence:
#
# PCOD8004270 Si02
#       8
#     2   2   2   2   2   2   2   2
#     4  11  23  43  65 100 133 178 222 271 332 395
#     4  11  22  38  65 100 135 172 221 272 327 390
#     4  11  25  44  66  97 135 177 220 276 332 400
#     4  12  24  43  67  97 137 175 222 276 333 392
#     4  12  25  41  69 101 135 174 220 276 338 394
#     4  10  22  40  66  96 131 176 218 269 333 390
#     4  11  21  39  66 101 131 171 221 272 325 391
#     4  10  20  37  66  96 130 173 222 269 317 397
#
# _framework density 23.534289999999999
#
# number of rings (size 3 to 8) (size 9 to 14) (size 15 to 20)
#    0.000    1.000    3.750    6.000    0.000    0.500 
#    0.000    3.750    0.000    4.500    0.000    0.000 
#    0.000    0.000    0.000    0.000    0.000    0.000 
#
# Total GULP energy -198309.178718 kJ/mol
# GULP energy per Si atom -12394.323670 kJ/mol
# Density = 2.348072 g / cm^3
# Si number density = 23.534290 Si / 1000 Ang^3
#
#
#
# Elastic Constant Matrix: (Units=GPa)
#
#
# Indices 1 2 3 4 5 6 
#
# 1 98.0038 50.8872 24.4875 -2.8192 -29.2404 17.9725
# 2 50.8872 123.8970 7.8935 10.5019 -17.7188 17.3314
# 3 24.4875 7.8935 36.8061 4.0620 -9.8921 16.7509
# 4 -2.8192 10.5019 4.0620 31.6356 3.9312 -12.7876
# 5 -29.2404 -17.7188 -9.8921 3.9312 38.7892 -6.8061
# 6 17.9725 17.3314 16.7509 -12.7876 -6.8061 52.3298
#
#
#
# Elastic Compliance Matrix: (Units=1/GPa)
#
#
# Indices 1 2 3 4 5 6 
#
# 1 0.018171 -0.006179 -0.009455 0.004244 0.008198 0.000936
# 2 -0.006179 0.011898 0.005213 -0.007458 0.001976 -0.005053
# 3 -0.009455 0.005213 0.042014 -0.014576 0.004838 -0.014861
# 4 0.004244 -0.007458 -0.014576 0.043309 -0.005588 0.015535
# 5 0.008198 0.001976 0.004838 -0.005588 0.034326 -0.001920
# 6 0.000936 -0.005053 -0.014861 0.015535 -0.001920 0.028765
#
#
# Mechanical properties :
#
#
# Convention : Reuss Voigt Hill
#
# Bulk Modulus (GPa) = 19.51559 47.24922 33.38241
# Shear Modulus (GPa) = 23.10464 36.24683 29.67573
#
# Velocity S-wave (km/s) = 3.13668 3.92876 3.55485
# Velocity P-wave (km/s) = 4.62912 6.37970 5.57357
#
# Compressibility (1/GPa) = 0.05124108
#
# Stress axis : x y z
#
# Youngs Moduli (GPa) = 55.03270 84.04423 23.80152
#
# Poissons Ratio (x) = 0.51931 0.22505
# Poissons Ratio (y) = 0.34005 -0.12407
# Poissons Ratio (z) = 0.52034 -0.43811
#
# Static dielectric constant tensor:
#      x y z
#    x 4.568270 0.329370 -0.216030 
#    y 0.329370 4.321480 0.077750 
#    z -0.216030 0.077750 4.161270 
# 
# 
# High freq. dielectric constant tensor:
#      x y z
#    x 1.941060 0.014810 -0.018850 
#    y 0.014810 1.934810 0.010050 
#    z -0.018850 0.010050 1.914100 
# 
# From -- ./inp_files/438572.got.cif
#   From: 2010.06.25/outbox.cif.g09.slc.cpg/sg2_220_cif.got.tgz:438572.got - 2010.06.27 13:26:56.
