data_PCOD8004969
_publ_section_title
;
Structure prediction by ZEFSAII (Michael W. Deem and Ramdas Pophale) SiO2 
 PCOD8004969
Probable space group: P -1
;
_chemical_formula_sum "Si O2"
_cell_formula_units_Z 14
_cell_length_a 12.162580
_cell_length_b 17.823380
_cell_length_c 11.742284
_cell_angle_alpha 40.823115
_cell_angle_beta 39.794077
_cell_angle_gamma 29.290078
_cell_volume 765.947369
_symmetry_space_group_name_H-M "P -1"
_symmetry_group_IT_number 2
_symmetry_cell_setting 'triclinic'
loop_
_space_group_symop_operation_xyz
x,y,z
-x,-y,-z
loop_
_atom_site_type_symbol
_atom_site_label
_atom_site_fract_x
_atom_site_fract_y
_atom_site_fract_z
Si Si1 0.943057 0.797565 0.695776
Si Si2 0.059208 0.589978 0.637980
Si Si3 0.341913 0.508069 0.025577
Si Si4 0.203327 0.349407 0.431227
Si Si5 0.541255 0.156160 0.576465
Si Si6 0.442682 0.598872 0.631165
Si Si7 0.853206 0.714511 0.088393
O O1 0.922475 0.717009 0.701987
O O2 0.216116 0.704099 0.607644
O O3 0.801133 0.978658 0.566889
O O4 0.819423 0.800684 0.901108
O O5 0.327191 0.514119 0.502396
O O6 0.060956 0.453638 0.818336
O O7 0.925738 0.676966 0.523857
O O8 0.351073 0.371332 0.211390
O O9 0.059350 0.675397 0.050498
O O10 0.500000 0.500000 0.000000
O O11 0.446324 0.486693 0.841074
O O12 0.393442 0.194618 0.535637
O O13 0.000000 0.500000 0.500000
O O14 0.562353 0.283640 0.423156
O O15 0.399631 0.169145 0.781228
#
# Coordination Sequence:
#
# PCOD8004969 Si02
#       7
#     2   2   2   2   2   2   2
#     4  11  22  34  52  83 111 139 175 216 269 310
#     4  10  20  36  57  77 107 141 179 218 257 315
#     4  10  16  29  56  83  95 127 185 223 246 301
#     4  11  18  35  59  80 101 138 180 220 260 309
#     4  11  20  35  55  80 111 138 174 222 262 312
#     4  10  20  34  55  78 105 143 176 215 257 316
#     4   9  20  34  55  78 103 143 178 213 258 315
#
# _framework density 18.278017999999999
#
# number of rings (size 3 to 8) (size 9 to 14) (size 15 to 20)
#    0.000    1.714    5.714    1.714    0.000    0.571 
#    0.000    0.000    0.000    0.857    0.000    0.000 
#    0.000    0.000    0.000    0.000    0.000    0.000 
#
# Total GULP energy -173542.412137 kJ/mol
# GULP energy per Si atom -12395.886581 kJ/mol
# Density = 1.823642 g / cm^3
# Si number density = 18.278018 Si / 1000 Ang^3
#
#
#
# Elastic Constant Matrix: (Units=GPa)
#
#
# Indices 1 2 3 4 5 6 
#
# 1 109.9417 41.6645 23.0784 6.1949 12.0565 -14.1559
# 2 41.6645 64.8919 31.5206 -1.5778 10.0546 -3.1036
# 3 23.0784 31.5206 90.2008 5.1034 4.4081 -9.9196
# 4 6.1949 -1.5778 5.1034 16.8100 -8.9750 -2.8152
# 5 12.0565 10.0546 4.4081 -8.9750 27.4511 -3.4560
# 6 -14.1559 -3.1036 -9.9196 -2.8152 -3.4560 16.2687
#
#
#
# Elastic Compliance Matrix: (Units=1/GPa)
#
#
# Indices 1 2 3 4 5 6 
#
# 1 0.014251 -0.008698 0.001027 -0.007215 -0.004442 0.009175
# 2 -0.008698 0.024878 -0.007360 0.004703 -0.003483 -0.007236
# 3 0.001027 -0.007360 0.014500 -0.004579 -0.000649 0.007401
# 4 -0.007215 0.004703 -0.004579 0.082513 0.030750 0.012638
# 5 -0.004442 -0.003483 -0.000649 0.030750 0.051233 0.011279
# 6 0.009175 -0.007236 0.007401 0.012638 0.011279 0.077166
#
#
# Mechanical properties :
#
#
# Convention : Reuss Voigt Hill
#
# Bulk Modulus (GPa) = 42.42818 50.84017 46.63418
# Shear Modulus (GPa) = 16.53123 23.35736 19.94430
#
# Velocity S-wave (km/s) = 3.01064 3.57864 3.30686
# Velocity P-wave (km/s) = 5.94545 6.70454 6.33637
#
# Compressibility (1/GPa) = 0.02356924
#
# Stress axis : x y z
#
# Youngs Moduli (GPa) = 70.16905 40.19689 68.96547
#
# Poissons Ratio (x) = 0.34961 -0.07086
# Poissons Ratio (y) = 0.61030 0.50756
# Poissons Ratio (z) = -0.07209 0.29584
#
# Static dielectric constant tensor:
#      x y z
#    x 3.518700 -0.280420 0.008570 
#    y -0.280420 3.015750 0.098730 
#    z 0.008570 0.098730 3.515410 
# 
# 
# High freq. dielectric constant tensor:
#      x y z
#    x 1.715490 -0.029420 0.005530 
#    y -0.029420 1.670060 0.011830 
#    z 0.005530 0.011830 1.715240 
# 
# From -- ./inp_files/164866.got.cif
#   From: 2010.06.25/outbox.cif.g09.slc.cpg/sg2_83_cif.got.tgz:164866.got - 2010.06.27 13:26:56.
