data_PCOD8004525
_publ_section_title
;
Structure prediction by ZEFSAII (Michael W. Deem and Ramdas Pophale) SiO2 
 PCOD8004525
Probable space group: P -1
;
_chemical_formula_sum "Si O2"
_cell_formula_units_Z 16
_cell_length_a 11.715194
_cell_length_b 9.167813
_cell_length_c 14.335550
_cell_angle_alpha 82.532460
_cell_angle_beta 132.814788
_cell_angle_gamma 124.843937
_cell_volume 837.263613
_symmetry_space_group_name_H-M "P -1"
_symmetry_group_IT_number 2
_symmetry_cell_setting 'triclinic'
loop_
_space_group_symop_operation_xyz
x,y,z
-x,-y,-z
loop_
_atom_site_type_symbol
_atom_site_label
_atom_site_fract_x
_atom_site_fract_y
_atom_site_fract_z
Si Si1 0.214787 0.084445 0.385046
Si Si2 0.886538 0.293631 0.904357
Si Si3 0.849088 0.265523 0.546411
Si Si4 0.689013 0.329004 0.626996
Si Si5 0.954419 0.881587 0.076151
Si Si6 0.219994 0.703469 0.699738
Si Si7 0.684171 0.958975 0.973916
Si Si8 0.986110 0.227913 0.278218
O O1 0.462561 0.259237 0.508468
O O2 0.115330 0.161973 0.374583
O O3 0.139952 0.901452 0.421052
O O4 0.138167 0.022802 0.241121
O O5 0.717264 0.246298 0.740885
O O6 0.056880 0.299213 0.942052
O O7 0.763180 0.113842 0.922338
O O8 0.000000 0.500000 0.000000
O O9 0.708059 0.242835 0.552187
O O10 0.740013 0.241109 0.391178
O O11 0.085381 0.472289 0.661360
O O12 0.863482 0.563718 0.708086
O O13 0.741548 0.821429 0.001792
O O14 0.000000 0.000000 0.000000
O O15 0.438264 0.815339 0.862262
O O16 0.094113 0.761500 0.668524
O O17 0.785496 0.076590 0.115863
#
# Coordination Sequence:
#
# PCOD8004525 Si02
#       8
#     2   2   2   2   2   2   2   2
#     4  11  21  37  61  87 116 153 186 242 299 331
#     4  11  20  36  58  89 120 143 187 242 293 344
#     4  10  22  38  59  83 114 149 202 245 268 347
#     4  11  21  36  60  87 117 150 188 240 298 346
#     4   9  21  35  55  87 118 146 187 234 286 351
#     4  10  22  40  59  82 110 163 199 229 286 335
#     4  10  20  38  60  81 117 157 188 233 295 342
#     4  10  22  39  55  85 123 148 193 244 277 346
#
# _framework density 19.109871999999999
#
# number of rings (size 3 to 8) (size 9 to 14) (size 15 to 20)
#    0.000    1.750    2.500    1.875    3.500    0.500 
#    0.000    3.750    0.000    0.000    0.000    0.000 
#    0.000    0.000    0.000    0.000    0.000    0.000 
#
# Total GULP energy -198388.601831 kJ/mol
# GULP energy per Si atom -12399.287614 kJ/mol
# Density = 1.906638 g / cm^3
# Si number density = 19.109872 Si / 1000 Ang^3
#
#
#
# Elastic Constant Matrix: (Units=GPa)
#
#
# Indices 1 2 3 4 5 6 
#
# 1 83.5853 26.7072 42.8865 7.5016 9.4711 -16.5312
# 2 26.7072 60.2343 25.3759 3.5939 13.8538 -15.3640
# 3 42.8865 25.3759 107.1475 2.9886 16.3198 0.4079
# 4 7.5016 3.5939 2.9886 22.2573 -0.0143 -1.3637
# 5 9.4711 13.8538 16.3198 -0.0143 32.2999 -4.5219
# 6 -16.5312 -15.3640 0.4079 -1.3637 -4.5219 34.2004
#
#
#
# Elastic Compliance Matrix: (Units=1/GPa)
#
#
# Indices 1 2 3 4 5 6 
#
# 1 0.018079 -0.003303 -0.006418 -0.004256 0.000366 0.007210
# 2 -0.003303 0.022915 -0.003148 -0.001687 -0.006171 0.007852
# 3 -0.006418 -0.003148 0.013293 0.000565 -0.004213 -0.005210
# 4 -0.004256 -0.001687 0.000565 0.046515 0.001601 -0.000755
# 5 0.000366 -0.006171 -0.004213 0.001601 0.035947 0.002272
# 6 0.007210 0.007852 -0.005210 -0.000755 0.002272 0.036584
#
#
# Mechanical properties :
#
#
# Convention : Reuss Voigt Hill
#
# Bulk Modulus (GPa) = 35.02785 48.98956 42.00871
# Shear Modulus (GPa) = 23.97057 28.15134 26.06096
#
# Velocity S-wave (km/s) = 3.54553 3.84230 3.69690
# Velocity P-wave (km/s) = 5.92710 6.73615 6.34454
#
# Compressibility (1/GPa) = 0.02854871
#
# Stress axis : x y z
#
# Youngs Moduli (GPa) = 55.31297 43.63871 75.22590
#
# Poissons Ratio (x) = 0.14415 0.48283
# Poissons Ratio (y) = 0.18271 0.23680
# Poissons Ratio (z) = 0.35502 0.13737
#
# Static dielectric constant tensor:
#      x y z
#    x 3.628200 -0.285220 0.018330 
#    y -0.285220 3.518820 -0.119940 
#    z 0.018330 -0.119940 3.573010 
# 
# 
# High freq. dielectric constant tensor:
#      x y z
#    x 1.744080 -0.013970 -0.005550 
#    y -0.013970 1.735760 -0.006170 
#    z -0.005550 -0.006170 1.750520 
# 
# From -- ./inp_files/185401.got.cif
#   From: 2010.06.25/outbox.cif.g09.slc.cpg/sg2_93_cif.got.tgz:185401.got - 2010.06.27 13:26:56.
