data_PCOD8004790
_publ_section_title
;
Structure prediction by ZEFSAII (Michael W. Deem and Ramdas Pophale) SiO2 
 PCOD8004790
Probable space group: P -1
;
_chemical_formula_sum "Si O2"
_cell_formula_units_Z 14
_cell_length_a 9.350760
_cell_length_b 9.454221
_cell_length_c 21.084019
_cell_angle_alpha 144.681827
_cell_angle_beta 37.438493
_cell_angle_gamma 135.625743
_cell_volume 643.075715
_symmetry_space_group_name_H-M "P -1"
_symmetry_group_IT_number 2
_symmetry_cell_setting 'triclinic'
loop_
_space_group_symop_operation_xyz
x,y,z
-x,-y,-z
loop_
_atom_site_type_symbol
_atom_site_label
_atom_site_fract_x
_atom_site_fract_y
_atom_site_fract_z
Si Si1 0.445935 0.394768 0.642393
Si Si2 0.736025 0.883520 0.874956
Si Si3 0.884669 0.743875 0.633039
Si Si4 0.991305 0.404195 0.165152
Si Si5 0.699154 0.097545 0.538965
Si Si6 0.329318 0.647980 0.236590
Si Si7 0.162050 0.075297 0.882058
O O1 0.626138 0.655043 0.657944
O O2 0.185417 0.464298 0.766207
O O3 0.532153 0.282024 0.636357
O O4 0.453062 0.185783 0.508583
O O5 0.845664 0.848412 0.754490
O O6 0.653552 0.625834 0.846337
O O7 0.942589 0.067949 0.907909
O O8 0.500000 0.000000 0.000000
O O9 0.000000 0.500000 0.500000
O O10 0.071496 0.940819 0.598858
O O11 0.171175 0.622190 0.219078
O O12 0.841761 0.204788 0.193764
O O13 0.146274 0.263532 0.013815
O O14 0.794976 0.206162 0.612797
O O15 0.588683 0.819935 0.200846
#
# Coordination Sequence:
#
# PCOD8004790 Si02
#       7
#     2   2   2   2   2   2   2
#     4  10  21  38  64  88 124 159 211 251 308 366
#     4  11  23  38  64 100 124 158 213 260 309 372
#     4  10  20  38  62  88 131 161 195 257 318 363
#     4  10  23  44  60  89 125 169 208 255 310 378
#     4  10  23  38  64  93 124 162 208 258 313 371
#     4  11  23  41  63  91 128 160 211 258 311 371
#     4  10  24  40  66  85 128 168 206 254 319 365
#
# _framework density 21.770374
#
# number of rings (size 3 to 8) (size 9 to 14) (size 15 to 20)
#    0.000    1.714    2.857    1.286    6.000    3.429 
#    0.000    1.429    0.000    0.000    0.000    0.000 
#    0.000    0.000    0.000    0.000    0.000    0.000 
#
# Total GULP energy -173504.289467 kJ/mol
# GULP energy per Si atom -12393.163533 kJ/mol
# Density = 2.172082 g / cm^3
# Si number density = 21.770374 Si / 1000 Ang^3
#
#
#
# Elastic Constant Matrix: (Units=GPa)
#
#
# Indices 1 2 3 4 5 6 
#
# 1 116.6719 38.8175 47.3620 -5.0492 18.1633 30.8974
# 2 38.8175 82.7986 17.3555 -14.5154 4.9675 17.6888
# 3 47.3620 17.3555 86.8695 -13.2544 16.0018 -0.2853
# 4 -5.0492 -14.5154 -13.2544 29.3811 4.1437 4.0725
# 5 18.1633 4.9675 16.0018 4.1437 43.2594 5.5442
# 6 30.8974 17.6888 -0.2853 4.0725 5.5442 27.4354
#
#
#
# Elastic Compliance Matrix: (Units=1/GPa)
#
#
# Indices 1 2 3 4 5 6 
#
# 1 0.018479 -0.002421 -0.009238 0.000698 -0.001681 -0.019110
# 2 -0.002421 0.016988 -0.000664 0.009043 -0.000336 -0.009508
# 3 -0.009238 -0.000664 0.018454 0.005542 -0.004834 0.011178
# 4 0.000698 0.009043 0.005542 0.043613 -0.006045 -0.011811
# 5 -0.001681 -0.000336 -0.004834 -0.006045 0.026537 -0.002405
# 6 -0.019110 -0.009508 0.011178 -0.011811 -0.002405 0.066457
#
#
# Mechanical properties :
#
#
# Convention : Reuss Voigt Hill
#
# Bulk Modulus (GPa) = 34.15779 54.82333 44.49056
# Shear Modulus (GPa) = 22.22904 32.20218 27.21561
#
# Velocity S-wave (km/s) = 3.19888 3.85018 3.53954
# Velocity P-wave (km/s) = 5.41922 6.70838 6.09796
#
# Compressibility (1/GPa) = 0.02927590
#
# Stress axis : x y z
#
# Youngs Moduli (GPa) = 54.11413 58.86400 54.19023
#
# Poissons Ratio (x) = 0.14252 0.50061
# Poissons Ratio (y) = 0.13102 0.03596
# Poissons Ratio (z) = 0.49990 0.03906
#
# Static dielectric constant tensor:
#      x y z
#    x 3.866660 0.140860 0.302240 
#    y 0.140860 3.924650 0.263190 
#    z 0.302240 0.263190 3.522690 
# 
# 
# High freq. dielectric constant tensor:
#      x y z
#    x 1.854000 0.029340 0.009510 
#    y 0.029340 1.852440 0.008280 
#    z 0.009510 0.008280 1.850010 
# 
# From -- ./inp_files/587575.got.cif
#   From: 2010.06.25/outbox.cif.g09.slc.cpg/sg2_294_cif.got.tgz:587575.got - 2010.06.27 13:26:56.
