data_PCOD8004484
_publ_section_title
;
Structure prediction by ZEFSAII (Michael W. Deem and Ramdas Pophale) SiO2 
 PCOD8004484
Probable space group: P -1
;
_chemical_formula_sum "Si O2"
_cell_formula_units_Z 12
_cell_length_a 9.093701
_cell_length_b 9.088570
_cell_length_c 20.482017
_cell_angle_alpha 150.555737
_cell_angle_beta 126.043172
_cell_angle_gamma 46.196392
_cell_volume 600.080526
_symmetry_space_group_name_H-M "P -1"
_symmetry_group_IT_number 2
_symmetry_cell_setting 'triclinic'
loop_
_space_group_symop_operation_xyz
x,y,z
-x,-y,-z
loop_
_atom_site_type_symbol
_atom_site_label
_atom_site_fract_x
_atom_site_fract_y
_atom_site_fract_z
Si Si1 0.236537 0.872987 0.735815
Si Si2 0.797557 0.194712 0.784989
Si Si3 0.643086 0.674442 0.547217
Si Si4 0.778512 0.304952 0.568608
Si Si5 0.415591 0.349069 0.974901
Si Si6 0.652222 0.645245 0.801071
O O1 0.228069 0.672977 0.592162
O O2 0.434572 0.630925 0.736672
O O3 0.267127 0.200455 0.848803
O O4 0.040203 0.969821 0.767199
O O5 0.767920 0.472552 0.830148
O O6 0.693590 0.965132 0.645588
O O7 0.709770 0.360251 0.894757
O O8 0.723133 0.596382 0.612541
O O9 0.399567 0.812433 0.529753
O O10 0.782458 0.459475 0.699740
O O11 0.000000 0.000000 0.500000
O O12 0.606861 0.037744 0.939929
O O13 0.500000 0.500000 0.000000
#
# Coordination Sequence:
#
# PCOD8004484 Si02
#       6
#     2   2   2   2   2   2
#     4   9  22  39  61  86 124 150 198 242 293 347
#     4  12  21  38  66  87 117 161 195 236 304 348
#     4  10  22  36  62  90 120 154 195 246 290 347
#     4  10  20  38  59  86 125 154 194 239 296 345
#     4  10  22  42  61  82 122 160 193 246 293 344
#     4   9  22  38  58  87 121 148 200 245 283 349
#
# _framework density 19.997316000000001
#
# number of rings (size 3 to 8) (size 9 to 14) (size 15 to 20)
#    1.000    1.000    0.000    3.500    2.333    4.000 
#    0.000    0.833    0.000    0.000    0.000    0.000 
#    0.000    0.000    0.000    0.000    0.000    0.000 
#
# Total GULP energy -148723.805057 kJ/mol
# GULP energy per Si atom -12393.650421 kJ/mol
# Density = 1.995180 g / cm^3
# Si number density = 19.997316 Si / 1000 Ang^3
#
#
#
# Elastic Constant Matrix: (Units=GPa)
#
#
# Indices 1 2 3 4 5 6 
#
# 1 122.1056 33.6704 69.7288 9.5722 -24.5072 -7.9843
# 2 33.6704 60.8659 18.9272 7.7404 -14.9355 -1.9985
# 3 69.7288 18.9272 129.2885 6.9070 -10.9103 0.6021
# 4 9.5722 7.7404 6.9070 22.2388 3.7224 -7.2880
# 5 -24.5072 -14.9355 -10.9103 3.7224 46.1479 6.5934
# 6 -7.9843 -1.9985 0.6021 -7.2880 6.5934 36.6411
#
#
#
# Elastic Compliance Matrix: (Units=1/GPa)
#
#
# Indices 1 2 3 4 5 6 
#
# 1 0.014439 -0.004357 -0.006604 -0.002913 0.004704 0.001591
# 2 -0.004357 0.020948 0.000125 -0.007070 0.005378 -0.002183
# 3 -0.006604 0.000125 0.011315 -0.001226 -0.000438 -0.001783
# 4 -0.002913 -0.007070 -0.001226 0.054602 -0.010201 0.011696
# 5 0.004704 0.005378 -0.000438 -0.010201 0.027433 -0.005640
# 6 0.001591 -0.002183 -0.001783 0.011696 -0.005640 0.030890
#
#
# Mechanical properties :
#
#
# Convention : Reuss Voigt Hill
#
# Bulk Modulus (GPa) = 39.95315 61.87920 50.91617
# Shear Modulus (GPa) = 26.36529 33.66779 30.01654
#
# Velocity S-wave (km/s) = 3.63497 4.10764 3.87851
# Velocity P-wave (km/s) = 6.13515 7.31491 6.75085
#
# Compressibility (1/GPa) = 0.02502932
#
# Stress axis : x y z
#
# Youngs Moduli (GPa) = 69.25687 47.73742 88.37735
#
# Poissons Ratio (x) = 0.20798 0.58367
# Poissons Ratio (y) = 0.30173 -0.01102
# Poissons Ratio (z) = 0.45740 -0.00595
#
# Static dielectric constant tensor:
#      x y z
#    x 3.631440 -0.056190 -0.113670 
#    y -0.056190 3.341330 0.071340 
#    z -0.113670 0.071340 3.581850 
# 
# 
# High freq. dielectric constant tensor:
#      x y z
#    x 1.782570 -0.004500 -0.016210 
#    y -0.004500 1.757400 0.006960 
#    z -0.016210 0.006960 1.781070 
# 
# From -- ./inp_files/151120.got.cif
#   From: 2010.06.25/outbox.cif.g09.slc.cpg/sg2_76_cif.got.tgz:151120.got - 2010.06.27 13:26:56.
