data_PCOD8004728
_publ_section_title
;
Structure prediction by ZEFSAII (Michael W. Deem and Ramdas Pophale) SiO2 
 PCOD8004728
Probable space group: P -1
;
_chemical_formula_sum "Si O2"
_cell_formula_units_Z 12
_cell_length_a 8.207570
_cell_length_b 22.048780
_cell_length_c 5.177268
_cell_angle_alpha 69.642304
_cell_angle_beta 121.642938
_cell_angle_gamma 135.962636
_cell_volume 553.773864
_symmetry_space_group_name_H-M "P -1"
_symmetry_group_IT_number 2
_symmetry_cell_setting 'triclinic'
loop_
_space_group_symop_operation_xyz
x,y,z
-x,-y,-z
loop_
_atom_site_type_symbol
_atom_site_label
_atom_site_fract_x
_atom_site_fract_y
_atom_site_fract_z
Si Si1 0.725668 0.891432 0.715854
Si Si2 0.276578 0.326573 0.966019
Si Si3 0.029574 0.925590 0.416848
Si Si4 0.814844 0.287602 0.432091
Si Si5 0.842942 0.444810 0.201343
Si Si6 0.048472 0.232276 0.425759
O O1 0.927785 0.913515 0.638863
O O2 0.444915 0.801527 0.532204
O O3 0.804389 0.885333 0.076090
O O4 0.731951 0.971867 0.596722
O O5 0.226312 0.265300 0.780351
O O6 0.062337 0.335435 0.759355
O O7 0.568314 0.419679 0.036966
O O8 0.243456 0.281430 0.274106
O O9 0.123817 0.872056 0.573693
O O10 0.780588 0.355009 0.252795
O O11 0.872463 0.257392 0.265858
O O12 0.000000 0.500000 0.500000
O O13 0.000000 0.500000 0.000000
#
# Coordination Sequence:
#
# PCOD8004728 Si02
#       6
#     2   2   2   2   2   2
#     4  10  22  37  64  91 128 167 207 251 298 366
#     4  10  24  43  63  94 123 162 199 259 304 373
#     4  10  20  38  61  95 127 167 209 248 296 356
#     4  10  26  41  67  92 125 163 208 250 317 360
#     4  12  27  44  68  91 121 163 204 258 316 374
#     4  10  21  39  64  91 129 163 197 257 296 363
#
# _framework density 21.669495000000001
#
# number of rings (size 3 to 8) (size 9 to 14) (size 15 to 20)
#    1.000    0.667    0.000    4.000    4.667    2.000 
#    0.000    0.833    0.000    0.000    0.000    0.000 
#    0.000    0.000    0.000    0.000    0.000    0.000 
#
# Total GULP energy -148673.833025 kJ/mol
# GULP energy per Si atom -12389.486085 kJ/mol
# Density = 2.162017 g / cm^3
# Si number density = 21.669495 Si / 1000 Ang^3
#
#
#
# Elastic Constant Matrix: (Units=GPa)
#
#
# Indices 1 2 3 4 5 6 
#
# 1 69.0095 48.1050 40.4924 -6.0210 -11.4749 4.1370
# 2 48.1050 131.5167 30.0053 -1.5514 9.4347 14.7171
# 3 40.4924 30.0053 59.9042 2.4357 -19.1185 1.1497
# 4 -6.0210 -1.5514 2.4357 28.1252 9.6284 -1.6564
# 5 -11.4749 9.4347 -19.1185 9.6284 44.3682 2.1624
# 6 4.1370 14.7171 1.1497 -1.6564 2.1624 30.4381
#
#
#
# Elastic Compliance Matrix: (Units=1/GPa)
#
#
# Indices 1 2 3 4 5 6 
#
# 1 0.030094 -0.007114 -0.016975 0.007421 0.000353 0.000369
# 2 -0.007114 0.011718 -0.002796 0.001024 -0.005557 -0.004143
# 3 -0.016975 -0.002796 0.034286 -0.011295 0.013391 0.000798
# 4 0.007421 0.001024 -0.011295 0.042587 -0.012511 0.002129
# 5 0.000353 -0.005557 0.013391 -0.012511 0.032338 -0.000845
# 6 0.000369 -0.004143 0.000798 0.002129 -0.000845 0.034952
#
#
# Mechanical properties :
#
#
# Convention : Reuss Voigt Hill
#
# Bulk Modulus (GPa) = 44.78851 55.29289 50.04070
# Shear Modulus (GPa) = 20.22747 30.04146 25.13447
#
# Velocity S-wave (km/s) = 3.05856 3.72741 3.40943
# Velocity P-wave (km/s) = 5.76080 6.64053 6.21625
#
# Compressibility (1/GPa) = 0.02232716
#
# Stress axis : x y z
#
# Youngs Moduli (GPa) = 33.22905 85.33948 29.16633
#
# Poissons Ratio (x) = 0.60709 0.49511
# Poissons Ratio (y) = 0.23638 0.08156
# Poissons Ratio (z) = 0.56407 0.23865
#
# Static dielectric constant tensor:
#      x y z
#    x 3.800900 -0.075920 -0.117940 
#    y -0.075920 3.975300 0.004220 
#    z -0.117940 0.004220 3.667820 
# 
# 
# High freq. dielectric constant tensor:
#      x y z
#    x 1.847240 -0.005460 -0.017380 
#    y -0.005460 1.852670 -0.003690 
#    z -0.017380 -0.003690 1.837770 
# 
# From -- ./inp_files/48529.got.cif
#   From: 2010.06.25/outbox.cif.g09.slc.cpg/sg2_25_cif.got.tgz:48529.got - 2010.06.27 13:26:56.
