data_PCOD8004207
_publ_section_title
;
Structure prediction by ZEFSAII (Michael W. Deem and Ramdas Pophale) SiO2 
 PCOD8004207
Probable space group: P -1
;
_chemical_formula_sum "Si O2"
_cell_formula_units_Z 16
_cell_length_a 7.702170
_cell_length_b 22.650299
_cell_length_c 5.011545
_cell_angle_alpha 116.278630
_cell_angle_beta 85.735965
_cell_angle_gamma 120.949882
_cell_volume 658.817530
_symmetry_space_group_name_H-M "P -1"
_symmetry_group_IT_number 2
_symmetry_cell_setting 'triclinic'
loop_
_space_group_symop_operation_xyz
x,y,z
-x,-y,-z
loop_
_atom_site_type_symbol
_atom_site_label
_atom_site_fract_x
_atom_site_fract_y
_atom_site_fract_z
Si Si1 0.782137 0.264704 0.297478
Si Si2 0.305939 0.297150 0.628351
Si Si3 0.312925 0.966158 0.247095
Si Si4 0.565146 0.331679 0.171038
Si Si5 0.075021 0.816155 0.221731
Si Si6 0.122091 0.397605 0.849280
Si Si7 0.557009 0.118208 0.327926
Si Si8 0.285814 0.494525 0.523187
O O1 0.718469 0.302718 0.152135
O O2 0.572229 0.185782 0.273308
O O3 0.896195 0.324219 0.650427
O O4 0.953594 0.246419 0.129208
O O5 0.366986 0.285971 0.302214
O O6 0.289103 0.372556 0.784826
O O7 0.096108 0.220042 0.601271
O O8 0.488559 0.312093 0.836989
O O9 0.098584 0.896627 0.268861
O O10 0.500000 0.000000 0.500000
O O11 0.324724 0.045604 0.298341
O O12 0.340998 0.923610 0.910602
O O13 0.687531 0.424037 0.391889
O O14 0.299294 0.838632 0.347294
O O15 0.191820 0.467721 0.773946
O O16 0.120062 0.429601 0.205743
O O17 0.500000 0.500000 0.500000
#
# Coordination Sequence:
#
# PCOD8004207 Si02
#       8
#     2   2   2   2   2   2   2   2
#     4  11  25  40  61  97 130 166 207 272 323 376
#     4  12  23  42  65  95 122 172 217 263 312 387
#     4   8  16  31  56  99 122 157 207 265 299 363
#     4  12  28  41  64  93 133 166 213 266 336 377
#     4  10  20  37  65  92 126 163 218 260 304 376
#     4  12  23  41  69  88 120 167 223 264 315 377
#     4   9  17  33  62  90 126 162 206 261 311 364
#     4  12  23  42  65  91 121 168 215 271 317 383
#
# _framework density 24.285934000000001
#
# number of rings (size 3 to 8) (size 9 to 14) (size 15 to 20)
#    0.000    1.250    3.750    2.625    3.500    1.000 
#    0.000    0.000    0.000    1.500    0.000    0.000 
#    0.000    0.000    0.000    0.000    0.000    0.000 
#
# Total GULP energy -198251.516855 kJ/mol
# GULP energy per Si atom -12390.719803 kJ/mol
# Density = 2.423066 g / cm^3
# Si number density = 24.285934 Si / 1000 Ang^3
#
#
#
# Elastic Constant Matrix: (Units=GPa)
#
#
# Indices 1 2 3 4 5 6 
#
# 1 42.0828 34.3001 -4.2878 6.9668 9.1088 -7.6882
# 2 34.3001 186.7752 21.9020 12.9118 4.2275 3.9739
# 3 -4.2878 21.9020 49.0654 0.1044 8.3278 -2.9342
# 4 6.9668 12.9118 0.1044 39.8200 1.3221 1.2217
# 5 9.1088 4.2275 8.3278 1.3221 16.9612 -11.7688
# 6 -7.6882 3.9739 -2.9342 1.2217 -11.7688 34.3587
#
#
#
# Elastic Compliance Matrix: (Units=1/GPa)
#
#
# Indices 1 2 3 4 5 6 
#
# 1 0.036093 -0.007165 0.009959 -0.003440 -0.020155 0.002974
# 2 -0.007165 0.007240 -0.004493 -0.001135 0.003157 -0.001703
# 3 0.009959 -0.004493 0.026231 0.000277 -0.017938 -0.001166
# 4 -0.003440 -0.001135 0.000277 0.026194 -0.001470 -0.002050
# 5 -0.020155 0.003157 -0.017938 -0.001470 0.096426 0.026674
# 6 0.002974 -0.001703 -0.001166 -0.002050 0.026674 0.039077
#
#
# Mechanical properties :
#
#
# Convention : Reuss Voigt Hill
#
# Bulk Modulus (GPa) = 15.11381 42.41690 28.76536
# Shear Modulus (GPa) = 19.47684 33.29523 26.38604
#
# Velocity S-wave (km/s) = 2.83500 3.70668 3.29975
# Velocity P-wave (km/s) = 4.11741 5.98521 5.13692
#
# Compressibility (1/GPa) = 0.06616464
#
# Stress axis : x y z
#
# Youngs Moduli (GPa) = 27.70626 138.12110 38.12247
#
# Poissons Ratio (x) = 0.98969 -0.37965
# Poissons Ratio (y) = 0.19853 0.17129
# Poissons Ratio (z) = -0.27592 0.62060
#
# Static dielectric constant tensor:
#      x y z
#    x 3.629620 0.027650 0.099560 
#    y 0.027650 5.295430 0.088600 
#    z 0.099560 0.088600 4.596290 
# 
# 
# High freq. dielectric constant tensor:
#      x y z
#    x 1.883740 0.007370 0.007040 
#    y 0.007370 2.003720 -0.004950 
#    z 0.007040 -0.004950 1.976490 
# 
# From -- ./inp_files/53518.got.cif
#   From: 2010.06.25/outbox.cif.g09.slc.cpg/sg2_27_cif.got.tgz:53518.got - 2010.06.27 13:26:56.
