data_PCOD8004408
_publ_section_title
;
Structure prediction by ZEFSAII (Michael W. Deem and Ramdas Pophale) SiO2 
 PCOD8004408
Probable space group: P -1
;
_chemical_formula_sum "Si O2"
_cell_formula_units_Z 14
_cell_length_a 5.127693
_cell_length_b 8.746745
_cell_length_c 15.963627
_cell_angle_alpha 86.825877
_cell_angle_beta 103.749768
_cell_angle_gamma 58.807201
_cell_volume 581.032653
_symmetry_space_group_name_H-M "P -1"
_symmetry_group_IT_number 2
_symmetry_cell_setting 'triclinic'
loop_
_space_group_symop_operation_xyz
x,y,z
-x,-y,-z
loop_
_atom_site_type_symbol
_atom_site_label
_atom_site_fract_x
_atom_site_fract_y
_atom_site_fract_z
Si Si1 0.789969 0.621581 0.871894
Si Si2 0.845281 0.068319 0.750044
Si Si3 0.348117 0.350580 0.429253
Si Si4 0.483831 0.875250 0.702288
Si Si5 0.710857 0.063603 0.060727
Si Si6 0.904356 0.293970 0.979215
Si Si7 0.383089 0.415711 0.612708
O O1 0.740972 0.672842 0.769249
O O2 0.547535 0.813552 0.893695
O O3 0.754217 0.450508 0.890936
O O4 0.110851 0.591563 0.941619
O O5 0.647335 0.281643 0.704392
O O6 0.588463 0.012885 0.726708
O O7 0.130478 0.953064 0.708527
O O8 0.959095 0.044047 0.855733
O O9 0.492789 0.162026 0.394155
O O10 0.405995 0.303658 0.533822
O O11 0.552439 0.430594 0.411270
O O12 0.970302 0.490208 0.377878
O O13 0.718028 0.195185 0.986309
O O14 0.738775 0.881020 0.022941
#
# Coordination Sequence:
#
# PCOD8004408 Si02
#       7
#     2   2   2   2   2   2   2
#     4  10  21  37  57  84 120 156 208 255 305 366
#     4  11  23  40  61  91 126 159 204 256 307 366
#     4  10  22  41  64  92 124 160 204 249 302 373
#     4  11  23  40  61  91 126 159 204 256 307 366
#     4  10  21  37  57  84 120 156 208 255 305 366
#     4  10  20  38  58  82 114 162 206 250 316 356
#     4  10  22  41  64  92 124 160 204 249 302 373
#
# _framework density 24.095027999999999
#
# number of rings (size 3 to 8) (size 9 to 14) (size 15 to 20)
#    0.000    1.714    1.429    2.571    2.000    1.143 
#    0.000    1.429    0.000    0.000    0.000    0.000 
#    0.000    0.000    0.000    0.000    0.000    0.000 
#
# Total GULP energy -173481.676233 kJ/mol
# GULP energy per Si atom -12391.548302 kJ/mol
# Density = 2.404019 g / cm^3
# Si number density = 24.095028 Si / 1000 Ang^3
#
#
#
# Elastic Constant Matrix: (Units=GPa)
#
#
# Indices 1 2 3 4 5 6 
#
# 1 70.7219 6.0530 4.9781 1.5122 -8.1550 7.1312
# 2 6.0530 73.2368 23.4128 2.8966 0.3213 11.9495
# 3 4.9781 23.4128 50.1316 0.1801 -1.6113 -1.0665
# 4 1.5122 2.8966 0.1801 34.7582 -3.8392 -5.6974
# 5 -8.1550 0.3213 -1.6113 -3.8392 25.4119 2.2177
# 6 7.1312 11.9495 -1.0665 -5.6974 2.2177 33.7016
#
#
#
# Elastic Compliance Matrix: (Units=1/GPa)
#
#
# Indices 1 2 3 4 5 6 
#
# 1 0.015210 -0.000243 -0.001310 -0.000674 0.005015 -0.003618
# 2 -0.000243 0.017559 -0.008333 -0.002599 -0.000625 -0.006836
# 3 -0.001310 -0.008333 0.024087 0.001427 0.001064 0.004165
# 4 -0.000674 -0.002599 0.001427 0.030431 0.003982 0.005992
# 5 0.005015 -0.000625 0.001064 0.003982 0.041890 -0.002890
# 6 -0.003618 -0.006836 0.004165 0.005992 -0.002890 0.034197
#
#
# Mechanical properties :
#
#
# Convention : Reuss Voigt Hill
#
# Bulk Modulus (GPa) = 26.96564 29.21980 28.09272
# Shear Modulus (GPa) = 25.57445 29.41743 27.49594
#
# Velocity S-wave (km/s) = 3.26145 3.49792 3.38175
# Velocity P-wave (km/s) = 5.03968 5.33546 5.18968
#
# Compressibility (1/GPa) = 0.03708423
#
# Stress axis : x y z
#
# Youngs Moduli (GPa) = 65.74438 56.94988 41.51642
#
# Poissons Ratio (x) = 0.01386 0.05439
# Poissons Ratio (y) = 0.01600 0.34594
# Poissons Ratio (z) = 0.08613 0.47455
#
# Static dielectric constant tensor:
#      x y z
#    x 4.288830 -0.071480 0.289630 
#    y -0.071480 4.286370 0.165240 
#    z 0.289630 0.165240 5.055550 
# 
# 
# High freq. dielectric constant tensor:
#      x y z
#    x 1.958290 -0.001110 0.004070 
#    y -0.001110 1.954520 0.007090 
#    z 0.004070 0.007090 1.955580 
# 
# From -- ./inp_files/7642.got.cif
#   From: 2010.06.25/outbox.cif.g09.slc.cpg/sg2_4_cif.got.tgz:7642.got - 2010.06.27 13:26:56.
