data_PCOD8004379
_publ_section_title
;
Structure prediction by ZEFSAII (Michael W. Deem and Ramdas Pophale) SiO2 
 PCOD8004379
Probable space group: P -1
;
_chemical_formula_sum "Si O2"
_cell_formula_units_Z 16
_cell_length_a 9.088375
_cell_length_b 19.635569
_cell_length_c 19.152673
_cell_angle_alpha 21.470956
_cell_angle_beta 41.673844
_cell_angle_gamma 43.116793
_cell_volume 823.235718
_symmetry_space_group_name_H-M "P -1"
_symmetry_group_IT_number 2
_symmetry_cell_setting 'triclinic'
loop_
_space_group_symop_operation_xyz
x,y,z
-x,-y,-z
loop_
_atom_site_type_symbol
_atom_site_label
_atom_site_fract_x
_atom_site_fract_y
_atom_site_fract_z
Si Si1 0.401834 0.112826 0.494009
Si Si2 0.215364 0.428750 0.824101
Si Si3 0.730987 0.491685 0.886021
Si Si4 0.589085 0.833132 0.875542
Si Si5 0.797222 0.144143 0.586755
Si Si6 0.187379 0.844415 0.921884
Si Si7 0.819984 0.948779 0.560900
Si Si8 0.274251 0.087867 0.032222
O O1 0.253668 0.307505 0.344174
O O2 0.500000 0.000000 0.500000
O O3 0.238401 0.004965 0.698441
O O4 0.631790 0.128397 0.440548
O O5 0.295317 0.632732 0.590266
O O6 0.945319 0.436410 0.913256
O O7 0.313552 0.345200 0.942430
O O8 0.312192 0.286718 0.863558
O O9 0.500000 0.500000 0.000000
O O10 0.733362 0.355294 0.950311
O O11 0.318701 0.849138 0.945063
O O12 0.693834 0.799428 0.791718
O O13 0.645182 0.029918 0.700256
O O14 0.052999 0.129741 0.480093
O O15 0.800534 0.053731 0.748219
O O16 0.917078 0.876950 0.993779
O O17 0.000000 0.000000 0.500000
O O18 0.500000 0.000000 0.000000
#
# Coordination Sequence:
#
# PCOD8004379 Si02
#       8
#     2   2   2   2   2   2   2   2
#     4  11  19  32  50  74 110 148 182 225 270 318
#     4  10  22  38  57  83 117 149 189 232 279 338
#     4  11  22  31  52  81 112 153 190 230 268 326
#     4   9  21  36  55  83 120 153 184 221 277 340
#     4  10  20  38  57  81 115 150 192 231 278 333
#     4  10  21  37  54  84 111 142 192 230 280 339
#     4   9  19  31  51  77 112 156 179 210 265 331
#     4  10  22  41  64  82 106 144 192 248 290 327
#
# _framework density 19.435503000000001
#
# number of rings (size 3 to 8) (size 9 to 14) (size 15 to 20)
#    0.000    2.000    1.250    2.250    7.000    4.000 
#    0.000    2.500    0.000    1.500    0.000    0.000 
#    0.000    0.000    0.000    0.000    0.000    0.000 
#
# Total GULP energy -198228.010543 kJ/mol
# GULP energy per Si atom -12389.250659 kJ/mol
# Density = 1.939127 g / cm^3
# Si number density = 19.435503 Si / 1000 Ang^3
#
#
#
# Elastic Constant Matrix: (Units=GPa)
#
#
# Indices 1 2 3 4 5 6 
#
# 1 127.3024 49.0156 36.0378 -2.4878 3.7301 -26.5146
# 2 49.0156 114.2361 33.5817 -10.7492 -0.6345 -17.9903
# 3 36.0378 33.5817 104.6741 -31.5611 2.5765 -1.1343
# 4 -2.4878 -10.7492 -31.5611 24.1521 0.3128 1.9029
# 5 3.7301 -0.6345 2.5765 0.3128 28.4799 -1.3224
# 6 -26.5146 -17.9903 -1.1343 1.9029 -1.3224 23.3490
#
#
#
# Elastic Compliance Matrix: (Units=1/GPa)
#
#
# Indices 1 2 3 4 5 6 
#
# 1 0.013294 -0.002571 -0.006345 -0.009125 -0.000496 0.013523
# 2 -0.002571 0.011619 -0.002425 0.001260 0.001074 0.005874
# 3 -0.006345 -0.002425 0.020095 0.025359 -0.001796 -0.010266
# 4 -0.009125 0.001260 0.025359 0.075335 -0.002569 -0.014444
# 5 -0.000496 0.001074 -0.001796 -0.002569 0.035503 0.002397
# 6 0.013523 0.005874 -0.010266 -0.014444 0.002397 0.063525
#
#
# Mechanical properties :
#
#
# Convention : Reuss Voigt Hill
#
# Bulk Modulus (GPa) = 44.78954 64.83142 54.81048
# Shear Modulus (GPa) = 20.04044 30.36804 25.20424
#
# Velocity S-wave (km/s) = 3.21460 3.95714 3.60504
# Velocity P-wave (km/s) = 6.07235 7.36941 6.75210
#
# Compressibility (1/GPa) = 0.02232664
#
# Stress axis : x y z
#
# Youngs Moduli (GPa) = 75.22167 86.06297 49.76332
#
# Poissons Ratio (x) = 0.22124 0.31574
# Poissons Ratio (y) = 0.19337 0.12070
# Poissons Ratio (z) = 0.47727 0.20874
#
# Static dielectric constant tensor:
#      x y z
#    x 3.891280 -0.221430 0.139960 
#    y -0.221430 3.539480 -0.163030 
#    z 0.139960 -0.163030 3.047450 
# 
# 
# High freq. dielectric constant tensor:
#      x y z
#    x 1.777580 -0.018600 -0.001740 
#    y -0.018600 1.717890 -0.011920 
#    z -0.001740 -0.011920 1.748530 
# 
# From -- ./inp_files/283074.got.cif
#   From: 2010.06.25/outbox.cif.g09.slc.cpg/sg2_142_cif.got.tgz:283074.got - 2010.06.27 13:26:56.
