data_PCOD8004533
_publ_section_title
;
Structure prediction by ZEFSAII (Michael W. Deem and Ramdas Pophale) SiO2 
 PCOD8004533
Probable space group: P -1
;
_chemical_formula_sum "Si O2"
_cell_formula_units_Z 16
_cell_length_a 8.119517
_cell_length_b 24.171872
_cell_length_c 6.320492
_cell_angle_alpha 104.765501
_cell_angle_beta 125.674779
_cell_angle_gamma 46.468391
_cell_volume 707.512122
_symmetry_space_group_name_H-M "P -1"
_symmetry_group_IT_number 2
_symmetry_cell_setting 'triclinic'
loop_
_space_group_symop_operation_xyz
x,y,z
-x,-y,-z
loop_
_atom_site_type_symbol
_atom_site_label
_atom_site_fract_x
_atom_site_fract_y
_atom_site_fract_z
Si Si1 0.827637 0.648174 0.978467
Si Si2 0.991790 0.335277 0.476184
Si Si3 0.487426 0.361670 0.923915
Si Si4 0.095601 0.098775 0.974072
Si Si5 0.519868 0.247979 0.562166
Si Si6 0.990273 0.048352 0.221735
Si Si7 0.205395 0.527381 0.796503
Si Si8 0.611577 0.056028 0.208188
O O1 0.651081 0.641144 0.984808
O O2 0.605647 0.723302 0.737390
O O3 0.049948 0.567008 0.940684
O O4 0.999474 0.662667 0.259651
O O5 0.296433 0.255993 0.545053
O O6 0.752787 0.343379 0.203967
O O7 0.971434 0.406688 0.455345
O O8 0.589203 0.296982 0.761821
O O9 0.265648 0.448138 0.729096
O O10 0.279969 0.119821 0.077388
O O11 0.021588 0.103626 0.175441
O O12 0.808278 0.156996 0.683349
O O13 0.291338 0.009778 0.954029
O O14 0.710468 0.096605 0.209233
O O15 0.250170 0.984633 0.503565
O O16 0.000000 0.000000 0.000000
O O17 0.500000 0.500000 0.000000
#
# Coordination Sequence:
#
# PCOD8004533 Si02
#       8
#     2   2   2   2   2   2   2   2
#     4  10  21  36  58  84 115 151 195 244 287 350
#     4   9  21  40  57  83 115 152 197 243 295 351
#     4  10  21  38  58  85 112 151 201 240 294 356
#     4  10  20  38  60  82 120 158 186 246 292 343
#     4  10  23  40  54  82 123 156 191 236 296 353
#     4   9  18  36  59  89 117 143 187 245 289 343
#     4   9  19  35  60  84 113 148 193 250 296 341
#     4   9  19  36  62  92 111 146 205 235 288 355
#
# _framework density 22.614452
#
# number of rings (size 3 to 8) (size 9 to 14) (size 15 to 20)
#    0.000    2.500    0.000    0.750    0.000   12.500 
#    9.000    0.000    0.000    0.000    0.000    0.000 
#    0.000    0.000    0.000    0.000    0.000    0.000 
#
# Total GULP energy -198215.535847 kJ/mol
# GULP energy per Si atom -12388.470990 kJ/mol
# Density = 2.256298 g / cm^3
# Si number density = 22.614452 Si / 1000 Ang^3
#
#
#
# Elastic Constant Matrix: (Units=GPa)
#
#
# Indices 1 2 3 4 5 6 
#
# 1 117.0011 24.9931 37.2124 -9.4849 -5.3523 -21.2554
# 2 24.9931 34.6858 11.9924 -11.6869 0.8047 -8.4770
# 3 37.2124 11.9924 122.1798 4.4720 -8.6484 -10.2811
# 4 -9.4849 -11.6869 4.4720 30.4420 -4.2534 11.7080
# 5 -5.3523 0.8047 -8.6484 -4.2534 34.3246 -3.2518
# 6 -21.2554 -8.4770 -10.2811 11.7080 -3.2518 23.3476
#
#
#
# Elastic Compliance Matrix: (Units=1/GPa)
#
#
# Indices 1 2 3 4 5 6 
#
# 1 0.012186 -0.006422 -0.002128 -0.001460 0.002173 0.008860
# 2 -0.006422 0.038771 -0.002326 0.012862 -0.000842 0.000639
# 3 -0.002128 -0.002326 0.009681 -0.004181 0.002009 0.003857
# 4 -0.001460 0.012862 -0.004181 0.046528 0.002143 -0.021534
# 5 0.002173 -0.000842 0.002009 0.002143 0.030811 0.005774
# 6 0.008860 0.000639 0.003857 -0.021534 0.005774 0.064430
#
#
# Mechanical properties :
#
#
# Convention : Reuss Voigt Hill
#
# Bulk Modulus (GPa) = 25.71659 46.91807 36.31733
# Shear Modulus (GPa) = 21.08608 30.93408 26.01008
#
# Velocity S-wave (km/s) = 3.05686 3.70251 3.39507
# Velocity P-wave (km/s) = 4.88422 6.25061 5.60918
#
# Compressibility (1/GPa) = 0.03888540
#
# Stress axis : x y z
#
# Youngs Moduli (GPa) = 82.05889 25.79229 103.29403
#
# Poissons Ratio (x) = 0.16564 0.21986
# Poissons Ratio (y) = 0.52698 0.24028
# Poissons Ratio (z) = 0.17466 0.06000
#
# Static dielectric constant tensor:
#      x y z
#    x 5.286120 -0.146180 -0.512890 
#    y -0.146180 3.782800 -0.211340 
#    z -0.512890 -0.211340 4.204650 
# 
# 
# High freq. dielectric constant tensor:
#      x y z
#    x 1.905210 -0.013280 0.006810 
#    y -0.013280 1.856250 0.000060 
#    z 0.006810 0.000060 1.902590 
# 
# From -- ./inp_files/50458.got.cif
#   From: 2010.06.25/outbox.cif.g09.slc.cpg/sg2_26_cif.got.tgz:50458.got - 2010.06.27 13:26:56.
