data_PCOD8004765
_publ_section_title
;
Structure prediction by ZEFSAII (Michael W. Deem and Ramdas Pophale) SiO2 
 PCOD8004765
Probable space group: P -1
;
_chemical_formula_sum "Si O2"
_cell_formula_units_Z 16
_cell_length_a 7.214724
_cell_length_b 8.273296
_cell_length_c 17.003135
_cell_angle_alpha 55.123754
_cell_angle_beta 113.544220
_cell_angle_gamma 120.314171
_cell_volume 709.919070
_symmetry_space_group_name_H-M "P -1"
_symmetry_group_IT_number 2
_symmetry_cell_setting 'triclinic'
loop_
_space_group_symop_operation_xyz
x,y,z
-x,-y,-z
loop_
_atom_site_type_symbol
_atom_site_label
_atom_site_fract_x
_atom_site_fract_y
_atom_site_fract_z
Si Si1 0.944215 0.716980 0.577294
Si Si2 0.264896 0.015525 0.448538
Si Si3 0.285605 0.970429 0.077253
Si Si4 0.970384 0.976063 0.742496
Si Si5 0.961715 0.757117 0.958337
Si Si6 0.639423 0.354745 0.067505
Si Si7 0.304022 0.903853 0.716122
Si Si8 0.756905 0.235493 0.713011
O O1 0.770895 0.829741 0.533492
O O2 0.802575 0.470781 0.626766
O O3 0.147445 0.792674 0.649825
O O4 0.064697 0.787588 0.493333
O O5 0.230523 0.100375 0.332963
O O6 0.500000 0.000000 0.500000
O O7 0.263187 0.788354 0.189174
O O8 0.175252 0.127394 0.050210
O O9 0.535492 0.132785 0.063054
O O10 0.199073 0.859472 0.010426
O O11 0.957664 0.793463 0.854088
O O12 0.195523 0.029673 0.719515
O O13 0.959492 0.177006 0.732400
O O14 0.870055 0.501276 0.028055
O O15 0.660778 0.291091 0.178880
O O16 0.500000 0.500000 0.000000
O O17 0.534291 0.076379 0.679160
#
# Coordination Sequence:
#
# PCOD8004765 Si02
#       8
#     2   2   2   2   2   2   2   2
#     4  10  22  40  65  88 113 156 196 233 300 358
#     4  10  22  42  62  88 120 148 191 249 296 351
#     4   8  16  30  51  79 111 147 188 227 275 333
#     4  10  22  38  58  87 119 152 196 245 294 343
#     4   9  16  31  51  76 113 149 185 232 275 330
#     4   9  17  30  53  80 110 154 193 225 278 335
#     4  10  21  39  58  87 124 151 194 248 284 343
#     4  10  20  38  62  87 117 155 193 237 291 347
#
# _framework density 22.537777999999999
#
# number of rings (size 3 to 8) (size 9 to 14) (size 15 to 20)
#    0.000    2.500    0.000    2.250    0.000    3.000 
#    0.000   13.750    0.000    0.000    0.000    0.000 
#    0.000    0.000    0.000    0.000    0.000    0.000 
#
# Total GULP energy -198224.868796 kJ/mol
# GULP energy per Si atom -12389.054300 kJ/mol
# Density = 2.248648 g / cm^3
# Si number density = 22.537778 Si / 1000 Ang^3
#
#
#
# Elastic Constant Matrix: (Units=GPa)
#
#
# Indices 1 2 3 4 5 6 
#
# 1 70.8118 13.8309 13.0235 -2.2675 1.0755 -6.8825
# 2 13.8309 68.4510 38.6984 -9.7748 -15.1778 25.0957
# 3 13.0235 38.6984 95.4621 -3.0363 -1.3335 10.5225
# 4 -2.2675 -9.7748 -3.0363 48.2713 6.3044 0.6263
# 5 1.0755 -15.1778 -1.3335 6.3044 36.6505 -1.2824
# 6 -6.8825 25.0957 10.5225 0.6263 -1.2824 22.4220
#
#
#
# Elastic Compliance Matrix: (Units=1/GPa)
#
#
# Indices 1 2 3 4 5 6 
#
# 1 0.018175 -0.011593 0.000106 -0.001137 -0.004495 0.018280
# 2 -0.011593 0.045464 -0.011071 0.006512 0.015947 -0.048519
# 3 0.000106 -0.011071 0.014256 -0.000927 -0.003716 0.005547
# 4 -0.001137 0.006512 -0.000927 0.022209 -0.001400 -0.007903
# 5 -0.004495 0.015947 -0.003716 -0.001400 0.033583 -0.015525
# 6 0.018280 -0.048519 0.005547 -0.007903 -0.015525 0.101244
#
#
# Mechanical properties :
#
#
# Convention : Reuss Voigt Hill
#
# Bulk Modulus (GPa) = 30.50643 40.64784 35.57713
# Shear Modulus (GPa) = 17.18365 32.74690 24.96527
#
# Velocity S-wave (km/s) = 2.76422 3.81593 3.33184
# Velocity P-wave (km/s) = 4.87370 6.12288 5.53365
#
# Compressibility (1/GPa) = 0.03277998
#
# Stress axis : x y z
#
# Youngs Moduli (GPa) = 55.01963 21.99522 70.14619
#
# Poissons Ratio (x) = 0.25500 -0.00745
# Poissons Ratio (y) = 0.63786 0.77657
# Poissons Ratio (z) = -0.00585 0.24350
#
# Static dielectric constant tensor:
#      x y z
#    x 4.386190 0.430260 -0.167820 
#    y 0.430260 4.118980 -0.221840 
#    z -0.167820 -0.221840 4.523710 
# 
# 
# High freq. dielectric constant tensor:
#      x y z
#    x 1.896390 0.003790 0.005120 
#    y 0.003790 1.852650 -0.000500 
#    z 0.005120 -0.000500 1.903850 
# 
# From -- ./inp_files/555021.got.cif
#   From: 2010.06.25/outbox.cif.g09.slc.cpg/sg2_278_cif.got.tgz:555021.got - 2010.06.27 13:26:56.
