data_PCOD8004561
_publ_section_title
;
Structure prediction by ZEFSAII (Michael W. Deem and Ramdas Pophale) SiO2 
 PCOD8004561
Probable space group: P -1
;
_chemical_formula_sum "Si O2"
_cell_formula_units_Z 16
_cell_length_a 11.296680
_cell_length_b 14.925295
_cell_length_c 8.834318
_cell_angle_alpha 59.400832
_cell_angle_beta 38.479835
_cell_angle_gamma 76.485129
_cell_volume 759.078981
_symmetry_space_group_name_H-M "P -1"
_symmetry_group_IT_number 2
_symmetry_cell_setting 'triclinic'
loop_
_space_group_symop_operation_xyz
x,y,z
-x,-y,-z
loop_
_atom_site_type_symbol
_atom_site_label
_atom_site_fract_x
_atom_site_fract_y
_atom_site_fract_z
Si Si1 0.198887 0.981532 0.253349
Si Si2 0.871105 0.214044 0.715533
Si Si3 0.234629 0.372392 0.046014
Si Si4 0.347339 0.665387 0.358648
Si Si5 0.155080 0.414996 0.750801
Si Si6 0.226887 0.726864 0.922013
Si Si7 0.404655 0.847883 0.365256
Si Si8 0.462395 0.565839 0.835459
O O1 0.159842 0.909615 0.201184
O O2 0.280406 0.921344 0.355713
O O3 0.000000 0.000000 0.500000
O O4 0.359703 0.097065 0.949952
O O5 0.692781 0.257435 0.798058
O O6 0.079858 0.287835 0.378640
O O7 0.869594 0.221943 0.890806
O O8 0.432578 0.338196 0.880722
O O9 0.148435 0.369440 0.966524
O O10 0.289824 0.491982 0.961846
O O11 0.185467 0.545141 0.617122
O O12 0.333627 0.723507 0.481214
O O13 0.334244 0.389569 0.502043
O O14 0.950490 0.355811 0.923546
O O15 0.353089 0.831791 0.607863
O O16 0.379544 0.664154 0.885324
O O17 0.500000 0.500000 0.000000
#
# Coordination Sequence:
#
# PCOD8004561 Si02
#       8
#     2   2   2   2   2   2   2   2
#     4  10  22  44  67  87 111 148 201 258 308 358
#     4  11  24  38  60  87 118 159 196 246 310 358
#     4  11  21  36  58  87 120 162 211 246 286 349
#     4  10  20  38  60  86 118 157 205 249 288 348
#     4  11  22  36  59  88 123 166 205 243 287 347
#     4  12  24  39  58  91 130 160 197 241 296 366
#     4  10  22  39  64  90 115 152 199 252 305 353
#     4  11  23  38  58  88 129 170 202 242 294 349
#
# _framework density 21.078175999999999
#
# number of rings (size 3 to 8) (size 9 to 14) (size 15 to 20)
#    0.000    1.250    0.000    8.250    0.000    4.500 
#    0.000    0.625    0.000    0.000    0.000    0.000 
#    0.000    0.000    0.000    0.000    0.000    0.000 
#
# Total GULP energy -198428.409498 kJ/mol
# GULP energy per Si atom -12401.775594 kJ/mol
# Density = 2.103020 g / cm^3
# Si number density = 21.078176 Si / 1000 Ang^3
#
#
#
# Elastic Constant Matrix: (Units=GPa)
#
#
# Indices 1 2 3 4 5 6 
#
# 1 90.8583 47.5726 60.9583 7.6953 3.4338 8.8642
# 2 47.5726 105.3953 51.7716 -1.5430 -0.0770 9.6288
# 3 60.9583 51.7716 133.3389 2.0585 12.4153 13.9506
# 4 7.6953 -1.5430 2.0585 15.8324 8.0368 10.6967
# 5 3.4338 -0.0770 12.4153 8.0368 32.9148 7.9526
# 6 8.8642 9.6288 13.9506 10.6967 7.9526 14.2809
#
#
#
# Elastic Compliance Matrix: (Units=1/GPa)
#
#
# Indices 1 2 3 4 5 6 
#
# 1 0.020037 -0.006628 -0.007850 -0.019207 0.002474 0.012709
# 2 -0.006628 0.014962 -0.001355 0.015772 0.001576 -0.017342
# 3 -0.007850 -0.001355 0.013472 0.015053 -0.003969 -0.016439
# 4 -0.019207 0.015772 0.015053 0.167651 -0.012700 -0.131919
# 5 0.002474 0.001576 -0.003969 -0.012700 0.037111 -0.009875
# 6 0.012709 -0.017342 -0.016439 -0.131919 -0.009875 0.194195
#
#
# Mechanical properties :
#
#
# Convention : Reuss Voigt Hill
#
# Bulk Modulus (GPa) = 59.51135 72.24417 65.87776
# Shear Modulus (GPa) = 10.31577 23.89163 17.10370
#
# Velocity S-wave (km/s) = 2.21465 3.37037 2.85167
# Velocity P-wave (km/s) = 5.90208 7.03524 6.49343
#
# Compressibility (1/GPa) = 0.01680352
#
# Stress axis : x y z
#
# Youngs Moduli (GPa) = 49.90810 66.83648 74.22990
#
# Poissons Ratio (x) = 0.44302 0.58271
# Poissons Ratio (y) = 0.33082 0.10057
# Poissons Ratio (z) = 0.39178 0.09055
#
# Static dielectric constant tensor:
#      x y z
#    x 3.853360 0.133780 -0.081950 
#    y 0.133780 4.034100 0.063090 
#    z -0.081950 0.063090 3.830070 
# 
# 
# High freq. dielectric constant tensor:
#      x y z
#    x 1.824960 0.000200 -0.007850 
#    y 0.000200 1.823570 0.014230 
#    z -0.007850 0.014230 1.833080 
# 
# From -- ./inp_files/272054.got.cif
#   From: 2010.06.25/outbox.cif.g09.slc.cpg/sg2_137_cif.got.tgz:272054.got - 2010.06.27 13:26:56.
