data_PCOD8004323
_publ_section_title
;
Structure prediction by ZEFSAII (Michael W. Deem and Ramdas Pophale) SiO2 
 PCOD8004323
Probable space group: P -1
;
_chemical_formula_sum "Si O2"
_cell_formula_units_Z 16
_cell_length_a 8.821540
_cell_length_b 14.850213
_cell_length_c 8.684022
_cell_angle_alpha 72.976790
_cell_angle_beta 67.002184
_cell_angle_gamma 44.038374
_cell_volume 727.827243
_symmetry_space_group_name_H-M "P -1"
_symmetry_group_IT_number 2
_symmetry_cell_setting 'triclinic'
loop_
_space_group_symop_operation_xyz
x,y,z
-x,-y,-z
loop_
_atom_site_type_symbol
_atom_site_label
_atom_site_fract_x
_atom_site_fract_y
_atom_site_fract_z
Si Si1 0.633260 0.135509 0.540608
Si Si2 0.658875 0.025777 0.891250
Si Si3 0.963375 0.146325 0.558323
Si Si4 0.684293 0.208267 0.924964
Si Si5 0.411808 0.615118 0.866593
Si Si6 0.757431 0.613038 0.614268
Si Si7 0.989789 0.755968 0.778147
Si Si8 0.802653 0.635136 0.936182
O O1 0.551262 0.123350 0.740578
O O2 0.789495 0.163925 0.501167
O O3 0.403869 0.250683 0.482289
O O4 0.792246 0.000768 0.448563
O O5 0.715355 0.080689 0.977477
O O6 0.901965 0.889436 0.814378
O O7 0.500000 0.000000 0.000000
O O8 0.851782 0.196043 0.746917
O O9 0.997891 0.235417 0.418576
O O10 0.705262 0.250636 0.061532
O O11 0.421475 0.322192 0.921872
O O12 0.622788 0.567598 0.704996
O O13 0.234592 0.637672 0.810244
O O14 0.500000 0.500000 0.000000
O O15 0.807039 0.631885 0.753207
O O16 0.000000 0.500000 0.500000
O O17 0.822350 0.738831 0.910023
O O18 0.000000 0.500000 0.000000
#
# Coordination Sequence:
#
# PCOD8004323 Si02
#       8
#     2   2   2   2   2   2   2   2
#     4   9  19  39  64  97 130 168 217 270 330 391
#     4  10  20  37  68  98 129 169 213 271 337 396
#     4   9  19  38  69  93 125 169 213 272 330 391
#     4  10  22  41  66  94 129 165 218 267 340 376
#     4  11  25  44  62  94 132 172 225 273 318 391
#     4  11  25  43  66  93 134 177 220 272 330 387
#     4  11  21  41  65  94 128 168 223 267 326 394
#     4  11  25  42  63  94 136 178 220 267 327 398
#
# _framework density 21.983239999999999
#
# number of rings (size 3 to 8) (size 9 to 14) (size 15 to 20)
#    0.000    1.750    2.500    2.250    3.500    2.500 
#    2.250    4.375    0.000    0.000    0.000    0.000 
#    0.000    0.000    0.000    0.000    0.000    0.000 
#
# Total GULP energy -198231.518415 kJ/mol
# GULP energy per Si atom -12389.469901 kJ/mol
# Density = 2.193320 g / cm^3
# Si number density = 21.983240 Si / 1000 Ang^3
#
#
#
# Elastic Constant Matrix: (Units=GPa)
#
#
# Indices 1 2 3 4 5 6 
#
# 1 53.9649 18.5200 21.7770 -5.8999 -3.0241 -5.8115
# 2 18.5200 110.4397 45.4657 -7.4880 6.7372 -19.4761
# 3 21.7770 45.4657 100.9841 -3.8414 -19.0976 -10.8975
# 4 -5.8999 -7.4880 -3.8414 47.1536 -1.3799 0.4102
# 5 -3.0241 6.7372 -19.0976 -1.3799 34.0848 -3.2459
# 6 -5.8115 -19.4761 -10.8975 0.4102 -3.2459 39.7986
#
#
#
# Elastic Compliance Matrix: (Units=1/GPa)
#
#
# Indices 1 2 3 4 5 6 
#
# 1 0.020901 -0.001773 -0.003398 0.002061 0.000506 0.001274
# 2 -0.001773 0.012971 -0.006065 0.001143 -0.005697 0.003951
# 3 -0.003398 -0.006065 0.015362 0.000133 0.009655 0.001528
# 4 0.002061 0.001143 0.000133 0.021680 0.000981 0.000753
# 5 0.000506 -0.005697 0.009655 0.000981 0.036233 0.002875
# 6 0.001274 0.003951 0.001528 0.000753 0.002875 0.027892
#
#
# Mechanical properties :
#
#
# Convention : Reuss Voigt Hill
#
# Bulk Modulus (GPa) = 37.36505 48.54601 42.95553
# Shear Modulus (GPa) = 30.04299 36.18246 33.11272
#
# Velocity S-wave (km/s) = 3.70081 4.06138 3.88528
# Velocity P-wave (km/s) = 5.94098 6.64261 6.30157
#
# Compressibility (1/GPa) = 0.02676298
#
# Stress axis : x y z
#
# Youngs Moduli (GPa) = 47.84504 77.09752 65.09686
#
# Poissons Ratio (x) = 0.13667 0.22117
# Poissons Ratio (y) = 0.08481 0.39480
# Poissons Ratio (z) = 0.16256 0.46758
#
# Static dielectric constant tensor:
#      x y z
#    x 3.897060 0.062230 -0.243080 
#    y 0.062230 4.033330 0.128860 
#    z -0.243080 0.128860 4.046190 
# 
# 
# High freq. dielectric constant tensor:
#      x y z
#    x 1.851370 -0.007930 -0.020510 
#    y -0.007930 1.863760 0.001730 
#    z -0.020510 0.001730 1.865710 
# 
# From -- ./inp_files/206264.got.cif
#   From: 2010.06.25/outbox.cif.g09.slc.cpg/sg2_104_cif.got.tgz:206264.got - 2010.06.27 13:26:56.
