data_PCOD8004734
_publ_section_title
;
Structure prediction by ZEFSAII (Michael W. Deem and Ramdas Pophale) SiO2 
 PCOD8004734
Probable space group: P -1
;
_chemical_formula_sum "Si O2"
_cell_formula_units_Z 16
_cell_length_a 13.928716
_cell_length_b 9.179557
_cell_length_c 25.664005
_cell_angle_alpha 41.705380
_cell_angle_beta 159.275177
_cell_angle_gamma 127.567956
_cell_volume 715.815265
_symmetry_space_group_name_H-M "P -1"
_symmetry_group_IT_number 2
_symmetry_cell_setting 'triclinic'
loop_
_space_group_symop_operation_xyz
x,y,z
-x,-y,-z
loop_
_atom_site_type_symbol
_atom_site_label
_atom_site_fract_x
_atom_site_fract_y
_atom_site_fract_z
Si Si1 0.341832 0.942526 0.359403
Si Si2 0.126947 0.671486 0.923118
Si Si3 0.582332 0.827706 0.763068
Si Si4 0.179932 0.169037 0.545351
Si Si5 0.965312 0.869027 0.409012
Si Si6 0.980380 0.625645 0.252781
Si Si7 0.998792 0.296692 0.261763
Si Si8 0.511418 0.923023 0.085153
O O1 0.268084 0.066849 0.232452
O O2 0.195597 0.138477 0.277526
O O3 0.232669 0.725997 0.364951
O O4 0.688185 0.843270 0.568332
O O5 0.208477 0.661817 0.905241
O O6 0.156904 0.406956 0.022519
O O7 0.356550 0.734960 0.058316
O O8 0.316787 0.751413 0.626921
O O9 0.476367 0.025365 0.702497
O O10 0.216447 0.195064 0.619365
O O11 0.012800 0.426279 0.366327
O O12 0.000000 0.000000 0.500000
O O13 0.838100 0.800799 0.308821
O O14 0.907280 0.149016 0.299037
O O15 0.002397 0.527115 0.231426
O O16 0.666321 0.838440 0.037174
O O17 0.500000 0.000000 0.000000
#
# Coordination Sequence:
#
# PCOD8004734 Si02
#       8
#     2   2   2   2   2   2   2   2
#     4  10  22  44  65  92 130 161 219 265 314 367
#     4  11  24  40  64  95 128 170 208 264 318 375
#     4  10  22  41  67  90 132 164 212 258 320 374
#     4  10  20  38  61  97 122 163 207 257 309 374
#     4  10  22  39  63  94 127 165 206 255 319 374
#     4  11  23  41  68  93 125 169 211 265 310 372
#     4  11  21  40  68  94 122 173 213 258 314 375
#     4  11  25  41  61  95 134 160 211 260 312 380
#
# _framework density 22.352136000000002
#
# number of rings (size 3 to 8) (size 9 to 14) (size 15 to 20)
#    0.000    1.500    5.000    1.125    5.250    1.000 
#    0.000    3.125    0.000    0.000    0.000    0.000 
#    0.000    0.000    0.000    0.000    0.000    0.000 
#
# Total GULP energy -198226.722633 kJ/mol
# GULP energy per Si atom -12389.170165 kJ/mol
# Density = 2.230126 g / cm^3
# Si number density = 22.352136 Si / 1000 Ang^3
#
#
#
# Elastic Constant Matrix: (Units=GPa)
#
#
# Indices 1 2 3 4 5 6 
#
# 1 122.9870 35.1068 20.0165 -5.8179 -19.6109 -2.1008
# 2 35.1068 70.6187 34.5888 -14.9887 -15.1591 3.3088
# 3 20.0165 34.5888 60.3275 -2.6137 -11.0120 -7.0836
# 4 -5.8179 -14.9887 -2.6137 34.8982 1.7523 -4.3845
# 5 -19.6109 -15.1591 -11.0120 1.7523 23.0998 3.2506
# 6 -2.1008 3.3088 -7.0836 -4.3845 3.2506 36.1512
#
#
#
# Elastic Compliance Matrix: (Units=1/GPa)
#
#
# Indices 1 2 3 4 5 6 
#
# 1 0.010191 -0.003781 -0.000066 -0.000192 0.006104 0.000353
# 2 -0.003781 0.025760 -0.012257 0.008537 0.007859 -0.004650
# 3 -0.000066 -0.012257 0.024699 -0.002915 0.003147 0.005321
# 4 -0.000192 0.008537 -0.002915 0.032315 0.001254 0.002443
# 5 0.006104 0.007859 0.003147 0.001254 0.055683 -0.004603
# 6 0.000353 -0.004650 0.005321 0.002443 -0.004603 0.029860
#
#
# Mechanical properties :
#
#
# Convention : Reuss Voigt Hill
#
# Bulk Modulus (GPa) = 35.15919 48.15083 41.65501
# Shear Modulus (GPa) = 22.70694 29.77793 26.24243
#
# Velocity S-wave (km/s) = 3.19073 3.65392 3.43015
# Velocity P-wave (km/s) = 5.41648 6.27616 5.86210
#
# Compressibility (1/GPa) = 0.02844206
#
# Stress axis : x y z
#
# Youngs Moduli (GPa) = 98.12310 38.81925 40.48819
#
# Poissons Ratio (x) = 0.14677 0.00268
# Poissons Ratio (y) = 0.37100 0.49626
# Poissons Ratio (z) = 0.00650 0.47580
#
# Static dielectric constant tensor:
#      x y z
#    x 4.671990 -0.096640 -0.150370 
#    y -0.096640 3.956360 -0.068710 
#    z -0.150370 -0.068710 3.852150 
# 
# 
# High freq. dielectric constant tensor:
#      x y z
#    x 1.889970 -0.001740 -0.009800 
#    y -0.001740 1.869390 -0.012540 
#    z -0.009800 -0.012540 1.861320 
# 
# From -- ./inp_files/257199.got.cif
#   From: 2010.06.25/outbox.cif.g09.slc.cpg/sg2_129_cif.got.tgz:257199.got - 2010.06.27 13:26:56.
