data_PCOD8004088
_publ_section_title
;
Structure prediction by ZEFSAII (Michael W. Deem and Ramdas Pophale) SiO2 
 PCOD8004088
Probable space group: P -1
;
_chemical_formula_sum "Si O2"
_cell_formula_units_Z 16
_cell_length_a 8.613190
_cell_length_b 25.444331
_cell_length_c 25.462859
_cell_angle_alpha 168.756843
_cell_angle_beta 43.225323
_cell_angle_gamma 136.407635
_cell_volume 743.230877
_symmetry_space_group_name_H-M "P -1"
_symmetry_group_IT_number 2
_symmetry_cell_setting 'triclinic'
loop_
_space_group_symop_operation_xyz
x,y,z
-x,-y,-z
loop_
_atom_site_type_symbol
_atom_site_label
_atom_site_fract_x
_atom_site_fract_y
_atom_site_fract_z
Si Si1 0.913434 0.853791 0.688699
Si Si2 0.970924 0.207852 0.785455
Si Si3 0.409787 0.877015 0.806330
Si Si4 0.732865 0.704137 0.302611
Si Si5 0.768378 0.579511 0.660381
Si Si6 0.705142 0.636459 0.049601
Si Si7 0.718848 0.168860 0.508184
Si Si8 0.960186 0.310179 0.202202
O O1 0.663367 0.949493 0.834038
O O2 0.906885 0.544567 0.404871
O O3 0.055807 0.896607 0.642371
O O4 0.020280 0.046017 0.896468
O O5 0.167888 0.257936 0.743108
O O6 0.081286 0.256353 0.862650
O O7 0.858992 0.904970 0.510554
O O8 0.768324 0.403827 0.019180
O O9 0.418449 0.661911 0.545193
O O10 0.261563 0.748601 0.764844
O O11 0.299287 0.141926 0.073879
O O12 0.466511 0.744607 0.403641
O O13 0.000000 0.500000 0.500000
O O14 0.812350 0.607658 0.739424
O O15 0.619981 0.897517 0.296486
O O16 0.500000 0.500000 0.000000
O O17 0.784995 0.413486 0.771287
#
# Coordination Sequence:
#
# PCOD8004088 Si02
#       8
#     2   2   2   2   2   2   2   2
#     4  12  25  41  60  91 129 170 201 257 317 366
#     4  10  21  37  64  93 113 149 201 248 299 357
#     4  11  21  39  65  94 125 163 213 261 300 361
#     4  10  21  38  61  90 122 148 192 253 301 363
#     4  10  20  37  63  95 123 155 209 268 305 348
#     4  12  24  42  67  93 118 162 207 255 308 376
#     4  12  26  43  61  91 131 162 204 257 318 369
#     4  11  21  40  64  91 121 166 218 249 302 371
#
# _framework density 21.527629000000001
#
# number of rings (size 3 to 8) (size 9 to 14) (size 15 to 20)
#    0.000    1.000    1.250    7.875    3.500    0.000 
#    0.000    7.500    0.000    0.000    0.000    0.000 
#    0.000    0.000    0.000    0.000    0.000    0.000 
#
# Total GULP energy -198472.657942 kJ/mol
# GULP energy per Si atom -12404.541121 kJ/mol
# Density = 2.147863 g / cm^3
# Si number density = 21.527629 Si / 1000 Ang^3
#
#
#
# Elastic Constant Matrix: (Units=GPa)
#
#
# Indices 1 2 3 4 5 6 
#
# 1 102.8160 34.9150 37.1822 -4.3563 11.8116 -7.3650
# 2 34.9150 56.8929 32.1868 -7.3982 -3.9739 -3.8754
# 3 37.1822 32.1868 124.4289 3.3558 12.5754 -2.1363
# 4 -4.3563 -7.3982 3.3558 23.9894 -12.1036 2.5454
# 5 11.8116 -3.9739 12.5754 -12.1036 52.8385 -3.5252
# 6 -7.3650 -3.8754 -2.1363 2.5454 -3.5252 7.9274
#
#
#
# Elastic Compliance Matrix: (Units=1/GPa)
#
#
# Indices 1 2 3 4 5 6 
#
# 1 0.013683 -0.007394 -0.001669 -0.001986 -0.003146 0.007886
# 2 -0.007394 0.028020 -0.006103 0.011776 0.008248 0.005071
# 3 -0.001669 -0.006103 0.010637 -0.005509 -0.003991 -0.001673
# 4 -0.001986 0.011776 -0.005509 0.053902 0.014423 -0.008467
# 5 -0.003146 0.008248 -0.003991 0.014423 0.024936 0.006491
# 6 0.007886 0.005071 -0.001673 -0.008467 0.006491 0.141104
#
#
# Mechanical properties :
#
#
# Convention : Reuss Voigt Hill
#
# Bulk Modulus (GPa) = 45.43657 54.74509 50.09083
# Shear Modulus (GPa) = 16.13166 28.94132 22.53649
#
# Velocity S-wave (km/s) = 2.74039 3.67056 3.23904
# Velocity P-wave (km/s) = 5.58256 6.59161 6.10796
#
# Compressibility (1/GPa) = 0.02200870
#
# Stress axis : x y z
#
# Youngs Moduli (GPa) = 73.08483 35.68916 94.00797
#
# Poissons Ratio (x) = 0.26387 0.15692
# Poissons Ratio (y) = 0.54035 0.57371
# Poissons Ratio (z) = 0.12200 0.21780
#
# Static dielectric constant tensor:
#      x y z
#    x 4.381760 -0.110030 0.501620 
#    y -0.110030 3.499410 -0.069650 
#    z 0.501620 -0.069650 4.438110 
# 
# 
# High freq. dielectric constant tensor:
#      x y z
#    x 1.858470 -0.000500 0.007500 
#    y -0.000500 1.802590 0.000770 
#    z 0.007500 0.000770 1.871190 
# 
# From -- ./inp_files/617703.got.cif
#   From: 2010.06.25/outbox.cif.g09.slc.cpg/sg2_309_cif.got.tgz:617703.got - 2010.06.27 13:26:56.
