data_PCOD8004058
_publ_section_title
;
Structure prediction by ZEFSAII (Michael W. Deem and Ramdas Pophale) SiO2 
 PCOD8004058
Probable space group: P -1
;
_chemical_formula_sum "Si O2"
_cell_formula_units_Z 16
_cell_length_a 27.227958
_cell_length_b 8.352970
_cell_length_c 12.444659
_cell_angle_alpha 50.528591
_cell_angle_beta 159.635655
_cell_angle_gamma 129.536270
_cell_volume 751.570406
_symmetry_space_group_name_H-M "P -1"
_symmetry_group_IT_number 2
_symmetry_cell_setting 'triclinic'
loop_
_space_group_symop_operation_xyz
x,y,z
-x,-y,-z
loop_
_atom_site_type_symbol
_atom_site_label
_atom_site_fract_x
_atom_site_fract_y
_atom_site_fract_z
Si Si1 0.281122 0.281208 0.257155
Si Si2 0.220687 0.595391 0.435767
Si Si3 0.144121 0.514994 0.720115
Si Si4 0.524917 0.038855 0.160674
Si Si5 0.042053 0.915667 0.851352
Si Si6 0.062846 0.386471 0.392744
Si Si7 0.789465 0.019016 0.404885
Si Si8 0.832047 0.660599 0.776260
O O1 0.415962 0.159263 0.578395
O O2 0.271815 0.367753 0.321434
O O3 0.280053 0.475480 0.089329
O O4 0.139897 0.131146 0.987820
O O5 0.187128 0.441884 0.534338
O O6 0.239299 0.466421 0.419664
O O7 0.367012 0.749234 0.690227
O O8 0.087637 0.727290 0.097935
O O9 0.122395 0.345186 0.650689
O O10 0.000000 0.500000 0.500000
O O11 0.185722 0.730908 0.648322
O O12 0.500000 0.000000 0.000000
O O13 0.379513 0.064035 0.913005
O O14 0.042769 0.826645 0.768490
O O15 0.876783 0.942154 0.517697
O O16 0.977274 0.584299 0.142897
O O17 0.852604 0.911607 0.685203
#
# Coordination Sequence:
#
# PCOD8004058 Si02
#       8
#     2   2   2   2   2   2   2   2
#     4  11  24  43  61  92 128 166 202 253 312 363
#     4  10  21  38  62  99 123 154 206 262 312 349
#     4  12  25  39  62  93 126 165 204 251 310 374
#     4  11  24  40  63  93 122 163 207 256 305 364
#     4  10  20  37  63  92 122 157 206 260 303 353
#     4  11  20  37  63  99 124 155 205 260 313 357
#     4  12  22  40  61  93 120 165 206 249 302 363
#     4  11  20  38  68  93 126 157 208 265 298 358
#
# _framework density 21.288758000000001
#
# number of rings (size 3 to 8) (size 9 to 14) (size 15 to 20)
#    0.000    1.000    6.250    1.500    1.750    2.500 
#    0.000    0.000    0.000    1.500    0.000    0.000 
#    0.000    0.000    0.000    0.000    0.000    0.000 
#
# Total GULP energy -198232.076277 kJ/mol
# GULP energy per Si atom -12389.504767 kJ/mol
# Density = 2.124030 g / cm^3
# Si number density = 21.288758 Si / 1000 Ang^3
#
#
#
# Elastic Constant Matrix: (Units=GPa)
#
#
# Indices 1 2 3 4 5 6 
#
# 1 98.3072 26.2093 39.3992 6.5907 -15.6551 -17.5812
# 2 26.2093 70.8213 29.0288 4.3101 -3.9845 -10.8673
# 3 39.3992 29.0288 104.7168 -11.9071 7.2229 -5.1296
# 4 6.5907 4.3101 -11.9071 28.6929 0.8489 -2.5663
# 5 -15.6551 -3.9845 7.2229 0.8489 42.7721 2.7107
# 6 -17.5812 -10.8673 -5.1296 -2.5663 2.7107 18.5386
#
#
#
# Elastic Compliance Matrix: (Units=1/GPa)
#
#
# Indices 1 2 3 4 5 6 
#
# 1 0.016456 -0.000999 -0.006408 -0.005444 0.006388 0.011560
# 2 -0.000999 0.017923 -0.004781 -0.003831 0.001715 0.007455
# 3 -0.006408 -0.004781 0.014412 0.008055 -0.005193 -0.003018
# 4 -0.005444 -0.003831 0.008055 0.040251 -0.004576 0.001061
# 5 0.006388 0.001715 -0.005193 -0.004576 0.026777 0.001077
# 6 0.011560 0.007455 -0.003018 0.001061 0.001077 0.068429
#
#
# Mechanical properties :
#
#
# Convention : Reuss Voigt Hill
#
# Bulk Modulus (GPa) = 40.95839 51.45775 46.20807
# Shear Modulus (GPa) = 23.06657 29.94792 26.50725
#
# Velocity S-wave (km/s) = 3.29524 3.75473 3.53247
# Velocity P-wave (km/s) = 5.81028 6.55905 6.19599
#
# Compressibility (1/GPa) = 0.02441502
#
# Stress axis : x y z
#
# Youngs Moduli (GPa) = 60.76682 55.79371 69.38510
#
# Poissons Ratio (x) = 0.05573 0.44462
# Poissons Ratio (y) = 0.06070 0.33176
# Poissons Ratio (z) = 0.38940 0.26677
#
# Static dielectric constant tensor:
#      x y z
#    x 3.759840 -0.102610 -0.097700 
#    y -0.102610 4.015450 -0.262850 
#    z -0.097700 -0.262850 3.901950 
# 
# 
# High freq. dielectric constant tensor:
#      x y z
#    x 1.824110 -0.017150 -0.008900 
#    y -0.017150 1.833250 -0.016180 
#    z -0.008900 -0.016180 1.821010 
# 
# From -- ./inp_files/392330.got.cif
#   From: 2010.06.25/outbox.cif.g09.slc.cpg/sg2_197_cif.got.tgz:392330.got - 2010.06.27 13:26:56.
