data_PCOD8004142
_publ_section_title
;
Structure prediction by ZEFSAII (Michael W. Deem and Ramdas Pophale) SiO2 
 PCOD8004142
Probable space group: P -1
;
_chemical_formula_sum "Si O2"
_cell_formula_units_Z 16
_cell_length_a 11.678677
_cell_length_b 10.829819
_cell_length_c 14.494926
_cell_angle_alpha 149.530002
_cell_angle_beta 118.650630
_cell_angle_gamma 52.534946
_cell_volume 733.289768
_symmetry_space_group_name_H-M "P -1"
_symmetry_group_IT_number 2
_symmetry_cell_setting 'triclinic'
loop_
_space_group_symop_operation_xyz
x,y,z
-x,-y,-z
loop_
_atom_site_type_symbol
_atom_site_label
_atom_site_fract_x
_atom_site_fract_y
_atom_site_fract_z
Si Si1 0.704209 0.330590 0.515484
Si Si2 0.857982 0.139951 0.632644
Si Si3 0.801714 0.765075 0.636081
Si Si4 0.926313 0.568854 0.366753
Si Si5 0.882035 0.903030 0.179625
Si Si6 0.896498 0.243814 0.983002
Si Si7 0.291775 0.397849 0.012501
Si Si8 0.531264 0.868050 0.708310
O O1 0.836803 0.223082 0.570462
O O2 0.623963 0.655861 0.687544
O O3 0.591547 0.214474 0.430832
O O4 0.768106 0.209771 0.361237
O O5 0.986936 0.199059 0.761591
O O6 0.886749 0.831571 0.457914
O O7 0.713508 0.343930 0.765634
O O8 0.821264 0.640708 0.461050
O O9 0.634899 0.863353 0.662096
O O10 0.908207 0.537947 0.602322
O O11 0.838730 0.018653 0.817555
O O12 0.911665 0.334927 0.150798
O O13 0.798896 0.718108 0.035534
O O14 0.946067 0.887939 0.092022
O O15 0.782126 0.507908 0.055243
O O16 0.456666 0.170435 0.916828
#
# Coordination Sequence:
#
# PCOD8004142 Si02
#       8
#     2   2   2   2   2   2   2   2
#     4  10  22  40  64  92 123 166 209 254 314 371
#     4  11  20  39  64  95 121 161 213 260 311 361
#     4  11  24  43  64  92 128 166 204 261 308 374
#     4  11  23  41  67  95 124 160 213 257 316 364
#     4  10  20  37  64  93 127 155 205 271 307 361
#     4  11  22  42  64  96 124 162 209 261 312 364
#     4  10  22  40  59  93 132 162 207 258 306 376
#     4  10  23  42  60  87 130 169 202 255 310 372
#
# _framework density 21.819476999999999
#
# number of rings (size 3 to 8) (size 9 to 14) (size 15 to 20)
#    0.000    1.500    2.500    4.500    1.750    4.000 
#    2.250    2.500    0.000    0.000    0.000    0.000 
#    0.000    0.000    0.000    0.000    0.000    0.000 
#
# Total GULP energy -198372.865127 kJ/mol
# GULP energy per Si atom -12398.304070 kJ/mol
# Density = 2.176982 g / cm^3
# Si number density = 21.819477 Si / 1000 Ang^3
#
#
#
# Elastic Constant Matrix: (Units=GPa)
#
#
# Indices 1 2 3 4 5 6 
#
# 1 130.0646 18.4073 58.2111 4.2613 -24.1366 -6.0772
# 2 18.4073 71.0485 35.8679 11.9377 -13.0032 7.6109
# 3 58.2111 35.8679 134.5537 0.1160 -31.7403 1.4590
# 4 4.2613 11.9377 0.1160 43.1593 -3.3533 -9.6738
# 5 -24.1366 -13.0032 -31.7403 -3.3533 29.8972 3.1947
# 6 -6.0772 7.6109 1.4590 -9.6738 3.1947 19.3857
#
#
#
# Elastic Compliance Matrix: (Units=1/GPa)
#
#
# Indices 1 2 3 4 5 6 
#
# 1 0.010149 -0.000562 -0.003297 0.000168 0.004141 0.003052
# 2 -0.000562 0.019542 -0.003772 -0.007716 0.004474 -0.012152
# 3 -0.003297 -0.003772 0.011914 0.001789 0.008651 -0.000982
# 4 0.000168 -0.007716 0.001789 0.029214 0.000085 0.017512
# 5 0.004141 0.004474 0.008651 0.000085 0.048907 -0.009127
# 6 0.003052 -0.012152 -0.000982 0.017512 -0.009127 0.067629
#
#
# Mechanical properties :
#
#
# Convention : Reuss Voigt Hill
#
# Bulk Modulus (GPa) = 37.96259 62.29327 50.12793
# Shear Modulus (GPa) = 23.65196 33.36715 28.50955
#
# Velocity S-wave (km/s) = 3.29596 3.91479 3.61863
# Velocity P-wave (km/s) = 5.64985 7.00325 6.36263
#
# Compressibility (1/GPa) = 0.02634172
#
# Stress axis : x y z
#
# Youngs Moduli (GPa) = 98.52777 51.17217 83.93509
#
# Poissons Ratio (x) = 0.02876 0.27676
# Poissons Ratio (y) = 0.05538 0.31663
# Poissons Ratio (z) = 0.32488 0.19304
#
# Static dielectric constant tensor:
#      x y z
#    x 3.808840 -0.063660 -0.270180 
#    y -0.063660 3.889190 0.342020 
#    z -0.270180 0.342020 4.133000 
# 
# 
# High freq. dielectric constant tensor:
#      x y z
#    x 1.843890 0.005810 -0.013550 
#    y 0.005810 1.843310 0.025710 
#    z -0.013550 0.025710 1.867320 
# 
# From -- ./inp_files/519396.got.cif
#   From: 2010.06.25/outbox.cif.g09.slc.cpg/sg2_260_cif.got.tgz:519396.got - 2010.06.27 13:26:56.
