data_PCOD8004196
_publ_section_title
;
Structure prediction by ZEFSAII (Michael W. Deem and Ramdas Pophale) SiO2 
 PCOD8004196
Probable space group: P -1
;
_chemical_formula_sum "Si O2"
_cell_formula_units_Z 16
_cell_length_a 7.414197
_cell_length_b 17.177068
_cell_length_c 8.722342
_cell_angle_alpha 64.989221
_cell_angle_beta 50.665085
_cell_angle_gamma 48.511567
_cell_volume 643.589776
_symmetry_space_group_name_H-M "P -1"
_symmetry_group_IT_number 2
_symmetry_cell_setting 'triclinic'
loop_
_space_group_symop_operation_xyz
x,y,z
-x,-y,-z
loop_
_atom_site_type_symbol
_atom_site_label
_atom_site_fract_x
_atom_site_fract_y
_atom_site_fract_z
Si Si1 0.492021 0.254474 0.182366
Si Si2 0.054618 0.752490 0.841179
Si Si3 0.425634 0.610672 0.504430
Si Si4 0.959539 0.419527 0.499711
Si Si5 0.048129 0.083112 0.468807
Si Si6 0.810349 0.228997 0.737902
Si Si7 0.556500 0.888602 0.472287
Si Si8 0.270531 0.274482 0.709978
O O1 0.725503 0.253064 0.156780
O O2 0.194366 0.361342 0.288958
O O3 0.477912 0.155247 0.311375
O O4 0.567521 0.249882 0.967313
O O5 0.206355 0.653672 0.727363
O O6 0.898082 0.860036 0.742128
O O7 0.821306 0.749362 0.062918
O O8 0.252372 0.661832 0.391286
O O9 0.619850 0.654226 0.373142
O O10 0.656987 0.484157 0.510545
O O11 0.005761 0.337074 0.677088
O O12 0.000000 0.500000 0.500000
O O13 0.799015 0.167336 0.646160
O O14 0.342743 0.014329 0.467860
O O15 0.000000 0.000000 0.500000
O O16 0.120908 0.152480 0.704925
O O17 0.487796 0.831961 0.420406
#
# Coordination Sequence:
#
# PCOD8004196 Si02
#       8
#     2   2   2   2   2   2   2   2
#     4  11  21  40  62  90 128 162 201 257 312 353
#     4  11  20  38  65  89 121 164 203 254 306 364
#     4  10  21  42  59  94 128 160 210 254 298 365
#     4   9  18  38  66  91 124 163 204 258 297 362
#     4  11  23  43  65  91 122 162 208 257 303 367
#     4  11  25  39  63  90 127 162 199 257 314 363
#     4  11  21  41  62  89 127 161 202 255 313 360
#     4  10  20  37  65  91 119 167 204 254 304 361
#
# _framework density 24.86056
#
# number of rings (size 3 to 8) (size 9 to 14) (size 15 to 20)
#    0.000    1.500    6.250    1.125    0.000    4.000 
#    0.000    2.500    0.000    0.000    0.000    0.000 
#    0.000    0.000    0.000    0.000    0.000    0.000 
#
# Total GULP energy -198397.014406 kJ/mol
# GULP energy per Si atom -12399.813400 kJ/mol
# Density = 2.480398 g / cm^3
# Si number density = 24.860560 Si / 1000 Ang^3
#
#
#
# Elastic Constant Matrix: (Units=GPa)
#
#
# Indices 1 2 3 4 5 6 
#
# 1 75.9481 26.7551 17.0870 -4.2562 19.3564 -13.7851
# 2 26.7551 204.6289 83.5302 -2.0656 9.7279 -5.6986
# 3 17.0870 83.5302 221.3346 -1.2279 12.5396 5.2591
# 4 -4.2562 -2.0656 -1.2279 24.6136 -2.6183 0.5006
# 5 19.3564 9.7279 12.5396 -2.6183 29.8093 -5.6516
# 6 -13.7851 -5.6986 5.2591 0.5006 -5.6516 31.9871
#
#
#
# Elastic Compliance Matrix: (Units=1/GPa)
#
#
# Indices 1 2 3 4 5 6 
#
# 1 0.017266 -0.001493 -0.000361 0.001733 -0.009368 0.005552
# 2 -0.001493 0.005986 -0.002167 0.000129 0.000089 0.000793
# 3 -0.000361 -0.002167 0.005502 -0.000117 -0.001714 -0.001747
# 4 0.001733 0.000129 -0.000117 0.041198 0.002615 0.000606
# 5 -0.009368 0.000089 -0.001714 0.002615 0.041215 0.003502
# 6 0.005552 0.000793 -0.001747 0.000606 0.003502 0.034693
#
#
# Mechanical properties :
#
#
# Convention : Reuss Voigt Hill
#
# Bulk Modulus (GPa) = 48.28068 84.07292 66.17680
# Shear Modulus (GPa) = 31.09332 42.25131 36.67231
#
# Velocity S-wave (km/s) = 3.54037 4.12701 3.84490
# Velocity P-wave (km/s) = 6.01457 7.52335 6.81087
#
# Compressibility (1/GPa) = 0.02071222
#
# Stress axis : x y z
#
# Youngs Moduli (GPa) = 57.91595 167.06308 181.76190
#
# Poissons Ratio (x) = 0.24937 0.06566
# Poissons Ratio (y) = 0.08645 0.39387
# Poissons Ratio (z) = 0.02092 0.36201
#
# Static dielectric constant tensor:
#      x y z
#    x 5.410220 -0.419230 0.375710 
#    y -0.419230 5.440410 -0.176840 
#    z 0.375710 -0.176840 4.519740 
# 
# 
# High freq. dielectric constant tensor:
#      x y z
#    x 2.049480 0.001990 0.014160 
#    y 0.001990 2.021620 -0.007140 
#    z 0.014160 -0.007140 1.957810 
# 
# From -- ./inp_files/214618.got.cif
#   From: 2010.06.25/outbox.cif.g09.slc.cpg/sg2_108_cif.got.tgz:214618.got - 2010.06.27 13:26:56.
