data_PCOD8004052
_publ_section_title
;
Structure prediction by ZEFSAII (Michael W. Deem and Ramdas Pophale) SiO2 
 PCOD8004052
Probable space group: P -1
;
_chemical_formula_sum "Si O2"
_cell_formula_units_Z 14
_cell_length_a 8.758743
_cell_length_b 11.521016
_cell_length_c 16.848755
_cell_angle_alpha 44.785781
_cell_angle_beta 140.379734
_cell_angle_gamma 106.532464
_cell_volume 620.248561
_symmetry_space_group_name_H-M "P -1"
_symmetry_group_IT_number 2
_symmetry_cell_setting 'triclinic'
loop_
_space_group_symop_operation_xyz
x,y,z
-x,-y,-z
loop_
_atom_site_type_symbol
_atom_site_label
_atom_site_fract_x
_atom_site_fract_y
_atom_site_fract_z
Si Si1 0.183866 0.074616 0.368838
Si Si2 0.979441 0.755383 0.070048
Si Si3 0.818327 0.281293 0.411714
Si Si4 0.574703 0.222109 0.679094
Si Si5 0.255921 0.287952 0.673050
Si Si6 0.963200 0.623397 0.702679
Si Si7 0.701842 0.284062 0.943029
O O1 0.033107 0.275935 0.263903
O O2 0.500000 0.000000 0.500000
O O3 0.239542 0.889841 0.534075
O O4 0.961229 0.129745 0.180899
O O5 0.175370 0.736476 0.234649
O O6 0.852565 0.620966 0.096320
O O7 0.157391 0.691271 0.090452
O O8 0.702031 0.986502 0.845085
O O9 0.523529 0.492627 0.219176
O O10 0.095294 0.183449 0.632687
O O11 0.908423 0.316238 0.345189
O O12 0.366682 0.333777 0.616474
O O13 0.371694 0.311366 0.476400
O O14 0.525609 0.184424 0.895501
O O15 0.000000 0.500000 0.500000
#
# Coordination Sequence:
#
# PCOD8004052 Si02
#       7
#     2   2   2   2   2   2   2
#     4  12  26  41  61  89 124 170 210 247 301 368
#     4  10  20  37  63  92 119 159 205 249 307 359
#     4  10  23  42  63  90 122 161 209 256 308 360
#     4   9  19  36  61  91 122 156 201 252 301 362
#     4   8  17  38  64  90 119 153 197 254 309 354
#     4  11  23  39  61  88 124 161 202 255 302 361
#     4  10  22  41  63  90 123 159 203 255 306 365
#
# _framework density 22.571594000000001
#
# number of rings (size 3 to 8) (size 9 to 14) (size 15 to 20)
#    0.000    2.000    0.000    2.571    0.000    6.857 
#    0.000   20.000    0.000    0.000    0.000    0.000 
#    0.000    0.000    0.000    0.000    0.000    0.000 
#
# Total GULP energy -173440.552302 kJ/mol
# GULP energy per Si atom -12388.610879 kJ/mol
# Density = 2.252022 g / cm^3
# Si number density = 22.571594 Si / 1000 Ang^3
#
#
#
# Elastic Constant Matrix: (Units=GPa)
#
#
# Indices 1 2 3 4 5 6 
#
# 1 98.5999 54.7431 40.8235 -9.0794 -0.0455 4.1682
# 2 54.7431 104.6088 27.4769 -13.5646 -9.2572 7.0140
# 3 40.8235 27.4769 66.7840 12.4173 1.3321 4.5164
# 4 -9.0794 -13.5646 12.4173 41.4624 2.9074 -11.6996
# 5 -0.0455 -9.2572 1.3321 2.9074 27.3327 -5.0021
# 6 4.1682 7.0140 4.5164 -11.6996 -5.0021 33.6529
#
#
#
# Elastic Compliance Matrix: (Units=1/GPa)
#
#
# Indices 1 2 3 4 5 6 
#
# 1 0.018137 -0.006625 -0.009444 0.005323 -0.001961 0.001961
# 2 -0.006625 0.014683 -0.002829 0.003928 0.004720 0.000207
# 3 -0.009444 -0.002829 0.024566 -0.011895 -0.001998 -0.005970
# 4 0.005323 0.003928 -0.011895 0.033429 0.000526 0.011818
# 5 -0.001961 0.004720 -0.001998 0.000526 0.039237 0.005542
# 6 0.001961 0.000207 -0.005970 0.011818 0.005542 0.035163
#
#
# Mechanical properties :
#
#
# Convention : Reuss Voigt Hill
#
# Bulk Modulus (GPa) = 51.05169 57.34217 54.19693
# Shear Modulus (GPa) = 23.86152 30.28623 27.07388
#
# Velocity S-wave (km/s) = 3.25491 3.66701 3.46709
# Velocity P-wave (km/s) = 6.06570 6.58704 6.33173
#
# Compressibility (1/GPa) = 0.01958799
#
# Stress axis : x y z
#
# Youngs Moduli (GPa) = 55.13587 68.10666 40.70664
#
# Poissons Ratio (x) = 0.45124 0.38444
# Poissons Ratio (y) = 0.36530 0.11517
# Poissons Ratio (z) = 0.52071 0.19270
#
# Static dielectric constant tensor:
#      x y z
#    x 4.149930 -0.098000 0.063590 
#    y -0.098000 4.606740 0.399790 
#    z 0.063590 0.399790 4.182900 
# 
# 
# High freq. dielectric constant tensor:
#      x y z
#    x 1.879260 -0.008970 0.016610 
#    y -0.008970 1.901440 0.006710 
#    z 0.016610 0.006710 1.881550 
# 
# From -- ./inp_files/68909.got.cif
#   From: 2010.06.25/outbox.cif.g09.slc.cpg/sg2_35_cif.got.tgz:68909.got - 2010.06.27 13:26:56.
