data_PCOD8004629
_publ_section_title
;
Structure prediction by ZEFSAII (Michael W. Deem and Ramdas Pophale) SiO2 
 PCOD8004629
Probable space group: P -1
;
_chemical_formula_sum "Si O2"
_cell_formula_units_Z 16
_cell_length_a 16.661944
_cell_length_b 6.514802
_cell_length_c 12.717890
_cell_angle_alpha 59.917281
_cell_angle_beta 135.983942
_cell_angle_gamma 130.092433
_cell_volume 731.957220
_symmetry_space_group_name_H-M "P -1"
_symmetry_group_IT_number 2
_symmetry_cell_setting 'triclinic'
loop_
_space_group_symop_operation_xyz
x,y,z
-x,-y,-z
loop_
_atom_site_type_symbol
_atom_site_label
_atom_site_fract_x
_atom_site_fract_y
_atom_site_fract_z
Si Si1 0.581573 0.351225 0.396575
Si Si2 0.853664 0.424858 0.352550
Si Si3 0.793083 0.253421 0.102343
Si Si4 0.205709 0.223335 0.033058
Si Si5 0.044286 0.002650 0.751549
Si Si6 0.245594 0.095134 0.500400
Si Si7 0.421261 0.269793 0.068428
Si Si8 0.328488 0.058936 0.364476
O O1 0.659616 0.674657 0.389281
O O2 0.522875 0.247198 0.251846
O O3 0.471215 0.266634 0.403966
O O4 0.679336 0.230965 0.549693
O O5 0.804410 0.287226 0.228855
O O6 0.854074 0.712641 0.284103
O O7 0.000000 0.500000 0.500000
O O8 0.759573 0.192712 0.404411
O O9 0.920161 0.225343 0.194868
O O10 0.798041 0.518426 0.985423
O O11 0.657779 0.006150 0.999595
O O12 0.323392 0.333448 0.029794
O O13 0.221206 0.035039 0.183509
O O14 0.069296 0.044013 0.890065
O O15 0.895107 0.919698 0.610614
O O16 0.298041 0.175144 0.411546
O O17 0.500000 0.500000 0.000000
#
# Coordination Sequence:
#
# PCOD8004629 Si02
#       8
#     2   2   2   2   2   2   2   2
#     4  10  23  40  59  86 118 155 198 241 291 344
#     4   9  20  36  57  89 120 147 186 235 290 350
#     4  10  20  38  61  81 118 157 186 238 300 344
#     4   9  21  40  59  83 116 154 194 242 293 340
#     4   9  21  39  60  90 119 150 192 240 295 351
#     4  11  22  36  61  88 116 157 195 234 293 353
#     4  10  21  37  60  89 116 148 196 245 290 347
#     4  10  23  41  58  81 119 156 199 249 284 335
#
# _framework density 21.859200000000001
#
# number of rings (size 3 to 8) (size 9 to 14) (size 15 to 20)
#    0.000    2.250    0.000    1.125    0.000   16.000 
#    0.000    1.250    0.000    0.000    0.000    0.000 
#    0.000    0.000    0.000    0.000    0.000    0.000 
#
# Total GULP energy -198298.819857 kJ/mol
# GULP energy per Si atom -12393.676241 kJ/mol
# Density = 2.180945 g / cm^3
# Si number density = 21.859200 Si / 1000 Ang^3
#
#
#
# Elastic Constant Matrix: (Units=GPa)
#
#
# Indices 1 2 3 4 5 6 
#
# 1 65.0366 29.3607 22.3320 -4.9737 -9.1852 -4.8611
# 2 29.3607 90.1258 36.7346 -0.4128 -1.5310 -5.6223
# 3 22.3320 36.7346 122.2752 -6.6406 -8.1886 1.7043
# 4 -4.9737 -0.4128 -6.6406 38.2110 -5.6997 5.0144
# 5 -9.1852 -1.5310 -8.1886 -5.6997 26.5882 -3.8067
# 6 -4.8611 -5.6223 1.7043 5.0144 -3.8067 25.1604
#
#
#
# Elastic Compliance Matrix: (Units=1/GPa)
#
#
# Indices 1 2 3 4 5 6 
#
# 1 0.019838 -0.005578 -0.001349 0.002944 0.007203 0.003181
# 2 -0.005578 0.014494 -0.003621 -0.001855 -0.002257 0.002435
# 3 -0.001349 -0.003621 0.009822 0.002105 0.002548 -0.001769
# 4 0.002944 -0.001855 0.002105 0.028552 0.007018 -0.004617
# 5 0.007203 -0.002257 0.002548 0.007018 0.043094 0.005836
# 6 0.003181 0.002435 -0.001769 -0.004617 0.005836 0.042826
#
#
# Mechanical properties :
#
#
# Convention : Reuss Voigt Hill
#
# Bulk Modulus (GPa) = 43.37277 50.47690 46.92484
# Shear Modulus (GPa) = 26.67948 30.59263 28.63605
#
# Velocity S-wave (km/s) = 3.49738 3.74509 3.62335
# Velocity P-wave (km/s) = 6.01613 6.46861 6.24647
#
# Compressibility (1/GPa) = 0.02305594
#
# Stress axis : x y z
#
# Youngs Moduli (GPa) = 50.40874 68.99403 101.80962
#
# Poissons Ratio (x) = 0.38488 0.13737
# Poissons Ratio (y) = 0.28120 0.36869
# Poissons Ratio (z) = 0.06801 0.24985
#
# Static dielectric constant tensor:
#      x y z
#    x 3.695090 -0.088000 0.099320 
#    y -0.088000 4.038750 -0.189860 
#    z 0.099320 -0.189860 4.371750 
# 
# 
# High freq. dielectric constant tensor:
#      x y z
#    x 1.839290 -0.006110 0.006250 
#    y -0.006110 1.851300 -0.000530 
#    z 0.006250 -0.000530 1.878910 
# 
# From -- ./inp_files/364102.got.cif
#   From: 2010.06.25/outbox.cif.g09.slc.cpg/sg2_183_cif.got.tgz:364102.got - 2010.06.27 13:26:56.
