data_PCOD8004421
_publ_section_title
;
Structure prediction by ZEFSAII (Michael W. Deem and Ramdas Pophale) SiO2 
 PCOD8004421
Probable space group: P -1
;
_chemical_formula_sum "Si O2"
_cell_formula_units_Z 14
_cell_length_a 8.254745
_cell_length_b 24.740826
_cell_length_c 9.215814
_cell_angle_alpha 46.161705
_cell_angle_beta 61.230482
_cell_angle_gamma 33.222360
_cell_volume 720.510118
_symmetry_space_group_name_H-M "P -1"
_symmetry_group_IT_number 2
_symmetry_cell_setting 'triclinic'
loop_
_space_group_symop_operation_xyz
x,y,z
-x,-y,-z
loop_
_atom_site_type_symbol
_atom_site_label
_atom_site_fract_x
_atom_site_fract_y
_atom_site_fract_z
Si Si1 0.978060 0.258947 0.966410
Si Si2 0.142060 0.103227 0.943155
Si Si3 0.731797 0.697143 0.134214
Si Si4 0.599451 0.499712 0.805924
Si Si5 0.924574 0.134117 0.410748
Si Si6 0.271880 0.749167 0.412990
Si Si7 0.262584 0.880296 0.759285
O O1 0.658917 0.407796 0.847957
O O2 0.970787 0.226483 0.870123
O O3 0.260911 0.225419 0.927404
O O4 0.029519 0.178943 0.215236
O O5 0.039920 0.138949 0.752473
O O6 0.034211 0.060268 0.142768
O O7 0.500000 0.000000 0.000000
O O8 0.557611 0.693248 0.312580
O O9 0.078753 0.558568 0.209271
O O10 0.570147 0.760138 0.932353
O O11 0.338635 0.638924 0.600318
O O12 0.500000 0.500000 0.000000
O O13 0.758066 0.202657 0.507277
O O14 0.700942 0.163814 0.337758
O O15 0.215372 0.985325 0.583934
#
# Coordination Sequence:
#
# PCOD8004421 Si02
#       7
#     2   2   2   2   2   2   2
#     4   9  21  39  59  81 125 145 197 236 288 337
#     4  10  23  39  57  92 117 153 190 242 286 353
#     4   9  21  37  61  83 114 153 189 243 283 340
#     4  10  20  40  59  87 115 153 196 239 281 349
#     4  10  20  38  58  86 115 157 188 238 290 350
#     4  11  21  37  64  83 118 152 197 234 293 333
#     4   9  21  39  57  82 124 148 195 236 292 343
#
# _framework density 19.430678
#
# number of rings (size 3 to 8) (size 9 to 14) (size 15 to 20)
#    0.857    1.429    1.429    0.429    4.000    2.286 
#   12.857    0.714    0.000    0.000    0.000    0.000 
#    0.000    0.000    0.000    0.000    0.000    0.000 
#
# Total GULP energy -173486.738901 kJ/mol
# GULP energy per Si atom -12391.909922 kJ/mol
# Density = 1.938645 g / cm^3
# Si number density = 19.430678 Si / 1000 Ang^3
#
#
#
# Elastic Constant Matrix: (Units=GPa)
#
#
# Indices 1 2 3 4 5 6 
#
# 1 61.7772 23.4775 34.7260 -0.6957 -3.7413 10.4427
# 2 23.4775 73.9032 31.6974 -0.8890 4.0505 15.0689
# 3 34.7260 31.6974 113.0012 -4.0088 1.6281 13.5475
# 4 -0.6957 -0.8890 -4.0088 27.0422 7.7834 -1.1770
# 5 -3.7413 4.0505 1.6281 7.7834 32.7605 -1.3598
# 6 10.4427 15.0689 13.5475 -1.1770 -1.3598 41.1916
#
#
#
# Elastic Compliance Matrix: (Units=1/GPa)
#
#
# Indices 1 2 3 4 5 6 
#
# 1 0.021286 -0.004333 -0.005184 -0.001455 0.003486 -0.002033
# 2 -0.004333 0.017197 -0.002913 0.000643 -0.002808 -0.004309
# 3 -0.005184 -0.002913 0.011509 0.001786 -0.001286 -0.001397
# 4 -0.001455 0.000643 0.001786 0.040076 -0.009841 0.000367
# 5 0.003486 -0.002808 -0.001286 -0.009841 0.033730 0.001399
# 6 -0.002033 -0.004309 -0.001397 0.000367 0.001399 0.026885
#
#
# Mechanical properties :
#
#
# Convention : Reuss Voigt Hill
#
# Bulk Modulus (GPa) = 39.78762 47.60926 43.69844
# Shear Modulus (GPa) = 27.18584 30.78426 28.98505
#
# Velocity S-wave (km/s) = 3.74454 3.98466 3.86646
# Velocity P-wave (km/s) = 6.26231 6.76205 6.51697
#
# Compressibility (1/GPa) = 0.02513345
#
# Stress axis : x y z
#
# Youngs Moduli (GPa) = 46.97873 58.14942 86.88892
#
# Poissons Ratio (x) = 0.25194 0.45045
# Poissons Ratio (y) = 0.20354 0.25307
# Poissons Ratio (z) = 0.24355 0.16936
#
# Static dielectric constant tensor:
#      x y z
#    x 3.536700 0.194810 -0.094720 
#    y 0.194810 3.395540 0.032950 
#    z -0.094720 0.032950 3.628470 
# 
# 
# High freq. dielectric constant tensor:
#      x y z
#    x 1.747680 0.014010 -0.007860 
#    y 0.014010 1.737840 0.003630 
#    z -0.007860 0.003630 1.767120 
# 
# From -- ./inp_files/227036.got.cif
#   From: 2010.06.25/outbox.cif.g09.slc.cpg/sg2_114_cif.got.tgz:227036.got - 2010.06.27 13:26:56.
