data_PCOD8004861
_publ_section_title
;
Structure prediction by ZEFSAII (Michael W. Deem and Ramdas Pophale) SiO2 
 PCOD8004861
Probable space group: P -1
;
_chemical_formula_sum "Si O2"
_cell_formula_units_Z 16
_cell_length_a 8.896904
_cell_length_b 23.792078
_cell_length_c 9.529873
_cell_angle_alpha 150.481871
_cell_angle_beta 115.661047
_cell_angle_gamma 51.584568
_cell_volume 747.845706
_symmetry_space_group_name_H-M "P -1"
_symmetry_group_IT_number 2
_symmetry_cell_setting 'triclinic'
loop_
_space_group_symop_operation_xyz
x,y,z
-x,-y,-z
loop_
_atom_site_type_symbol
_atom_site_label
_atom_site_fract_x
_atom_site_fract_y
_atom_site_fract_z
Si Si1 0.088566 0.393886 0.115888
Si Si2 0.208837 0.803288 0.666430
Si Si3 0.288625 0.539542 0.056718
Si Si4 0.564184 0.749295 0.514158
Si Si5 0.809565 0.973954 0.719850
Si Si6 0.861514 0.948974 0.372873
Si Si7 0.124663 0.305860 0.252927
Si Si8 0.422499 0.147166 0.543589
O O1 0.161093 0.326879 0.152396
O O2 0.049369 0.546283 0.432663
O O3 0.266248 0.297147 0.870014
O O4 0.885468 0.403113 0.008524
O O5 0.236597 0.659353 0.407317
O O6 0.342704 0.792937 0.564466
O O7 0.979302 0.897292 0.737264
O O8 0.257349 0.867167 0.957383
O O9 0.500000 0.500000 0.000000
O O10 0.316505 0.403811 0.839052
O O11 0.672871 0.751618 0.703183
O O12 0.564235 0.845458 0.603683
O O13 0.886065 0.906983 0.454245
O O14 0.630573 0.962111 0.675065
O O15 0.641206 0.082114 0.552119
O O16 0.921851 0.812382 0.013045
O O17 0.000000 0.000000 0.500000
#
# Coordination Sequence:
#
# PCOD8004861 Si02
#       8
#     2   2   2   2   2   2   2   2
#     4  10  21  41  67  98 122 171 213 264 313 384
#     4  10  20  38  62  96 126 165 211 259 318 379
#     4   9  18  38  63  92 127 165 207 257 319 376
#     4  10  23  38  65  96 127 167 209 266 317 377
#     4  11  23  39  65  90 128 168 213 263 313 385
#     4  12  26  44  64  91 132 172 213 265 326 378
#     4  10  22  42  68  91 129 169 218 255 325 379
#     4  12  24  41  67  95 133 164 219 267 316 375
#
# _framework density 21.394788999999999
#
# number of rings (size 3 to 8) (size 9 to 14) (size 15 to 20)
#    0.000    1.500    2.500    1.875    1.750    7.000 
#    2.250    0.625    0.000    0.000    0.000    0.000 
#    0.000    0.000    0.000    0.000    0.000    0.000 
#
# Total GULP energy -198244.150022 kJ/mol
# GULP energy per Si atom -12390.259376 kJ/mol
# Density = 2.134609 g / cm^3
# Si number density = 21.394789 Si / 1000 Ang^3
#
#
#
# Elastic Constant Matrix: (Units=GPa)
#
#
# Indices 1 2 3 4 5 6 
#
# 1 102.0740 35.0239 35.1100 -2.7734 18.8976 -14.9809
# 2 35.0239 60.4383 14.7734 -4.8664 3.9933 -11.7862
# 3 35.1100 14.7734 159.6522 12.0344 24.1477 -12.2131
# 4 -2.7734 -4.8664 12.0344 24.0652 1.6505 -2.5181
# 5 18.8976 3.9933 24.1477 1.6505 33.1048 3.8406
# 6 -14.9809 -11.7862 -12.2131 -2.5181 3.8406 31.3798
#
#
#
# Elastic Compliance Matrix: (Units=1/GPa)
#
#
# Indices 1 2 3 4 5 6 
#
# 1 0.014635 -0.006527 -0.001268 0.002038 -0.007335 0.005103
# 2 -0.006527 0.021785 -0.000642 0.004454 0.000754 0.005082
# 3 -0.001268 -0.000642 0.007824 -0.003580 -0.005021 0.002526
# 4 0.002038 0.004454 -0.003580 0.045147 -0.001933 0.005112
# 5 -0.007335 0.000754 -0.005021 -0.001933 0.039237 -0.010130
# 6 0.005103 0.005082 0.002526 0.005112 -0.010130 0.038846
#
#
# Mechanical properties :
#
#
# Convention : Reuss Voigt Hill
#
# Bulk Modulus (GPa) = 36.53573 54.66436 45.60005
# Shear Modulus (GPa) = 25.84364 33.52710 29.68537
#
# Velocity S-wave (km/s) = 3.47931 3.96292 3.72896
# Velocity P-wave (km/s) = 5.76670 6.82242 6.31665
#
# Compressibility (1/GPa) = 0.02737047
#
# Stress axis : x y z
#
# Youngs Moduli (GPa) = 68.32941 45.90357 127.80622
#
# Poissons Ratio (x) = 0.29961 0.16209
# Poissons Ratio (y) = 0.44599 0.08200
# Poissons Ratio (z) = 0.08666 0.02945
#
# Static dielectric constant tensor:
#      x y z
#    x 3.549660 -0.176290 0.257150 
#    y -0.176290 3.824380 0.210680 
#    z 0.257150 0.210680 4.981910 
# 
# 
# High freq. dielectric constant tensor:
#      x y z
#    x 1.815260 -0.021130 0.012750 
#    y -0.021130 1.829410 0.013030 
#    z 0.012750 0.013030 1.865980 
# 
# From -- ./inp_files/222896.got.cif
#   From: 2010.06.25/outbox.cif.g09.slc.cpg/sg2_112_cif.got.tgz:222896.got - 2010.06.27 13:26:56.
