data_PCOD8004079
_publ_section_title
;
Structure prediction by ZEFSAII (Michael W. Deem and Ramdas Pophale) SiO2 
 PCOD8004079
Probable space group: P -1
;
_chemical_formula_sum "Si O2"
_cell_formula_units_Z 16
_cell_length_a 11.558068
_cell_length_b 11.366992
_cell_length_c 9.071992
_cell_angle_alpha 113.932550
_cell_angle_beta 86.966787
_cell_angle_gamma 131.477908
_cell_volume 774.623815
_symmetry_space_group_name_H-M "P -1"
_symmetry_group_IT_number 2
_symmetry_cell_setting 'triclinic'
loop_
_space_group_symop_operation_xyz
x,y,z
-x,-y,-z
loop_
_atom_site_type_symbol
_atom_site_label
_atom_site_fract_x
_atom_site_fract_y
_atom_site_fract_z
Si Si1 0.023060 0.878811 0.011120
Si Si2 0.729906 0.107243 0.474087
Si Si3 0.035367 0.303952 0.366060
Si Si4 0.854959 0.810191 0.486678
Si Si5 0.270098 0.381701 0.878030
Si Si6 0.478295 0.288056 0.796615
Si Si7 0.635209 0.310957 0.518815
Si Si8 0.298126 0.070792 0.327091
O O1 0.024334 0.766666 0.832150
O O2 0.876867 0.738457 0.059648
O O3 0.192914 0.991617 0.144954
O O4 0.000000 0.000000 0.000000
O O5 0.639301 0.172852 0.521338
O O6 0.898632 0.261605 0.455347
O O7 0.622513 0.922719 0.292007
O O8 0.762211 0.082140 0.625759
O O9 0.082355 0.200340 0.371346
O O10 0.192586 0.518114 0.474487
O O11 0.796243 0.649982 0.299704
O O12 0.711672 0.798079 0.525852
O O13 0.000000 0.000000 0.500000
O O14 0.354785 0.308993 0.830849
O O15 0.391800 0.592821 0.018351
O O16 0.582294 0.370300 0.679970
O O17 0.490978 0.199112 0.347547
#
# Coordination Sequence:
#
# PCOD8004079 Si02
#       8
#     2   2   2   2   2   2   2   2
#     4  12  22  37  63  98 137 161 197 269 340 382
#     4  11  22  45  71  83 128 184 218 252 311 390
#     4  12  24  41  64  97 130 165 214 271 325 376
#     4  12  19  38  65  92 129 164 211 255 325 392
#     4  11  20  36  62  96 128 160 207 265 321 386
#     4  10  20  37  63  94 123 160 214 261 316 372
#     4  11  24  43  66  95 127 170 225 265 304 375
#     4  11  22  40  66  97 122 173 214 255 322 389
#
# _framework density 20.655189
#
# number of rings (size 3 to 8) (size 9 to 14) (size 15 to 20)
#    0.000    0.750    7.500    2.625    0.000    0.500 
#    6.750    1.250    5.500    0.000    0.000    0.000 
#    0.000    0.000    0.000    0.000    0.000    0.000 
#
# Total GULP energy -198310.820169 kJ/mol
# GULP energy per Si atom -12394.426261 kJ/mol
# Density = 2.060818 g / cm^3
# Si number density = 20.655189 Si / 1000 Ang^3
#
#
#
# Elastic Constant Matrix: (Units=GPa)
#
#
# Indices 1 2 3 4 5 6 
#
# 1 81.7985 21.8116 43.2086 8.5887 23.0934 -3.1536
# 2 21.8116 90.3882 40.1954 13.0459 16.1399 14.0371
# 3 43.2086 40.1954 120.0132 6.2538 34.8949 6.6343
# 4 8.5887 13.0459 6.2538 24.8776 3.2579 4.8413
# 5 23.0934 16.1399 34.8949 3.2579 30.6766 2.8890
# 6 -3.1536 14.0371 6.6343 4.8413 2.8890 36.0674
#
#
#
# Elastic Compliance Matrix: (Units=1/GPa)
#
#
# Indices 1 2 3 4 5 6 
#
# 1 0.017293 -0.001153 -0.003361 -0.004149 -0.008507 0.003817
# 2 -0.001153 0.014645 -0.003390 -0.005330 -0.002010 -0.004301
# 3 -0.003361 -0.003390 0.014078 0.001087 -0.011743 -0.000769
# 4 -0.004149 -0.005330 0.001087 0.044992 0.000342 -0.004555
# 5 -0.008507 -0.002010 -0.011743 0.000342 0.053583 -0.002139
# 6 0.003817 -0.004301 -0.000769 -0.004555 -0.002139 0.030658
#
#
# Mechanical properties :
#
#
# Convention : Reuss Voigt Hill
#
# Bulk Modulus (GPa) = 33.10428 55.84789 44.47608
# Shear Modulus (GPa) = 24.85996 30.78996 27.82496
#
# Velocity S-wave (km/s) = 3.47301 3.86510 3.67429
# Velocity P-wave (km/s) = 5.66960 6.85679 6.29126
#
# Compressibility (1/GPa) = 0.03020757
#
# Stress axis : x y z
#
# Youngs Moduli (GPa) = 57.82846 68.28182 71.03146
#
# Poissons Ratio (x) = 0.07874 0.23874
# Poissons Ratio (y) = 0.06669 0.24079
# Poissons Ratio (z) = 0.19436 0.23147
#
# Static dielectric constant tensor:
#      x y z
#    x 3.630840 0.542110 0.189860 
#    y 0.542110 3.060220 0.091070 
#    z 0.189860 0.091070 4.145350 
# 
# 
# High freq. dielectric constant tensor:
#      x y z
#    x 1.808980 0.022470 0.006790 
#    y 0.022470 1.794260 0.005610 
#    z 0.006790 0.005610 1.807130 
# 
# From -- ./inp_files/263032.got.cif
#   From: 2010.06.25/outbox.cif.g09.slc.cpg/sg2_132_cif.got.tgz:263032.got - 2010.06.27 13:26:56.
