data_PCOD8004162
_publ_section_title
;
Structure prediction by ZEFSAII (Michael W. Deem and Ramdas Pophale) SiO2 
 PCOD8004162
Probable space group: P -1
;
_chemical_formula_sum "Si O2"
_cell_formula_units_Z 16
_cell_length_a 25.332523
_cell_length_b 13.089025
_cell_length_c 8.269637
_cell_angle_alpha 116.546280
_cell_angle_beta 48.457895
_cell_angle_gamma 154.650510
_cell_volume 772.955087
_symmetry_space_group_name_H-M "P -1"
_symmetry_group_IT_number 2
_symmetry_cell_setting 'triclinic'
loop_
_space_group_symop_operation_xyz
x,y,z
-x,-y,-z
loop_
_atom_site_type_symbol
_atom_site_label
_atom_site_fract_x
_atom_site_fract_y
_atom_site_fract_z
Si Si1 0.091760 0.247895 0.047579
Si Si2 0.222291 0.868181 0.286110
Si Si3 0.929272 0.245071 0.792471
Si Si4 0.204657 0.759084 0.763284
Si Si5 0.540318 0.161712 0.258979
Si Si6 0.977214 0.607741 0.813948
Si Si7 0.532212 0.189795 0.920129
Si Si8 0.919073 0.766836 0.560128
O O1 0.016789 0.246717 0.107349
O O2 0.070272 0.231140 0.269389
O O3 0.288949 0.531325 0.806583
O O4 0.000000 0.000000 0.000000
O O5 0.164667 0.874345 0.270630
O O6 0.135418 0.616246 0.257640
O O7 0.166618 0.839676 0.552955
O O8 0.423536 0.142644 0.060573
O O9 0.109148 0.578096 0.665374
O O10 0.970586 0.174157 0.696607
O O11 0.812153 0.128992 0.090327
O O12 0.396839 0.006362 0.551127
O O13 0.099112 0.540796 0.965218
O O14 0.540971 0.025817 0.182781
O O15 0.503792 0.134880 0.128919
O O16 0.727757 0.487059 0.688551
O O17 0.000000 0.000000 0.500000
#
# Coordination Sequence:
#
# PCOD8004162 Si02
#       8
#     2   2   2   2   2   2   2   2
#     4  11  24  42  61  89 127 171 206 253 309 377
#     4  10  20  37  64  96 122 160 210 259 313 368
#     4  10  21  39  62  94 127 159 208 254 317 365
#     4  10  22  35  63  98 125 158 202 270 312 359
#     4  10  21  38  61  94 131 158 210 260 309 365
#     4  10  21  35  62  92 126 159 206 252 313 364
#     4  10  21  37  67  93 122 165 211 257 311 365
#     4  11  24  45  65  88 126 172 208 250 315 382
#
# _framework density 20.699778999999999
#
# number of rings (size 3 to 8) (size 9 to 14) (size 15 to 20)
#    0.000    1.750    3.750    0.000    8.750    0.500 
#    4.500    1.875    0.000    3.000    0.000    0.000 
#    0.000    0.000    0.000    0.000    0.000    0.000 
#
# Total GULP energy -198264.286906 kJ/mol
# GULP energy per Si atom -12391.517932 kJ/mol
# Density = 2.065267 g / cm^3
# Si number density = 20.699779 Si / 1000 Ang^3
#
#
#
# Elastic Constant Matrix: (Units=GPa)
#
#
# Indices 1 2 3 4 5 6 
#
# 1 94.1894 39.9065 60.0675 -5.7939 -34.2671 -14.4422
# 2 39.9065 106.8037 51.2759 -1.8617 -21.5287 -12.2939
# 3 60.0675 51.2759 138.5622 -3.8612 -42.2282 -8.8222
# 4 -5.7939 -1.8617 -3.8612 25.4987 -1.1330 -5.0124
# 5 -34.2671 -21.5287 -42.2282 -1.1330 40.2939 4.4708
# 6 -14.4422 -12.2939 -8.8222 -5.0124 4.4708 32.5180
#
#
#
# Elastic Compliance Matrix: (Units=1/GPa)
#
#
# Indices 1 2 3 4 5 6 
#
# 1 0.019036 -0.002488 -0.003580 0.005231 0.010601 0.005891
# 2 -0.002488 0.012231 -0.002947 0.000448 0.001050 0.002644
# 3 -0.003580 -0.002947 0.012467 0.001176 0.008514 -0.000311
# 4 0.005231 0.000448 0.001176 0.042567 0.006172 0.008525
# 5 0.010601 0.001050 0.008514 0.006172 0.043222 0.002424
# 6 0.005891 0.002644 -0.000311 0.008525 0.002424 0.035265
#
#
# Mechanical properties :
#
#
# Convention : Reuss Voigt Hill
#
# Bulk Modulus (GPa) = 38.90253 71.33945 55.12099
# Shear Modulus (GPa) = 26.12529 32.21579 29.17054
#
# Velocity S-wave (km/s) = 3.55647 3.94932 3.75803
# Velocity P-wave (km/s) = 5.97487 7.43874 6.74663
#
# Compressibility (1/GPa) = 0.02570527
#
# Stress axis : x y z
#
# Youngs Moduli (GPa) = 52.53260 81.75832 80.21043
#
# Poissons Ratio (x) = 0.20339 0.28714
# Poissons Ratio (y) = 0.13069 0.23637
# Poissons Ratio (z) = 0.18806 0.24093
#
# Static dielectric constant tensor:
#      x y z
#    x 3.595530 0.187600 -0.195810 
#    y 0.187600 3.358910 0.117030 
#    z -0.195810 0.117030 4.004790 
# 
# 
# High freq. dielectric constant tensor:
#      x y z
#    x 1.813230 0.010270 -0.017020 
#    y 0.010270 1.764120 0.017100 
#    z -0.017020 0.017100 1.821230 
# 
# From -- ./inp_files/353121.got.cif
#   From: 2010.06.25/outbox.cif.g09.slc.cpg/sg2_177_cif.got.tgz:353121.got - 2010.06.27 13:26:56.
