data_PCOD8004434
_publ_section_title
;
Structure prediction by ZEFSAII (Michael W. Deem and Ramdas Pophale) SiO2 
 PCOD8004434
Probable space group: P -1
;
_chemical_formula_sum "Si O2"
_cell_formula_units_Z 16
_cell_length_a 14.116807
_cell_length_b 9.371767
_cell_length_c 10.924364
_cell_angle_alpha 94.895609
_cell_angle_beta 118.417985
_cell_angle_gamma 44.331293
_cell_volume 808.157878
_symmetry_space_group_name_H-M "P -1"
_symmetry_group_IT_number 2
_symmetry_cell_setting 'triclinic'
loop_
_space_group_symop_operation_xyz
x,y,z
-x,-y,-z
loop_
_atom_site_type_symbol
_atom_site_label
_atom_site_fract_x
_atom_site_fract_y
_atom_site_fract_z
Si Si1 0.160410 0.411714 0.532953
Si Si2 0.986984 0.161601 0.430870
Si Si3 0.600676 0.187038 0.018805
Si Si4 0.691697 0.562758 0.841722
Si Si5 0.324273 0.977591 0.679403
Si Si6 0.877266 0.539540 0.769631
Si Si7 0.247578 0.668017 0.912033
Si Si8 0.761655 0.796784 0.945211
O O1 0.151701 0.588958 0.574489
O O2 0.175744 0.381624 0.394885
O O3 0.000000 0.500000 0.500000
O O4 0.317180 0.156659 0.661029
O O5 0.922434 0.195005 0.256538
O O6 0.000000 0.000000 0.500000
O O7 0.169046 0.050595 0.528192
O O8 0.676939 0.040190 0.177361
O O9 0.719048 0.198582 0.059496
O O10 0.405565 0.425761 0.929315
O O11 0.615382 0.059929 0.906017
O O12 0.493712 0.736182 0.706996
O O13 0.793242 0.479512 0.770418
O O14 0.701586 0.699034 0.939193
O O15 0.773907 0.354962 0.960687
O O16 0.812083 0.741725 0.827191
O O17 0.077989 0.321039 0.883678
#
# Coordination Sequence:
#
# PCOD8004434 Si02
#       8
#     2   2   2   2   2   2   2   2
#     4  10  22  35  62  82 115 147 192 239 296 337
#     4  11  22  36  57  87 117 153 190 241 289 342
#     4  10  20  38  58  89 118 148 194 246 277 339
#     4   9  21  37  58  83 119 149 191 243 283 340
#     4  10  21  35  56  89 115 150 194 239 285 337
#     4   9  20  37  57  87 115 149 193 241 285 349
#     4  10  22  35  60  86 119 153 193 234 293 337
#     4   9  19  35  63  78 118 148 191 241 286 330
#
# _framework density 19.798112
#
# number of rings (size 3 to 8) (size 9 to 14) (size 15 to 20)
#    0.750    1.500    1.250    1.500    7.000    1.500 
#    0.000    0.625    5.500    0.750    0.000    0.000 
#    0.000    0.000    0.000    0.000    0.000    0.000 
#
# Total GULP energy -198263.346617 kJ/mol
# GULP energy per Si atom -12391.459164 kJ/mol
# Density = 1.975305 g / cm^3
# Si number density = 19.798112 Si / 1000 Ang^3
#
#
#
# Elastic Constant Matrix: (Units=GPa)
#
#
# Indices 1 2 3 4 5 6 
#
# 1 94.3677 20.7818 48.1107 -2.7718 -13.2494 10.2294
# 2 20.7818 40.6120 14.3868 -1.3113 -17.7001 22.9050
# 3 48.1107 14.3868 98.3382 -14.3052 -14.6036 9.7003
# 4 -2.7718 -1.3113 -14.3052 21.4836 1.2904 -6.3517
# 5 -13.2494 -17.7001 -14.6036 1.2904 40.1488 -5.3021
# 6 10.2294 22.9050 9.7003 -6.3517 -5.3021 26.6541
#
#
#
# Elastic Compliance Matrix: (Units=1/GPa)
#
#
# Indices 1 2 3 4 5 6 
#
# 1 0.015379 -0.006190 -0.007152 -0.002752 0.000014 0.001366
# 2 -0.006190 0.067320 -0.000448 -0.014380 0.020723 -0.054617
# 3 -0.007152 -0.000448 0.015471 0.009261 0.002807 0.000264
# 4 -0.002752 -0.014380 0.009261 0.058581 -0.002662 0.023473
# 5 0.000014 0.020723 0.002807 -0.002662 0.033463 -0.012813
# 6 0.001366 -0.054617 0.000264 0.023473 -0.012813 0.086877
#
#
# Mechanical properties :
#
#
# Convention : Reuss Voigt Hill
#
# Bulk Modulus (GPa) = 14.16562 44.43073 29.29817
# Shear Modulus (GPa) = 15.23464 27.65988 21.44726
#
# Velocity S-wave (km/s) = 2.77699 3.74183 3.29492
# Velocity P-wave (km/s) = 4.17766 6.41553 5.41349
#
# Compressibility (1/GPa) = 0.07059347
#
# Stress axis : x y z
#
# Youngs Moduli (GPa) = 65.02403 14.85432 64.63566
#
# Poissons Ratio (x) = 0.09194 0.46224
# Poissons Ratio (y) = 0.40247 0.02893
# Poissons Ratio (z) = 0.46502 0.00665
#
# Static dielectric constant tensor:
#      x y z
#    x 3.610150 0.160500 0.006280 
#    y 0.160500 3.613930 -0.225260 
#    z 0.006280 -0.225260 3.468950 
# 
# 
# High freq. dielectric constant tensor:
#      x y z
#    x 1.771340 0.005830 0.001590 
#    y 0.005830 1.752050 -0.014980 
#    z 0.001590 -0.014980 1.761690 
# 
# From -- ./inp_files/444620.got.cif
#   From: 2010.06.25/outbox.cif.g09.slc.cpg/sg2_223_cif.got.tgz:444620.got - 2010.06.27 13:26:56.
