data_PCOD8004168
_publ_section_title
;
Structure prediction by ZEFSAII (Michael W. Deem and Ramdas Pophale) SiO2 
 PCOD8004168
Probable space group: P -1
;
_chemical_formula_sum "Si O2"
_cell_formula_units_Z 16
_cell_length_a 8.941925
_cell_length_b 14.169089
_cell_length_c 14.209140
_cell_angle_alpha 138.588046
_cell_angle_beta 52.787012
_cell_angle_gamma 140.429525
_cell_volume 757.069874
_symmetry_space_group_name_H-M "P -1"
_symmetry_group_IT_number 2
_symmetry_cell_setting 'triclinic'
loop_
_space_group_symop_operation_xyz
x,y,z
-x,-y,-z
loop_
_atom_site_type_symbol
_atom_site_label
_atom_site_fract_x
_atom_site_fract_y
_atom_site_fract_z
Si Si1 0.546028 0.190680 0.605953
Si Si2 0.646113 0.916371 0.596768
Si Si3 0.992102 0.459161 0.363098
Si Si4 0.630578 0.427255 0.351746
Si Si5 0.932193 0.800906 0.473379
Si Si6 0.765046 0.075989 0.176883
Si Si7 0.341105 0.064127 0.085662
Si Si8 0.882266 0.975589 0.249783
O O1 0.490705 0.209046 0.534194
O O2 0.811270 0.372707 0.651188
O O3 0.500000 0.000000 0.500000
O O4 0.371239 0.199575 0.748496
O O5 0.718805 0.820236 0.566329
O O6 0.483929 0.958132 0.739881
O O7 0.886859 0.098521 0.605412
O O8 0.000000 0.500000 0.500000
O O9 0.735046 0.381565 0.362609
O O10 0.983464 0.283075 0.225474
O O11 0.500000 0.500000 0.500000
O O12 0.841338 0.598679 0.341489
O O13 0.476054 0.267561 0.217916
O O14 0.048372 0.870379 0.584839
O O15 0.845306 0.026367 0.200073
O O16 0.717597 0.949991 0.013142
O O17 0.084983 0.946230 0.147443
O O18 0.500000 0.000000 0.000000
#
# Coordination Sequence:
#
# PCOD8004168 Si02
#       8
#     2   2   2   2   2   2   2   2
#     4  11  21  38  66 101 135 169 218 281 331 382
#     4  10  20  37  64  98 138 166 214 274 337 388
#     4  12  23  38  68 102 132 167 221 277 327 392
#     4  12  24  40  68  98 130 169 230 275 320 390
#     4  10  21  37  64 101 128 171 220 276 325 386
#     4  12  23  41  65  97 131 179 220 268 339 394
#     4  12  26  46  65  93 140 180 217 272 341 399
#     4  11  23  42  68  96 132 176 222 268 338 394
#
# _framework density 21.134112999999999
#
# number of rings (size 3 to 8) (size 9 to 14) (size 15 to 20)
#    0.000    0.750    5.000    4.125    0.000    0.000 
#    0.000    1.250    0.000    0.000    0.000    0.000 
#    0.000    0.000    0.000    0.000    0.000    0.000 
#
# Total GULP energy -198250.651572 kJ/mol
# GULP energy per Si atom -12390.665723 kJ/mol
# Density = 2.108601 g / cm^3
# Si number density = 21.134113 Si / 1000 Ang^3
#
#
#
# Elastic Constant Matrix: (Units=GPa)
#
#
# Indices 1 2 3 4 5 6 
#
# 1 104.9099 35.8507 45.6071 1.8858 16.3491 5.3994
# 2 35.8507 103.9531 56.2490 -5.9609 0.0128 17.7974
# 3 45.6071 56.2490 115.1009 1.4934 10.9464 3.5355
# 4 1.8858 -5.9609 1.4934 31.6256 10.4536 -5.8869
# 5 16.3491 0.0128 10.9464 10.4536 39.9881 -13.0680
# 6 5.3994 17.7974 3.5355 -5.8869 -13.0680 32.4605
#
#
#
# Elastic Compliance Matrix: (Units=1/GPa)
#
#
# Indices 1 2 3 4 5 6 
#
# 1 0.012665 -0.002028 -0.003458 0.000238 -0.005159 -0.002652
# 2 -0.002028 0.015062 -0.006346 0.002046 -0.000247 -0.006958
# 3 -0.003458 -0.006346 0.013242 -0.000805 -0.001373 0.001914
# 4 0.000238 0.002046 -0.000805 0.035177 -0.008451 0.001904
# 5 -0.005159 -0.000247 -0.001373 -0.008451 0.034055 0.013321
# 6 -0.002652 -0.006958 0.001914 0.001904 0.013321 0.040562
#
#
# Mechanical properties :
#
#
# Convention : Reuss Voigt Hill
#
# Bulk Modulus (GPa) = 57.79259 66.59750 62.19505
# Shear Modulus (GPa) = 27.74766 33.23198 30.48982
#
# Velocity S-wave (km/s) = 3.62737 3.96969 3.80239
# Velocity P-wave (km/s) = 6.70438 7.25200 6.98356
#
# Compressibility (1/GPa) = 0.01730326
#
# Stress axis : x y z
#
# Youngs Moduli (GPa) = 78.96004 66.39333 75.51861
#
# Poissons Ratio (x) = 0.13467 0.26113
# Poissons Ratio (y) = 0.16016 0.47926
# Poissons Ratio (z) = 0.27303 0.42135
#
# Static dielectric constant tensor:
#      x y z
#    x 4.138630 0.314160 0.024360 
#    y 0.314160 4.266740 -0.440410 
#    z 0.024360 -0.440410 3.325190 
# 
# 
# High freq. dielectric constant tensor:
#      x y z
#    x 1.853040 0.013370 0.001120 
#    y 0.013370 1.839600 -0.016220 
#    z 0.001120 -0.016220 1.788860 
# 
# From -- ./inp_files/504350.got.cif
#   From: 2010.06.25/outbox.cif.g09.slc.cpg/sg2_253_cif.got.tgz:504350.got - 2010.06.27 13:26:56.
