data_PCOD8004493
_publ_section_title
;
Structure prediction by ZEFSAII (Michael W. Deem and Ramdas Pophale) SiO2 
 PCOD8004493
Probable space group: P -1
;
_chemical_formula_sum "Si O2"
_cell_formula_units_Z 16
_cell_length_a 13.402627
_cell_length_b 13.057142
_cell_length_c 14.689993
_cell_angle_alpha 55.543638
_cell_angle_beta 102.473867
_cell_angle_gamma 148.801341
_cell_volume 855.077953
_symmetry_space_group_name_H-M "P -1"
_symmetry_group_IT_number 2
_symmetry_cell_setting 'triclinic'
loop_
_space_group_symop_operation_xyz
x,y,z
-x,-y,-z
loop_
_atom_site_type_symbol
_atom_site_label
_atom_site_fract_x
_atom_site_fract_y
_atom_site_fract_z
Si Si1 0.269382 0.827716 0.925829
Si Si2 0.554322 0.193035 0.455941
Si Si3 0.102176 0.257649 0.297826
Si Si4 0.079472 0.694955 0.300978
Si Si5 0.851435 0.730680 0.487877
Si Si6 0.141290 0.809534 0.456523
Si Si7 0.621743 0.886242 0.360831
Si Si8 0.440801 0.095526 0.014468
O O1 0.387015 0.056961 0.766488
O O2 0.266141 0.879617 0.000968
O O3 0.441994 0.899342 0.925299
O O4 0.000000 0.500000 0.000000
O O5 0.457803 0.099985 0.586964
O O6 0.848643 0.535693 0.336504
O O7 0.500000 0.000000 0.500000
O O8 0.403007 0.125529 0.399758
O O9 0.182491 0.323089 0.383943
O O10 0.340610 0.565969 0.133868
O O11 0.007965 0.027224 0.348136
O O12 0.886740 0.122672 0.320001
O O13 0.209006 0.847338 0.347958
O O14 0.999702 0.462755 0.385503
O O15 0.263376 0.949726 0.132028
O O16 0.588259 0.452579 0.523147
O O17 0.982285 0.756784 0.457107
#
# Coordination Sequence:
#
# PCOD8004493 Si02
#       8
#     2   2   2   2   2   2   2   2
#     4  11  24  35  60  89 125 157 185 242 311 357
#     4  10  22  33  59  89 118 148 192 245 295 350
#     4  11  24  40  59  89 117 162 201 246 295 346
#     4  10  22  36  59  87 120 150 191 245 299 354
#     4  11  22  40  63  84 119 156 206 253 287 343
#     4  10  20  38  59  88 114 153 199 243 295 347
#     4  12  21  40  62  91 119 152 202 246 300 356
#     4  11  24  39  56  89 126 157 195 237 301 366
#
# _framework density 18.711745000000001
#
# number of rings (size 3 to 8) (size 9 to 14) (size 15 to 20)
#    0.000    1.250    5.000    1.125    8.750    0.000 
#    0.000    0.625    0.000    0.750    0.000    0.000 
#    0.000    0.000    0.000    0.000    0.000    0.000 
#
# Total GULP energy -198357.184973 kJ/mol
# GULP energy per Si atom -12397.324061 kJ/mol
# Density = 1.866916 g / cm^3
# Si number density = 18.711745 Si / 1000 Ang^3
#
#
#
# Elastic Constant Matrix: (Units=GPa)
#
#
# Indices 1 2 3 4 5 6 
#
# 1 60.1600 18.3458 41.5400 -6.6679 -8.2258 -5.9942
# 2 18.3458 110.6711 41.2929 -4.4110 -6.8351 5.2511
# 3 41.5400 41.2929 119.0884 -5.1169 -15.4161 -1.5542
# 4 -6.6679 -4.4110 -5.1169 25.0586 -2.3228 -1.6893
# 5 -8.2258 -6.8351 -15.4161 -2.3228 26.4712 -3.2329
# 6 -5.9942 5.2511 -1.5542 -1.6893 -3.2329 29.4670
#
#
#
# Elastic Compliance Matrix: (Units=1/GPa)
#
#
# Indices 1 2 3 4 5 6 
#
# 1 0.023454 -0.001071 -0.006983 0.005364 0.004069 0.005348
# 2 -0.001071 0.010581 -0.003250 0.000794 0.000308 -0.002195
# 3 -0.006983 -0.003250 0.012557 0.000564 0.004394 0.000335
# 4 0.005364 0.000794 0.000564 0.042463 0.006430 0.004119
# 5 0.004069 0.000308 0.004394 0.006430 0.042988 0.006090
# 6 0.005348 -0.002195 0.000335 0.004119 0.006090 0.036337
#
#
# Mechanical properties :
#
#
# Convention : Reuss Voigt Hill
#
# Bulk Modulus (GPa) = 41.69335 54.69743 48.19539
# Shear Modulus (GPa) = 25.12783 28.78208 26.95496
#
# Velocity S-wave (km/s) = 3.66852 3.92622 3.79956
# Velocity P-wave (km/s) = 6.34621 7.06036 6.71279
#
# Compressibility (1/GPa) = 0.02398464
#
# Stress axis : x y z
#
# Youngs Moduli (GPa) = 42.63601 94.51131 79.63598
#
# Poissons Ratio (x) = 0.10124 0.55608
# Poissons Ratio (y) = 0.04567 0.25880
# Poissons Ratio (z) = 0.29772 0.30714
#
# Static dielectric constant tensor:
#      x y z
#    x 3.405320 0.221950 -0.062250 
#    y 0.221950 3.914210 -0.069450 
#    z -0.062250 -0.069450 3.346680 
# 
# 
# High freq. dielectric constant tensor:
#      x y z
#    x 1.709710 0.011420 -0.014620 
#    y 0.011420 1.752740 0.003140 
#    z -0.014620 0.003140 1.704010 
# 
# From -- ./inp_files/436651.got.cif
#   From: 2010.06.25/outbox.cif.g09.slc.cpg/sg2_219_cif.got.tgz:436651.got - 2010.06.27 13:26:56.
