data_PCOD8004216
_publ_section_title
;
Structure prediction by ZEFSAII (Michael W. Deem and Ramdas Pophale) SiO2 
 PCOD8004216
Probable space group: P -1
;
_chemical_formula_sum "Si O2"
_cell_formula_units_Z 16
_cell_length_a 8.694605
_cell_length_b 14.653127
_cell_length_c 12.271997
_cell_angle_alpha 150.481262
_cell_angle_beta 109.355889
_cell_angle_gamma 82.101756
_cell_volume 687.391570
_symmetry_space_group_name_H-M "P -1"
_symmetry_group_IT_number 2
_symmetry_cell_setting 'triclinic'
loop_
_space_group_symop_operation_xyz
x,y,z
-x,-y,-z
loop_
_atom_site_type_symbol
_atom_site_label
_atom_site_fract_x
_atom_site_fract_y
_atom_site_fract_z
Si Si1 0.901987 0.615985 0.216219
Si Si2 0.485406 0.623157 0.843289
Si Si3 0.146312 0.193089 0.986132
Si Si4 0.428389 0.969279 0.629721
Si Si5 0.174936 0.520122 0.498670
Si Si6 0.779382 0.192532 0.382509
Si Si7 0.098554 0.792062 0.244355
Si Si8 0.416888 0.342008 0.724631
O O1 0.787136 0.710380 0.360390
O O2 0.077311 0.636565 0.342647
O O3 0.940441 0.727491 0.225881
O O4 0.819252 0.382670 0.936046
O O5 0.673223 0.687957 0.902656
O O6 0.332590 0.540773 0.636693
O O7 0.477713 0.440139 0.725565
O O8 0.458665 0.802500 0.093451
O O9 0.121997 0.316618 0.210790
O O10 0.980942 0.146139 0.817965
O O11 0.151825 0.986089 0.815778
O O12 0.384278 0.880634 0.650187
O O13 0.255772 0.963364 0.515076
O O14 0.537594 0.859433 0.472399
O O15 0.250941 0.710570 0.636394
O O16 0.000000 0.500000 0.500000
O O17 0.500000 0.500000 0.000000
#
# Coordination Sequence:
#
# PCOD8004216 Si02
#       8
#     2   2   2   2   2   2   2   2
#     4  10  20  37  65  95 131 171 214 261 327 381
#     4  11  27  43  65  99 129 174 217 268 321 388
#     4  11  24  43  70  95 129 172 225 263 324 386
#     4  10  24  43  65  97 135 168 218 265 321 389
#     4  12  26  45  68  93 133 168 220 275 325 382
#     4  10  23  43  68  93 122 178 217 266 322 390
#     4  10  20  41  67  95 131 176 213 265 315 392
#     4  12  23  39  64  96 133 172 206 268 329 377
#
# _framework density 23.276398
#
# number of rings (size 3 to 8) (size 9 to 14) (size 15 to 20)
#    0.000    1.250    2.500    2.625    1.750   10.500 
#    0.000    0.000    0.000    0.000    0.000    0.000 
#    0.000    0.000    0.000    0.000    0.000    0.000 
#
# Total GULP energy -198390.691612 kJ/mol
# GULP energy per Si atom -12399.418226 kJ/mol
# Density = 2.322342 g / cm^3
# Si number density = 23.276398 Si / 1000 Ang^3
#
#
#
# Elastic Constant Matrix: (Units=GPa)
#
#
# Indices 1 2 3 4 5 6 
#
# 1 84.9750 3.8098 12.2475 -3.8406 -21.1114 -0.6396
# 2 3.8098 78.9338 33.3272 -19.8844 3.1892 -13.7238
# 3 12.2475 33.3272 83.4575 -11.0515 -19.2435 2.6356
# 4 -3.8406 -19.8844 -11.0515 30.3851 -8.0698 1.1588
# 5 -21.1114 3.1892 -19.2435 -8.0698 42.4743 -1.2811
# 6 -0.6396 -13.7238 2.6356 1.1588 -1.2811 18.8444
#
#
#
# Elastic Compliance Matrix: (Units=1/GPa)
#
#
# Indices 1 2 3 4 5 6 
#
# 1 0.013837 0.000028 0.000233 0.003879 0.007741 0.000745
# 2 0.000028 0.021673 -0.008647 0.009568 -0.003225 0.016186
# 3 0.000233 -0.008647 0.018401 0.003934 0.009595 -0.008452
# 4 0.003879 0.009568 0.003934 0.043967 0.011485 0.004627
# 5 0.007741 -0.003225 0.009595 0.011485 0.034108 -0.001815
# 6 0.000745 0.016186 -0.008452 0.004627 -0.001815 0.065654
#
#
# Mechanical properties :
#
#
# Convention : Reuss Voigt Hill
#
# Bulk Modulus (GPa) = 26.92494 38.45949 32.69221
# Shear Modulus (GPa) = 22.04669 31.53955 26.79312
#
# Velocity S-wave (km/s) = 3.08095 3.68503 3.39645
# Velocity P-wave (km/s) = 4.92432 5.88768 5.42742
#
# Compressibility (1/GPa) = 0.03714029
#
# Stress axis : x y z
#
# Youngs Moduli (GPa) = 72.26791 46.14020 54.34500
#
# Poissons Ratio (x) = -0.00127 -0.01268
# Poissons Ratio (y) = -0.00199 0.46990
# Poissons Ratio (z) = -0.01687 0.39896
#
# Static dielectric constant tensor:
#      x y z
#    x 4.960300 0.319010 -0.158400 
#    y 0.319010 4.189980 -0.000670 
#    z -0.158400 -0.000670 4.366600 
# 
# 
# High freq. dielectric constant tensor:
#      x y z
#    x 1.919550 -0.003100 -0.008290 
#    y -0.003100 1.911620 0.003870 
#    z -0.008290 0.003870 1.928490 
# 
# From -- ./inp_files/399927.got.cif
#   From: 2010.06.25/outbox.cif.g09.slc.cpg/sg2_200_cif.got.tgz:399927.got - 2010.06.27 13:26:56.
