data_PCOD8004985
_publ_section_title
;
Structure prediction by ZEFSAII (Michael W. Deem and Ramdas Pophale) SiO2 
 PCOD8004985
Probable space group: P -1
;
_chemical_formula_sum "Si O2"
_cell_formula_units_Z 16
_cell_length_a 11.565123
_cell_length_b 7.961178
_cell_length_c 14.570396
_cell_angle_alpha 117.389792
_cell_angle_beta 115.953505
_cell_angle_gamma 113.954464
_cell_volume 695.138242
_symmetry_space_group_name_H-M "P -1"
_symmetry_group_IT_number 2
_symmetry_cell_setting 'triclinic'
loop_
_space_group_symop_operation_xyz
x,y,z
-x,-y,-z
loop_
_atom_site_type_symbol
_atom_site_label
_atom_site_fract_x
_atom_site_fract_y
_atom_site_fract_z
Si Si1 0.424969 0.672979 0.976492
Si Si2 0.439624 0.104643 0.115631
Si Si3 0.286303 0.339547 0.367615
Si Si4 0.750952 0.890113 0.281129
Si Si5 0.339324 0.959686 0.561282
Si Si6 0.741275 0.351224 0.710482
Si Si7 0.815935 0.523955 0.475579
Si Si8 0.900542 0.076664 0.946728
O O1 0.564222 0.843563 0.978756
O O2 0.244690 0.327940 0.799232
O O3 0.564357 0.761669 0.129003
O O4 0.343201 0.786337 0.007569
O O5 0.664402 0.360281 0.296613
O O6 0.305602 0.106597 0.121461
O O7 0.500000 0.500000 0.500000
O O8 0.293113 0.512889 0.337231
O O9 0.198141 0.304923 0.424551
O O10 0.148968 0.014396 0.200213
O O11 0.696520 0.869257 0.365786
O O12 0.957255 0.227461 0.417163
O O13 0.249034 0.828021 0.394408
O O14 0.235503 0.712788 0.539359
O O15 0.570061 0.159738 0.680056
O O16 0.943815 0.581384 0.896533
O O17 0.000000 0.000000 0.000000
#
# Coordination Sequence:
#
# PCOD8004985 Si02
#       8
#     2   2   2   2   2   2   2   2
#     4  10  26  42  65 100 136 176 222 279 325 398
#     4  11  23  44  65  97 143 167 222 281 338 387
#     4  10  20  38  63  96 132 165 217 275 333 389
#     4  11  24  42  71  97 130 184 226 264 331 410
#     4  10  21  40  66  93 134 169 229 270 322 402
#     4   9  22  39  64  96 125 177 218 269 334 395
#     4  11  23  40  67  97 133 178 216 273 336 395
#     4  10  22  38  68  96 124 180 221 269 336 397
#
# _framework density 23.017005000000001
#
# number of rings (size 3 to 8) (size 9 to 14) (size 15 to 20)
#    0.000    1.750    2.500    0.375    8.750    2.500 
#    0.000    4.375    0.000    0.000    0.000    0.000 
#    0.000    0.000    0.000    0.000    0.000    0.000 
#
# Total GULP energy -198242.652873 kJ/mol
# GULP energy per Si atom -12390.165805 kJ/mol
# Density = 2.296462 g / cm^3
# Si number density = 23.017005 Si / 1000 Ang^3
#
#
#
# Elastic Constant Matrix: (Units=GPa)
#
#
# Indices 1 2 3 4 5 6 
#
# 1 102.1484 16.5145 39.0253 -3.3515 -21.7743 22.9808
# 2 16.5145 47.4759 16.8213 10.0431 -5.4208 10.9630
# 3 39.0253 16.8213 164.3917 6.8996 -21.9092 15.0725
# 4 -3.3515 10.0431 6.8996 28.5753 9.5234 -0.3715
# 5 -21.7743 -5.4208 -21.9092 9.5234 37.6997 -2.9058
# 6 22.9808 10.9630 15.0725 -0.3715 -2.9058 31.0375
#
#
#
# Elastic Compliance Matrix: (Units=1/GPa)
#
#
# Indices 1 2 3 4 5 6 
#
# 1 0.013848 -0.001757 -0.001557 0.000484 0.006079 -0.008302
# 2 -0.001757 0.026459 -0.000513 -0.011047 0.004705 -0.007488
# 3 -0.001557 -0.000513 0.007333 -0.003106 0.003927 -0.001897
# 4 0.000484 -0.011047 -0.003106 0.044407 -0.014003 0.004273
# 5 0.006079 0.004705 0.003927 -0.014003 0.036158 -0.004852
# 6 -0.008302 -0.007488 -0.001897 0.004273 -0.004852 0.041529
#
#
# Mechanical properties :
#
#
# Convention : Reuss Voigt Hill
#
# Bulk Modulus (GPa) = 25.00800 50.97091 37.98946
# Shear Modulus (GPa) = 26.21707 35.57283 30.89495
#
# Velocity S-wave (km/s) = 3.37861 3.93555 3.66767
# Velocity P-wave (km/s) = 5.10966 6.54556 5.87167
#
# Compressibility (1/GPa) = 0.03998720
#
# Stress axis : x y z
#
# Youngs Moduli (GPa) = 72.21414 37.79372 136.37545
#
# Poissons Ratio (x) = 0.06639 0.21228
# Poissons Ratio (y) = 0.12685 0.06999
# Poissons Ratio (z) = 0.11241 0.01940
#
# Static dielectric constant tensor:
#      x y z
#    x 3.945280 -0.156310 -0.506750 
#    y -0.156310 3.820250 0.177610 
#    z -0.506750 0.177610 4.892460 
# 
# 
# High freq. dielectric constant tensor:
#      x y z
#    x 1.912930 0.007580 -0.029990 
#    y 0.007580 1.876350 0.000460 
#    z -0.029990 0.000460 1.928880 
# 
# From -- ./inp_files/516108.got.cif
#   From: 2010.06.25/outbox.cif.g09.slc.cpg/sg2_259_cif.got.tgz:516108.got - 2010.06.27 13:26:56.
