data_PCOD8004460
_publ_section_title
;
Structure prediction by ZEFSAII (Michael W. Deem and Ramdas Pophale) SiO2 
 PCOD8004460
Probable space group: P -1
;
_chemical_formula_sum "Si O2"
_cell_formula_units_Z 14
_cell_length_a 23.849309
_cell_length_b 6.732266
_cell_length_c 5.174822
_cell_angle_alpha 107.647706
_cell_angle_beta 74.909062
_cell_angle_gamma 129.484085
_cell_volume 608.501492
_symmetry_space_group_name_H-M "P -1"
_symmetry_group_IT_number 2
_symmetry_cell_setting 'triclinic'
loop_
_space_group_symop_operation_xyz
x,y,z
-x,-y,-z
loop_
_atom_site_type_symbol
_atom_site_label
_atom_site_fract_x
_atom_site_fract_y
_atom_site_fract_z
Si Si1 0.409591 0.712051 0.744144
Si Si2 0.872171 0.841622 0.836207
Si Si3 0.004054 0.700489 0.880621
Si Si4 0.118411 0.770919 0.385083
Si Si5 0.524013 0.319463 0.843681
Si Si6 0.259837 0.591876 0.904095
Si Si7 0.783814 0.314036 0.513512
O O1 0.433281 0.603029 0.448412
O O2 0.324235 0.571978 0.756952
O O3 0.452075 0.022162 0.795086
O O4 0.422503 0.637240 0.976384
O O5 0.854131 0.027852 0.804655
O O6 0.853928 0.623662 0.562179
O O7 0.957839 0.020156 0.903492
O O8 0.816205 0.700863 0.092061
O O9 0.058735 0.772267 0.609594
O O10 0.920755 0.530778 0.802072
O O11 0.000000 0.500000 0.000000
O O12 0.185462 0.848697 0.519575
O O13 0.500000 0.500000 0.000000
O O14 0.253344 0.751049 0.746873
O O15 0.274705 0.747693 0.217328
#
# Coordination Sequence:
#
# PCOD8004460 Si02
#       7
#     2   2   2   2   2   2   2
#     4  10  21  41  66  90 139 164 197 272 299 355
#     4   9  21  38  58  84 119 156 201 256 304 376
#     4   9  19  35  58  83 114 154 206 255 323 357
#     4  10  20  38  59  83 116 159 202 264 307 366
#     4  10  21  40  68  99 125 167 214 247 306 368
#     4  10  22  42  59  91 123 166 195 248 314 365
#     4  10  23  38  61  83 123 154 209 247 302 374
#
# _framework density 23.007339000000002
#
# number of rings (size 3 to 8) (size 9 to 14) (size 15 to 20)
#    0.857    1.429    0.000    2.143    4.000    0.571 
#    2.571    7.143    0.000    0.000    0.000    0.000 
#    0.000    0.000    0.000    0.000    0.000    0.000 
#
# Total GULP energy -173442.385982 kJ/mol
# GULP energy per Si atom -12388.741856 kJ/mol
# Density = 2.295497 g / cm^3
# Si number density = 23.007339 Si / 1000 Ang^3
#
#
#
# Elastic Constant Matrix: (Units=GPa)
#
#
# Indices 1 2 3 4 5 6 
#
# 1 97.9035 8.2449 19.0404 -19.4094 9.5043 -2.6054
# 2 8.2449 24.8402 14.9781 -4.0588 0.2501 -3.1560
# 3 19.0404 14.9781 110.3203 -20.4924 12.0253 -5.1774
# 4 -19.4094 -4.0588 -20.4924 30.3065 -6.3895 -1.6707
# 5 9.5043 0.2501 12.0253 -6.3895 33.5457 -1.0282
# 6 -2.6054 -3.1560 -5.1774 -1.6707 -1.0282 20.0868
#
#
#
# Elastic Compliance Matrix: (Units=1/GPa)
#
#
# Indices 1 2 3 4 5 6 
#
# 1 0.012073 -0.002554 -0.000154 0.006958 -0.001972 0.001603
# 2 -0.002554 0.045355 -0.005450 0.001663 0.002830 0.005673
# 3 -0.000154 -0.005450 0.011445 0.006475 -0.002709 0.002474
# 4 0.006958 0.001663 0.006475 0.043294 0.004145 0.006646
# 5 -0.001972 0.002830 -0.002709 0.004145 0.032154 0.001481
# 6 0.001603 0.005673 0.002474 0.006646 0.001481 0.052149
#
#
# Mechanical properties :
#
#
# Convention : Reuss Voigt Hill
#
# Bulk Modulus (GPa) = 19.02710 35.28787 27.15749
# Shear Modulus (GPa) = 21.71022 29.50784 25.60903
#
# Velocity S-wave (km/s) = 3.07517 3.58514 3.33991
# Velocity P-wave (km/s) = 4.57131 5.70163 5.16747
#
# Compressibility (1/GPa) = 0.05255660
#
# Stress axis : x y z
#
# Youngs Moduli (GPa) = 82.83133 22.04807 87.37140
#
# Poissons Ratio (x) = 0.05630 0.01348
# Poissons Ratio (y) = 0.21153 0.47622
# Poissons Ratio (z) = 0.01278 0.12017
#
# Static dielectric constant tensor:
#      x y z
#    x 3.839890 0.074000 0.268060 
#    y 0.074000 4.055470 -0.186350 
#    z 0.268060 -0.186350 4.485600 
# 
# 
# High freq. dielectric constant tensor:
#      x y z
#    x 1.891930 -0.010540 0.016720 
#    y -0.010540 1.892650 -0.011610 
#    z 0.016720 -0.011610 1.914940 
# 
# From -- ./inp_files/121745.got.cif
#   From: 2010.06.25/outbox.cif.g09.slc.cpg/sg2_61_cif.got.tgz:121745.got - 2010.06.27 13:26:56.
