data_PCOD8004936
_publ_section_title
;
Structure prediction by ZEFSAII (Michael W. Deem and Ramdas Pophale) SiO2 
 PCOD8004936
Probable space group: P -1
;
_chemical_formula_sum "Si O2"
_cell_formula_units_Z 16
_cell_length_a 20.339204
_cell_length_b 11.308967
_cell_length_c 9.026597
_cell_angle_alpha 47.118600
_cell_angle_beta 123.774559
_cell_angle_gamma 150.825134
_cell_volume 737.390410
_symmetry_space_group_name_H-M "P -1"
_symmetry_group_IT_number 2
_symmetry_cell_setting 'triclinic'
loop_
_space_group_symop_operation_xyz
x,y,z
-x,-y,-z
loop_
_atom_site_type_symbol
_atom_site_label
_atom_site_fract_x
_atom_site_fract_y
_atom_site_fract_z
Si Si1 0.383575 0.609452 0.281290
Si Si2 0.650434 0.067858 0.056219
Si Si3 0.389873 0.020484 0.252632
Si Si4 0.839793 0.245724 0.605446
Si Si5 0.848467 0.910395 0.761126
Si Si6 0.918550 0.914117 0.149820
Si Si7 0.655220 0.430160 0.400413
Si Si8 0.912912 0.489899 0.195641
O O1 0.276058 0.324083 0.303405
O O2 0.381335 0.559989 0.493256
O O3 0.531973 0.810386 0.235335
O O4 0.347197 0.735379 0.106189
O O5 0.794344 0.240555 0.147606
O O6 0.625836 0.954516 0.958973
O O7 0.544510 0.310894 0.246140
O O8 0.294178 0.968318 0.281877
O O9 0.345983 0.764303 0.438354
O O10 0.850514 0.404573 0.358663
O O11 0.971604 0.459253 0.697104
O O12 0.844267 0.087525 0.653147
O O13 0.841252 0.782446 0.006647
O O14 0.991414 0.098233 0.700870
O O15 0.805046 0.739380 0.283340
O O16 0.020817 0.234923 0.012233
#
# Coordination Sequence:
#
# PCOD8004936 Si02
#       8
#     2   2   2   2   2   2   2   2
#     4  10  20  38  63  92 118 155 208 254 298 347
#     4  10  20  38  64  88 120 159 205 252 294 357
#     4  10  22  40  61  91 123 158 204 249 303 357
#     4  10  23  39  62  89 127 161 195 246 305 364
#     4  10  21  38  60  94 119 162 197 248 302 355
#     4  10  21  37  63  91 122 158 205 245 297 358
#     4  10  22  38  64  93 117 158 204 259 294 350
#     4  10  21  40  59  92 120 167 198 242 303 358
#
# _framework density 21.698139999999999
#
# number of rings (size 3 to 8) (size 9 to 14) (size 15 to 20)
#    0.000    2.000    1.250    1.500    7.000    3.000 
#    0.000   10.625    0.000    0.000    0.000    0.000 
#    0.000    0.000    0.000    0.000    0.000    0.000 
#
# Total GULP energy -198363.283093 kJ/mol
# GULP energy per Si atom -12397.705193 kJ/mol
# Density = 2.164875 g / cm^3
# Si number density = 21.698140 Si / 1000 Ang^3
#
#
#
# Elastic Constant Matrix: (Units=GPa)
#
#
# Indices 1 2 3 4 5 6 
#
# 1 103.7796 57.4259 50.4692 -8.1000 -25.0591 20.7018
# 2 57.4259 167.3582 64.0381 18.7227 -18.6083 15.3625
# 3 50.4692 64.0381 88.5835 3.0407 -28.8197 10.2631
# 4 -8.1000 18.7227 3.0407 36.2946 6.6672 -8.3114
# 5 -25.0591 -18.6083 -28.8197 6.6672 34.6582 -6.0404
# 6 20.7018 15.3625 10.2631 -8.3114 -6.0404 26.2138
#
#
#
# Elastic Compliance Matrix: (Units=1/GPa)
#
#
# Indices 1 2 3 4 5 6 
#
# 1 0.016473 -0.002876 -0.005218 0.003159 0.004143 -0.007324
# 2 -0.002876 0.009820 -0.004973 -0.006028 -0.000400 -0.003540
# 3 -0.005218 -0.004973 0.021912 -0.002595 0.012361 0.000482
# 4 0.003159 -0.006028 -0.002595 0.035689 -0.007965 0.011534
# 5 0.004143 -0.000400 0.012361 -0.007965 0.043374 -0.000408
# 6 -0.007324 -0.003540 0.000482 0.011534 -0.000408 0.049381
#
#
# Mechanical properties :
#
#
# Convention : Reuss Voigt Hill
#
# Bulk Modulus (GPa) = 45.31159 78.17643 61.74401
# Shear Modulus (GPa) = 23.79377 31.95252 27.87314
#
# Velocity S-wave (km/s) = 3.31506 3.84160 3.58800
# Velocity P-wave (km/s) = 5.96497 7.46890 6.75890
#
# Compressibility (1/GPa) = 0.02206941
#
# Stress axis : x y z
#
# Youngs Moduli (GPa) = 60.70594 101.83331 45.63805
#
# Poissons Ratio (x) = 0.29289 0.23813
# Poissons Ratio (y) = 0.17460 0.22698
# Poissons Ratio (z) = 0.31676 0.50646
#
# Static dielectric constant tensor:
#      x y z
#    x 3.731460 0.188770 -0.110870 
#    y 0.188770 3.926480 0.141220 
#    z -0.110870 0.141220 3.838700 
# 
# 
# High freq. dielectric constant tensor:
#      x y z
#    x 1.835120 0.014660 -0.007250 
#    y 0.014660 1.859050 0.003010 
#    z -0.007250 0.003010 1.840350 
# 
# From -- ./inp_files/345965.got.cif
#   From: 2010.06.25/outbox.cif.g09.slc.cpg/sg2_173_cif.got.tgz:345965.got - 2010.06.27 13:26:56.
