data_PCOD8004363
_publ_section_title
;
Structure prediction by ZEFSAII (Michael W. Deem and Ramdas Pophale) SiO2 
 PCOD8004363
Probable space group: P -1
;
_chemical_formula_sum "Si O2"
_cell_formula_units_Z 10
_cell_length_a 8.783980
_cell_length_b 10.607840
_cell_length_c 12.855772
_cell_angle_alpha 148.698807
_cell_angle_beta 46.139841
_cell_angle_gamma 116.250691
_cell_volume 411.319383
_symmetry_space_group_name_H-M "P -1"
_symmetry_group_IT_number 2
_symmetry_cell_setting 'triclinic'
loop_
_space_group_symop_operation_xyz
x,y,z
-x,-y,-z
loop_
_atom_site_type_symbol
_atom_site_label
_atom_site_fract_x
_atom_site_fract_y
_atom_site_fract_z
Si Si1 0.130224 0.335947 0.193411
Si Si2 0.332415 0.317158 0.428574
Si Si3 0.532753 0.910834 0.584967
Si Si4 0.219995 0.972649 0.084595
Si Si5 0.744390 0.167465 0.514903
O O1 0.212662 0.570839 0.302318
O O2 0.870047 0.418140 0.331313
O O3 0.142816 0.240265 0.238891
O O4 0.291320 0.093497 0.878007
O O5 0.315550 0.297764 0.547558
O O6 0.322749 0.047544 0.193799
O O7 0.589550 0.291506 0.249087
O O8 0.677663 0.073423 0.589133
O O9 0.468596 0.764579 0.416214
O O10 0.985443 0.934909 0.196034
#
# Coordination Sequence:
#
# PCOD8004363 Si02
#       5
#     2   2   2   2   2
#     4  10  20  38  58  79 108 144 177 221 272 314
#     4   9  18  35  56  81 107 139 183 219 263 322
#     4  10  22  37  55  81 110 143 180 218 266 321
#     4   9  19  36  57  81 109 140 178 224 268 314
#     4  10  20  38  56  78 114 142 174 226 268 312
#
# _framework density 24.312009
#
# number of rings (size 3 to 8) (size 9 to 14) (size 15 to 20)
#    0.000    2.400    0.000    3.000    0.000    6.400 
#    0.000   25.000    0.000    0.000    0.000    0.000 
#    0.000    0.000    0.000    0.000    0.000    0.000 
#
# Total GULP energy -124002.212431 kJ/mol
# GULP energy per Si atom -12400.221243 kJ/mol
# Density = 2.425667 g / cm^3
# Si number density = 24.312009 Si / 1000 Ang^3
#
#
#
# Elastic Constant Matrix: (Units=GPa)
#
#
# Indices 1 2 3 4 5 6 
#
# 1 106.6075 55.7899 1.4278 -2.2763 -22.6567 -19.7674
# 2 55.7899 100.9887 6.4460 -9.1531 -5.8862 -16.7756
# 3 1.4278 6.4460 51.8318 1.7008 -28.4222 -13.8557
# 4 -2.2763 -9.1531 1.7008 28.2013 -2.8734 1.5246
# 5 -22.6567 -5.8862 -28.4222 -2.8734 32.9255 -1.0093
# 6 -19.7674 -16.7756 -13.8557 1.5246 -1.0093 37.9392
#
#
#
# Elastic Compliance Matrix: (Units=1/GPa)
#
#
# Indices 1 2 3 4 5 6 
#
# 1 0.029410 -0.011698 0.032719 0.000143 0.047118 0.023348
# 2 -0.011698 0.015999 -0.010230 0.003636 -0.013803 -0.003270
# 3 0.032719 -0.010230 0.083435 0.001433 0.094227 0.045445
# 4 0.000143 0.003636 0.001433 0.037053 0.005245 0.000856
# 5 0.047118 -0.013803 0.094227 0.005245 0.143855 0.056476
# 6 0.023348 -0.003270 0.045445 0.000856 0.056476 0.055142
#
#
# Mechanical properties :
#
#
# Convention : Reuss Voigt Hill
#
# Bulk Modulus (GPa) = 6.64775 42.97280 24.81028
# Shear Modulus (GPa) = 12.70797 32.86416 22.78607
#
# Velocity S-wave (km/s) = 2.28875 3.68063 3.06475
# Velocity P-wave (km/s) = 3.11846 5.98135 4.76977
#
# Compressibility (1/GPa) = 0.15042675
#
# Stress axis : x y z
#
# Youngs Moduli (GPa) = 34.00249 62.50314 11.98532
#
# Poissons Ratio (x) = 0.73115 -0.39214
# Poissons Ratio (y) = 0.39775 0.12260
# Poissons Ratio (z) = -1.11251 0.63938
#
# Static dielectric constant tensor:
#      x y z
#    x 4.609300 -0.049150 -0.274710 
#    y -0.049150 4.226790 -0.422300 
#    z -0.274710 -0.422300 4.390800 
# 
# 
# High freq. dielectric constant tensor:
#      x y z
#    x 1.982380 -0.000190 -0.003650 
#    y -0.000190 1.949430 -0.014910 
#    z -0.003650 -0.014910 1.962300 
# 
# From -- ./inp_files/144088.got.cif
#   From: 2010.06.25/outbox.cif.g09.slc.cpg/sg2_73_cif.got.tgz:144088.got - 2010.06.27 13:26:56.
