data_PCOD8004900
_publ_section_title
;
Structure prediction by ZEFSAII (Michael W. Deem and Ramdas Pophale) SiO2 
 PCOD8004900
Probable space group: P -1
;
_chemical_formula_sum "Si O2"
_cell_formula_units_Z 16
_cell_length_a 14.096331
_cell_length_b 8.876845
_cell_length_c 11.792192
_cell_angle_alpha 85.480117
_cell_angle_beta 82.125396
_cell_angle_gamma 29.274378
_cell_volume 712.209761
_symmetry_space_group_name_H-M "P -1"
_symmetry_group_IT_number 2
_symmetry_cell_setting 'triclinic'
loop_
_space_group_symop_operation_xyz
x,y,z
-x,-y,-z
loop_
_atom_site_type_symbol
_atom_site_label
_atom_site_fract_x
_atom_site_fract_y
_atom_site_fract_z
Si Si1 0.337238 0.154824 0.435427
Si Si2 0.974929 0.377109 0.952686
Si Si3 0.842996 0.297281 0.589023
Si Si4 0.324421 0.765478 0.805572
Si Si5 0.317653 0.548931 0.168896
Si Si6 0.573837 0.253989 0.437251
Si Si7 0.393377 0.115674 0.174699
Si Si8 0.266264 0.541526 0.930698
O O1 0.150298 0.528672 0.440284
O O2 0.409842 0.023398 0.303178
O O3 0.500000 0.000000 0.500000
O O4 0.290345 0.050535 0.496148
O O5 0.824121 0.592452 0.859737
O O6 0.909772 0.337723 0.057284
O O7 0.188430 0.044997 0.894296
O O8 0.000000 0.500000 0.000000
O O9 0.863539 0.220137 0.723588
O O10 0.619523 0.562793 0.584727
O O11 0.000000 0.000000 0.500000
O O12 0.549580 0.487154 0.823267
O O13 0.289178 0.872294 0.678017
O O14 0.273393 0.656938 0.824190
O O15 0.451385 0.212532 0.172617
O O16 0.236385 0.672502 0.046986
O O17 0.500000 0.500000 0.500000
O O18 0.535691 0.830166 0.083434
#
# Coordination Sequence:
#
# PCOD8004900 Si02
#       8
#     2   2   2   2   2   2   2   2
#     4   9  19  38  62  87 115 156 201 244 301 363
#     4  11  23  39  59  88 122 156 197 248 303 365
#     4   9  19  37  61  88 119 155 199 248 300 359
#     4  11  22  38  57  85 122 157 199 250 299 360
#     4   9  19  36  60  87 119 157 198 246 304 363
#     4  10  21  37  58  83 117 159 199 245 298 355
#     4  10  20  38  63  88 116 156 200 246 303 366
#     4  11  21  37  62  88 116 158 200 247 306 363
#
# _framework density 22.465291000000001
#
# number of rings (size 3 to 8) (size 9 to 14) (size 15 to 20)
#    0.000    2.000    0.000    5.250    0.000    3.000 
#    0.000    8.750    0.000    0.000    0.000    0.000 
#    0.000    0.000    0.000    0.000    0.000    0.000 
#
# Total GULP energy -198246.191711 kJ/mol
# GULP energy per Si atom -12390.386982 kJ/mol
# Density = 2.241416 g / cm^3
# Si number density = 22.465291 Si / 1000 Ang^3
#
#
#
# Elastic Constant Matrix: (Units=GPa)
#
#
# Indices 1 2 3 4 5 6 
#
# 1 112.9173 25.5485 53.4865 -7.4306 -19.4607 26.5195
# 2 25.5485 73.8351 39.2796 17.8216 -17.8385 26.8582
# 3 53.4865 39.2796 122.5438 5.8458 -26.0815 21.3578
# 4 -7.4306 17.8216 5.8458 42.5352 8.8434 2.0094
# 5 -19.4607 -17.8385 -26.0815 8.8434 40.0776 -5.6109
# 6 26.5195 26.8582 21.3578 2.0094 -5.6109 36.8624
#
#
#
# Elastic Compliance Matrix: (Units=1/GPa)
#
#
# Indices 1 2 3 4 5 6 
#
# 1 0.012944 0.000040 -0.004181 0.002715 0.002037 -0.006757
# 2 0.000040 0.025842 -0.002985 -0.011802 0.010091 -0.014949
# 3 -0.004181 -0.002985 0.012286 -0.002150 0.004962 -0.001063
# 4 0.002715 -0.011802 -0.002150 0.031440 -0.011655 0.004404
# 5 0.002037 0.010091 0.004962 -0.011655 0.035440 -0.005663
# 6 -0.006757 -0.014949 -0.001063 0.004404 -0.005663 0.042395
#
#
# Mechanical properties :
#
#
# Convention : Reuss Voigt Hill
#
# Bulk Modulus (GPa) = 27.15829 60.65838 43.90833
# Shear Modulus (GPa) = 26.75643 36.62715 31.69179
#
# Velocity S-wave (km/s) = 3.45485 4.04219 3.76000
# Velocity P-wave (km/s) = 5.29433 6.98894 6.19980
#
# Compressibility (1/GPa) = 0.03682117
#
# Stress axis : x y z
#
# Youngs Moduli (GPa) = 77.25609 38.69671 81.39453
#
# Poissons Ratio (x) = -0.00155 0.34029
# Poissons Ratio (y) = -0.00310 0.24294
# Poissons Ratio (z) = 0.32298 0.11550
#
# Static dielectric constant tensor:
#      x y z
#    x 4.157200 0.318010 -0.127860 
#    y 0.318010 3.895950 -0.099550 
#    z -0.127860 -0.099550 4.443230 
# 
# 
# High freq. dielectric constant tensor:
#      x y z
#    x 1.880180 0.023740 -0.002230 
#    y 0.023740 1.866100 -0.001670 
#    z -0.002230 -0.001670 1.896390 
# 
# From -- ./inp_files/216555.got.cif
#   From: 2010.06.25/outbox.cif.g09.slc.cpg/sg2_109_cif.got.tgz:216555.got - 2010.06.27 13:26:56.
