data_PCOD8004054
_publ_section_title
;
Structure prediction by ZEFSAII (Michael W. Deem and Ramdas Pophale) SiO2 
 PCOD8004054
Probable space group: P -1
;
_chemical_formula_sum "Si O2"
_cell_formula_units_Z 14
_cell_length_a 27.793580
_cell_length_b 8.721016
_cell_length_c 15.665418
_cell_angle_alpha 43.757723
_cell_angle_beta 162.402477
_cell_angle_gamma 144.320383
_cell_volume 639.774666
_symmetry_space_group_name_H-M "P -1"
_symmetry_group_IT_number 2
_symmetry_cell_setting 'triclinic'
loop_
_space_group_symop_operation_xyz
x,y,z
-x,-y,-z
loop_
_atom_site_type_symbol
_atom_site_label
_atom_site_fract_x
_atom_site_fract_y
_atom_site_fract_z
Si Si1 0.933477 0.786570 0.246352
Si Si2 0.231179 0.782441 0.293158
Si Si3 0.065281 0.756636 0.857047
Si Si4 0.634146 0.393301 0.269622
Si Si5 0.293930 0.821874 0.908850
Si Si6 0.645332 0.263153 0.765656
Si Si7 0.869556 0.880031 0.913277
O O1 0.762727 0.465652 0.107741
O O2 0.971441 0.867397 0.177335
O O3 0.140863 0.879903 0.596452
O O4 0.862046 0.939118 0.117575
O O5 0.307699 0.613885 0.530336
O O6 0.414050 0.039800 0.444907
O O7 0.055595 0.615284 0.990321
O O8 0.196121 0.923874 0.256099
O O9 0.851294 0.592674 0.512947
O O10 0.223747 0.756710 0.072532
O O11 0.500000 0.500000 0.000000
O O12 0.510832 0.089807 0.139477
O O13 0.291359 0.803397 0.013422
O O14 0.687411 0.562658 0.714027
O O15 0.000000 0.000000 0.000000
#
# Coordination Sequence:
#
# PCOD8004054 Si02
#       7
#     2   2   2   2   2   2   2
#     4   9  19  37  62  89 122 165 201 245 305 368
#     4  10  22  39  60  88 124 166 202 253 304 369
#     4  11  21  37  63  96 123 157 207 256 307 358
#     4  11  21  37  59  90 122 163 201 253 307 356
#     4   9  19  39  61  84 124 168 201 244 304 368
#     4  10  21  37  62  92 124 160 209 250 304 368
#     4  10  20  37  63  92 121 159 205 256 310 363
#
# _framework density 21.882704
#
# number of rings (size 3 to 8) (size 9 to 14) (size 15 to 20)
#    0.000    2.000    1.429    2.143    0.000    2.857 
#    0.000    0.000    0.000   26.571    0.000    0.000 
#    0.000    0.000    0.000    0.000    0.000    0.000 
#
# Total GULP energy -173435.155478 kJ/mol
# GULP energy per Si atom -12388.225391 kJ/mol
# Density = 2.183290 g / cm^3
# Si number density = 21.882704 Si / 1000 Ang^3
#
#
#
# Elastic Constant Matrix: (Units=GPa)
#
#
# Indices 1 2 3 4 5 6 
#
# 1 80.7137 33.9471 25.1368 2.0625 20.8585 -16.6671
# 2 33.9471 92.1905 46.1118 -3.7817 3.0285 -9.9931
# 3 25.1368 46.1118 126.0421 1.2879 -1.2121 -7.2363
# 4 2.0625 -3.7817 1.2879 41.6341 4.0924 -2.0832
# 5 20.8585 3.0285 -1.2121 4.0924 31.7488 -3.4251
# 6 -16.6671 -9.9931 -7.2363 -2.0832 -3.4251 28.8062
#
#
#
# Elastic Compliance Matrix: (Units=1/GPa)
#
#
# Indices 1 2 3 4 5 6 
#
# 1 0.019734 -0.005175 -0.001708 0.000147 -0.011713 0.007812
# 2 -0.005175 0.015135 -0.004421 0.001671 0.001731 0.001473
# 3 -0.001708 -0.004421 0.009929 -0.000817 0.002045 0.000156
# 4 0.000147 0.001671 -0.000817 0.024602 -0.003259 0.001851
# 5 -0.011713 0.001731 0.002045 -0.003259 0.039395 -0.001215
# 6 0.007812 0.001473 0.000156 0.001851 -0.001215 0.039774
#
#
# Mechanical properties :
#
#
# Convention : Reuss Voigt Hill
#
# Bulk Modulus (GPa) = 45.06425 56.59306 50.82866
# Shear Modulus (GPa) = 27.99974 33.35452 30.67713
#
# Velocity S-wave (km/s) = 3.58094 3.90839 3.74824
# Velocity P-wave (km/s) = 6.14295 6.80334 6.48156
#
# Compressibility (1/GPa) = 0.02219054
#
# Stress axis : x y z
#
# Youngs Moduli (GPa) = 50.67367 66.07115 100.71606
#
# Poissons Ratio (x) = 0.34190 0.17204
# Poissons Ratio (y) = 0.26222 0.44527
# Poissons Ratio (z) = 0.08656 0.29210
#
# Static dielectric constant tensor:
#      x y z
#    x 3.568090 0.128640 -0.167180 
#    y 0.128640 4.560080 0.270910 
#    z -0.167180 0.270910 4.301190 
# 
# 
# High freq. dielectric constant tensor:
#      x y z
#    x 1.816630 0.005230 -0.010470 
#    y 0.005230 1.890490 0.009470 
#    z -0.010470 0.009470 1.879600 
# 
# From -- ./inp_files/168014.got.cif
#   From: 2010.06.25/outbox.cif.g09.slc.cpg/sg2_85_cif.got.tgz:168014.got - 2010.06.27 13:26:56.
