data_PCOD8004086
_publ_section_title
;
Structure prediction by ZEFSAII (Michael W. Deem and Ramdas Pophale) SiO2 
 PCOD8004086
Probable space group: P -1
;
_chemical_formula_sum "Si O2"
_cell_formula_units_Z 16
_cell_length_a 16.187349
_cell_length_b 9.699267
_cell_length_c 10.250109
_cell_angle_alpha 108.996412
_cell_angle_beta 82.869453
_cell_angle_gamma 147.859218
_cell_volume 771.950645
_symmetry_space_group_name_H-M "P -1"
_symmetry_group_IT_number 2
_symmetry_cell_setting 'triclinic'
loop_
_space_group_symop_operation_xyz
x,y,z
-x,-y,-z
loop_
_atom_site_type_symbol
_atom_site_label
_atom_site_fract_x
_atom_site_fract_y
_atom_site_fract_z
Si Si1 0.178323 0.695265 0.022937
Si Si2 0.322340 0.147521 0.796650
Si Si3 0.184744 0.254637 0.253269
Si Si4 0.679986 0.363322 0.885780
Si Si5 0.814241 0.672568 0.443614
Si Si6 0.648966 0.768315 0.880570
Si Si7 0.698201 0.197967 0.247305
Si Si8 0.187223 0.232884 0.801149
O O1 0.209102 0.609698 0.091458
O O2 0.308364 0.017191 0.135585
O O3 0.206363 0.673809 0.867260
O O4 0.000000 0.500000 0.000000
O O5 0.476775 0.438240 0.772044
O O6 0.285287 0.922731 0.702233
O O7 0.177740 0.042703 0.760791
O O8 0.359974 0.203025 0.958494
O O9 0.262297 0.497496 0.224524
O O10 0.260765 0.376592 0.422284
O O11 0.211079 0.137157 0.148282
O O12 0.991919 0.976611 0.211594
O O13 0.510989 0.960922 0.183258
O O14 0.698936 0.523543 0.035674
O O15 0.790102 0.462103 0.390702
O O16 0.732270 0.608858 0.306926
O O17 0.000000 0.000000 0.500000
#
# Coordination Sequence:
#
# PCOD8004086 Si02
#       8
#     2   2   2   2   2   2   2   2
#     4  11  24  35  63 102 131 153 208 275 312 361
#     4  10  20  37  63  95 121 161 202 271 313 358
#     4  11  23  41  63  92 128 169 211 249 308 388
#     4  12  22  39  68  99 120 165 216 265 305 368
#     4  10  25  44  63  87 131 177 201 251 320 390
#     4  10  20  38  58  93 133 153 200 263 325 355
#     4  11  23  42  65  91 132 163 211 259 322 370
#     4  11  21  39  67  94 125 165 214 250 320 368
#
# _framework density 20.726713
#
# number of rings (size 3 to 8) (size 9 to 14) (size 15 to 20)
#    0.000    1.250    3.750    3.000    7.000    0.500 
#    0.000    4.375    0.000    0.000    0.000    0.000 
#    0.000    0.000    0.000    0.000    0.000    0.000 
#
# Total GULP energy -198318.026089 kJ/mol
# GULP energy per Si atom -12394.876631 kJ/mol
# Density = 2.067954 g / cm^3
# Si number density = 20.726713 Si / 1000 Ang^3
#
#
#
# Elastic Constant Matrix: (Units=GPa)
#
#
# Indices 1 2 3 4 5 6 
#
# 1 111.9375 27.0241 14.3602 4.6299 -10.2981 -11.9487
# 2 27.0241 92.8545 48.8174 1.7184 -5.6836 -12.5028
# 3 14.3602 48.8174 62.4392 -0.1829 1.7171 -4.8126
# 4 4.6299 1.7184 -0.1829 36.7203 -11.9298 -4.0553
# 5 -10.2981 -5.6836 1.7171 -11.9298 16.4360 2.8866
# 6 -11.9487 -12.5028 -4.8126 -4.0553 2.8866 43.0698
#
#
#
# Elastic Compliance Matrix: (Units=1/GPa)
#
#
# Indices 1 2 3 4 5 6 
#
# 1 0.010240 -0.001887 -0.000905 0.001041 0.006285 0.001869
# 2 -0.001887 0.020388 -0.015481 0.002375 0.008628 0.003310
# 3 -0.000905 -0.015481 0.028527 -0.002577 -0.010580 -0.001091
# 4 0.001041 0.002375 -0.002577 0.036200 0.027624 0.002248
# 5 0.006285 0.008628 -0.010580 0.027624 0.088971 -0.000296
# 6 0.001869 0.003310 -0.001091 0.002248 -0.000296 0.024807
#
#
# Mechanical properties :
#
#
# Convention : Reuss Voigt Hill
#
# Bulk Modulus (GPa) = 44.23352 49.73719 46.98535
# Shear Modulus (GPa) = 19.74606 31.04719 25.39662
#
# Velocity S-wave (km/s) = 3.08991 3.87451 3.50424
# Velocity P-wave (km/s) = 5.84104 6.63811 6.25229
#
# Compressibility (1/GPa) = 0.02260729
#
# Stress axis : x y z
#
# Youngs Moduli (GPa) = 97.65671 49.04943 35.05493
#
# Poissons Ratio (x) = 0.09256 0.03174
# Poissons Ratio (y) = 0.18429 0.54268
# Poissons Ratio (z) = 0.08842 0.75933
#
# Static dielectric constant tensor:
#      x y z
#    x 3.879810 -0.267100 -0.089100 
#    y -0.267100 4.083700 -0.151710 
#    z -0.089100 -0.151710 3.904270 
# 
# 
# High freq. dielectric constant tensor:
#      x y z
#    x 1.814160 -0.012400 -0.013750 
#    y -0.012400 1.824760 -0.004610 
#    z -0.013750 -0.004610 1.777140 
# 
# From -- ./inp_files/444889.got.cif
#   From: 2010.06.25/outbox.cif.g09.slc.cpg/sg2_223_cif.got.tgz:444889.got - 2010.06.27 13:26:56.
