data_PCOD8004452
_publ_section_title
;
Structure prediction by ZEFSAII (Michael W. Deem and Ramdas Pophale) SiO2 
 PCOD8004452
Probable space group: P -1
;
_chemical_formula_sum "Si O2"
_cell_formula_units_Z 16
_cell_length_a 7.076733
_cell_length_b 8.439732
_cell_length_c 18.462835
_cell_angle_alpha 75.329621
_cell_angle_beta 97.982941
_cell_angle_gamma 50.839294
_cell_volume 758.676258
_symmetry_space_group_name_H-M "P -1"
_symmetry_group_IT_number 2
_symmetry_cell_setting 'triclinic'
loop_
_space_group_symop_operation_xyz
x,y,z
-x,-y,-z
loop_
_atom_site_type_symbol
_atom_site_label
_atom_site_fract_x
_atom_site_fract_y
_atom_site_fract_z
Si Si1 0.121072 0.119161 0.284921
Si Si2 0.038694 0.479001 0.714027
Si Si3 0.559360 0.334881 0.717106
Si Si4 0.295267 0.503292 0.415704
Si Si5 0.134403 0.745018 0.025627
Si Si6 0.738213 0.298125 0.114288
Si Si7 0.166181 0.883009 0.450506
Si Si8 0.053366 0.166330 0.847920
O O1 0.176010 0.281453 0.280694
O O2 0.872438 0.242091 0.204646
O O3 0.374718 0.879379 0.291656
O O4 0.056322 0.076501 0.364028
O O5 0.914985 0.497865 0.629036
O O6 0.138820 0.263570 0.789523
O O7 0.270635 0.475459 0.718092
O O8 0.558217 0.479365 0.641172
O O9 0.771120 0.255096 0.799335
O O10 0.134783 0.717667 0.436491
O O11 0.521868 0.269478 0.498213
O O12 0.451030 0.551452 0.076892
O O13 0.986595 0.733706 0.084121
O O14 0.096079 0.714070 0.942722
O O15 0.000000 0.000000 0.000000
O O16 0.725208 0.109937 0.115327
O O17 0.000000 0.000000 0.500000
#
# Coordination Sequence:
#
# PCOD8004452 Si02
#       8
#     2   2   2   2   2   2   2   2
#     4  10  21  35  55  83 111 147 191 229 276 334
#     4  11  21  35  58  85 114 150 187 228 277 327
#     4   9  19  37  55  79 118 152 185 232 276 323
#     4   9  21  38  56  82 112 148 192 229 276 335
#     4   9  17  32  58  86 110 144 187 227 273 330
#     4   9  18  35  58  81 112 150 183 226 280 328
#     4  10  20  38  59  80 112 149 186 235 283 324
#     4   9  19  34  56  84 113 149 189 225 272 331
#
# _framework density 21.089365999999998
#
# number of rings (size 3 to 8) (size 9 to 14) (size 15 to 20)
#    0.000    2.500    0.000    2.250    0.000    3.500 
#    0.000   11.875    0.000   30.750    0.000    0.000 
#    0.000    0.000    0.000    0.000    0.000    0.000 
#
# Total GULP energy -198212.575439 kJ/mol
# GULP energy per Si atom -12388.285965 kJ/mol
# Density = 2.104137 g / cm^3
# Si number density = 21.089366 Si / 1000 Ang^3
#
#
#
# Elastic Constant Matrix: (Units=GPa)
#
#
# Indices 1 2 3 4 5 6 
#
# 1 58.2453 21.4478 20.8601 -4.8765 -4.1505 -0.2667
# 2 21.4478 108.9331 48.9944 0.1321 -2.8689 9.0499
# 3 20.8601 48.9944 139.3002 4.0298 4.2046 -2.3296
# 4 -4.8765 0.1321 4.0298 33.3090 -11.4304 -2.5811
# 5 -4.1505 -2.8689 4.2046 -11.4304 6.8979 -2.6019
# 6 -0.2667 9.0499 -2.3296 -2.5811 -2.6019 21.4367
#
#
#
# Elastic Compliance Matrix: (Units=1/GPa)
#
#
# Indices 1 2 3 4 5 6 
#
# 1 0.029961 -0.001521 -0.007467 0.037189 0.089433 0.015536
# 2 -0.001521 0.012209 -0.004656 0.004555 0.013219 -0.003526
# 3 -0.007467 -0.004656 0.011817 -0.018961 -0.046868 -0.004815
# 4 0.037189 0.004555 -0.018961 0.138865 0.283916 0.047660
# 5 0.089433 0.013219 -0.046868 0.283916 0.746799 0.115268
# 6 0.015536 -0.003526 -0.004815 0.047660 0.115268 0.067537
#
#
# Mechanical properties :
#
#
# Convention : Reuss Voigt Hill
#
# Bulk Modulus (GPa) = 37.45497 54.34258 45.89877
# Shear Modulus (GPa) = 4.79214 26.67382 15.73298
#
# Velocity S-wave (km/s) = 1.50905 3.56026 2.73429
# Velocity P-wave (km/s) = 4.56454 6.53638 5.63734
#
# Compressibility (1/GPa) = 0.02669873
#
# Stress axis : x y z
#
# Youngs Moduli (GPa) = 33.37694 81.90559 84.62223
#
# Poissons Ratio (x) = 0.12458 0.63188
# Poissons Ratio (y) = 0.05077 0.39401
# Poissons Ratio (z) = 0.24923 0.38137
#
# Static dielectric constant tensor:
#      x y z
#    x 3.164430 0.141170 0.015170 
#    y 0.141170 4.137520 0.106930 
#    z 0.015170 0.106930 4.346840 
# 
# 
# High freq. dielectric constant tensor:
#      x y z
#    x 1.756450 0.007790 0.003440 
#    y 0.007790 1.849950 0.000400 
#    z 0.003440 0.000400 1.853850 
# 
# From -- ./inp_files/582334.got.cif
#   From: 2010.06.25/outbox.cif.g09.slc.cpg/sg2_292_cif.got.tgz:582334.got - 2010.06.27 13:26:56.
