data_PCOD8004633
_publ_section_title
;
Structure prediction by ZEFSAII (Michael W. Deem and Ramdas Pophale) SiO2 
 PCOD8004633
Probable space group: P -1
;
_chemical_formula_sum "Si O2"
_cell_formula_units_Z 16
_cell_length_a 14.448089
_cell_length_b 11.917028
_cell_length_c 10.072355
_cell_angle_alpha 132.709870
_cell_angle_beta 45.262976
_cell_angle_gamma 138.916791
_cell_volume 767.932541
_symmetry_space_group_name_H-M "P -1"
_symmetry_group_IT_number 2
_symmetry_cell_setting 'triclinic'
loop_
_space_group_symop_operation_xyz
x,y,z
-x,-y,-z
loop_
_atom_site_type_symbol
_atom_site_label
_atom_site_fract_x
_atom_site_fract_y
_atom_site_fract_z
Si Si1 0.220763 0.838808 0.276891
Si Si2 0.606150 0.689102 0.294114
Si Si3 0.921610 0.063122 0.283060
Si Si4 0.479211 0.779309 0.726980
Si Si5 0.861157 0.303080 0.019274
Si Si6 0.383312 0.657728 0.009231
Si Si7 0.531384 0.857313 0.285120
Si Si8 0.120555 0.911723 0.943400
O O1 0.228922 0.657763 0.130556
O O2 0.096457 0.820113 0.492740
O O3 0.394281 0.010547 0.262050
O O4 0.157415 0.834983 0.190216
O O5 0.768211 0.870913 0.274334
O O6 0.523572 0.659583 0.496421
O O7 0.500970 0.703332 0.298806
O O8 0.640985 0.535972 0.101346
O O9 0.952961 0.162712 0.188638
O O10 0.057024 0.032358 0.162636
O O11 0.306542 0.721378 0.812796
O O12 0.496118 0.748590 0.841087
O O13 0.916627 0.253075 0.056418
O O14 0.000000 0.500000 0.000000
O O15 0.428812 0.765099 0.187005
O O16 0.500000 0.000000 0.500000
O O17 0.700078 0.956227 0.137600
#
# Coordination Sequence:
#
# PCOD8004633 Si02
#       8
#     2   2   2   2   2   2   2   2
#     4  10  21  40  62  86 112 161 207 230 292 360
#     4  10  21  36  60  90 117 146 199 249 297 334
#     4   9  21  39  62  83 113 162 198 236 288 358
#     4  10  21  40  61  86 115 162 201 235 294 362
#     4  11  23  37  59  90 124 152 190 252 302 340
#     4  11  20  34  60  87 120 146 193 252 290 339
#     4  11  21  38  63  86 114 157 198 243 287 354
#     4  10  20  38  61  82 117 156 196 236 290 356
#
# _framework density 20.835163000000001
#
# number of rings (size 3 to 8) (size 9 to 14) (size 15 to 20)
#    0.000    1.750    0.000    6.750    3.500    0.500 
#    2.250    0.625    5.500    0.000    0.000    0.000 
#    0.000    0.000    0.000    0.000    0.000    0.000 
#
# Total GULP energy -198266.775555 kJ/mol
# GULP energy per Si atom -12391.673472 kJ/mol
# Density = 2.078774 g / cm^3
# Si number density = 20.835163 Si / 1000 Ang^3
#
#
#
# Elastic Constant Matrix: (Units=GPa)
#
#
# Indices 1 2 3 4 5 6 
#
# 1 89.0686 40.5861 49.0900 -4.9302 0.6714 -16.1933
# 2 40.5861 65.8136 43.9085 -1.5670 -2.0679 -15.7472
# 3 49.0900 43.9085 170.4808 -2.4562 -0.2527 -14.6676
# 4 -4.9302 -1.5670 -2.4562 28.4279 -1.1619 -2.7673
# 5 0.6714 -2.0679 -0.2527 -1.1619 34.8510 -2.8523
# 6 -16.1933 -15.7472 -14.6676 -2.7673 -2.8523 36.6188
#
#
#
# Elastic Compliance Matrix: (Units=1/GPa)
#
#
# Indices 1 2 3 4 5 6 
#
# 1 0.016984 -0.007970 -0.002523 0.002584 -0.000468 0.003231
# 2 -0.007970 0.023722 -0.003334 0.000256 0.001997 0.005516
# 3 -0.002523 -0.003334 0.007491 0.000068 -0.000056 0.000452
# 4 0.002584 0.000256 0.000068 0.036108 0.001507 0.004126
# 5 -0.000468 0.001997 -0.000056 0.001507 0.029117 0.003011
# 6 0.003231 0.005516 0.000452 0.004126 0.003011 0.031837
#
#
# Mechanical properties :
#
#
# Convention : Reuss Voigt Hill
#
# Bulk Modulus (GPa) = 48.67899 65.83692 57.25795
# Shear Modulus (GPa) = 27.81482 32.76479 30.28981
#
# Velocity S-wave (km/s) = 3.65772 3.96987 3.81699
# Velocity P-wave (km/s) = 6.42286 7.25815 6.85324
#
# Compressibility (1/GPa) = 0.02054274
#
# Stress axis : x y z
#
# Youngs Moduli (GPa) = 58.87983 42.15437 133.49989
#
# Poissons Ratio (x) = 0.33598 0.33684
# Poissons Ratio (y) = 0.46929 0.44503
# Poissons Ratio (z) = 0.14856 0.14052
#
# Static dielectric constant tensor:
#      x y z
#    x 4.176040 -0.347260 0.079960 
#    y -0.347260 3.558360 -0.131570 
#    z 0.079960 -0.131570 4.190010 
# 
# 
# High freq. dielectric constant tensor:
#      x y z
#    x 1.820500 -0.015320 0.004060 
#    y -0.015320 1.784040 -0.012800 
#    z 0.004060 -0.012800 1.833180 
# 
# From -- ./inp_files/308474.got.cif
#   From: 2010.06.25/outbox.cif.g09.slc.cpg/sg2_155_cif.got.tgz:308474.got - 2010.06.27 13:26:56.
