data_PCOD8004056
_publ_section_title
;
Structure prediction by ZEFSAII (Michael W. Deem and Ramdas Pophale) SiO2 
 PCOD8004056
Probable space group: P -1
;
_chemical_formula_sum "Si O2"
_cell_formula_units_Z 14
_cell_length_a 23.567707
_cell_length_b 13.528490
_cell_length_c 9.283728
_cell_angle_alpha 31.660124
_cell_angle_beta 34.071827
_cell_angle_gamma 25.108053
_cell_volume 636.829697
_symmetry_space_group_name_H-M "P -1"
_symmetry_group_IT_number 2
_symmetry_cell_setting 'triclinic'
loop_
_space_group_symop_operation_xyz
x,y,z
-x,-y,-z
loop_
_atom_site_type_symbol
_atom_site_label
_atom_site_fract_x
_atom_site_fract_y
_atom_site_fract_z
Si Si1 0.072809 0.233958 0.593305
Si Si2 0.505743 0.360304 0.800497
Si Si3 0.311047 0.856104 0.761477
Si Si4 0.931782 0.893407 0.825326
Si Si5 0.181564 0.027111 0.325572
Si Si6 0.133718 0.658414 0.930057
Si Si7 0.614426 0.841245 0.836106
O O1 0.000000 0.500000 0.500000
O O2 0.227082 0.989470 0.624118
O O3 0.083321 0.239466 0.391960
O O4 0.974280 0.181980 0.907905
O O5 0.500000 0.500000 0.500000
O O6 0.436533 0.552704 0.844399
O O7 0.660971 0.099448 0.839560
O O8 0.415557 0.288920 0.049629
O O9 0.372450 0.987038 0.502263
O O10 0.213226 0.899924 0.039223
O O11 0.049972 0.659648 0.972379
O O12 0.893417 0.818567 0.857951
O O13 0.000000 0.000000 0.500000
O O14 0.194635 0.783546 0.607423
O O15 0.249117 0.365027 0.099765
O O16 0.500000 0.000000 0.000000
#
# Coordination Sequence:
#
# PCOD8004056 Si02
#       7
#     2   2   2   2   2   2   2
#     4  11  20  34  62  91 123 158 211 270 316 363
#     4  12  22  38  66  98 124 172 213 267 321 375
#     4  11  22  42  64  96 131 165 218 267 320 380
#     4   9  23  42  66  92 130 174 211 259 330 390
#     4  11  21  41  62  93 128 168 216 260 318 392
#     4  10  20  37  63  92 121 165 213 268 322 369
#     4  12  21  36  66  99 128 163 220 271 313 377
#
# _framework density 21.983899000000001
#
# number of rings (size 3 to 8) (size 9 to 14) (size 15 to 20)
#    0.000    1.143    5.714    0.429    0.000    2.857 
#    0.000    3.571    3.143    0.000    0.000    0.000 
#    0.000    0.000    0.000    0.000    0.000    0.000 
#
# Total GULP energy -173474.620166 kJ/mol
# GULP energy per Si atom -12391.044298 kJ/mol
# Density = 2.193386 g / cm^3
# Si number density = 21.983899 Si / 1000 Ang^3
#
#
#
# Elastic Constant Matrix: (Units=GPa)
#
#
# Indices 1 2 3 4 5 6 
#
# 1 144.3906 66.5539 34.1239 14.0389 14.1667 -0.5438
# 2 66.5539 101.5960 37.3009 12.8115 3.5534 0.7295
# 3 34.1239 37.3009 109.4340 21.6615 -11.1207 12.0307
# 4 14.0389 12.8115 21.6615 33.5710 4.6276 -2.1113
# 5 14.1667 3.5534 -11.1207 4.6276 25.5052 9.3865
# 6 -0.5438 0.7295 12.0307 -2.1113 9.3865 35.6756
#
#
#
# Elastic Compliance Matrix: (Units=1/GPa)
#
#
# Indices 1 2 3 4 5 6 
#
# 1 0.011088 -0.006125 -0.002663 0.000701 -0.007803 0.003287
# 2 -0.006125 0.015134 -0.003084 -0.001181 -0.000050 0.000580
# 3 -0.002663 -0.003084 0.015523 -0.010259 0.014039 -0.009513
# 4 0.000701 -0.001181 -0.010259 0.039320 -0.015473 0.009892
# 5 -0.007803 -0.000050 0.014039 -0.015473 0.060454 -0.021674
# 6 0.003287 0.000580 -0.009513 0.009892 -0.021674 0.037565
#
#
# Mechanical properties :
#
#
# Convention : Reuss Voigt Hill
#
# Bulk Modulus (GPa) = 55.55147 70.15314 62.85231
# Shear Modulus (GPa) = 23.94327 33.44647 28.69487
#
# Velocity S-wave (km/s) = 3.30377 3.90475 3.61677
# Velocity P-wave (km/s) = 6.31484 7.23256 6.78922
#
# Compressibility (1/GPa) = 0.01800132
#
# Stress axis : x y z
#
# Youngs Moduli (GPa) = 90.18768 66.07646 64.42240
#
# Poissons Ratio (x) = 0.40472 0.17155
# Poissons Ratio (y) = 0.55240 0.19866
# Poissons Ratio (z) = 0.24016 0.20376
#
# Static dielectric constant tensor:
#      x y z
#    x 4.925140 -1.039190 -0.954650 
#    y -1.039190 5.074290 1.462970 
#    z -0.954650 1.462970 5.506840 
# 
# 
# High freq. dielectric constant tensor:
#      x y z
#    x 1.856630 -0.005930 -0.016420 
#    y -0.005930 1.858900 0.020660 
#    z -0.016420 0.020660 1.865760 
# 
# From -- ./inp_files/180238.got.cif
#   From: 2010.06.25/outbox.cif.g09.slc.cpg/sg2_91_cif.got.tgz:180238.got - 2010.06.27 13:26:56.
