data_PCOD8004684
_publ_section_title
;
Structure prediction by ZEFSAII (Michael W. Deem and Ramdas Pophale) SiO2 
 PCOD8004684
Probable space group: P -1
;
_chemical_formula_sum "Si O2"
_cell_formula_units_Z 16
_cell_length_a 11.468112
_cell_length_b 9.449286
_cell_length_c 7.521459
_cell_angle_alpha 105.111991
_cell_angle_beta 84.445560
_cell_angle_gamma 70.785207
_cell_volume 727.987185
_symmetry_space_group_name_H-M "P -1"
_symmetry_group_IT_number 2
_symmetry_cell_setting 'triclinic'
loop_
_space_group_symop_operation_xyz
x,y,z
-x,-y,-z
loop_
_atom_site_type_symbol
_atom_site_label
_atom_site_fract_x
_atom_site_fract_y
_atom_site_fract_z
Si Si1 0.257367 0.971656 0.933526
Si Si2 0.603679 0.493596 0.308961
Si Si3 0.250726 0.702524 0.072845
Si Si4 0.942125 0.823097 0.542718
Si Si5 0.220620 0.585687 0.401209
Si Si6 0.272014 0.236679 0.250701
Si Si7 0.010164 0.078269 0.800466
Si Si8 0.484016 0.759640 0.637365
O O1 0.111901 0.007804 0.917291
O O2 0.298570 0.839626 0.040333
O O3 0.347224 0.898484 0.724060
O O4 0.273151 0.131677 0.044078
O O5 0.675787 0.459568 0.098662
O O6 0.707015 0.426003 0.428745
O O7 0.524331 0.682558 0.407566
O O8 0.509746 0.396489 0.300767
O O9 0.273081 0.674760 0.272103
O O10 0.100264 0.757340 0.073233
O O11 0.826642 0.770780 0.588778
O O12 0.915818 0.895008 0.372830
O O13 0.074133 0.679331 0.491815
O O14 0.940384 0.958012 0.726004
O O15 0.233503 0.418031 0.260520
O O16 0.412760 0.172159 0.288816
#
# Coordination Sequence:
#
# PCOD8004684 Si02
#       8
#     2   2   2   2   2   2   2   2
#     4  11  21  38  64  85 121 158 200 244 296 351
#     4   9  19  39  67  83 119 159 204 243 292 350
#     4  10  20  38  65  94 113 151 204 248 294 355
#     4  10  20  38  61  89 122 154 197 249 297 358
#     4  10  22  39  62  93 121 153 198 249 302 355
#     4  11  22  38  59  86 128 156 190 247 310 343
#     4  10  21  37  64  92 115 153 206 245 292 361
#     4   9  20  39  59  85 118 162 199 244 286 352
#
# _framework density 21.978408999999999
#
# number of rings (size 3 to 8) (size 9 to 14) (size 15 to 20)
#    0.000    2.000    1.250    2.625    1.750    0.000 
#    4.500   17.500    0.000    0.000    0.000    0.000 
#    0.000    0.000    0.000    0.000    0.000    0.000 
#
# Total GULP energy -198303.006018 kJ/mol
# GULP energy per Si atom -12393.937876 kJ/mol
# Density = 2.192839 g / cm^3
# Si number density = 21.978409 Si / 1000 Ang^3
#
#
#
# Elastic Constant Matrix: (Units=GPa)
#
#
# Indices 1 2 3 4 5 6 
#
# 1 77.4696 11.6739 17.2795 0.8260 -13.0394 23.4008
# 2 11.6739 58.8891 13.5470 4.2328 -0.6553 10.1682
# 3 17.2795 13.5470 97.7237 17.2976 -18.9285 5.3664
# 4 0.8260 4.2328 17.2976 36.4515 -7.5357 1.8278
# 5 -13.0394 -0.6553 -18.9285 -7.5357 30.9576 6.1045
# 6 23.4008 10.1682 5.3664 1.8278 6.1045 24.1523
#
#
#
# Elastic Compliance Matrix: (Units=1/GPa)
#
#
# Indices 1 2 3 4 5 6 
#
# 1 0.024108 -0.000044 -0.000314 0.004415 0.016513 -0.027777
# 2 -0.000044 0.018795 -0.001957 -0.000780 0.000471 -0.007495
# 3 -0.000314 -0.001957 0.012906 -0.004209 0.007339 -0.003276
# 4 0.004415 -0.000780 -0.004209 0.031542 0.008433 -0.007532
# 5 0.016513 0.000471 0.007339 0.008433 0.052043 -0.031621
# 6 -0.027777 -0.007495 -0.003276 -0.007532 -0.031621 0.080763
#
#
# Mechanical properties :
#
#
# Convention : Reuss Voigt Hill
#
# Bulk Modulus (GPa) = 19.53917 35.45369 27.49643
# Shear Modulus (GPa) = 20.67416 31.08443 25.87930
#
# Velocity S-wave (km/s) = 3.07034 3.76482 3.43518
# Velocity P-wave (km/s) = 4.63452 5.92154 5.31712
#
# Compressibility (1/GPa) = 0.05117925
#
# Stress axis : x y z
#
# Youngs Moduli (GPa) = 41.48004 53.20432 77.48264
#
# Poissons Ratio (x) = 0.00235 0.02434
# Poissons Ratio (y) = 0.00183 0.15163
# Poissons Ratio (z) = 0.01303 0.10412
#
# Static dielectric constant tensor:
#      x y z
#    x 3.862630 -0.046750 -0.369920 
#    y -0.046750 3.760680 0.287680 
#    z -0.369920 0.287680 4.132340 
# 
# 
# High freq. dielectric constant tensor:
#      x y z
#    x 1.859940 -0.003540 -0.031420 
#    y -0.003540 1.834370 0.018600 
#    z -0.031420 0.018600 1.875460 
# 
# From -- ./inp_files/244993.got.cif
#   From: 2010.06.25/outbox.cif.g09.slc.cpg/sg2_123_cif.got.tgz:244993.got - 2010.06.27 13:26:56.
