data_PCOD8004745
_publ_section_title
;
Structure prediction by ZEFSAII (Michael W. Deem and Ramdas Pophale) SiO2 
 PCOD8004745
Probable space group: P -1
;
_chemical_formula_sum "Si O2"
_cell_formula_units_Z 14
_cell_length_a 6.598375
_cell_length_b 10.363296
_cell_length_c 13.058258
_cell_angle_alpha 137.408465
_cell_angle_beta 69.877642
_cell_angle_gamma 108.163602
_cell_volume 565.016240
_symmetry_space_group_name_H-M "P -1"
_symmetry_group_IT_number 2
_symmetry_cell_setting 'triclinic'
loop_
_space_group_symop_operation_xyz
x,y,z
-x,-y,-z
loop_
_atom_site_type_symbol
_atom_site_label
_atom_site_fract_x
_atom_site_fract_y
_atom_site_fract_z
Si Si1 0.983911 0.689343 0.221705
Si Si2 0.469449 0.400433 0.598597
Si Si3 0.631686 0.438774 0.039563
Si Si4 0.858489 0.901489 0.613383
Si Si5 0.494684 0.961139 0.096966
Si Si6 0.126174 0.577463 0.349976
Si Si7 0.761010 0.308921 0.311722
O O1 0.726855 0.611888 0.202025
O O2 0.071153 0.592061 0.249498
O O3 0.007716 0.919534 0.359854
O O4 0.140760 0.640625 0.074553
O O5 0.296291 0.212470 0.512739
O O6 0.610618 0.418107 0.690128
O O7 0.667992 0.388555 0.478209
O O8 0.353896 0.590717 0.705836
O O9 0.500000 0.500000 0.000000
O O10 0.488473 0.263331 0.016079
O O11 0.032055 0.754597 0.532379
O O12 0.717262 0.957723 0.767588
O O13 0.708617 0.079853 0.177731
O O14 0.500000 0.000000 0.000000
O O15 0.016506 0.375656 0.296886
#
# Coordination Sequence:
#
# PCOD8004745 Si02
#       7
#     2   2   2   2   2   2   2
#     4  10  22  38  58  86 115 152 199 238 285 349
#     4   9  19  35  55  82 117 152 186 236 297 343
#     4  10  23  43  62  83 118 157 195 242 290 342
#     4   9  21  37  55  85 121 149 187 242 288 345
#     4  10  20  38  62  83 112 155 197 240 289 339
#     4  11  20  34  60  87 116 153 191 237 293 351
#     4   9  19  35  53  82 117 148 189 242 289 342
#
# _framework density 24.77805
#
# number of rings (size 3 to 8) (size 9 to 14) (size 15 to 20)
#    0.000    2.286    0.000    2.571    0.000    7.429 
#    0.000    2.857    0.000   17.143    0.000    0.000 
#    0.000    0.000    0.000    0.000    0.000    0.000 
#
# Total GULP energy -173526.138874 kJ/mol
# GULP energy per Si atom -12394.724205 kJ/mol
# Density = 2.472165 g / cm^3
# Si number density = 24.778050 Si / 1000 Ang^3
#
#
#
# Elastic Constant Matrix: (Units=GPa)
#
#
# Indices 1 2 3 4 5 6 
#
# 1 147.4486 52.2366 22.2130 21.3519 22.2157 16.0348
# 2 52.2366 156.6422 32.6524 43.1194 23.5467 26.5724
# 3 22.2130 32.6524 78.5140 24.3124 22.6550 8.2938
# 4 21.3519 43.1194 24.3124 34.9845 3.3137 13.9055
# 5 22.2157 23.5467 22.6550 3.3137 30.6332 -4.1938
# 6 16.0348 26.5724 8.2938 13.9055 -4.1938 47.3294
#
#
#
# Elastic Compliance Matrix: (Units=1/GPa)
#
#
# Indices 1 2 3 4 5 6 
#
# 1 0.008607 -0.000797 0.001042 -0.003533 -0.006315 -0.002173
# 2 -0.000797 0.011937 0.002662 -0.013685 -0.009596 -0.003728
# 3 0.001042 0.002662 0.021678 -0.016392 -0.017385 -0.002370
# 4 -0.003533 -0.013685 -0.016392 0.058818 0.018308 -0.003906
# 5 -0.006315 -0.009596 -0.017385 0.018308 0.056878 0.010234
# 6 -0.002173 -0.003728 -0.002370 -0.003906 0.010234 0.026427
#
#
# Mechanical properties :
#
#
# Convention : Reuss Voigt Hill
#
# Bulk Modulus (GPa) = 20.81816 66.31210 43.56513
# Shear Modulus (GPa) = 25.70127 40.95627 33.32877
#
# Velocity S-wave (km/s) = 3.22415 4.07003 3.67153
# Velocity P-wave (km/s) = 4.72020 6.99338 5.96606
#
# Compressibility (1/GPa) = 0.04803497
#
# Stress axis : x y z
#
# Youngs Moduli (GPa) = 116.18798 83.77335 46.13058
#
# Poissons Ratio (x) = 0.06676 -0.04808
# Poissons Ratio (y) = 0.09259 -0.12278
# Poissons Ratio (z) = -0.12110 -0.22296
#
# Static dielectric constant tensor:
#      x y z
#    x 4.556360 0.508330 0.011300 
#    y 0.508330 4.716400 0.044680 
#    z 0.011300 0.044680 4.917300 
# 
# 
# High freq. dielectric constant tensor:
#      x y z
#    x 1.973720 0.031260 0.008390 
#    y 0.031260 2.000390 -0.014920 
#    z 0.008390 -0.014920 1.996350 
# 
# From -- ./inp_files/80182.got.cif
#   From: 2010.06.25/outbox.cif.g09.slc.cpg/sg2_41_cif.got.tgz:80182.got - 2010.06.27 13:26:56.
