data_PCOD8004897
_publ_section_title
;
Structure prediction by ZEFSAII (Michael W. Deem and Ramdas Pophale) SiO2 
 PCOD8004897
Probable space group: P -1
;
_chemical_formula_sum "Si O2"
_cell_formula_units_Z 16
_cell_length_a 22.919929
_cell_length_b 8.783643
_cell_length_c 22.816332
_cell_angle_alpha 144.210599
_cell_angle_beta 17.770372
_cell_angle_gamma 137.597164
_cell_volume 804.797661
_symmetry_space_group_name_H-M "P -1"
_symmetry_group_IT_number 2
_symmetry_cell_setting 'triclinic'
loop_
_space_group_symop_operation_xyz
x,y,z
-x,-y,-z
loop_
_atom_site_type_symbol
_atom_site_label
_atom_site_fract_x
_atom_site_fract_y
_atom_site_fract_z
Si Si1 0.557495 0.278717 0.717394
Si Si2 0.496312 0.240520 0.459960
Si Si3 0.696974 0.413873 0.746829
Si Si4 0.146896 0.634000 0.210853
Si Si5 0.868548 0.285241 0.329151
Si Si6 0.835904 0.252206 0.224283
Si Si7 0.043192 0.202946 0.433763
Si Si8 0.081920 0.315990 0.915758
O O1 0.645493 0.241871 0.687227
O O2 0.712065 0.378862 0.558492
O O3 0.508927 0.000662 0.654919
O O4 0.371616 0.513710 0.969155
O O5 0.500000 0.500000 0.500000
O O6 0.670445 0.171205 0.317077
O O7 0.311041 0.297055 0.698130
O O8 0.783134 0.666421 0.719034
O O9 0.863702 0.228208 0.567598
O O10 0.500000 0.500000 0.000000
O O11 0.049487 0.431468 0.203584
O O12 0.038935 0.661123 0.384898
O O13 0.130914 0.898610 0.270099
O O14 0.758071 0.364880 0.397105
O O15 0.960042 0.974680 0.149970
O O16 0.955714 0.440989 0.132113
O O17 0.000000 0.000000 0.000000
O O18 0.000000 0.500000 0.000000
#
# Coordination Sequence:
#
# PCOD8004897 Si02
#       8
#     2   2   2   2   2   2   2   2
#     4  11  23  39  66  90 128 170 207 263 322 372
#     4  11  23  39  62  94 127 168 216 255 313 383
#     4  11  22  44  66  97 127 164 206 269 328 381
#     4  11  22  42  65  94 124 169 212 261 318 385
#     4  10  23  39  62  90 130 163 217 258 309 381
#     4  10  21  39  61  87 124 166 210 262 309 365
#     4  10  24  41  67  93 125 163 211 263 324 386
#     4  10  20  38  63  87 120 172 206 262 318 362
#
# _framework density 19.880773999999999
#
# number of rings (size 3 to 8) (size 9 to 14) (size 15 to 20)
#    0.000    1.500    3.750    1.500    0.000    8.000 
#    0.000    1.250    0.000    0.000    0.000    0.000 
#    0.000    0.000    0.000    0.000    0.000    0.000 
#
# Total GULP energy -198282.049564 kJ/mol
# GULP energy per Si atom -12392.628098 kJ/mol
# Density = 1.983552 g / cm^3
# Si number density = 19.880774 Si / 1000 Ang^3
#
#
#
# Elastic Constant Matrix: (Units=GPa)
#
#
# Indices 1 2 3 4 5 6 
#
# 1 167.0075 55.4886 50.7481 -8.4671 -7.8955 -1.3146
# 2 55.4886 101.6728 42.5346 -4.4716 -6.6355 -10.1260
# 3 50.7481 42.5346 100.9006 -15.7701 -5.2417 -6.9012
# 4 -8.4671 -4.4716 -15.7701 30.3929 -6.8094 -1.0467
# 5 -7.8955 -6.6355 -5.2417 -6.8094 40.5841 -7.2881
# 6 -1.3146 -10.1260 -6.9012 -1.0467 -7.2881 36.7546
#
#
#
# Elastic Compliance Matrix: (Units=1/GPa)
#
#
# Indices 1 2 3 4 5 6 
#
# 1 0.007897 -0.003281 -0.002548 0.000491 0.000579 -0.000971
# 2 -0.003281 0.013651 -0.003871 -0.000445 0.001597 0.003221
# 3 -0.002548 -0.003871 0.014114 0.006606 0.002182 0.002114
# 4 0.000491 -0.000445 0.006606 0.038323 0.007990 0.003811
# 5 0.000579 0.001597 0.002182 0.007990 0.027824 0.006615
# 6 -0.000971 0.003221 0.002114 0.003811 0.006615 0.029877
#
#
# Mechanical properties :
#
#
# Convention : Reuss Voigt Hill
#
# Bulk Modulus (GPa) = 61.49160 74.12483 67.80822
# Shear Modulus (GPa) = 31.94744 36.26697 34.10720
#
# Velocity S-wave (km/s) = 4.01303 4.27573 4.14646
# Velocity P-wave (km/s) = 7.24361 7.85757 7.55683
#
# Compressibility (1/GPa) = 0.01626238
#
# Stress axis : x y z
#
# Youngs Moduli (GPa) = 126.63315 73.25559 70.84971
#
# Poissons Ratio (x) = 0.24036 0.18054
# Poissons Ratio (y) = 0.41549 0.27423
# Poissons Ratio (z) = 0.32268 0.28354
#
# Static dielectric constant tensor:
#      x y z
#    x 4.067790 -0.236720 0.280020 
#    y -0.236720 3.682850 -0.351740 
#    z 0.280020 -0.351740 3.790360 
# 
# 
# High freq. dielectric constant tensor:
#      x y z
#    x 1.789790 -0.011950 -0.002400 
#    y -0.011950 1.770400 -0.021320 
#    z -0.002400 -0.021320 1.778820 
# 
# From -- ./inp_files/495206.got.cif
#   From: 2010.06.25/outbox.cif.g09.slc.cpg/sg2_248_cif.got.tgz:495206.got - 2010.06.27 13:26:56.
