data_PCOD8004572
_publ_section_title
;
Structure prediction by ZEFSAII (Michael W. Deem and Ramdas Pophale) SiO2 
 PCOD8004572
Probable space group: P -1
;
_chemical_formula_sum "Si O2"
_cell_formula_units_Z 14
_cell_length_a 9.361750
_cell_length_b 13.594750
_cell_length_c 14.838836
_cell_angle_alpha 30.682047
_cell_angle_beta 112.559620
_cell_angle_gamma 91.665868
_cell_volume 684.931221
_symmetry_space_group_name_H-M "P -1"
_symmetry_group_IT_number 2
_symmetry_cell_setting 'triclinic'
loop_
_space_group_symop_operation_xyz
x,y,z
-x,-y,-z
loop_
_atom_site_type_symbol
_atom_site_label
_atom_site_fract_x
_atom_site_fract_y
_atom_site_fract_z
Si Si1 0.925983 0.085784 0.066000
Si Si2 0.037490 0.251760 0.224160
Si Si3 0.305281 0.684883 0.000515
Si Si4 0.083947 0.203955 0.479298
Si Si5 0.238351 0.801248 0.511578
Si Si6 0.975426 0.410695 0.710073
Si Si7 0.264255 0.176249 0.817338
O O1 0.828628 0.959335 0.117924
O O2 0.783861 0.305112 0.932031
O O3 0.945859 0.209068 0.887024
O O4 0.146464 0.876962 0.328567
O O5 0.120595 0.171236 0.408234
O O6 0.207417 0.033361 0.369359
O O7 0.000000 0.500000 0.000000
O O8 0.825913 0.308292 0.116091
O O9 0.531440 0.438109 0.245754
O O10 0.272971 0.942391 0.778080
O O11 0.063917 0.434887 0.331243
O O12 0.876462 0.262068 0.405301
O O13 0.819628 0.591502 0.451662
O O14 0.197526 0.272945 0.828837
O O15 0.500000 0.000000 0.000000
#
# Coordination Sequence:
#
# PCOD8004572 Si02
#       7
#     2   2   2   2   2   2   2
#     4  10  22  43  64  93 129 161 204 263 308 367
#     4  10  21  38  57  87 129 161 207 258 300 361
#     4  10  21  37  62  91 124 164 208 251 303 368
#     4  10  20  38  60  87 122 164 205 256 306 364
#     4  10  21  38  62  88 124 166 205 252 307 363
#     4  11  23  42  66  90 126 166 203 259 319 363
#     4  11  25  42  65  95 123 161 210 257 319 378
#
# _framework density 20.440010000000001
#
# number of rings (size 3 to 8) (size 9 to 14) (size 15 to 20)
#    0.000    2.000    2.857    3.857    2.000    4.571 
#    0.000    2.857    0.000    0.000    0.000    0.000 
#    0.000    0.000    0.000    0.000    0.000    0.000 
#
# Total GULP energy -173521.542766 kJ/mol
# GULP energy per Si atom -12394.395912 kJ/mol
# Density = 2.039349 g / cm^3
# Si number density = 20.440010 Si / 1000 Ang^3
#
#
#
# Elastic Constant Matrix: (Units=GPa)
#
#
# Indices 1 2 3 4 5 6 
#
# 1 78.9691 32.3981 80.2186 -0.6385 2.1315 -11.5720
# 2 32.3981 93.4208 46.9407 -1.7818 3.9965 3.7943
# 3 80.2186 46.9407 145.6990 -11.4294 18.7679 -15.4201
# 4 -0.6385 -1.7818 -11.4294 32.6869 -11.3852 -7.0584
# 5 2.1315 3.9965 18.7679 -11.3852 51.3275 -5.1358
# 6 -11.5720 3.7943 -15.4201 -7.0584 -5.1358 26.6611
#
#
#
# Elastic Compliance Matrix: (Units=1/GPa)
#
#
# Indices 1 2 3 4 5 6 
#
# 1 0.031279 -0.002942 -0.016623 -0.002666 0.004879 0.004615
# 2 -0.002942 0.013714 -0.003496 -0.002065 -0.000719 -0.005936
# 3 -0.016623 -0.003496 0.018612 0.005573 -0.004134 0.004726
# 4 -0.002666 -0.002065 0.005573 0.038240 0.008121 0.014049
# 5 0.004879 -0.000719 -0.004134 0.008121 0.023296 0.006467
# 6 0.004615 -0.005936 0.004726 0.014049 0.006467 0.048054
#
#
# Mechanical properties :
#
#
# Convention : Reuss Voigt Hill
#
# Bulk Modulus (GPa) = 57.19875 70.80041 63.99958
# Shear Modulus (GPa) = 22.20800 32.70386 27.45593
#
# Velocity S-wave (km/s) = 3.29978 4.00433 3.66901
# Velocity P-wave (km/s) = 6.52400 7.48952 7.02337
#
# Compressibility (1/GPa) = 0.01748290
#
# Stress axis : x y z
#
# Youngs Moduli (GPa) = 31.97022 72.92045 53.72926
#
# Poissons Ratio (x) = 0.21454 0.89313
# Poissons Ratio (y) = 0.09406 0.18783
# Poissons Ratio (z) = 0.53144 0.25492
#
# Static dielectric constant tensor:
#      x y z
#    x 3.646910 -0.365710 -0.153010 
#    y -0.365710 4.643570 -0.169530 
#    z -0.153010 -0.169530 3.715070 
# 
# 
# High freq. dielectric constant tensor:
#      x y z
#    x 1.774630 -0.003570 -0.015720 
#    y -0.003570 1.814030 -0.008980 
#    z -0.015720 -0.008980 1.799700 
# 
# From -- ./inp_files/314928.got.cif
#   From: 2010.06.25/outbox.cif.g09.slc.cpg/sg2_158_cif.got.tgz:314928.got - 2010.06.27 13:26:56.
