data_PCOD8004177
_publ_section_title
;
Structure prediction by ZEFSAII (Michael W. Deem and Ramdas Pophale) SiO2 
 PCOD8004177
Probable space group: P -1
;
_chemical_formula_sum "Si O2"
_cell_formula_units_Z 16
_cell_length_a 21.357592
_cell_length_b 13.201244
_cell_length_c 10.001123
_cell_angle_alpha 144.312259
_cell_angle_beta 132.671794
_cell_angle_gamma 29.493605
_cell_volume 805.678324
_symmetry_space_group_name_H-M "P -1"
_symmetry_group_IT_number 2
_symmetry_cell_setting 'triclinic'
loop_
_space_group_symop_operation_xyz
x,y,z
-x,-y,-z
loop_
_atom_site_type_symbol
_atom_site_label
_atom_site_fract_x
_atom_site_fract_y
_atom_site_fract_z
Si Si1 0.417622 0.363668 0.944387
Si Si2 0.934202 0.722608 0.962598
Si Si3 0.706268 0.536588 0.398941
Si Si4 0.021673 0.979050 0.664306
Si Si5 0.885920 0.850523 0.342588
Si Si6 0.443725 0.931106 0.578787
Si Si7 0.318344 0.038837 0.242243
Si Si8 0.612306 0.276734 0.521750
O O1 0.318784 0.495174 0.820445
O O2 0.555915 0.211540 0.925317
O O3 0.426007 0.166587 0.824846
O O4 0.364914 0.598459 0.210787
O O5 0.026755 0.420946 0.743563
O O6 0.798533 0.915333 0.896971
O O7 0.904719 0.793733 0.152178
O O8 0.010196 0.775977 0.072603
O O9 0.829541 0.267176 0.353613
O O10 0.587628 0.669802 0.463964
O O11 0.727450 0.709490 0.613484
O O12 0.932629 0.968334 0.590904
O O13 0.000000 0.000000 0.500000
O O14 0.738562 0.050502 0.376481
O O15 0.347945 0.008052 0.408782
O O16 0.417475 0.862537 0.601039
O O17 0.500000 0.500000 0.500000
#
# Coordination Sequence:
#
# PCOD8004177 Si02
#       8
#     2   2   2   2   2   2   2   2
#     4   9  21  39  60  90 119 155 189 247 296 337
#     4  10  20  37  65  83 111 155 194 249 291 327
#     4   9  18  37  64  90 120 146 200 250 284 335
#     4  10  21  34  59  90 114 150 197 244 287 338
#     4  10  23  41  53  88 121 149 198 238 285 355
#     4   9  22  38  60  92 118 153 193 241 294 349
#     4   9  17  37  65  90 116 146 201 248 288 335
#     4  12  26  40  59  86 124 156 193 235 291 366
#
# _framework density 19.859041999999999
#
# number of rings (size 3 to 8) (size 9 to 14) (size 15 to 20)
#    0.000    2.250    1.250    2.250    7.000    2.500 
#    0.000    1.250    0.000    0.000    0.000    0.000 
#    0.000    0.000    0.000    0.000    0.000    0.000 
#
# Total GULP energy -198336.668710 kJ/mol
# GULP energy per Si atom -12396.041794 kJ/mol
# Density = 1.981384 g / cm^3
# Si number density = 19.859042 Si / 1000 Ang^3
#
#
#
# Elastic Constant Matrix: (Units=GPa)
#
#
# Indices 1 2 3 4 5 6 
#
# 1 105.3337 46.3631 35.4311 11.7676 24.6018 -0.8331
# 2 46.3631 120.7962 16.5706 -3.0129 7.9578 -3.6962
# 3 35.4311 16.5706 64.7416 1.1609 12.5688 -2.0942
# 4 11.7676 -3.0129 1.1609 22.9947 -6.2386 6.3998
# 5 24.6018 7.9578 12.5688 -6.2386 28.9174 2.1798
# 6 -0.8331 -3.6962 -2.0942 6.3998 2.1798 27.3955
#
#
#
# Elastic Compliance Matrix: (Units=1/GPa)
#
#
# Indices 1 2 3 4 5 6 
#
# 1 0.019761 -0.005991 -0.005621 -0.016369 -0.016591 0.004507
# 2 -0.005991 0.010501 -0.000199 0.005499 0.003506 -0.000344
# 3 -0.005621 -0.000199 0.019300 0.000512 -0.003550 0.001440
# 4 -0.016369 0.005499 0.000512 0.064743 0.027442 -0.017025
# 5 -0.016591 0.003506 -0.003550 0.027442 0.056037 -0.011172
# 6 0.004507 -0.000344 0.001440 -0.017025 -0.011172 0.041569
#
#
# Mechanical properties :
#
#
# Convention : Reuss Voigt Hill
#
# Bulk Modulus (GPa) = 38.55180 54.17789 46.36484
# Shear Modulus (GPa) = 20.47681 28.69531 24.58606
#
# Velocity S-wave (km/s) = 3.21457 3.80537 3.52238
# Velocity P-wave (km/s) = 5.76479 6.82995 6.31985
#
# Compressibility (1/GPa) = 0.02593913
#
# Stress axis : x y z
#
# Youngs Moduli (GPa) = 50.60589 95.23145 51.81424
#
# Poissons Ratio (x) = 0.57050 0.29123
# Poissons Ratio (y) = 0.30316 0.01034
# Poissons Ratio (z) = 0.28444 0.01900
#
# Static dielectric constant tensor:
#      x y z
#    x 3.586330 0.073930 0.425790 
#    y 0.073930 3.627870 0.048110 
#    z 0.425790 0.048110 3.644880 
# 
# 
# High freq. dielectric constant tensor:
#      x y z
#    x 1.757770 0.003120 0.032410 
#    y 0.003120 1.786110 -0.000790 
#    z 0.032410 -0.000790 1.766220 
# 
# From -- ./inp_files/258027.got.cif
#   From: 2010.06.25/outbox.cif.g09.slc.cpg/sg2_130_cif.got.tgz:258027.got - 2010.06.27 13:26:56.
