data_PCOD8004978
_publ_section_title
;
Structure prediction by ZEFSAII (Michael W. Deem and Ramdas Pophale) SiO2 
 PCOD8004978
Probable space group: P -1
;
_chemical_formula_sum "Si O2"
_cell_formula_units_Z 16
_cell_length_a 10.650692
_cell_length_b 8.664295
_cell_length_c 15.355380
_cell_angle_alpha 46.782093
_cell_angle_beta 55.886936
_cell_angle_gamma 46.466560
_cell_volume 737.902559
_symmetry_space_group_name_H-M "P -1"
_symmetry_group_IT_number 2
_symmetry_cell_setting 'triclinic'
loop_
_space_group_symop_operation_xyz
x,y,z
-x,-y,-z
loop_
_atom_site_type_symbol
_atom_site_label
_atom_site_fract_x
_atom_site_fract_y
_atom_site_fract_z
Si Si1 0.762613 0.833697 0.666435
Si Si2 0.932375 0.573148 0.400582
Si Si3 0.248731 0.051334 0.186379
Si Si4 0.474518 0.193555 0.508180
Si Si5 0.379504 0.525240 0.118165
Si Si6 0.949586 0.051260 0.845359
Si Si7 0.459947 0.463999 0.767551
Si Si8 0.157096 0.528823 0.959011
O O1 0.804575 0.941018 0.694834
O O2 0.683734 0.667880 0.792282
O O3 0.946991 0.671842 0.607395
O O4 0.613897 0.059401 0.582095
O O5 0.727022 0.661320 0.435939
O O6 0.000000 0.500000 0.500000
O O7 0.956204 0.796476 0.273319
O O8 0.109511 0.020366 0.194152
O O9 0.439151 0.821546 0.183650
O O10 0.269821 0.290255 0.067387
O O11 0.517681 0.391190 0.375901
O O12 0.500000 0.000000 0.500000
O O13 0.211954 0.800965 0.082908
O O14 0.483558 0.467516 0.190388
O O15 0.500000 0.500000 0.000000
O O16 0.086786 0.788039 0.938117
O O17 0.259325 0.535665 0.830615
O O18 0.000000 0.500000 0.000000
#
# Coordination Sequence:
#
# PCOD8004978 Si02
#       8
#     2   2   2   2   2   2   2   2
#     4  11  24  41  63  97 135 167 214 278 318 382
#     4  11  21  41  68  91 130 169 216 271 316 380
#     4  10  22  43  62  92 133 167 212 264 332 382
#     4  12  22  42  69  96 126 171 225 263 326 387
#     4  10  20  38  63  95 125 167 214 262 322 378
#     4   9  21  40  65  94 126 173 213 257 330 387
#     4  11  22  41  66  90 125 172 214 259 322 394
#     4  10  21  39  65  92 126 169 211 261 321 393
#
# _framework density 21.683081000000001
#
# number of rings (size 3 to 8) (size 9 to 14) (size 15 to 20)
#    0.000    1.500    2.500    3.375    0.000    2.500 
#    6.750    4.375    0.000    0.000    0.000    0.000 
#    0.000    0.000    0.000    0.000    0.000    0.000 
#
# Total GULP energy -198333.438411 kJ/mol
# GULP energy per Si atom -12395.839901 kJ/mol
# Density = 2.163373 g / cm^3
# Si number density = 21.683081 Si / 1000 Ang^3
#
#
#
# Elastic Constant Matrix: (Units=GPa)
#
#
# Indices 1 2 3 4 5 6 
#
# 1 62.9702 54.7701 44.3692 11.8982 -5.3121 -5.7233
# 2 54.7701 155.0591 75.1702 2.9851 0.4289 -27.1601
# 3 44.3692 75.1702 116.5684 8.8707 -11.2836 -12.6140
# 4 11.8982 2.9851 8.8707 48.3075 -2.4686 0.9622
# 5 -5.3121 0.4289 -11.2836 -2.4686 36.3937 15.6656
# 6 -5.7233 -27.1601 -12.6140 0.9622 15.6656 32.3627
#
#
#
# Elastic Compliance Matrix: (Units=1/GPa)
#
#
# Indices 1 2 3 4 5 6 
#
# 1 0.027316 -0.008311 -0.004863 -0.004943 0.004949 -0.006288
# 2 -0.008311 0.014253 -0.005619 0.001529 -0.008303 0.012275
# 3 -0.004863 -0.005619 0.014327 -0.000800 0.004712 -0.002249
# 4 -0.004943 0.001529 -0.000800 0.022039 0.000944 -0.001015
# 5 0.004949 -0.008303 0.004712 0.000944 0.040002 -0.023648
# 6 -0.006288 0.012275 -0.002249 -0.001015 -0.023648 0.050690
#
#
# Mechanical properties :
#
#
# Convention : Reuss Voigt Hill
#
# Bulk Modulus (GPa) = 54.61878 75.91298 65.26588
# Shear Modulus (GPa) = 23.54979 34.09864 28.82422
#
# Velocity S-wave (km/s) = 3.29916 3.96989 3.64997
# Velocity P-wave (km/s) = 6.30531 7.48997 6.92303
#
# Compressibility (1/GPa) = 0.01830872
#
# Stress axis : x y z
#
# Youngs Moduli (GPa) = 36.60909 70.16269 69.79822
#
# Poissons Ratio (x) = 0.58312 0.33943
# Poissons Ratio (y) = 0.30425 0.39222
# Poissons Ratio (z) = 0.17803 0.39427
#
# Static dielectric constant tensor:
#      x y z
#    x 3.756210 -0.232280 -0.006180 
#    y -0.232280 4.644990 -0.391550 
#    z -0.006180 -0.391550 4.517720 
# 
# 
# High freq. dielectric constant tensor:
#      x y z
#    x 1.834280 -0.007770 -0.006440 
#    y -0.007770 1.874870 -0.004980 
#    z -0.006440 -0.004980 1.852420 
# 
# From -- ./inp_files/499988.got.cif
#   From: 2010.06.25/outbox.cif.g09.slc.cpg/sg2_250_cif.got.tgz:499988.got - 2010.06.27 13:26:56.
