data_PCOD8004228
_publ_section_title
;
Structure prediction by ZEFSAII (Michael W. Deem and Ramdas Pophale) SiO2 
 PCOD8004228
Probable space group: P -1
;
_chemical_formula_sum "Si O2"
_cell_formula_units_Z 16
_cell_length_a 15.252729
_cell_length_b 11.701768
_cell_length_c 8.064698
_cell_angle_alpha 82.240648
_cell_angle_beta 76.562135
_cell_angle_gamma 29.271732
_cell_volume 677.565783
_symmetry_space_group_name_H-M "P -1"
_symmetry_group_IT_number 2
_symmetry_cell_setting 'triclinic'
loop_
_space_group_symop_operation_xyz
x,y,z
-x,-y,-z
loop_
_atom_site_type_symbol
_atom_site_label
_atom_site_fract_x
_atom_site_fract_y
_atom_site_fract_z
Si Si1 0.833620 0.960859 0.455699
Si Si2 0.963565 0.691307 0.785369
Si Si3 0.155916 0.872037 0.831024
Si Si4 0.363649 0.246087 0.824941
Si Si5 0.655696 0.149241 0.029376
Si Si6 0.592798 0.779998 0.809825
Si Si7 0.491122 0.349441 0.722446
Si Si8 0.033227 0.544552 0.326057
O O1 0.921117 0.816583 0.616785
O O2 0.858859 0.828294 0.334111
O O3 0.929149 0.966511 0.324400
O O4 0.621502 0.237627 0.530702
O O5 0.170501 0.490865 0.779434
O O6 0.939435 0.577936 0.810791
O O7 0.832282 0.874104 0.958819
O O8 0.280892 0.628869 0.751522
O O9 0.291097 0.811071 0.874014
O O10 0.000000 0.000000 0.000000
O O11 0.500051 0.200628 0.741401
O O12 0.451705 0.032531 0.748783
O O13 0.345254 0.252855 0.027036
O O14 0.577611 0.296665 0.868448
O O15 0.494436 0.249560 0.161047
O O16 0.791331 0.570627 0.675775
O O17 0.000000 0.500000 0.500000
#
# Coordination Sequence:
#
# PCOD8004228 Si02
#       8
#     2   2   2   2   2   2   2   2
#     4  10  24  44  64  93 133 180 217 267 333 391
#     4  10  21  40  66  98 139 172 213 268 333 402
#     4  12  26  44  71  99 127 171 231 280 323 383
#     4  10  20  37  66 100 129 172 215 267 331 390
#     4  10  23  41  67 100 128 171 220 274 335 388
#     4  10  21  36  64  99 134 168 213 272 330 391
#     4  10  22  47  66  90 140 172 216 275 328 391
#     4  10  21  40  62  94 140 173 209 265 325 403
#
# _framework density 23.613944
#
# number of rings (size 3 to 8) (size 9 to 14) (size 15 to 20)
#    0.000    1.750    0.000    5.250    7.000    1.000 
#    4.500    8.750    0.000    0.000    0.000    0.000 
#    0.000    0.000    0.000    0.000    0.000    0.000 
#
# Total GULP energy -198229.502152 kJ/mol
# GULP energy per Si atom -12389.343885 kJ/mol
# Density = 2.356020 g / cm^3
# Si number density = 23.613944 Si / 1000 Ang^3
#
#
#
# Elastic Constant Matrix: (Units=GPa)
#
#
# Indices 1 2 3 4 5 6 
#
# 1 96.0634 19.1801 37.3702 2.9676 -16.8344 -1.6655
# 2 19.1801 113.3126 39.6993 15.5625 -6.0686 13.1903
# 3 37.3702 39.6993 95.9217 16.2091 -34.3100 3.6125
# 4 2.9676 15.5625 16.2091 34.1928 -1.7134 -0.1003
# 5 -16.8344 -6.0686 -34.3100 -1.7134 35.1783 1.6811
# 6 -1.6655 13.1903 3.6125 -0.1003 1.6811 39.5777
#
#
#
# Elastic Compliance Matrix: (Units=1/GPa)
#
#
# Indices 1 2 3 4 5 6 
#
# 1 0.012486 -0.000892 -0.004119 0.001369 0.001817 0.001125
# 2 -0.000892 0.011282 -0.004850 -0.002928 -0.003199 -0.003226
# 3 -0.004119 -0.004850 0.021716 -0.006826 0.018103 -0.001325
# 4 0.001369 -0.002928 -0.006826 0.033452 -0.004972 0.001953
# 5 0.001817 -0.003199 0.018103 -0.004972 0.046277 -0.002488
# 6 0.001125 -0.003226 -0.001325 0.001953 -0.002488 0.026621
#
#
# Mechanical properties :
#
#
# Convention : Reuss Voigt Hill
#
# Bulk Modulus (GPa) = 38.81753 55.31077 47.06415
# Shear Modulus (GPa) = 27.75591 35.72630 31.74110
#
# Velocity S-wave (km/s) = 3.43213 3.89386 3.67027
# Velocity P-wave (km/s) = 5.67275 6.60984 6.15915
#
# Compressibility (1/GPa) = 0.02576156
#
# Stress axis : x y z
#
# Youngs Moduli (GPa) = 80.09055 88.64019 46.04979
#
# Poissons Ratio (x) = 0.07907 0.18969
# Poissons Ratio (y) = 0.07144 0.22332
# Poissons Ratio (z) = 0.32991 0.42986
#
# Static dielectric constant tensor:
#      x y z
#    x 7.152240 0.629510 0.718980 
#    y 0.629510 4.623000 0.284220 
#    z 0.718980 0.284220 4.578490 
# 
# 
# High freq. dielectric constant tensor:
#      x y z
#    x 1.914200 0.013050 -0.016660 
#    y 0.013050 1.939590 0.008330 
#    z -0.016660 0.008330 1.935450 
# 
# From -- ./inp_files/307290.got.cif
#   From: 2010.06.25/outbox.cif.g09.slc.cpg/sg2_154_cif.got.tgz:307290.got - 2010.06.27 13:26:56.
