data_PCOD8004057
_publ_section_title
;
Structure prediction by ZEFSAII (Michael W. Deem and Ramdas Pophale) SiO2 
 PCOD8004057
Probable space group: P -1
;
_chemical_formula_sum "Si O2"
_cell_formula_units_Z 16
_cell_length_a 21.134742
_cell_length_b 24.354321
_cell_length_c 8.985759
_cell_angle_alpha 42.578095
_cell_angle_beta 31.947942
_cell_angle_gamma 20.126386
_cell_volume 794.512703
_symmetry_space_group_name_H-M "P -1"
_symmetry_group_IT_number 2
_symmetry_cell_setting 'triclinic'
loop_
_space_group_symop_operation_xyz
x,y,z
-x,-y,-z
loop_
_atom_site_type_symbol
_atom_site_label
_atom_site_fract_x
_atom_site_fract_y
_atom_site_fract_z
Si Si1 0.997605 0.376997 0.167387
Si Si2 0.885029 0.993815 0.829915
Si Si3 0.373799 0.251599 0.832613
Si Si4 0.381135 0.496132 0.161164
Si Si5 0.251501 0.627342 0.829915
Si Si6 0.386201 0.249292 0.151724
Si Si7 0.020279 0.615214 0.151724
Si Si8 0.249332 0.873400 0.838836
O O1 0.818324 0.560559 0.164867
O O2 0.873774 0.374978 0.502799
O O3 0.255903 0.244097 1.000000
O O4 0.052249 0.321167 0.999706
O O5 0.096079 0.801307 0.812613
O O6 0.000000 0.000000 0.500000
O O7 0.651598 0.095192 0.007926
O O8 0.798352 0.075388 0.999580
O O9 0.627519 0.123730 0.497201
O O10 0.432001 0.194583 0.000295
O O11 0.570973 0.309676 0.160574
O O12 0.500000 0.500000 0.000000
O O13 0.322867 0.550872 0.999580
O O14 0.500000 0.500000 0.500000
O O15 0.088773 0.658017 0.007926
O O16 0.255264 0.414912 0.093300
O O17 0.219817 0.280183 0.500000
O O18 0.000000 0.000000 0.000000
#
# Coordination Sequence:
#
# PCOD8004057 Si02
#       8
#     2   2   2   2   2   2   2   2
#     4   9  18  34  58  87 116 150 193 238 287 349
#     4  12  25  41  61  86 119 158 204 255 308 363
#     4   9  18  34  58  87 116 150 193 238 287 349
#     4  11  22  38  61  88 120 157 199 247 301 359
#     4  12  25  41  61  86 119 158 204 255 308 363
#     4  10  20  37  63  92 122 157 198 245 301 364
#     4  10  20  37  63  92 122 157 198 245 301 364
#     4  11  22  38  61  88 120 157 199 247 301 359
#
# _framework density 20.13813
#
# number of rings (size 3 to 8) (size 9 to 14) (size 15 to 20)
#    0.000    1.500    0.000    6.000    0.000    6.500 
#    0.000    1.250    0.000    5.250    0.000    0.000 
#    0.000    0.000    0.000    0.000    0.000    0.000 
#
# Total GULP energy -198471.322417 kJ/mol
# GULP energy per Si atom -12404.457651 kJ/mol
# Density = 2.009229 g / cm^3
# Si number density = 20.138130 Si / 1000 Ang^3
#
#
#
# Elastic Constant Matrix: (Units=GPa)
#
#
# Indices 1 2 3 4 5 6 
#
# 1 170.3767 17.3810 90.8285 0.6129 3.6208 -16.6338
# 2 17.3810 55.6555 35.7500 3.5420 -3.3754 -7.0613
# 3 90.8285 35.7500 194.1541 2.3322 8.2951 -10.6014
# 4 0.6129 3.5420 2.3322 27.8641 -3.5800 -3.6526
# 5 3.6208 -3.3754 8.2951 -3.5800 48.4972 -1.7041
# 6 -16.6338 -7.0613 -10.6014 -3.6526 -1.7041 37.2044
#
#
#
# Elastic Compliance Matrix: (Units=1/GPa)
#
#
# Indices 1 2 3 4 5 6 
#
# 1 0.008062 0.000153 -0.003668 0.000478 0.000164 0.002643
# 2 0.000153 0.020992 -0.003848 -0.001704 0.002083 0.002885
# 3 -0.003668 -0.003848 0.007620 -0.000276 -0.001328 -0.000287
# 4 0.000478 -0.001704 -0.000276 0.036938 0.002745 0.003564
# 5 0.000164 0.002083 -0.001328 0.002745 0.021229 0.001332
# 6 0.002643 0.002885 -0.000287 0.003564 0.001332 0.028937
#
#
# Mechanical properties :
#
#
# Convention : Reuss Voigt Hill
#
# Bulk Modulus (GPa) = 45.56236 78.67837 62.12037
# Shear Modulus (GPa) = 34.28901 41.12824 37.70863
#
# Velocity S-wave (km/s) = 4.13084 4.52409 4.33193
# Velocity P-wave (km/s) = 6.73987 8.15132 7.47897
#
# Compressibility (1/GPa) = 0.02194794
#
# Stress axis : x y z
#
# Youngs Moduli (GPa) = 124.03755 47.63628 131.24110
#
# Poissons Ratio (x) = -0.00731 0.48143
# Poissons Ratio (y) = -0.01903 0.50504
# Poissons Ratio (z) = 0.45500 0.18331
#
# Static dielectric constant tensor:
#      x y z
#    x 3.566730 -0.030450 0.035510 
#    y -0.030450 3.410990 0.015250 
#    z 0.035510 0.015250 4.000090 
# 
# 
# High freq. dielectric constant tensor:
#      x y z
#    x 1.806740 -0.008540 0.001580 
#    y -0.008540 1.764530 0.001450 
#    z 0.001580 0.001450 1.809900 
# 
# From -- ./inp_files/279736.got.cif
#   From: 2010.06.25/outbox.cif.g09.slc.cpg/sg2_140_cif.got.tgz:279736.got - 2010.06.27 13:26:56.
