data_PCOD8004273
_publ_section_title
;
Structure prediction by ZEFSAII (Michael W. Deem and Ramdas Pophale) SiO2 
 PCOD8004273
Probable space group: P -1
;
_chemical_formula_sum "Si O2"
_cell_formula_units_Z 16
_cell_length_a 17.764480
_cell_length_b 8.533995
_cell_length_c 8.680339
_cell_angle_alpha 80.996301
_cell_angle_beta 65.965494
_cell_angle_gamma 38.810389
_cell_volume 722.902563
_symmetry_space_group_name_H-M "P -1"
_symmetry_group_IT_number 2
_symmetry_cell_setting 'triclinic'
loop_
_space_group_symop_operation_xyz
x,y,z
-x,-y,-z
loop_
_atom_site_type_symbol
_atom_site_label
_atom_site_fract_x
_atom_site_fract_y
_atom_site_fract_z
Si Si1 0.609056 0.542669 0.806120
Si Si2 0.933222 0.128592 0.199555
Si Si3 0.059376 0.446445 0.290373
Si Si4 0.137882 0.649121 0.301024
Si Si5 0.658545 0.399190 0.435609
Si Si6 0.399189 0.869537 0.429102
Si Si7 0.155554 0.443470 0.633740
Si Si8 0.347021 0.883373 0.120237
O O1 0.708192 0.519539 0.807889
O O2 0.633036 0.504244 0.611027
O O3 0.636758 0.328123 0.887101
O O4 0.450648 0.821082 0.931522
O O5 0.812866 0.186852 0.296384
O O6 0.867954 0.404862 0.224702
O O7 0.035232 0.944712 0.287944
O O8 0.000000 0.000000 0.000000
O O9 0.104555 0.560600 0.218593
O O10 0.000000 0.500000 0.500000
O O11 0.938914 0.568506 0.261740
O O12 0.190652 0.148531 0.175591
O O13 0.111230 0.617558 0.496464
O O14 0.557430 0.653026 0.370145
O O15 0.640190 0.240269 0.451535
O O16 0.377935 0.902421 0.260582
O O17 0.310050 0.146766 0.535844
#
# Coordination Sequence:
#
# PCOD8004273 Si02
#       8
#     2   2   2   2   2   2   2   2
#     4  10  22  38  64  94 124 172 209 264 307 376
#     4  12  27  43  62  96 129 168 211 267 322 381
#     4  10  20  37  66  97 122 161 210 268 313 372
#     4  11  22  41  66  95 121 168 215 260 323 369
#     4  10  23  43  64  89 133 172 210 252 327 380
#     4  10  21  42  67  91 126 174 209 258 316 385
#     4  11  22  43  69  94 123 171 214 264 320 377
#     4  10  20  38  63  94 127 160 220 258 310 369
#
# _framework density 22.132995999999999
#
# number of rings (size 3 to 8) (size 9 to 14) (size 15 to 20)
#    0.000    1.500    3.750    1.875    7.000    1.000 
#    6.750    1.250    0.000    0.000    0.000    0.000 
#    0.000    0.000    0.000    0.000    0.000    0.000 
#
# Total GULP energy -198276.984214 kJ/mol
# GULP energy per Si atom -12392.311513 kJ/mol
# Density = 2.208262 g / cm^3
# Si number density = 22.132996 Si / 1000 Ang^3
#
#
#
# Elastic Constant Matrix: (Units=GPa)
#
#
# Indices 1 2 3 4 5 6 
#
# 1 79.8369 3.9841 24.5713 4.9508 -14.1053 9.7108
# 2 3.9841 80.4815 31.8027 17.9950 7.2071 -2.2355
# 3 24.5713 31.8027 102.3460 29.7810 -10.3966 1.7073
# 4 4.9508 17.9950 29.7810 30.1159 -4.9865 0.9322
# 5 -14.1053 7.2071 -10.3966 -4.9865 31.5785 12.1154
# 6 9.7108 -2.2355 1.7073 0.9322 12.1154 37.6931
#
#
#
# Elastic Compliance Matrix: (Units=1/GPa)
#
#
# Indices 1 2 3 4 5 6 
#
# 1 0.015975 -0.001273 -0.003268 0.003182 0.009620 -0.007214
# 2 -0.001273 0.016455 -0.003491 -0.007687 -0.008351 0.004336
# 3 -0.003268 -0.003491 0.015485 -0.012213 0.002756 -0.000650
# 4 0.003182 -0.007687 -0.012213 0.051010 0.009093 -0.004907
# 5 0.009620 -0.008351 0.002756 0.009093 0.047324 -0.018535
# 6 -0.007214 0.004336 -0.000650 -0.004907 -0.018535 0.034754
#
#
# Mechanical properties :
#
#
# Convention : Reuss Voigt Hill
#
# Bulk Modulus (GPa) = 31.39729 42.59784 36.99757
# Shear Modulus (GPa) = 24.07511 33.36460 28.71986
#
# Velocity S-wave (km/s) = 3.30168 3.88681 3.60613
# Velocity P-wave (km/s) = 5.36203 6.27943 5.83877
#
# Compressibility (1/GPa) = 0.03184988
#
# Stress axis : x y z
#
# Youngs Moduli (GPa) = 62.59924 60.77190 64.57945
#
# Poissons Ratio (x) = 0.07735 0.21106
# Poissons Ratio (y) = 0.07968 0.22547
# Poissons Ratio (z) = 0.20458 0.21217
#
# Static dielectric constant tensor:
#      x y z
#    x 4.665590 0.131720 -0.283570 
#    y 0.131720 4.087310 0.214150 
#    z -0.283570 0.214150 3.787040 
# 
# 
# High freq. dielectric constant tensor:
#      x y z
#    x 1.880310 0.002380 -0.012430 
#    y 0.002380 1.862700 0.025770 
#    z -0.012430 0.025770 1.846830 
# 
# From -- ./inp_files/328844.got.cif
#   From: 2010.06.25/outbox.cif.g09.slc.cpg/sg2_165_cif.got.tgz:328844.got - 2010.06.27 13:26:56.
