data_PCOD8004210
_publ_section_title
;
Structure prediction by ZEFSAII (Michael W. Deem and Ramdas Pophale) SiO2 
 PCOD8004210
Probable space group: P -1
;
_chemical_formula_sum "Si O2"
_cell_formula_units_Z 16
_cell_length_a 11.459544
_cell_length_b 6.630856
_cell_length_c 11.294756
_cell_angle_alpha 94.010461
_cell_angle_beta 92.995051
_cell_angle_gamma 120.508202
_cell_volume 733.765004
_symmetry_space_group_name_H-M "P -1"
_symmetry_group_IT_number 2
_symmetry_cell_setting 'triclinic'
loop_
_space_group_symop_operation_xyz
x,y,z
-x,-y,-z
loop_
_atom_site_type_symbol
_atom_site_label
_atom_site_fract_x
_atom_site_fract_y
_atom_site_fract_z
Si Si1 0.730720 0.370233 0.609811
Si Si2 0.288865 0.469178 0.984250
Si Si3 0.012189 0.121706 0.877074
Si Si4 0.913147 0.886603 0.608594
Si Si5 0.499571 0.480269 0.658693
Si Si6 0.441185 0.249439 0.100088
Si Si7 0.660926 0.895660 0.525236
Si Si8 0.783674 0.241482 0.847522
O O1 0.855443 0.608598 0.572824
O O2 0.618685 0.422028 0.654358
O O3 0.790863 0.282084 0.711082
O O4 0.665567 0.141538 0.509144
O O5 0.169258 0.330730 0.875364
O O6 0.424389 0.711152 0.959558
O O7 0.334849 0.287081 0.020670
O O8 0.215881 0.538064 0.083481
O O9 0.913759 0.226436 0.890421
O O10 0.979334 0.963675 0.747942
O O11 0.000000 0.000000 0.000000
O O12 0.794065 0.945392 0.605089
O O13 0.000000 0.000000 0.500000
O O14 0.488135 0.537249 0.794143
O O15 0.528664 0.703725 0.586882
O O16 0.357344 0.244328 0.604997
O O17 0.359694 0.994415 0.141975
#
# Coordination Sequence:
#
# PCOD8004210 Si02
#       8
#     2   2   2   2   2   2   2   2
#     4  11  20  40  69  94 125 177 227 273 335 407
#     4  11  25  39  64  96 133 175 222 284 345 392
#     4  12  24  46  72  96 132 188 235 274 335 417
#     4  11  26  44  65  96 139 172 219 290 344 391
#     4  10  20  37  65  93 128 173 218 271 333 412
#     4  11  22  41  63  96 138 169 218 287 346 392
#     4  10  21  39  63  93 127 175 222 268 330 407
#     4  12  21  43  70  96 133 177 233 283 328 412
#
# _framework density 21.805344999999999
#
# number of rings (size 3 to 8) (size 9 to 14) (size 15 to 20)
#    0.000    1.000    5.000    2.625    1.750    0.500 
#    0.000    0.000    0.000    0.000    0.000    0.000 
#    0.000    0.000    0.000    0.000    0.000    0.000 
#
# Total GULP energy -198217.077778 kJ/mol
# GULP energy per Si atom -12388.567361 kJ/mol
# Density = 2.175571 g / cm^3
# Si number density = 21.805345 Si / 1000 Ang^3
#
#
#
# Elastic Constant Matrix: (Units=GPa)
#
#
# Indices 1 2 3 4 5 6 
#
# 1 84.6070 32.3819 22.3139 1.0015 8.6297 2.1826
# 2 32.3819 133.8106 27.4856 4.1179 -4.5225 6.3150
# 3 22.3139 27.4856 95.3441 7.7015 7.1049 8.2939
# 4 1.0015 4.1179 7.7015 41.4642 1.8131 3.2727
# 5 8.6297 -4.5225 7.1049 1.8131 29.4155 2.8410
# 6 2.1826 6.3150 8.2939 3.2727 2.8410 24.1192
#
#
#
# Elastic Compliance Matrix: (Units=1/GPa)
#
#
# Indices 1 2 3 4 5 6 
#
# 1 0.013988 -0.003131 -0.002164 0.000500 -0.004163 0.000721
# 2 -0.003131 0.008799 -0.001839 -0.000452 0.002905 -0.001669
# 3 -0.002164 -0.001839 0.012083 -0.001678 -0.002174 -0.002994
# 4 0.000500 -0.000452 -0.001678 0.024712 -0.001085 -0.002575
# 5 -0.004163 0.002905 -0.002174 -0.001085 0.036623 -0.003803
# 6 0.000721 -0.001669 -0.002994 -0.002575 -0.003803 0.043660
#
#
# Mechanical properties :
#
#
# Convention : Reuss Voigt Hill
#
# Bulk Modulus (GPa) = 48.53540 53.12495 50.83017
# Shear Modulus (GPa) = 31.05582 34.43844 32.74713
#
# Velocity S-wave (km/s) = 3.77799 3.97842 3.87950
# Velocity P-wave (km/s) = 6.42944 6.74685 6.59006
#
# Compressibility (1/GPa) = 0.02060352
#
# Stress axis : x y z
#
# Youngs Moduli (GPa) = 71.48756 113.64393 82.76208
#
# Poissons Ratio (x) = 0.35579 0.17911
# Poissons Ratio (y) = 0.22381 0.15218
# Poissons Ratio (z) = 0.15471 0.20896
#
# Static dielectric constant tensor:
#      x y z
#    x 3.912860 0.116780 0.252980 
#    y 0.116780 4.155820 0.221860 
#    z 0.252980 0.221860 4.057160 
# 
# 
# High freq. dielectric constant tensor:
#      x y z
#    x 1.848990 -0.003160 0.016980 
#    y -0.003160 1.862500 0.017720 
#    z 0.016980 0.017720 1.850710 
# 
# From -- ./inp_files/410829.got.cif
#   From: 2010.06.25/outbox.cif.g09.slc.cpg/sg2_206_cif.got.tgz:410829.got - 2010.06.27 13:26:56.
