data_PCOD8004369
_publ_section_title
;
Structure prediction by ZEFSAII (Michael W. Deem and Ramdas Pophale) SiO2 
 PCOD8004369
Probable space group: P -1
;
_chemical_formula_sum "Si O2"
_cell_formula_units_Z 14
_cell_length_a 16.394549
_cell_length_b 8.531671
_cell_length_c 22.497953
_cell_angle_alpha 129.795103
_cell_angle_beta 19.926359
_cell_angle_gamma 133.024144
_cell_volume 784.045597
_symmetry_space_group_name_H-M "P -1"
_symmetry_group_IT_number 2
_symmetry_cell_setting 'triclinic'
loop_
_space_group_symop_operation_xyz
x,y,z
-x,-y,-z
loop_
_atom_site_type_symbol
_atom_site_label
_atom_site_fract_x
_atom_site_fract_y
_atom_site_fract_z
Si Si1 0.703185 0.720183 0.429536
Si Si2 0.197543 0.723135 0.405073
Si Si3 0.927240 0.879443 0.432695
Si Si4 0.352449 0.960230 0.244605
Si Si5 0.602060 0.968913 0.268949
Si Si6 0.106834 0.727248 0.058813
Si Si7 0.062419 0.257346 0.952285
O O1 0.500000 0.500000 0.500000
O O2 0.794925 0.702757 0.430883
O O3 0.943744 0.760205 0.233288
O O4 0.578010 0.908105 0.549037
O O5 0.436745 0.766530 0.295025
O O6 0.000000 0.500000 0.500000
O O7 0.047237 0.894032 0.561991
O O8 0.305472 0.753794 0.270619
O O9 0.750697 0.860600 0.607941
O O10 0.201056 0.875586 0.266374
O O11 0.641732 0.073172 0.059698
O O12 0.744425 0.874690 0.198114
O O13 0.791039 0.137405 0.136682
O O14 0.957710 0.737166 0.103234
O O15 0.159884 0.498235 0.970476
#
# Coordination Sequence:
#
# PCOD8004369 Si02
#       7
#     2   2   2   2   2   2   2
#     4  11  21  37  56  85 119 152 175 234 291 334
#     4   9  17  32  56  82 104 143 182 233 273 321
#     4   8  19  35  56  80 113 140 195 226 273 330
#     4   9  18  36  57  84 105 145 198 230 261 339
#     4  10  20  38  56  82 118 138 194 231 279 333
#     4  11  21  34  60  82 114 148 191 230 283 328
#     4  10  21  35  58  85 105 152 191 236 267 334
#
# _framework density 17.856103999999998
#
# number of rings (size 3 to 8) (size 9 to 14) (size 15 to 20)
#    0.857    1.429    2.857    0.000    4.000    1.143 
#    0.000    0.000    0.000    3.429    0.000    0.000 
#    0.000    0.000    0.000    0.000    0.000    0.000 
#
# Total GULP energy -173484.523736 kJ/mol
# GULP energy per Si atom -12391.751695 kJ/mol
# Density = 1.781546 g / cm^3
# Si number density = 17.856104 Si / 1000 Ang^3
#
#
#
# Elastic Constant Matrix: (Units=GPa)
#
#
# Indices 1 2 3 4 5 6 
#
# 1 106.0438 43.4564 43.5890 -2.3279 -6.6821 20.0520
# 2 43.4564 99.8919 34.2823 -25.5173 -5.7911 8.8615
# 3 43.5890 34.2823 88.7218 -11.9246 -1.9965 6.2110
# 4 -2.3279 -25.5173 -11.9246 33.6267 0.5909 -3.0185
# 5 -6.6821 -5.7911 -1.9965 0.5909 23.8742 -2.5616
# 6 20.0520 8.8615 6.2110 -3.0185 -2.5616 26.4794
#
#
#
# Elastic Compliance Matrix: (Units=1/GPa)
#
#
# Indices 1 2 3 4 5 6 
#
# 1 0.015774 -0.005494 -0.005742 -0.005976 0.001755 -0.009271
# 2 -0.005494 0.015956 -0.001988 0.011054 0.001972 0.000738
# 3 -0.005742 -0.001988 0.015211 0.003662 -0.000715 0.001793
# 4 -0.005976 0.011054 0.003662 0.039404 0.000827 0.004539
# 5 0.001755 0.001972 -0.000715 0.000827 0.043037 0.002436
# 6 -0.009271 0.000738 0.001793 0.004539 0.002436 0.044872
#
#
# Mechanical properties :
#
#
# Convention : Reuss Voigt Hill
#
# Bulk Modulus (GPa) = 48.79549 59.70146 54.24847
# Shear Modulus (GPa) = 24.09273 28.35138 26.22205
#
# Velocity S-wave (km/s) = 3.67723 3.98901 3.83629
# Velocity P-wave (km/s) = 6.73912 7.39754 7.07599
#
# Compressibility (1/GPa) = 0.02049370
#
# Stress axis : x y z
#
# Youngs Moduli (GPa) = 63.39469 62.67312 65.74399
#
# Poissons Ratio (x) = 0.34434 0.37747
# Poissons Ratio (y) = 0.34831 0.13067
# Poissons Ratio (z) = 0.36398 0.12457
#
# Static dielectric constant tensor:
#      x y z
#    x 3.453730 0.092910 0.065110 
#    y 0.092910 3.129960 -0.077660 
#    z 0.065110 -0.077660 3.293930 
# 
# 
# High freq. dielectric constant tensor:
#      x y z
#    x 1.697240 0.006510 -0.012260 
#    y 0.006510 1.675140 -0.018920 
#    z -0.012260 -0.018920 1.670360 
# 
# From -- ./inp_files/612957.got.cif
#   From: 2010.06.25/outbox.cif.g09.slc.cpg/sg2_307_cif.got.tgz:612957.got - 2010.06.27 13:26:56.
