data_PCOD8004923
_publ_section_title
;
Structure prediction by ZEFSAII (Michael W. Deem and Ramdas Pophale) SiO2 
 PCOD8004923
Probable space group: P -1
;
_chemical_formula_sum "Si O2"
_cell_formula_units_Z 16
_cell_length_a 17.871336
_cell_length_b 12.015065
_cell_length_c 10.914214
_cell_angle_alpha 87.499440
_cell_angle_beta 31.945263
_cell_angle_gamma 110.408915
_cell_volume 847.021003
_symmetry_space_group_name_H-M "P -1"
_symmetry_group_IT_number 2
_symmetry_cell_setting 'triclinic'
loop_
_space_group_symop_operation_xyz
x,y,z
-x,-y,-z
loop_
_atom_site_type_symbol
_atom_site_label
_atom_site_fract_x
_atom_site_fract_y
_atom_site_fract_z
Si Si1 0.732837 0.640703 0.622702
Si Si2 0.959975 0.348390 0.197890
Si Si3 0.292451 0.219847 0.581863
Si Si4 0.400640 0.308198 0.780724
Si Si5 0.759975 0.456011 0.437231
Si Si6 0.077267 0.922751 0.748238
Si Si7 0.683193 0.498357 0.149942
Si Si8 0.998149 0.967587 0.362251
O O1 0.742872 0.718419 0.483257
O O2 0.812094 0.563463 0.477390
O O3 0.893340 0.786530 0.492055
O O4 0.500000 0.500000 0.000000
O O5 0.784065 0.341503 0.451915
O O6 0.856479 0.167002 0.351045
O O7 0.083103 0.430945 0.896347
O O8 0.101003 0.438620 0.121595
O O9 0.536135 0.347584 0.267033
O O10 0.207416 0.049150 0.674219
O O11 0.168037 0.201872 0.871594
O O12 0.522350 0.343783 0.734054
O O13 0.571743 0.433477 0.438137
O O14 0.275090 0.353144 0.968798
O O15 0.241165 0.116254 0.978296
O O16 0.127236 0.014173 0.546616
O O17 0.000000 0.000000 0.500000
#
# Coordination Sequence:
#
# PCOD8004923 Si02
#       8
#     2   2   2   2   2   2   2   2
#     4  11  22  36  56  80 115 149 187 235 275 326
#     4  10  19  32  55  84 120 144 178 226 283 338
#     4  10  18  31  57  83 108 139 194 233 275 321
#     4  10  17  31  52  81 108 138 187 226 269 318
#     4  10  20  34  53  84 116 152 178 220 286 337
#     4  10  18  33  54  83 111 143 181 242 279 318
#     4  10  16  29  55  81 105 140 181 230 266 321
#     4  11  22  33  54  84 110 143 191 239 275 318
#
# _framework density 18.889731999999999
#
# number of rings (size 3 to 8) (size 9 to 14) (size 15 to 20)
#    0.000    1.750    5.000    1.500    0.000    0.000 
#    0.000    1.250    0.000   14.250    0.000    0.000 
#    0.000    0.000    0.000    0.000    0.000    0.000 
#
# Total GULP energy -198237.935775 kJ/mol
# GULP energy per Si atom -12389.870986 kJ/mol
# Density = 1.884674 g / cm^3
# Si number density = 18.889732 Si / 1000 Ang^3
#
#
#
# Elastic Constant Matrix: (Units=GPa)
#
#
# Indices 1 2 3 4 5 6 
#
# 1 85.6773 52.0523 20.6674 9.4043 -11.3911 3.6351
# 2 52.0523 146.7911 40.3840 -6.8623 -16.1461 3.9995
# 3 20.6674 40.3840 46.5817 -9.5286 -8.4856 0.9096
# 4 9.4043 -6.8623 -9.5286 27.5479 3.6848 -8.4567
# 5 -11.3911 -16.1461 -8.4856 3.6848 26.7479 -1.5119
# 6 3.6351 3.9995 0.9096 -8.4567 -1.5119 32.8065
#
#
#
# Elastic Compliance Matrix: (Units=1/GPa)
#
#
# Indices 1 2 3 4 5 6 
#
# 1 0.017729 -0.004832 -0.005014 -0.010734 0.004307 -0.003805
# 2 -0.004832 0.010562 -0.006259 0.001834 0.002079 -0.000010
# 3 -0.005014 -0.006259 0.032005 0.011968 0.002797 0.003645
# 4 -0.010734 0.001834 0.011968 0.049346 -0.005725 0.013090
# 5 0.004307 0.002079 0.002797 -0.005725 0.042132 -0.000342
# 6 -0.003805 -0.000010 0.003645 0.013090 -0.000342 0.034162
#
#
# Mechanical properties :
#
#
# Convention : Reuss Voigt Hill
#
# Bulk Modulus (GPa) = 35.60419 56.13972 45.87196
# Shear Modulus (GPa) = 21.97724 28.48357 25.23040
#
# Velocity S-wave (km/s) = 3.41464 3.88736 3.65864
# Velocity P-wave (km/s) = 5.86819 7.06633 6.49495
#
# Compressibility (1/GPa) = 0.02808658
#
# Stress axis : x y z
#
# Youngs Moduli (GPa) = 56.40509 94.67516 31.24499
#
# Poissons Ratio (x) = 0.45744 0.15666
# Poissons Ratio (y) = 0.27253 0.19557
# Poissons Ratio (z) = 0.28282 0.59259
#
# Static dielectric constant tensor:
#      x y z
#    x 3.782660 -0.007580 -0.082750 
#    y -0.007580 3.843010 -0.405540 
#    z -0.082750 -0.405540 3.322160 
# 
# 
# High freq. dielectric constant tensor:
#      x y z
#    x 1.738850 0.012060 0.001240 
#    y 0.012060 1.721130 -0.035990 
#    z 0.001240 -0.035990 1.694370 
# 
# From -- ./inp_files/439717.got.cif
#   From: 2010.06.25/outbox.cif.g09.slc.cpg/sg2_220_cif.got.tgz:439717.got - 2010.06.27 13:26:56.
