data_PCOD8004884
_publ_section_title
;
Structure prediction by ZEFSAII (Michael W. Deem and Ramdas Pophale) SiO2 
 PCOD8004884
Probable space group: P -1
;
_chemical_formula_sum "Si O2"
_cell_formula_units_Z 16
_cell_length_a 7.961042
_cell_length_b 6.195928
_cell_length_c 22.206440
_cell_angle_alpha 127.878636
_cell_angle_beta 101.059936
_cell_angle_gamma 57.843589
_cell_volume 716.869428
_symmetry_space_group_name_H-M "P -1"
_symmetry_group_IT_number 2
_symmetry_cell_setting 'triclinic'
loop_
_space_group_symop_operation_xyz
x,y,z
-x,-y,-z
loop_
_atom_site_type_symbol
_atom_site_label
_atom_site_fract_x
_atom_site_fract_y
_atom_site_fract_z
Si Si1 0.392556 0.693993 0.396922
Si Si2 0.866852 0.377787 0.547526
Si Si3 0.703207 0.800327 0.016798
Si Si4 0.813316 0.226104 0.855144
Si Si5 0.212643 0.695795 0.841552
Si Si6 0.223186 0.405041 0.552170
Si Si7 0.394210 0.524356 0.238982
Si Si8 0.442246 0.204972 0.865941
O O1 0.315303 0.487554 0.392579
O O2 0.637456 0.518515 0.383758
O O3 0.318953 0.745877 0.331578
O O4 0.309949 0.028328 0.482742
O O5 0.783235 0.433925 0.483976
O O6 0.002573 0.541038 0.591456
O O7 0.000000 0.000000 0.500000
O O8 0.654971 0.693533 0.058008
O O9 0.794001 0.022369 0.071037
O O10 0.859274 0.481299 0.933739
O O11 0.500000 0.000000 0.000000
O O12 0.779435 0.295214 0.792952
O O13 0.603861 0.307632 0.884679
O O14 0.998805 0.859464 0.819018
O O15 0.392225 0.537668 0.778385
O O16 0.255765 0.403918 0.839483
O O17 0.434528 0.178539 0.201855
#
# Coordination Sequence:
#
# PCOD8004884 Si02
#       8
#     2   2   2   2   2   2   2   2
#     4  10  20  38  63  85 117 164 193 247 306 349
#     4   9  18  35  58  93 120 145 196 247 292 361
#     4  11  19  38  63  84 118 152 196 257 299 343
#     4  11  22  39  62  85 118 157 198 247 303 352
#     4  10  23  39  58  88 116 153 205 244 294 361
#     4   9  19  37  64  88 118 151 203 249 294 355
#     4  10  23  42  57  82 128 156 194 244 300 362
#     4  10  21  38  59  83 118 156 196 250 294 360
#
# _framework density 22.319265000000001
#
# number of rings (size 3 to 8) (size 9 to 14) (size 15 to 20)
#    0.000    2.000    3.750    1.125    0.000    4.500 
#    9.000    0.000    0.000    0.000    0.000    0.000 
#    0.000    0.000    0.000    0.000    0.000    0.000 
#
# Total GULP energy -198271.739401 kJ/mol
# GULP energy per Si atom -12391.983713 kJ/mol
# Density = 2.226847 g / cm^3
# Si number density = 22.319265 Si / 1000 Ang^3
#
#
#
# Elastic Constant Matrix: (Units=GPa)
#
#
# Indices 1 2 3 4 5 6 
#
# 1 92.2717 41.2969 39.4158 -21.4277 -0.4184 -0.8112
# 2 41.2969 151.7644 19.8678 -34.7238 2.7573 -11.7526
# 3 39.4158 19.8678 76.5976 -29.8516 0.7454 5.9987
# 4 -21.4277 -34.7238 -29.8516 29.6915 -1.8664 -3.6459
# 5 -0.4184 2.7573 0.7454 -1.8664 15.9089 -5.8098
# 6 -0.8112 -11.7526 5.9987 -3.6459 -5.8098 34.3838
#
#
#
# Elastic Compliance Matrix: (Units=1/GPa)
#
#
# Indices 1 2 3 4 5 6 
#
# 1 0.015343 -0.003053 -0.006876 0.000803 0.001673 0.000886
# 2 -0.003053 0.010710 0.004428 0.015436 0.001378 0.004686
# 3 -0.006876 0.004428 0.025565 0.025944 0.000817 -0.000220
# 4 0.000803 0.015436 0.025944 0.080333 0.009534 0.010898
# 5 0.001673 0.001378 0.000817 0.009534 0.068472 0.012948
# 6 0.000886 0.004686 -0.000220 0.010898 0.012948 0.034088
#
#
# Mechanical properties :
#
#
# Convention : Reuss Voigt Hill
#
# Bulk Modulus (GPa) = 24.62033 57.97719 41.29876
# Shear Modulus (GPa) = 19.30129 30.66707 24.98418
#
# Velocity S-wave (km/s) = 2.94391 3.71080 3.34937
# Velocity P-wave (km/s) = 4.75504 6.66278 5.78805
#
# Compressibility (1/GPa) = 0.04061684
#
# Stress axis : x y z
#
# Youngs Moduli (GPa) = 65.17618 93.37296 39.11597
#
# Poissons Ratio (x) = 0.28506 0.26896
# Poissons Ratio (y) = 0.19897 -0.17322
# Poissons Ratio (z) = 0.44815 -0.41350
#
# Static dielectric constant tensor:
#      x y z
#    x 4.174760 -0.415800 0.117710 
#    y -0.415800 3.924330 0.019480 
#    z 0.117710 0.019480 3.613300 
# 
# 
# High freq. dielectric constant tensor:
#      x y z
#    x 1.872810 -0.001360 -0.001870 
#    y -0.001360 1.893520 -0.017160 
#    z -0.001870 -0.017160 1.844580 
# 
# From -- ./inp_files/52705.got.cif
#   From: 2010.06.25/outbox.cif.g09.slc.cpg/sg2_27_cif.got.tgz:52705.got - 2010.06.27 13:26:56.
