data_PCOD8004693
_publ_section_title
;
Structure prediction by ZEFSAII (Michael W. Deem and Ramdas Pophale) SiO2 
 PCOD8004693
Probable space group: P -1
;
_chemical_formula_sum "Si O2"
_cell_formula_units_Z 14
_cell_length_a 8.357470
_cell_length_b 12.584931
_cell_length_c 9.338778
_cell_angle_alpha 141.848353
_cell_angle_beta 66.789416
_cell_angle_gamma 114.325714
_cell_volume 548.586638
_symmetry_space_group_name_H-M "P -1"
_symmetry_group_IT_number 2
_symmetry_cell_setting 'triclinic'
loop_
_space_group_symop_operation_xyz
x,y,z
-x,-y,-z
loop_
_atom_site_type_symbol
_atom_site_label
_atom_site_fract_x
_atom_site_fract_y
_atom_site_fract_z
Si Si1 0.141080 0.653882 0.215437
Si Si2 0.406757 0.168010 0.055928
Si Si3 0.308248 0.023940 0.639460
Si Si4 0.776186 0.058251 0.883016
Si Si5 0.816751 0.792337 0.373160
Si Si6 0.650804 0.484803 0.251027
Si Si7 0.955046 0.433046 0.283978
O O1 0.961029 0.661463 0.193107
O O2 0.114266 0.508760 0.198005
O O3 0.180276 0.838995 0.477227
O O4 0.291747 0.630065 0.024238
O O5 0.303682 0.087780 0.869173
O O6 0.596171 0.110036 0.945286
O O7 0.455666 0.381430 0.258466
O O8 0.270255 0.100882 0.158176
O O9 0.238934 0.174012 0.731554
O O10 0.500000 0.000000 0.500000
O O11 0.872446 0.981528 0.632843
O O12 0.913375 0.220636 0.071166
O O13 0.645032 0.679417 0.398417
O O14 0.782231 0.501293 0.358212
O O15 0.000000 0.500000 0.500000
#
# Coordination Sequence:
#
# PCOD8004693 Si02
#       7
#     2   2   2   2   2   2   2
#     4  11  23  42  65  92 131 165 205 262 319 368
#     4  10  21  40  62  90 128 164 206 256 312 375
#     4  12  21  39  64  97 123 159 216 258 309 375
#     4  10  21  40  64  88 125 171 206 252 318 371
#     4  11  23  39  64  92 129 166 208 258 313 374
#     4  10  22  42  63  91 129 168 207 255 323 367
#     4  10  20  38  61  90 120 163 210 251 307 367
#
# _framework density 25.520126999999999
#
# number of rings (size 3 to 8) (size 9 to 14) (size 15 to 20)
#    0.000    1.429    2.857    3.857    0.000    2.286 
#    0.000   12.143    0.000    0.000    0.000    0.000 
#    0.000    0.000    0.000    0.000    0.000    0.000 
#
# Total GULP energy -173568.463575 kJ/mol
# GULP energy per Si atom -12397.747398 kJ/mol
# Density = 2.546204 g / cm^3
# Si number density = 25.520127 Si / 1000 Ang^3
#
#
#
# Elastic Constant Matrix: (Units=GPa)
#
#
# Indices 1 2 3 4 5 6 
#
# 1 49.7043 34.1984 26.3631 -11.5383 11.3825 -4.6032
# 2 34.1984 154.2907 38.4857 5.3429 30.5106 3.3500
# 3 26.3631 38.4857 106.7619 -8.2456 31.7468 -22.5335
# 4 -11.5383 5.3429 -8.2456 47.7957 -2.4390 9.4806
# 5 11.3825 30.5106 31.7468 -2.4390 46.6188 -1.8732
# 6 -4.6032 3.3500 -22.5335 9.4806 -1.8732 27.2224
#
#
#
# Elastic Compliance Matrix: (Units=1/GPa)
#
#
# Indices 1 2 3 4 5 6 
#
# 1 0.027581 -0.005193 -0.004646 0.006610 0.000141 -0.000836
# 2 -0.005193 0.008893 -0.001575 -0.002157 -0.003704 -0.002780
# 3 -0.004646 -0.001575 0.016143 -0.001082 -0.008379 0.012571
# 4 0.006610 -0.002157 -0.001082 0.024203 0.001486 -0.007839
# 5 0.000141 -0.003704 -0.008379 0.001486 0.029425 -0.004949
# 6 -0.000836 -0.002780 0.012571 -0.007839 -0.004949 0.049731
#
#
# Mechanical properties :
#
#
# Convention : Reuss Voigt Hill
#
# Bulk Modulus (GPa) = 33.57085 56.53902 45.05493
# Shear Modulus (GPa) = 26.49207 38.44134 32.46671
#
# Velocity S-wave (km/s) = 3.22543 3.88534 3.57066
# Velocity P-wave (km/s) = 5.20138 6.50619 5.89003
#
# Compressibility (1/GPa) = 0.02978775
#
# Stress axis : x y z
#
# Youngs Moduli (GPa) = 36.25644 112.45137 61.94516
#
# Poissons Ratio (x) = 0.58396 0.28783
# Poissons Ratio (y) = 0.18828 0.09758
# Poissons Ratio (z) = 0.16847 0.17715
#
# Static dielectric constant tensor:
#      x y z
#    x 4.271960 0.122890 0.390300 
#    y 0.122890 5.261420 0.223790 
#    z 0.390300 0.223790 4.598140 
# 
# 
# High freq. dielectric constant tensor:
#      x y z
#    x 1.978430 0.008930 0.015220 
#    y 0.008930 2.050390 0.010040 
#    z 0.015220 0.010040 2.028320 
# 
# From -- ./inp_files/183183.got.cif
#   From: 2010.06.25/outbox.cif.g09.slc.cpg/sg2_92_cif.got.tgz:183183.got - 2010.06.27 13:26:56.
