data_PCOD8004316
_publ_section_title
;
Structure prediction by ZEFSAII (Michael W. Deem and Ramdas Pophale) SiO2 
 PCOD8004316
Probable space group: P -1
;
_chemical_formula_sum "Si O2"
_cell_formula_units_Z 14
_cell_length_a 16.351345
_cell_length_b 11.854728
_cell_length_c 9.442177
_cell_angle_alpha 117.677188
_cell_angle_beta 81.695435
_cell_angle_gamma 151.237020
_cell_volume 614.034244
_symmetry_space_group_name_H-M "P -1"
_symmetry_group_IT_number 2
_symmetry_cell_setting 'triclinic'
loop_
_space_group_symop_operation_xyz
x,y,z
-x,-y,-z
loop_
_atom_site_type_symbol
_atom_site_label
_atom_site_fract_x
_atom_site_fract_y
_atom_site_fract_z
Si Si1 0.046569 0.805030 0.378434
Si Si2 0.853351 0.551210 0.724996
Si Si3 0.637673 0.507820 0.261395
Si Si4 0.363550 0.700658 0.641428
Si Si5 0.199119 0.799681 0.520781
Si Si6 0.768367 0.463380 0.005960
Si Si7 0.342390 0.177750 0.920521
O O1 0.169223 0.853190 0.427437
O O2 0.836941 0.518086 0.360817
O O3 0.966334 0.673578 0.159729
O O4 0.194557 0.140289 0.550990
O O5 0.709626 0.427192 0.577423
O O6 0.740621 0.250784 0.590105
O O7 0.842380 0.602885 0.909880
O O8 0.101125 0.890699 0.810865
O O9 0.583902 0.361447 0.337674
O O10 0.734604 0.546603 0.147041
O O11 0.413494 0.243331 0.100205
O O12 0.560572 0.077377 0.831896
O O13 0.000000 0.500000 0.500000
O O14 0.376694 0.105416 0.764371
O O15 0.500000 0.500000 0.000000
#
# Coordination Sequence:
#
# PCOD8004316 Si02
#       7
#     2   2   2   2   2   2   2
#     4  11  21  42  64  97 122 173 210 264 306 380
#     4  11  24  42  65  98 129 162 210 271 319 362
#     4  11  23  41  69  94 126 167 221 254 311 385
#     4  11  21  40  66  92 125 171 214 252 311 388
#     4  10  20  37  68  86 129 158 219 249 310 370
#     4  11  25  39  65  97 131 163 213 264 325 362
#     4  11  21  41  69  97 119 171 215 253 311 388
#
# _framework density 22.800032000000002
#
# number of rings (size 3 to 8) (size 9 to 14) (size 15 to 20)
#    0.000    1.143    4.286    4.714    6.000    0.571 
#    0.000   10.000    0.000    0.000    0.000    0.000 
#    0.000    0.000    0.000    0.000    0.000    0.000 
#
# Total GULP energy -173530.013368 kJ/mol
# GULP energy per Si atom -12395.000955 kJ/mol
# Density = 2.274814 g / cm^3
# Si number density = 22.800032 Si / 1000 Ang^3
#
#
#
# Elastic Constant Matrix: (Units=GPa)
#
#
# Indices 1 2 3 4 5 6 
#
# 1 75.1271 32.0457 45.1891 -3.0339 20.7393 -37.6442
# 2 32.0457 72.0542 61.2866 -0.5874 1.8744 -27.3909
# 3 45.1891 61.2866 180.2038 -9.1857 31.2161 -23.2703
# 4 -3.0339 -0.5874 -9.1857 48.9604 -10.1650 5.6483
# 5 20.7393 1.8744 31.2161 -10.1650 46.3464 -9.1981
# 6 -37.6442 -27.3909 -23.2703 5.6483 -9.1981 30.6211
#
#
#
# Elastic Compliance Matrix: (Units=1/GPa)
#
#
# Indices 1 2 3 4 5 6 
#
# 1 0.040407 0.004849 -0.004512 -0.005371 -0.006573 0.049600
# 2 0.004849 0.030519 -0.009382 -0.002770 0.008076 0.029068
# 3 -0.004512 -0.009382 0.009824 0.001254 -0.005608 -0.008390
# 4 -0.005371 -0.002770 0.001254 0.022476 0.004428 -0.010943
# 5 -0.006573 0.008076 -0.005608 0.004428 0.029522 0.002933
# 6 0.049600 0.029068 -0.008390 -0.010943 0.002933 0.116158
#
#
# Mechanical properties :
#
#
# Convention : Reuss Voigt Hill
#
# Bulk Modulus (GPa) = 15.95920 67.15864 41.55892
# Shear Modulus (GPa) = 17.36819 37.77648 27.57234
#
# Velocity S-wave (km/s) = 2.76300 4.07487 3.48129
# Velocity P-wave (km/s) = 4.14653 7.18741 5.86739
#
# Compressibility (1/GPa) = 0.06265980
#
# Stress axis : x y z
#
# Youngs Moduli (GPa) = 24.74822 32.76612 101.79637
#
# Poissons Ratio (x) = -0.15889 0.45932
# Poissons Ratio (y) = -0.12001 0.95506
# Poissons Ratio (z) = 0.11167 0.30741
#
# Static dielectric constant tensor:
#      x y z
#    x 4.335100 -0.355360 0.308580 
#    y -0.355360 3.938060 -0.073700 
#    z 0.308580 -0.073700 4.502890 
# 
# 
# High freq. dielectric constant tensor:
#      x y z
#    x 1.882180 -0.025930 0.017530 
#    y -0.025930 1.887030 0.005270 
#    z 0.017530 0.005270 1.926280 
# 
# From -- ./inp_files/332265.got.cif
#   From: 2010.06.25/outbox.cif.g09.slc.cpg/sg2_167_cif.got.tgz:332265.got - 2010.06.27 13:26:56.
