data_PCOD8004523
_publ_section_title
;
Structure prediction by ZEFSAII (Michael W. Deem and Ramdas Pophale) SiO2 
 PCOD8004523
Probable space group: P -1
;
_chemical_formula_sum "Si O2"
_cell_formula_units_Z 14
_cell_length_a 21.595379
_cell_length_b 22.642378
_cell_length_c 11.678276
_cell_angle_alpha 148.991609
_cell_angle_beta 21.003093
_cell_angle_gamma 160.676301
_cell_volume 663.393427
_symmetry_space_group_name_H-M "P -1"
_symmetry_group_IT_number 2
_symmetry_cell_setting 'triclinic'
loop_
_space_group_symop_operation_xyz
x,y,z
-x,-y,-z
loop_
_atom_site_type_symbol
_atom_site_label
_atom_site_fract_x
_atom_site_fract_y
_atom_site_fract_z
Si Si1 0.109644 0.491196 0.594012
Si Si2 0.238031 0.033747 0.123697
Si Si3 0.411852 0.186817 0.552594
Si Si4 0.497936 0.234494 0.224412
Si Si5 0.282641 0.596322 0.217933
Si Si6 0.845068 0.717864 0.122319
Si Si7 0.012043 0.184938 0.220621
O O1 0.276552 0.633674 0.646870
O O2 0.287620 0.597320 0.348241
O O3 0.057391 0.330543 0.444635
O O4 0.824260 0.411449 0.943253
O O5 0.383021 0.082377 0.076826
O O6 0.461345 0.197719 0.922509
O O7 0.000000 0.000000 0.500000
O O8 0.088652 0.847896 0.013655
O O9 0.406130 0.147936 0.364729
O O10 0.252711 0.223863 0.910103
O O11 0.278367 0.014796 0.568314
O O12 0.379393 0.298013 0.502254
O O13 0.000000 0.500000 0.500000
O O14 0.315160 0.484290 0.926390
O O15 0.998665 0.806305 0.882569
#
# Coordination Sequence:
#
# PCOD8004523 Si02
#       7
#     2   2   2   2   2   2   2
#     4  11  21  38  58  87 118 148 195 247 291 337
#     4  10  21  40  59  86 120 157 192 240 290 349
#     4  10  20  38  60  81 116 156 191 236 298 341
#     4  10  21  38  56  88 122 151 196 240 283 363
#     4  11  22  40  62  89 116 151 203 246 287 353
#     4   9  21  40  63  83 119 157 193 243 298 339
#     4   9  20  38  60  86 110 150 201 241 282 355
#
# _framework density 21.103615999999999
#
# number of rings (size 3 to 8) (size 9 to 14) (size 15 to 20)
#    0.000    2.000    1.429    1.714    0.000    4.571 
#    2.571    2.857    0.000    0.000    0.000    0.000 
#    0.000    0.000    0.000    0.000    0.000    0.000 
#
# Total GULP energy -173608.131087 kJ/mol
# GULP energy per Si atom -12400.580792 kJ/mol
# Density = 2.105558 g / cm^3
# Si number density = 21.103616 Si / 1000 Ang^3
#
#
#
# Elastic Constant Matrix: (Units=GPa)
#
#
# Indices 1 2 3 4 5 6 
#
# 1 99.4667 42.3727 21.3377 -0.1708 -1.1177 21.4229
# 2 42.3727 86.7132 32.0818 -9.9003 3.3383 14.1533
# 3 21.3377 32.0818 71.8662 -17.8383 2.4248 -0.0712
# 4 -0.1708 -9.9003 -17.8383 28.4520 3.6885 -6.4710
# 5 -1.1177 3.3383 2.4248 3.6885 23.9397 -6.8430
# 6 21.4229 14.1533 -0.0712 -6.4710 -6.8430 30.4890
#
#
#
# Elastic Compliance Matrix: (Units=1/GPa)
#
#
# Indices 1 2 3 4 5 6 
#
# 1 0.015091 -0.005146 -0.003737 -0.006216 0.000033 -0.009535
# 2 -0.005146 0.017269 -0.005600 0.001847 -0.003756 -0.004864
# 3 -0.003737 -0.005600 0.020802 0.012999 -0.001290 0.007743
# 4 -0.006216 0.001847 0.012999 0.047441 -0.005646 0.012342
# 5 0.000033 -0.003756 -0.001290 -0.005646 0.046424 0.010939
# 6 -0.009535 -0.004864 0.007743 0.012342 0.010939 0.046849
#
#
# Mechanical properties :
#
#
# Convention : Reuss Voigt Hill
#
# Bulk Modulus (GPa) = 41.33137 49.95895 45.64516
# Shear Modulus (GPa) = 21.65368 27.39308 24.52338
#
# Velocity S-wave (km/s) = 3.20670 3.60672 3.41258
# Velocity P-wave (km/s) = 5.77391 6.40852 6.09948
#
# Compressibility (1/GPa) = 0.02419470
#
# Stress axis : x y z
#
# Youngs Moduli (GPa) = 66.26524 57.90883 48.07224
#
# Poissons Ratio (x) = 0.29802 0.17963
# Poissons Ratio (y) = 0.34103 0.26922
# Poissons Ratio (z) = 0.24761 0.32431
#
# Static dielectric constant tensor:
#      x y z
#    x 4.034880 0.265730 0.083800 
#    y 0.265730 3.802450 0.057900 
#    z 0.083800 0.057900 3.765540 
# 
# 
# High freq. dielectric constant tensor:
#      x y z
#    x 1.832980 0.009500 0.007850 
#    y 0.009500 1.816260 -0.009210 
#    z 0.007850 -0.009210 1.825980 
# 
# From -- ./inp_files/37178.got.cif
#   From: 2010.06.25/outbox.cif.g09.slc.cpg/sg2_19_cif.got.tgz:37178.got - 2010.06.27 13:26:56.
