data_PCOD8004267
_publ_section_title
;
Structure prediction by ZEFSAII (Michael W. Deem and Ramdas Pophale) SiO2 
 PCOD8004267
Probable space group: P -1
;
_chemical_formula_sum "Si O2"
_cell_formula_units_Z 16
_cell_length_a 8.853993
_cell_length_b 16.681905
_cell_length_c 5.320118
_cell_angle_alpha 65.546090
_cell_angle_beta 96.380794
_cell_angle_gamma 109.629382
_cell_volume 673.372746
_symmetry_space_group_name_H-M "P -1"
_symmetry_group_IT_number 2
_symmetry_cell_setting 'triclinic'
loop_
_space_group_symop_operation_xyz
x,y,z
-x,-y,-z
loop_
_atom_site_type_symbol
_atom_site_label
_atom_site_fract_x
_atom_site_fract_y
_atom_site_fract_z
Si Si1 0.333445 0.521126 0.450154
Si Si2 0.279001 0.154863 0.994500
Si Si3 0.312281 0.444242 0.045959
Si Si4 0.569291 0.122236 0.592018
Si Si5 0.180040 0.231233 0.368959
Si Si6 0.279121 0.990045 0.898995
Si Si7 0.840772 0.174139 0.196865
Si Si8 0.625400 0.264820 0.793046
O O1 0.500000 0.500000 0.500000
O O2 0.235761 0.477015 0.236201
O O3 0.365981 0.629895 0.327888
O O4 0.234007 0.470613 0.743274
O O5 0.221553 0.207360 0.687319
O O6 0.228711 0.046030 0.044243
O O7 0.472116 0.200199 0.009898
O O8 0.202108 0.164871 0.234568
O O9 0.287389 0.335451 0.190410
O O10 0.500000 0.500000 0.000000
O O11 0.378552 0.065038 0.605268
O O12 0.679494 0.116568 0.390068
O O13 0.594726 0.229243 0.542949
O O14 0.616246 0.073486 0.907778
O O15 0.991235 0.222183 0.340998
O O16 0.126313 0.909355 0.854290
O O17 0.794010 0.254439 0.933531
#
# Coordination Sequence:
#
# PCOD8004267 Si02
#       8
#     2   2   2   2   2   2   2   2
#     4  10  20  37  66  96 123 160 216 281 321 381
#     4  11  25  42  69  99 135 174 234 275 325 400
#     4  10  20  39  64  89 127 170 213 264 330 396
#     4   9  20  40  66  94 135 176 228 270 325 401
#     4  12  27  44  65 103 140 176 216 286 348 388
#     4   9  21  40  65  98 126 181 233 272 320 392
#     4  11  25  41  69  92 145 177 218 277 343 398
#     4  10  23  41  69 102 125 179 230 272 327 405
#
# _framework density 23.760988000000001
#
# number of rings (size 3 to 8) (size 9 to 14) (size 15 to 20)
#    0.000    1.750    0.000    4.875   10.500    1.000 
#    0.000    1.250    0.000    0.000    0.000    0.000 
#    0.000    0.000    0.000    0.000    0.000    0.000 
#
# Total GULP energy -198235.295335 kJ/mol
# GULP energy per Si atom -12389.705958 kJ/mol
# Density = 2.370691 g / cm^3
# Si number density = 23.760988 Si / 1000 Ang^3
#
#
#
# Elastic Constant Matrix: (Units=GPa)
#
#
# Indices 1 2 3 4 5 6 
#
# 1 59.3657 23.9636 12.8419 -0.6840 20.5856 5.3384
# 2 23.9636 154.7850 23.3187 -3.6264 3.5017 -19.0838
# 3 12.8419 23.3187 78.6182 18.5527 -7.0577 -5.8359
# 4 -0.6840 -3.6264 18.5527 37.8844 -4.9040 1.7281
# 5 20.5856 3.5017 -7.0577 -4.9040 17.2770 4.4740
# 6 5.3384 -19.0838 -5.8359 1.7281 4.4740 28.9051
#
#
#
# Elastic Compliance Matrix: (Units=1/GPa)
#
#
# Indices 1 2 3 4 5 6 
#
# 1 0.036480 -0.003768 -0.008986 -0.001032 -0.045654 -0.003911
# 2 -0.003768 0.007942 -0.001554 0.001371 0.001248 0.005350
# 3 -0.008986 -0.001554 0.017915 -0.007150 0.015730 0.002243
# 4 -0.001032 0.001371 -0.007150 0.031171 0.007763 -0.003413
# 5 -0.045654 0.001248 0.015730 0.007763 0.122462 -0.006987
# 6 -0.003911 0.005350 0.002243 -0.003413 -0.006987 0.040589
#
#
# Mechanical properties :
#
#
# Convention : Reuss Voigt Hill
#
# Bulk Modulus (GPa) = 29.65653 45.89081 37.77367
# Shear Modulus (GPa) = 16.86825 32.32295 24.59560
#
# Velocity S-wave (km/s) = 2.66731 3.69228 3.22083
# Velocity P-wave (km/s) = 4.68981 6.12639 5.45559
#
# Compressibility (1/GPa) = 0.03371939
#
# Stress axis : x y z
#
# Youngs Moduli (GPa) = 27.41222 125.92028 55.82030
#
# Poissons Ratio (x) = 0.47441 0.50163
# Poissons Ratio (y) = 0.10328 0.08677
# Poissons Ratio (z) = 0.24634 0.19574
#
# Static dielectric constant tensor:
#      x y z
#    x 3.910680 -0.063560 0.163640 
#    y -0.063560 4.730500 0.916250 
#    z 0.163640 0.916250 5.893940 
# 
# 
# High freq. dielectric constant tensor:
#      x y z
#    x 1.897640 -0.008290 0.009920 
#    y -0.008290 1.954900 0.010630 
#    z 0.009920 0.010630 1.946740 
# 
# From -- ./inp_files/37484.got.cif
#   From: 2010.06.25/outbox.cif.g09.slc.cpg/sg2_19_cif.got.tgz:37484.got - 2010.06.27 13:26:56.
