data_PCOD8004551
_publ_section_title
;
Structure prediction by ZEFSAII (Michael W. Deem and Ramdas Pophale) SiO2 
 PCOD8004551
Probable space group: P -1
;
_chemical_formula_sum "Si O2"
_cell_formula_units_Z 16
_cell_length_a 16.844582
_cell_length_b 12.896128
_cell_length_c 5.147269
_cell_angle_alpha 76.427600
_cell_angle_beta 86.989531
_cell_angle_gamma 48.083383
_cell_volume 800.348432
_symmetry_space_group_name_H-M "P -1"
_symmetry_group_IT_number 2
_symmetry_cell_setting 'triclinic'
loop_
_space_group_symop_operation_xyz
x,y,z
-x,-y,-z
loop_
_atom_site_type_symbol
_atom_site_label
_atom_site_fract_x
_atom_site_fract_y
_atom_site_fract_z
Si Si1 0.172660 0.271239 0.100707
Si Si2 0.223634 0.513067 0.281746
Si Si3 0.605644 0.310849 0.357078
Si Si4 0.460852 0.921406 0.967753
Si Si5 0.337428 0.976129 0.460353
Si Si6 0.635892 0.417126 0.788437
Si Si7 0.028299 0.564209 0.254327
Si Si8 0.693277 0.666452 0.128069
O O1 0.108725 0.430688 0.125959
O O2 0.219850 0.140681 0.370245
O O3 0.273498 0.237087 0.955130
O O4 0.084851 0.289711 0.926806
O O5 0.260195 0.601661 0.263310
O O6 0.096316 0.606008 0.317269
O O7 0.290067 0.379078 0.548114
O O8 0.242393 0.466170 0.005515
O O9 0.666798 0.144033 0.389793
O O10 0.639777 0.322572 0.625734
O O11 0.475701 0.414467 0.308718
O O12 0.645657 0.356240 0.105274
O O13 0.385545 0.935928 0.186692
O O14 0.569771 0.754097 0.024040
O O15 0.405047 0.978299 0.662896
O O16 0.500000 0.000000 0.000000
O O17 0.000000 0.500000 0.500000
#
# Coordination Sequence:
#
# PCOD8004551 Si02
#       8
#     2   2   2   2   2   2   2   2
#     4  10  23  37  58  84 121 158 196 239 295 354
#     4  11  22  36  64  86 116 154 203 249 300 341
#     4  10  21  38  60  84 118 154 201 237 295 349
#     4  12  24  35  54  86 129 162 190 226 283 366
#     4  12  25  39  59  87 124 168 193 238 297 358
#     4  10  20  38  60  85 114 154 197 252 286 347
#     4  10  21  40  60  86 116 156 201 250 295 356
#     4  11  21  35  55  87 122 158 189 233 291 364
#
# _framework density 19.991292999999999
#
# number of rings (size 3 to 8) (size 9 to 14) (size 15 to 20)
#    0.000    1.250    2.500    4.125    5.250    2.000 
#    0.000    0.000    0.000    1.500    0.000    0.000 
#    0.000    0.000    0.000    0.000    0.000    0.000 
#
# Total GULP energy -198300.363476 kJ/mol
# GULP energy per Si atom -12393.772717 kJ/mol
# Density = 1.994579 g / cm^3
# Si number density = 19.991293 Si / 1000 Ang^3
#
#
#
# Elastic Constant Matrix: (Units=GPa)
#
#
# Indices 1 2 3 4 5 6 
#
# 1 129.9300 23.1289 40.4445 -14.0181 11.3112 -2.4104
# 2 23.1289 45.4726 26.4326 -12.3036 11.5205 5.1508
# 3 40.4445 26.4326 98.0494 -9.0416 13.5404 -8.5742
# 4 -14.0181 -12.3036 -9.0416 35.3809 -7.3147 0.6272
# 5 11.3112 11.5205 13.5404 -7.3147 34.6990 -6.0355
# 6 -2.4104 5.1508 -8.5742 0.6272 -6.0355 28.7929
#
#
#
# Elastic Compliance Matrix: (Units=1/GPa)
#
#
# Indices 1 2 3 4 5 6 
#
# 1 0.009296 -0.002344 -0.002914 0.001982 -0.000672 0.000146
# 2 -0.002344 0.032054 -0.006844 0.007113 -0.007391 -0.009673
# 3 -0.002914 -0.006844 0.013827 -0.000379 -0.001417 0.004809
# 4 0.001982 0.007113 -0.000379 0.032218 0.003734 -0.001138
# 5 -0.000672 -0.007391 -0.001417 0.003734 0.034212 0.007934
# 6 0.000146 -0.009673 0.004809 -0.001138 0.007934 0.039593
#
#
# Mechanical properties :
#
#
# Convention : Reuss Voigt Hill
#
# Bulk Modulus (GPa) = 32.28619 50.38489 41.33554
# Shear Modulus (GPa) = 25.54544 32.00428 28.77486
#
# Velocity S-wave (km/s) = 3.57855 4.00548 3.79802
# Velocity P-wave (km/s) = 5.76714 6.83008 6.32099
#
# Compressibility (1/GPa) = 0.03097300
#
# Stress axis : x y z
#
# Youngs Moduli (GPa) = 107.57447 31.19699 72.32100
#
# Poissons Ratio (x) = 0.07314 0.21076
# Poissons Ratio (y) = 0.25220 0.49494
# Poissons Ratio (z) = 0.31350 0.21350
#
# Static dielectric constant tensor:
#      x y z
#    x 3.762110 0.059320 0.243050 
#    y 0.059320 3.033820 -0.139410 
#    z 0.243050 -0.139410 3.781810 
# 
# 
# High freq. dielectric constant tensor:
#      x y z
#    x 1.777530 -0.005310 0.004780 
#    y -0.005310 1.743760 0.011060 
#    z 0.004780 0.011060 1.791830 
# 
# From -- ./inp_files/81207.got.cif
#   From: 2010.06.25/outbox.cif.g09.slc.cpg/sg2_41_cif.got.tgz:81207.got - 2010.06.27 13:26:56.
