data_PCOD8004251
_publ_section_title
;
Structure prediction by ZEFSAII (Michael W. Deem and Ramdas Pophale) SiO2 
 PCOD8004251
Probable space group: P -1
;
_chemical_formula_sum "Si O2"
_cell_formula_units_Z 12
_cell_length_a 5.173934
_cell_length_b 9.711002
_cell_length_c 11.190546
_cell_angle_alpha 66.357266
_cell_angle_beta 104.584838
_cell_angle_gamma 100.277339
_cell_volume 496.562660
_symmetry_space_group_name_H-M "P -1"
_symmetry_group_IT_number 2
_symmetry_cell_setting 'triclinic'
loop_
_space_group_symop_operation_xyz
x,y,z
-x,-y,-z
loop_
_atom_site_type_symbol
_atom_site_label
_atom_site_fract_x
_atom_site_fract_y
_atom_site_fract_z
Si Si1 0.408039 0.921219 0.328824
Si Si2 0.502017 0.376449 0.646731
Si Si3 0.099807 0.374747 0.810345
Si Si4 0.290478 0.191707 0.091886
Si Si5 0.877708 0.325965 0.169564
Si Si6 0.187078 0.869976 0.557184
O O1 0.600011 0.795328 0.347906
O O2 0.214709 0.827925 0.435115
O O3 0.262699 0.009136 0.175512
O O4 0.540693 0.063746 0.369191
O O5 0.500000 0.500000 0.500000
O O6 0.804794 0.356707 0.728594
O O7 0.316666 0.424352 0.715933
O O8 0.117063 0.493809 0.881083
O O9 0.171632 0.219777 0.936282
O O10 0.602233 0.256263 0.103387
O O11 0.128563 0.276394 0.143081
O O12 0.922205 0.276551 0.330323
O O13 0.000000 0.000000 0.500000
#
# Coordination Sequence:
#
# PCOD8004251 Si02
#       6
#     2   2   2   2   2   2
#     4  10  24  40  63  97 128 164 218 262 316 376
#     4  12  28  45  65  92 132 173 212 260 316 391
#     4  12  26  43  67  94 132 174 208 256 325 385
#     4  11  23  42  67  98 126 168 213 270 315 368
#     4  11  22  40  68  97 131 161 218 266 314 373
#     4  10  20  37  66  92 122 163 211 269 313 354
#
# _framework density 24.166132999999999
#
# number of rings (size 3 to 8) (size 9 to 14) (size 15 to 20)
#    0.000    1.000    1.667    4.500    4.667    1.333 
#    0.000    0.000    0.000    0.000    0.000    0.000 
#    0.000    0.000    0.000    0.000    0.000    0.000 
#
# Total GULP energy -148732.069895 kJ/mol
# GULP energy per Si atom -12394.339158 kJ/mol
# Density = 2.411113 g / cm^3
# Si number density = 24.166133 Si / 1000 Ang^3
#
#
#
# Elastic Constant Matrix: (Units=GPa)
#
#
# Indices 1 2 3 4 5 6 
#
# 1 77.1348 -1.9619 12.4007 -2.1752 7.2618 -18.3114
# 2 -1.9619 83.8399 5.8610 -13.1576 -0.9737 -19.2112
# 3 12.4007 5.8610 146.6303 -25.1190 8.8432 0.3301
# 4 -2.1752 -13.1576 -25.1190 28.7305 -6.8311 1.7013
# 5 7.2618 -0.9737 8.8432 -6.8311 34.7619 2.2652
# 6 -18.3114 -19.2112 0.3301 1.7013 2.2652 34.8878
#
#
#
# Elastic Compliance Matrix: (Units=1/GPa)
#
#
# Indices 1 2 3 4 5 6 
#
# 1 0.015987 0.002727 -0.001287 -0.000128 -0.003622 0.010146
# 2 0.002727 0.015243 0.000310 0.007028 0.000544 0.009444
# 3 -0.001287 0.000310 0.008165 0.007157 -0.000334 -0.000910
# 4 -0.000128 0.007028 0.007157 0.045965 0.007369 0.001015
# 5 -0.003622 0.000544 -0.000334 0.007369 0.031332 -0.003992
# 6 0.010146 0.009444 -0.000910 0.001015 -0.003992 0.039407
#
#
# Mechanical properties :
#
#
# Convention : Reuss Voigt Hill
#
# Bulk Modulus (GPa) = 23.31385 37.80051 30.55718
# Shear Modulus (GPa) = 29.95851 39.09640 34.52746
#
# Velocity S-wave (km/s) = 3.52474 4.02657 3.78399
# Velocity P-wave (km/s) = 5.12185 6.10685 5.63591
#
# Compressibility (1/GPa) = 0.04289295
#
# Stress axis : x y z
#
# Youngs Moduli (GPa) = 62.55233 65.60421 122.47929
#
# Poissons Ratio (x) = -0.17888 0.15768
# Poissons Ratio (y) = -0.17056 -0.03798
# Poissons Ratio (z) = 0.08053 -0.02034
#
# Static dielectric constant tensor:
#      x y z
#    x 3.900490 -0.883730 -0.597770 
#    y -0.883730 1.456290 -2.165800 
#    z -0.597770 -2.165800 3.533540 
# 
# 
# High freq. dielectric constant tensor:
#      x y z
#    x 1.952440 -0.017730 -0.000990 
#    y -0.017730 1.942250 -0.013000 
#    z -0.000990 -0.013000 1.988250 
# 
# From -- ./inp_files/79089.got.cif
#   From: 2010.06.25/outbox.cif.g09.slc.cpg/sg2_40_cif.got.tgz:79089.got - 2010.06.27 13:26:56.
