data_PCOD8004735
_publ_section_title
;
Structure prediction by ZEFSAII (Michael W. Deem and Ramdas Pophale) SiO2 
 PCOD8004735
Probable space group: P -1
;
_chemical_formula_sum "Si O2"
_cell_formula_units_Z 12
_cell_length_a 24.358373
_cell_length_b 24.455515
_cell_length_c 10.865399
_cell_angle_alpha 157.578345
_cell_angle_beta 156.313775
_cell_angle_gamma 11.837984
_cell_volume 501.402058
_symmetry_space_group_name_H-M "P -1"
_symmetry_group_IT_number 2
_symmetry_cell_setting 'triclinic'
loop_
_space_group_symop_operation_xyz
x,y,z
-x,-y,-z
loop_
_atom_site_type_symbol
_atom_site_label
_atom_site_fract_x
_atom_site_fract_y
_atom_site_fract_z
Si Si1 0.834042 0.633902 0.561967
Si Si2 0.165792 0.048364 0.771980
Si Si3 0.747060 0.966079 0.803357
Si Si4 0.889260 0.438609 0.642546
Si Si5 0.671516 0.460138 0.459482
Si Si6 0.633443 0.181210 0.764123
O O1 0.000000 0.500000 0.500000
O O2 0.017479 0.354421 0.433551
O O3 0.532821 0.859823 0.381054
O O4 0.813901 0.808649 0.944944
O O5 0.402620 0.739673 0.561856
O O6 0.891151 0.229992 0.536292
O O7 0.159135 0.045422 0.900934
O O8 0.696605 0.124563 0.921546
O O9 0.751390 0.517588 0.652530
O O10 0.654945 0.636114 0.469137
O O11 0.137841 0.106443 0.441828
O O12 0.000000 0.500000 0.000000
O O13 0.625198 0.355143 0.068537
#
# Coordination Sequence:
#
# PCOD8004735 Si02
#       6
#     2   2   2   2   2   2
#     4  10  20  38  61  97 140 182 222 275 331 393
#     4  11  23  40  69 105 140 181 228 273 348 414
#     4  11  23  40  68 103 143 179 223 282 344 410
#     4  12  28  49  73 101 133 182 244 290 335 405
#     4  12  26  45  73 100 144 185 225 284 345 417
#     4  12  27  48  71 102 143 183 224 288 352 407
#
# _framework density 23.932888999999999
#
# number of rings (size 3 to 8) (size 9 to 14) (size 15 to 20)
#    0.000    0.667    0.000    9.500    7.000    1.333 
#    0.000    0.000    0.000    0.000    0.000    0.000 
#    0.000    0.000    0.000    0.000    0.000    0.000 
#
# Total GULP energy -148798.805291 kJ/mol
# GULP energy per Si atom -12399.900441 kJ/mol
# Density = 2.387842 g / cm^3
# Si number density = 23.932889 Si / 1000 Ang^3
#
#
#
# Elastic Constant Matrix: (Units=GPa)
#
#
# Indices 1 2 3 4 5 6 
#
# 1 91.6302 24.9132 30.4286 -11.5390 -3.5876 11.3770
# 2 24.9132 183.6439 59.2831 -1.5005 -14.5475 -3.7878
# 3 30.4286 59.2831 137.5912 1.6977 2.4904 2.6854
# 4 -11.5390 -1.5005 1.6977 46.6161 -5.6408 -4.8463
# 5 -3.5876 -14.5475 2.4904 -5.6408 24.8672 2.1258
# 6 11.3770 -3.7878 2.6854 -4.8463 2.1258 41.4530
#
#
#
# Elastic Compliance Matrix: (Units=1/GPa)
#
#
# Indices 1 2 3 4 5 6 
#
# 1 0.012875 -0.000750 -0.002551 0.003248 0.002684 -0.003195
# 2 -0.000750 0.006842 -0.002886 0.000749 0.004278 0.000886
# 3 -0.002551 -0.002886 0.009156 -0.001473 -0.003294 -0.000160
# 4 0.003248 0.000749 -0.001473 0.023256 0.006187 0.001674
# 5 0.002684 0.004278 -0.003294 0.006187 0.044983 -0.001716
# 6 -0.003195 0.000886 -0.000160 0.001674 -0.001716 0.025376
#
#
# Mechanical properties :
#
#
# Convention : Reuss Voigt Hill
#
# Bulk Modulus (GPa) = 60.60489 71.34611 65.97550
# Shear Modulus (GPa) = 35.62210 42.46995 39.04603
#
# Velocity S-wave (km/s) = 3.86219 4.21710 4.04354
# Velocity P-wave (km/s) = 6.72803 7.32035 7.03043
#
# Compressibility (1/GPa) = 0.01650032
#
# Stress axis : x y z
#
# Youngs Moduli (GPa) = 77.66878 146.15597 109.21342
#
# Poissons Ratio (x) = 0.10962 0.27855
# Poissons Ratio (y) = 0.05825 0.31520
# Poissons Ratio (z) = 0.19810 0.42182
#
# Static dielectric constant tensor:
#      x y z
#    x 4.311990 0.490880 0.211440 
#    y 0.490880 5.314590 0.356620 
#    z 0.211440 0.356620 4.475380 
# 
# 
# High freq. dielectric constant tensor:
#      x y z
#    x 1.946220 0.003280 -0.001690 
#    y 0.003280 1.976110 -0.000420 
#    z -0.001690 -0.000420 1.943690 
# 
# From -- ./inp_files/53035.got.cif
#   From: 2010.06.25/outbox.cif.g09.slc.cpg/sg2_27_cif.got.tgz:53035.got - 2010.06.27 13:26:56.
