data_PCOD8004608
_publ_section_title
;
Structure prediction by ZEFSAII (Michael W. Deem and Ramdas Pophale) SiO2 
 PCOD8004608
Probable space group: P -1
;
_chemical_formula_sum "Si O2"
_cell_formula_units_Z 14
_cell_length_a 9.099366
_cell_length_b 14.955248
_cell_length_c 9.764608
_cell_angle_alpha 46.878549
_cell_angle_beta 67.604210
_cell_angle_gamma 46.201994
_cell_volume 689.279648
_symmetry_space_group_name_H-M "P -1"
_symmetry_group_IT_number 2
_symmetry_cell_setting 'triclinic'
loop_
_space_group_symop_operation_xyz
x,y,z
-x,-y,-z
loop_
_atom_site_type_symbol
_atom_site_label
_atom_site_fract_x
_atom_site_fract_y
_atom_site_fract_z
Si Si1 0.555596 0.042922 0.637074
Si Si2 0.659948 0.081104 0.269912
Si Si3 0.709170 0.310767 0.917114
Si Si4 0.508090 0.403902 0.475076
Si Si5 0.874760 0.129619 0.761715
Si Si6 0.140412 0.130261 0.035974
Si Si7 0.777557 0.670458 0.372438
O O1 0.657219 0.060276 0.454307
O O2 0.349923 0.222482 0.560475
O O3 0.492886 0.935398 0.736005
O O4 0.732120 0.950189 0.786449
O O5 0.585322 0.256902 0.080529
O O6 0.891356 0.951651 0.268494
O O7 0.552706 0.501409 0.746596
O O8 0.811070 0.227331 0.821578
O O9 0.891161 0.264553 0.005396
O O10 0.500000 0.500000 0.500000
O O11 0.742050 0.238138 0.562458
O O12 0.354178 0.370982 0.607775
O O13 0.833530 0.004297 0.926475
O O14 0.219104 0.213492 0.847632
O O15 0.000000 0.500000 0.500000
#
# Coordination Sequence:
#
# PCOD8004608 Si02
#       7
#     2   2   2   2   2   2   2
#     4  11  24  40  61  90 116 162 197 246 300 340
#     4  10  23  41  61  85 125 154 200 245 293 356
#     4  10  20  38  60  91 120 158 192 244 296 350
#     4  10  22  36  57  93 120 153 193 240 306 342
#     4  10  20  38  62  89 118 157 200 241 291 351
#     4  11  21  36  63  87 114 153 203 245 291 339
#     4  12  23  39  61  90 122 150 199 253 287 352
#
# _framework density 20.311060000000001
#
# number of rings (size 3 to 8) (size 9 to 14) (size 15 to 20)
#    0.000    1.429    2.857    3.857    6.000    2.286 
#    0.000    2.143    0.000    3.429    0.000    0.000 
#    0.000    0.000    0.000    0.000    0.000    0.000 
#
# Total GULP energy -173472.169786 kJ/mol
# GULP energy per Si atom -12390.869270 kJ/mol
# Density = 2.026483 g / cm^3
# Si number density = 20.311060 Si / 1000 Ang^3
#
#
#
# Elastic Constant Matrix: (Units=GPa)
#
#
# Indices 1 2 3 4 5 6 
#
# 1 97.5498 16.7730 50.5300 -2.2938 -4.7089 -4.5862
# 2 16.7730 38.1239 42.9843 -4.6457 3.9403 -2.5778
# 3 50.5300 42.9843 132.3781 -14.7896 -4.9150 -18.2040
# 4 -2.2938 -4.6457 -14.7896 36.4554 -7.0154 5.9064
# 5 -4.7089 3.9403 -4.9150 -7.0154 48.9374 -10.4662
# 6 -4.5862 -2.5778 -18.2040 5.9064 -10.4662 20.9045
#
#
#
# Elastic Compliance Matrix: (Units=1/GPa)
#
#
# Indices 1 2 3 4 5 6 
#
# 1 0.012871 -0.000092 -0.005155 -0.001034 0.000318 -0.001226
# 2 -0.000092 0.045047 -0.016739 -0.000525 -0.008169 -0.012984
# 3 -0.005155 -0.016739 0.017526 0.003544 0.006145 0.014142
# 4 -0.001034 -0.000525 0.003544 0.030084 0.003798 -0.003804
# 5 0.000318 -0.008169 0.006145 0.003798 0.025756 0.016236
# 6 -0.001226 -0.012984 0.014142 -0.003804 0.016236 0.067485
#
#
# Mechanical properties :
#
#
# Convention : Reuss Voigt Hill
#
# Bulk Modulus (GPa) = 31.77570 54.29182 43.03376
# Shear Modulus (GPa) = 19.74472 31.77711 25.76092
#
# Velocity S-wave (km/s) = 3.12126 3.95970 3.56521
# Velocity P-wave (km/s) = 5.35427 6.90607 6.17908
#
# Compressibility (1/GPa) = 0.03147059
#
# Stress axis : x y z
#
# Youngs Moduli (GPa) = 77.69533 22.19923 57.05717
#
# Poissons Ratio (x) = 0.00203 0.29415
# Poissons Ratio (y) = 0.00712 0.95511
# Poissons Ratio (z) = 0.40055 0.37160
#
# Static dielectric constant tensor:
#      x y z
#    x 4.895160 -1.236950 1.017760 
#    y -1.236950 5.233610 -1.847070 
#    z 1.017760 -1.847070 5.268020 
# 
# 
# High freq. dielectric constant tensor:
#      x y z
#    x 1.815960 0.000580 -0.001500 
#    y 0.000580 1.758770 -0.029730 
#    z -0.001500 -0.029730 1.802330 
# 
# From -- ./inp_files/199071.got.cif
#   From: 2010.06.25/outbox.cif.g09.slc.cpg/sg2_100_cif.got.tgz:199071.got - 2010.06.27 13:26:56.
