data_PCOD8004215
_publ_section_title
;
Structure prediction by ZEFSAII (Michael W. Deem and Ramdas Pophale) SiO2 
 PCOD8004215
Probable space group: P -1
;
_chemical_formula_sum "Si O2"
_cell_formula_units_Z 12
_cell_length_a 15.470679
_cell_length_b 18.447082
_cell_length_c 23.511082
_cell_angle_alpha 168.232390
_cell_angle_beta 157.160465
_cell_angle_gamma 25.375498
_cell_volume 531.081557
_symmetry_space_group_name_H-M "P -1"
_symmetry_group_IT_number 2
_symmetry_cell_setting 'triclinic'
loop_
_space_group_symop_operation_xyz
x,y,z
-x,-y,-z
loop_
_atom_site_type_symbol
_atom_site_label
_atom_site_fract_x
_atom_site_fract_y
_atom_site_fract_z
Si Si1 0.000425 0.393572 0.779419
Si Si2 0.083172 0.766254 0.804281
Si Si3 0.352369 0.469383 0.610816
Si Si4 0.737671 0.747643 0.797134
Si Si5 0.406218 0.390538 0.244136
Si Si6 0.494635 0.654261 0.269291
O O1 0.874383 0.450852 0.687088
O O2 0.861205 0.615292 0.913675
O O3 0.000000 0.000000 0.500000
O O4 0.249791 0.504174 0.005700
O O5 0.325956 0.623569 0.863096
O O6 0.000000 0.500000 0.500000
O O7 0.881525 0.736750 0.705948
O O8 0.111514 0.153750 0.090787
O O9 0.525809 0.406914 0.616868
O O10 0.447540 0.274247 0.574715
O O11 0.313724 0.893433 0.922156
O O12 0.505588 0.587719 0.511513
O O13 0.500000 0.000000 0.000000
O O14 0.500000 0.000000 0.500000
#
# Coordination Sequence:
#
# PCOD8004215 Si02
#       6
#     2   2   2   2   2   2
#     4  12  24  40  65  96 134 167 208 273 332 370
#     4   8  17  37  68  89 118 169 217 253 311 383
#     4  10  21  42  69  96 124 172 220 258 317 394
#     4  10  21  43  64  89 128 172 218 261 309 390
#     4  12  26  40  67  92 127 177 221 253 315 392
#     4  10  20  37  65  95 128 164 209 266 328 371
#
# _framework density 22.595400000000001
#
# number of rings (size 3 to 8) (size 9 to 14) (size 15 to 20)
#    0.000    2.000    1.667    5.500    2.333    1.333 
#    0.000    0.000    0.000    9.000    0.000    0.000 
#    0.000    0.000    0.000    0.000    0.000    0.000 
#
# Total GULP energy -148693.180463 kJ/mol
# GULP energy per Si atom -12391.098372 kJ/mol
# Density = 2.254397 g / cm^3
# Si number density = 22.595400 Si / 1000 Ang^3
#
#
#
# Elastic Constant Matrix: (Units=GPa)
#
#
# Indices 1 2 3 4 5 6 
#
# 1 140.2985 79.0432 19.6262 4.0413 34.6651 -6.1226
# 2 79.0432 150.4825 52.0956 5.7688 34.0853 1.7432
# 3 19.6262 52.0956 90.0207 2.4991 38.0615 1.1173
# 4 4.0413 5.7688 2.4991 44.7355 2.0917 16.1730
# 5 34.6651 34.0853 38.0615 2.0917 35.6959 -1.8097
# 6 -6.1226 1.7432 1.1173 16.1730 -1.8097 51.6694
#
#
#
# Elastic Compliance Matrix: (Units=1/GPa)
#
#
# Indices 1 2 3 4 5 6 
#
# 1 0.013050 -0.005957 0.006396 -0.000604 -0.013702 0.001318
# 2 -0.005957 0.011602 -0.005733 -0.000376 0.000799 -0.000828
# 3 0.006396 -0.005733 0.024333 0.000267 -0.026729 -0.000595
# 4 -0.000604 -0.000376 0.000267 0.025415 -0.001237 -0.008063
# 5 -0.013702 0.000799 -0.026729 -0.001237 0.069218 0.001739
# 6 0.001318 -0.000828 -0.000595 -0.008063 0.001739 0.022135
#
#
# Mechanical properties :
#
#
# Convention : Reuss Voigt Hill
#
# Bulk Modulus (GPa) = 26.04364 75.81466 50.92915
# Shear Modulus (GPa) = 26.43557 41.75594 34.09575
#
# Velocity S-wave (km/s) = 3.42417 4.30348 3.88876
# Velocity P-wave (km/s) = 5.21386 7.63670 6.53849
#
# Compressibility (1/GPa) = 0.03839710
#
# Stress axis : x y z
#
# Youngs Moduli (GPa) = 76.62990 86.19208 41.09708
#
# Poissons Ratio (x) = 0.51348 -0.26287
# Poissons Ratio (y) = 0.45651 0.23559
# Poissons Ratio (z) = -0.49015 0.49411
#
# Static dielectric constant tensor:
#      x y z
#    x 4.523240 0.019380 0.272360 
#    y 0.019380 4.048480 -0.040120 
#    z 0.272360 -0.040120 3.913810 
# 
# 
# High freq. dielectric constant tensor:
#      x y z
#    x 1.909360 -0.005230 0.037770 
#    y -0.005230 1.884950 -0.009940 
#    z 0.037770 -0.009940 1.883210 
# 
# From -- ./inp_files/620511.got.cif
#   From: 2010.06.25/outbox.cif.g09.slc.cpg/sg2_311_cif.got.tgz:620511.got - 2010.06.27 13:26:56.
